# generated using pymatgen
data_Dy3S2Cl5
_symmetry_space_group_name_H-M   'P 1'
_cell_length_a   6.38704220
_cell_length_b   6.81623575
_cell_length_c   21.81445836
_cell_angle_alpha   90.00000000
_cell_angle_beta   90.00000000
_cell_angle_gamma   90.00000000
_symmetry_Int_Tables_number   1
_chemical_formula_structural   Dy3S2Cl5
_chemical_formula_sum   'Dy12 S8 Cl20'
_cell_volume   949.70521446
_cell_formula_units_Z   4
loop_
 _symmetry_equiv_pos_site_id
 _symmetry_equiv_pos_as_xyz
  1  'x, y, z'
loop_
 _atom_site_type_symbol
 _atom_site_label
 _atom_site_symmetry_multiplicity
 _atom_site_fract_x
 _atom_site_fract_y
 _atom_site_fract_z
 _atom_site_occupancy
  S  S0  1  0.808294  0.328569  0.672330  1
  S  S1  1  0.308294  0.171431  0.172330  1
  S  S2  1  0.808294  0.328569  0.827670  1
  S  S3  1  0.191706  0.671431  0.327670  1
  S  S4  1  0.691706  0.828569  0.672330  1
  S  S5  1  0.691706  0.828569  0.827670  1
  S  S6  1  0.191706  0.671431  0.172330  1
  S  S7  1  0.308294  0.171431  0.327670  1
  Cl  Cl8  1  0.154544  0.682385  0.750000  1
  Cl  Cl9  1  0.654544  0.817615  0.250000  1
  Cl  Cl10  1  0.345456  0.182386  0.750000  1
  Cl  Cl11  1  0.845456  0.317615  0.250000  1
  Cl  Cl12  1  0.834891  0.038733  0.117387  1
  Cl  Cl13  1  0.834891  0.038733  0.382613  1
  Cl  Cl14  1  0.334891  0.461267  0.882613  1
  Cl  Cl15  1  0.665109  0.538733  0.382613  1
  Cl  Cl16  1  0.165109  0.961267  0.617387  1
  Cl  Cl17  1  0.165109  0.961267  0.882613  1
  Cl  Cl18  1  0.665109  0.538733  0.117387  1
  Cl  Cl19  1  0.334891  0.461267  0.617387  1
  Cl  Cl20  1  0.323329  0.167627  0.020185  1
  Cl  Cl21  1  0.823329  0.332373  0.979815  1
  Cl  Cl22  1  0.176671  0.667627  0.479815  1
  Cl  Cl23  1  0.676671  0.832373  0.520185  1
  Cl  Cl24  1  0.676671  0.832373  0.979815  1
  Cl  Cl25  1  0.176671  0.667627  0.020185  1
  Cl  Cl26  1  0.823329  0.332373  0.520185  1
  Cl  Cl27  1  0.323329  0.167627  0.479815  1
  Dy  Dy28  1  0.049112  0.380015  0.401901  1
  Dy  Dy29  1  0.549112  0.119985  0.598099  1
  Dy  Dy30  1  0.450888  0.880015  0.098099  1
  Dy  Dy31  1  0.950888  0.619985  0.901901  1
  Dy  Dy32  1  0.950888  0.619985  0.598099  1
  Dy  Dy33  1  0.450888  0.880015  0.401901  1
  Dy  Dy34  1  0.549112  0.119985  0.901901  1
  Dy  Dy35  1  0.049112  0.380015  0.098099  1
  Dy  Dy36  1  0.550408  0.537464  0.750000  1
  Dy  Dy37  1  0.050408  0.962536  0.250000  1
  Dy  Dy38  1  0.949592  0.037464  0.750000  1
  Dy  Dy39  1  0.449592  0.462536  0.250000  1
