# generated using pymatgen
data_Sb2MoS
_symmetry_space_group_name_H-M   'P 1'
_cell_length_a   6.46082801
_cell_length_b   6.61416770
_cell_length_c   18.79409710
_cell_angle_alpha   94.92363548
_cell_angle_beta   99.89740601
_cell_angle_gamma   89.99999999
_symmetry_Int_Tables_number   1
_chemical_formula_structural   Sb2MoS
_chemical_formula_sum   'Sb16 Mo8 S8'
_cell_volume   788.16677758
_cell_formula_units_Z   8
loop_
 _symmetry_equiv_pos_site_id
 _symmetry_equiv_pos_as_xyz
  1  'x, y, z'
loop_
 _atom_site_type_symbol
 _atom_site_label
 _atom_site_symmetry_multiplicity
 _atom_site_fract_x
 _atom_site_fract_y
 _atom_site_fract_z
 _atom_site_occupancy
  S  S0  1  0.671617  0.587337  0.343234  1
  S  S1  1  0.328383  0.412663  0.656766  1
  S  S2  1  0.671597  0.587939  0.843066  1
  S  S3  1  0.828531  0.412061  0.156934  1
  S  S4  1  0.328403  0.412061  0.156934  1
  S  S5  1  0.171469  0.587939  0.843066  1
  S  S6  1  0.171680  0.587497  0.343361  1
  S  S7  1  0.828320  0.412503  0.656639  1
  Mo  Mo8  1  0.122116  0.329124  0.244233  1
  Mo  Mo9  1  0.877884  0.670876  0.755767  1
  Mo  Mo10  1  0.622144  0.329568  0.743903  1
  Mo  Mo11  1  0.878241  0.670432  0.256097  1
  Mo  Mo12  1  0.377856  0.670432  0.256097  1
  Mo  Mo13  1  0.121759  0.329568  0.743903  1
  Mo  Mo14  1  0.622071  0.328619  0.244143  1
  Mo  Mo15  1  0.377929  0.671381  0.755857  1
  Sb  Sb16  1  0.009814  0.794840  0.019627  1
  Sb  Sb17  1  0.990186  0.205160  0.980373  1
  Sb  Sb18  1  0.509877  0.794852  0.019755  1
  Sb  Sb19  1  0.490123  0.205148  0.980245  1
  Sb  Sb20  1  0.086131  0.922473  0.172261  1
  Sb  Sb21  1  0.913869  0.077527  0.827739  1
  Sb  Sb22  1  0.586654  0.923719  0.673882  1
  Sb  Sb23  1  0.912772  0.076281  0.326118  1
  Sb  Sb24  1  0.413346  0.076281  0.326118  1
  Sb  Sb25  1  0.087228  0.923719  0.673882  1
  Sb  Sb26  1  0.586176  0.922436  0.172353  1
  Sb  Sb27  1  0.413824  0.077564  0.827647  1
  Sb  Sb28  1  0.487332  0.793517  0.519956  1
  Sb  Sb29  1  0.967376  0.206483  0.480044  1
  Sb  Sb30  1  0.512668  0.206483  0.480044  1
  Sb  Sb31  1  0.032624  0.793517  0.519956  1
