# generated using pymatgen
data_Al2FeO4
_symmetry_space_group_name_H-M   'P 1'
_cell_length_a   5.81678008
_cell_length_b   5.82145223
_cell_length_c   17.52956691
_cell_angle_alpha   60.01937809
_cell_angle_beta   60.05202023
_cell_angle_gamma   60.13182367
_symmetry_Int_Tables_number   1
_chemical_formula_structural   Al2FeO4
_chemical_formula_sum   'Al12 Fe6 O24'
_cell_volume   420.37366554
_cell_formula_units_Z   6
loop_
 _symmetry_equiv_pos_site_id
 _symmetry_equiv_pos_as_xyz
  1  'x, y, z'
loop_
 _atom_site_type_symbol
 _atom_site_label
 _atom_site_symmetry_multiplicity
 _atom_site_fract_x
 _atom_site_fract_y
 _atom_site_fract_z
 _atom_site_occupancy
  Al  Al0  1  0.497727  0.496693  0.167883  1
  Al  Al1  1  0.499142  0.499105  0.333465  1
  Al  Al2  1  0.497025  0.002401  0.169119  1
  Al  Al3  1  0.003127  0.495486  0.169511  1
  Al  Al4  1  0.497572  0.501298  0.499387  1
  Al  Al5  1  0.501561  0.501460  0.664556  1
  Al  Al6  1  0.498152  0.002057  0.499113  1
  Al  Al7  1  0.500416  0.497953  0.831937  1
  Al  Al8  1  -0.000378  0.502207  0.498509  1
  Al  Al9  1  0.501692  0.005105  0.831462  1
  Al  Al10  1  0.007159  0.499007  0.831693  1
  Al  Al11  1  0.878636  0.877320  0.955373  1
  Fe  Fe12  1  0.128105  0.127331  0.042653  1
  Fe  Fe13  1  0.121013  0.123305  0.377281  1
  Fe  Fe14  1  0.127091  0.125249  0.707275  1
  Fe  Fe15  1  0.879337  0.879126  0.287515  1
  Fe  Fe16  1  0.871218  0.872389  0.626511  1
  Fe  Fe17  1  0.498324  0.497229  0.002540  1
  O  O18  1  0.243478  0.243738  0.101868  1
  O  O19  1  0.263749  0.261258  0.238600  1
  O  O20  1  0.247560  0.708392  0.098263  1
  O  O21  1  0.710191  0.245794  0.099055  1
  O  O22  1  0.303756  0.731849  0.244412  1
  O  O23  1  0.262845  0.265916  0.422786  1
  O  O24  1  0.732155  0.303355  0.244743  1
  O  O25  1  0.261075  0.267150  0.567813  1
  O  O26  1  0.265442  0.702346  0.421540  1
  O  O27  1  0.749164  0.749085  0.083997  1
  O  O28  1  0.699723  0.266249  0.422911  1
  O  O29  1  0.732160  0.731033  0.245202  1
  O  O30  1  0.292939  0.734120  0.578558  1
  O  O31  1  0.269476  0.266930  0.753575  1
  O  O32  1  0.732574  0.295635  0.578107  1
  O  O33  1  0.732622  0.735596  0.431331  1
  O  O34  1  0.266712  0.263332  0.901003  1
  O  O35  1  0.271261  0.702185  0.753201  1
  O  O36  1  0.703983  0.270404  0.752359  1
  O  O37  1  0.735812  0.737775  0.576699  1
  O  O38  1  0.263086  0.759528  0.906237  1
  O  O39  1  0.759133  0.262470  0.906932  1
  O  O40  1  0.731916  0.729376  0.770049  1
  O  O41  1  0.762268  0.761762  0.904978  1
