# generated using pymatgen
data_YGa2Co3
_symmetry_space_group_name_H-M   'P 1'
_cell_length_a   9.03041718
_cell_length_b   9.03041718
_cell_length_c   3.82003768
_cell_angle_alpha   90.00000000
_cell_angle_beta   90.00000000
_cell_angle_gamma   120.00000001
_symmetry_Int_Tables_number   1
_chemical_formula_structural   YGa2Co3
_chemical_formula_sum   'Y3 Ga6 Co9'
_cell_volume   269.78258153
_cell_formula_units_Z   3
loop_
 _symmetry_equiv_pos_site_id
 _symmetry_equiv_pos_as_xyz
  1  'x, y, z'
loop_
 _atom_site_type_symbol
 _atom_site_label
 _atom_site_symmetry_multiplicity
 _atom_site_fract_x
 _atom_site_fract_y
 _atom_site_fract_z
 _atom_site_occupancy
  Co  Co0  1  0.500000  0.000000  0.000000  1
  Co  Co1  1  0.500000  0.500000  0.000000  1
  Co  Co2  1  0.000000  0.500000  0.000000  1
  Co  Co3  1  0.183875  0.367749  0.000000  1
  Co  Co4  1  0.816125  0.183875  0.000000  1
  Co  Co5  1  0.367749  0.183875  0.000000  1
  Co  Co6  1  0.632251  0.816125  0.000000  1
  Co  Co7  1  0.183875  0.816125  0.000000  1
  Co  Co8  1  0.816125  0.632251  0.000000  1
  Ga  Ga9  1  0.318526  0.000000  0.500000  1
  Ga  Ga10  1  0.318526  0.318526  0.500000  1
  Ga  Ga11  1  0.000000  0.681474  0.500000  1
  Ga  Ga12  1  0.000000  0.318526  0.500000  1
  Ga  Ga13  1  0.681474  0.681474  0.500000  1
  Ga  Ga14  1  0.681474  0.000000  0.500000  1
  Y  Y15  1  0.000000  0.000000  0.000000  1
  Y  Y16  1  0.333333  0.666667  0.500000  1
  Y  Y17  1  0.666667  0.333333  0.500000  1
