# generated using pymatgen
data_Mo2(PO4)3
_symmetry_space_group_name_H-M   'P 1'
_cell_length_a   8.81115782
_cell_length_b   8.97103145
_cell_length_c   8.81115781
_cell_angle_alpha   90.03091912
_cell_angle_beta   59.62139809
_cell_angle_gamma   119.07927381
_symmetry_Int_Tables_number   1
_chemical_formula_structural   Mo2(PO4)3
_chemical_formula_sum   'Mo4 P6 O24'
_cell_volume   496.55912230
_cell_formula_units_Z   2
loop_
 _symmetry_equiv_pos_site_id
 _symmetry_equiv_pos_as_xyz
  1  'x, y, z'
loop_
 _atom_site_type_symbol
 _atom_site_label
 _atom_site_symmetry_multiplicity
 _atom_site_fract_x
 _atom_site_fract_y
 _atom_site_fract_z
 _atom_site_occupancy
  O  O0  1  0.648318  0.917557  0.479963  1
  O  O1  1  0.018230  0.732213  0.061279  1
  O  O2  1  0.211968  0.580842  0.006583  1
  O  O3  1  0.206507  0.767787  0.213982  1
  O  O4  1  0.966368  0.258041  0.953589  1
  O  O5  1  0.783407  0.419449  1.006407  1
  O  O6  1  0.788371  0.241959  0.791674  1
  O  O7  1  0.805067  0.730935  0.914086  1
  O  O8  1  0.996216  0.786629  0.574481  1
  O  O9  1  0.649653  0.232989  0.563782  1
  O  O10  1  0.784535  0.920565  0.729854  1
  O  O11  1  0.602481  0.582444  0.769238  1
  O  O12  1  0.574145  0.080551  0.136042  1
  O  O13  1  0.642005  0.420767  0.366525  1
  O  O14  1  0.203228  0.267011  0.083336  1
  O  O15  1  0.340812  0.265435  0.709071  1
  O  O16  1  0.638888  0.713370  0.290414  1
  O  O17  1  0.025494  0.234565  0.424622  1
  O  O18  1  0.412575  0.919158  0.868874  1
  O  O19  1  0.349582  0.579436  0.636029  1
  O  O20  1  0.212707  0.079233  0.278763  1
  O  O21  1  0.418931  0.420637  0.211072  1
  O  O22  1  0.354979  0.769065  0.425867  1
  O  O23  1  0.368292  0.079363  0.501706  1
  P  P24  1  0.785102  0.751576  0.752059  1
  P  P25  1  0.499912  0.249459  0.534858  1
  P  P26  1  0.496365  0.748423  0.466475  1
  P  P27  1  0.215681  0.250540  0.249548  1
  P  P28  1  0.786239  0.250001  0.963761  1
  P  P29  1  0.213814  0.749999  0.036185  1
  Mo  Mo30  1  0.284687  0.927010  0.356423  1
  Mo  Mo31  1  0.284621  0.425059  0.858555  1
  Mo  Mo32  1  0.716567  0.572991  0.142322  1
  Mo  Mo33  1  0.716386  0.074942  0.640438  1
