# generated using pymatgen
data_Th3Sn13Rh4
_symmetry_space_group_name_H-M   'P 1'
_cell_length_a   9.81246548
_cell_length_b   9.81246548
_cell_length_c   9.81246548
_cell_angle_alpha   90.00000000
_cell_angle_beta   90.00000000
_cell_angle_gamma   90.00000000
_symmetry_Int_Tables_number   1
_chemical_formula_structural   Th3Sn13Rh4
_chemical_formula_sum   'Th6 Sn26 Rh8'
_cell_volume   944.78812445
_cell_formula_units_Z   2
loop_
 _symmetry_equiv_pos_site_id
 _symmetry_equiv_pos_as_xyz
  1  'x, y, z'
loop_
 _atom_site_type_symbol
 _atom_site_label
 _atom_site_symmetry_multiplicity
 _atom_site_fract_x
 _atom_site_fract_y
 _atom_site_fract_z
 _atom_site_occupancy
  Rh  Rh0  1  0.250000  0.250000  0.250000  1
  Rh  Rh1  1  0.750000  0.250000  0.250000  1
  Rh  Rh2  1  0.250000  0.250000  0.750000  1
  Rh  Rh3  1  0.250000  0.750000  0.250000  1
  Rh  Rh4  1  0.750000  0.750000  0.750000  1
  Rh  Rh5  1  0.250000  0.750000  0.750000  1
  Rh  Rh6  1  0.750000  0.750000  0.250000  1
  Rh  Rh7  1  0.750000  0.250000  0.750000  1
  Sn  Sn8  1  0.500000  0.348182  0.192158  1
  Sn  Sn9  1  0.807842  0.500000  0.348182  1
  Sn  Sn10  1  0.192158  0.500000  0.348182  1
  Sn  Sn11  1  0.651818  0.192158  0.500000  1
  Sn  Sn12  1  0.348182  0.192158  0.500000  1
  Sn  Sn13  1  0.500000  0.651818  0.807842  1
  Sn  Sn14  1  0.000000  0.000000  0.000000  1
  Sn  Sn15  1  0.500000  0.500000  0.500000  1
  Sn  Sn16  1  0.000000  0.307842  0.151818  1
  Sn  Sn17  1  0.500000  0.348182  0.807842  1
  Sn  Sn18  1  0.500000  0.651818  0.192158  1
  Sn  Sn19  1  0.651818  0.807842  0.500000  1
  Sn  Sn20  1  0.348182  0.807842  0.500000  1
  Sn  Sn21  1  0.192158  0.500000  0.651818  1
  Sn  Sn22  1  0.807842  0.500000  0.651818  1
  Sn  Sn23  1  0.151818  0.000000  0.307842  1
  Sn  Sn24  1  0.307842  0.151818  0.000000  1
  Sn  Sn25  1  0.692158  0.848182  0.000000  1
  Sn  Sn26  1  0.151818  0.000000  0.692158  1
  Sn  Sn27  1  0.692158  0.151818  0.000000  1
  Sn  Sn28  1  0.848182  0.000000  0.307842  1
  Sn  Sn29  1  0.848182  0.000000  0.692158  1
  Sn  Sn30  1  0.307842  0.848182  0.000000  1
  Sn  Sn31  1  0.000000  0.692158  0.848182  1
  Sn  Sn32  1  0.000000  0.307842  0.848182  1
  Sn  Sn33  1  0.000000  0.692158  0.151818  1
  Th  Th34  1  0.000000  0.250000  0.500000  1
  Th  Th35  1  0.000000  0.750000  0.500000  1
  Th  Th36  1  0.500000  0.000000  0.750000  1
  Th  Th37  1  0.500000  0.000000  0.250000  1
  Th  Th38  1  0.750000  0.500000  0.000000  1
  Th  Th39  1  0.250000  0.500000  0.000000  1
