# generated using pymatgen
data_Ca(PrS2)2
_symmetry_space_group_name_H-M   'P 1'
_cell_length_a   7.47414043
_cell_length_b   7.47414056
_cell_length_c   7.47414035
_cell_angle_alpha   109.63547933
_cell_angle_beta   109.63547324
_cell_angle_gamma   109.14320453
_symmetry_Int_Tables_number   1
_chemical_formula_structural   Ca(PrS2)2
_chemical_formula_sum   'Ca2 Pr4 S8'
_cell_volume   321.40395304
_cell_formula_units_Z   2
loop_
 _symmetry_equiv_pos_site_id
 _symmetry_equiv_pos_as_xyz
  1  'x, y, z'
loop_
 _atom_site_type_symbol
 _atom_site_label
 _atom_site_symmetry_multiplicity
 _atom_site_fract_x
 _atom_site_fract_y
 _atom_site_fract_z
 _atom_site_occupancy
  Ca  Ca0  1  0.625000  0.375000  0.250000  1
  Ca  Ca1  1  0.875000  0.125000  0.750000  1
  Pr  Pr2  1  0.120695  0.750000  0.870695  1
  Pr  Pr3  1  0.250000  0.620695  0.370695  1
  Pr  Pr4  1  0.379305  0.250000  0.629305  1
  Pr  Pr5  1  0.750000  0.879305  0.129305  1
  S  S6  1  0.002157  0.856998  0.502041  1
  S  S7  1  0.497843  0.999884  0.854841  1
  S  S8  1  0.143002  0.145043  0.145159  1
  S  S9  1  0.356998  0.502157  0.002041  1
  S  S10  1  0.645043  0.643002  0.645159  1
  S  S11  1  0.499884  0.997843  0.354841  1
  S  S12  1  0.854957  0.500116  0.997959  1
  S  S13  1  0.000116  0.354957  0.497959  1
