# generated using pymatgen
data_Sr(ErS2)2
_symmetry_space_group_name_H-M   'P 1'
_cell_length_a   7.35091205
_cell_length_b   7.35091241
_cell_length_c   7.35091208
_cell_angle_alpha   109.42310991
_cell_angle_beta   109.56748599
_cell_angle_gamma   109.42311251
_symmetry_Int_Tables_number   1
_chemical_formula_structural   Sr(ErS2)2
_chemical_formula_sum   'Sr2 Er4 S8'
_cell_volume   305.77422440
_cell_formula_units_Z   2
loop_
 _symmetry_equiv_pos_site_id
 _symmetry_equiv_pos_as_xyz
  1  'x, y, z'
loop_
 _atom_site_type_symbol
 _atom_site_label
 _atom_site_symmetry_multiplicity
 _atom_site_fract_x
 _atom_site_fract_y
 _atom_site_fract_z
 _atom_site_occupancy
  Er  Er0  1  0.250000  0.618134  0.368134  1
  Er  Er1  1  0.750000  0.881866  0.131866  1
  Er  Er2  1  0.631866  0.381866  0.250000  1
  Er  Er3  1  0.868134  0.118134  0.750000  1
  S  S4  1  0.980652  0.850362  0.485583  1
  S  S5  1  0.519348  0.004931  0.869710  1
  S  S6  1  0.130290  0.149638  0.135220  1
  S  S7  1  0.369710  0.504931  0.019348  1
  S  S8  1  0.635220  0.649638  0.630290  1
  S  S9  1  0.514417  0.995069  0.364779  1
  S  S10  1  0.864780  0.495069  0.014417  1
  S  S11  1  0.985583  0.350362  0.480652  1
  Sr  Sr12  1  0.125000  0.750000  0.875000  1
  Sr  Sr13  1  0.375000  0.250000  0.625000  1
