# generated using pymatgen
data_Na(CoO2)3
_symmetry_space_group_name_H-M   'P 1'
_cell_length_a   9.02089339
_cell_length_b   5.36156068
_cell_length_c   4.79378916
_cell_angle_alpha   68.41727003
_cell_angle_beta   62.05442810
_cell_angle_gamma   31.66142335
_symmetry_Int_Tables_number   1
_chemical_formula_structural   Na(CoO2)3
_chemical_formula_sum   'Na1 Co3 O6'
_cell_volume   107.26895076
_cell_formula_units_Z   1
loop_
 _symmetry_equiv_pos_site_id
 _symmetry_equiv_pos_as_xyz
  1  'x, y, z'
loop_
 _atom_site_type_symbol
 _atom_site_label
 _atom_site_symmetry_multiplicity
 _atom_site_fract_x
 _atom_site_fract_y
 _atom_site_fract_z
 _atom_site_occupancy
  Co  Co0  1  0.936020  0.065675  0.123934  1
  Co  Co1  1  0.468176  0.847564  0.727501  1
  Co  Co2  1  0.681770  0.962363  0.023700  1
  Na  Na3  1  0.169042  1.021894  0.436209  1
  O  O4  1  0.074870  0.306292  0.873851  1
  O  O5  1  0.282403  0.566430  0.187587  1
  O  O6  1  0.572329  0.069966  0.669430  1
  O  O7  1  0.587896  0.721376  0.282567  1
  O  O8  1  0.788225  0.203514  0.816217  1
  O  O9  1  0.796603  0.856928  0.354004  1
