# generated using pymatgen
data_Ca(LaTe2)2
_symmetry_space_group_name_H-M   'P 1'
_cell_length_a   8.38272576
_cell_length_b   8.38272536
_cell_length_c   8.38272562
_cell_angle_alpha   109.78790759
_cell_angle_beta   109.78790474
_cell_angle_gamma   108.83968661
_symmetry_Int_Tables_number   1
_chemical_formula_structural   Ca(LaTe2)2
_chemical_formula_sum   'Ca2 La4 Te8'
_cell_volume   453.41339919
_cell_formula_units_Z   2
loop_
 _symmetry_equiv_pos_site_id
 _symmetry_equiv_pos_as_xyz
  1  'x, y, z'
loop_
 _atom_site_type_symbol
 _atom_site_label
 _atom_site_symmetry_multiplicity
 _atom_site_fract_x
 _atom_site_fract_y
 _atom_site_fract_z
 _atom_site_occupancy
  Ca  Ca0  1  0.625000  0.375000  0.250000  1
  Ca  Ca1  1  0.875000  0.125000  0.750000  1
  La  La2  1  0.123062  0.750000  0.873062  1
  La  La3  1  0.250000  0.623062  0.373062  1
  La  La4  1  0.376938  0.250000  0.626938  1
  La  La5  1  0.750000  0.876938  0.126938  1
  Te  Te6  1  0.145711  0.148239  0.146820  1
  Te  Te7  1  0.354289  0.501109  0.002529  1
  Te  Te8  1  0.648239  0.645711  0.646820  1
  Te  Te9  1  0.498891  0.001420  0.853180  1
  Te  Te10  1  0.501420  0.998891  0.353180  1
  Te  Te11  1  0.001109  0.854289  0.502529  1
  Te  Te12  1  0.851761  0.498580  0.997471  1
  Te  Te13  1  0.998580  0.351761  0.497471  1
