# generated using pymatgen
data_Ba2CuF6
_symmetry_space_group_name_H-M   'P 1'
_cell_length_a   6.06865458
_cell_length_b   5.93630863
_cell_length_c   8.54215276
_cell_angle_alpha   110.33273628
_cell_angle_beta   90.00000000
_cell_angle_gamma   90.00000000
_symmetry_Int_Tables_number   1
_chemical_formula_structural   Ba2CuF6
_chemical_formula_sum   'Ba4 Cu2 F12'
_cell_volume   288.55975944
_cell_formula_units_Z   2
loop_
 _symmetry_equiv_pos_site_id
 _symmetry_equiv_pos_as_xyz
  1  'x, y, z'
loop_
 _atom_site_type_symbol
 _atom_site_label
 _atom_site_symmetry_multiplicity
 _atom_site_fract_x
 _atom_site_fract_y
 _atom_site_fract_z
 _atom_site_occupancy
  F  F0  1  0.500000  0.881389  0.762778  1
  F  F1  1  0.000000  0.618611  0.237222  1
  F  F2  1  0.500000  0.118611  0.237222  1
  F  F3  1  0.000000  0.381389  0.762778  1
  F  F4  1  0.657170  0.711095  0.000000  1
  F  F5  1  0.157170  0.788905  0.000000  1
  F  F6  1  0.250000  0.997786  0.500000  1
  F  F7  1  0.750000  0.502214  0.500000  1
  F  F8  1  0.750000  0.002214  0.500000  1
  F  F9  1  0.250000  0.497786  0.500000  1
  F  F10  1  0.342830  0.288905  0.000000  1
  F  F11  1  0.842830  0.211095  0.000000  1
  Cu  Cu12  1  0.500000  0.000000  0.000000  1
  Cu  Cu13  1  0.000000  0.500000  0.000000  1
  Ba  Ba14  1  0.500000  0.651110  0.302221  1
  Ba  Ba15  1  0.000000  0.848890  0.697779  1
  Ba  Ba16  1  0.500000  0.348890  0.697779  1
  Ba  Ba17  1  0.000000  0.151110  0.302221  1
