# generated using pymatgen
data_Er2FeSi2
_symmetry_space_group_name_H-M   'P 1'
_cell_length_a   4.11681721
_cell_length_b   5.58527210
_cell_length_c   8.87710148
_cell_angle_alpha   82.77005021
_cell_angle_beta   76.59231037
_cell_angle_gamma   68.37425948
_symmetry_Int_Tables_number   1
_chemical_formula_structural   Er2FeSi2
_chemical_formula_sum   'Er4 Fe2 Si4'
_cell_volume   184.39261208
_cell_formula_units_Z   2
loop_
 _symmetry_equiv_pos_site_id
 _symmetry_equiv_pos_as_xyz
  1  'x, y, z'
loop_
 _atom_site_type_symbol
 _atom_site_label
 _atom_site_symmetry_multiplicity
 _atom_site_fract_x
 _atom_site_fract_y
 _atom_site_fract_z
 _atom_site_occupancy
  Si  Si0  1  0.498844  0.128776  0.873535  1
  Si  Si1  1  0.501156  0.871224  0.126465  1
  Si  Si2  1  0.346982  0.742530  0.563506  1
  Si  Si3  1  0.653018  0.257470  0.436494  1
  Fe  Fe4  1  0.728714  0.917913  0.624659  1
  Fe  Fe5  1  0.271286  0.082087  0.375341  1
  Er  Er6  1  0.188445  0.732195  0.890915  1
  Er  Er7  1  0.811555  0.267805  0.109085  1
  Er  Er8  1  0.999283  0.329244  0.672190  1
  Er  Er9  1  0.000717  0.670756  0.327810  1
