# generated using pymatgen
data_NaNbO3
_symmetry_space_group_name_H-M   'P 1'
_cell_length_a   5.58603927
_cell_length_b   5.65873099
_cell_length_c   15.79981876
_cell_angle_alpha   90.00000000
_cell_angle_beta   90.00000000
_cell_angle_gamma   90.00000000
_symmetry_Int_Tables_number   1
_chemical_formula_structural   NaNbO3
_chemical_formula_sum   'Na8 Nb8 O24'
_cell_volume   499.43058877
_cell_formula_units_Z   8
loop_
 _symmetry_equiv_pos_site_id
 _symmetry_equiv_pos_as_xyz
  1  'x, y, z'
loop_
 _atom_site_type_symbol
 _atom_site_label
 _atom_site_symmetry_multiplicity
 _atom_site_fract_x
 _atom_site_fract_y
 _atom_site_fract_z
 _atom_site_occupancy
  O  O0  1  0.040909  0.043272  0.391909  1
  O  O1  1  0.040909  0.456726  0.608091  1
  O  O2  1  0.959091  0.543273  0.108091  1
  O  O3  1  0.959091  0.956727  0.891909  1
  O  O4  1  0.959091  0.956727  0.608091  1
  O  O5  1  0.959091  0.543273  0.391909  1
  O  O6  1  0.040909  0.456726  0.891909  1
  O  O7  1  0.040909  0.043272  0.108091  1
  O  O8  1  0.459138  0.464887  0.357540  1
  O  O9  1  0.459138  0.035114  0.642461  1
  O  O10  1  0.540861  0.964887  0.142461  1
  O  O11  1  0.540861  0.535113  0.857539  1
  O  O12  1  0.540861  0.535113  0.642461  1
  O  O13  1  0.540861  0.964887  0.357540  1
  O  O14  1  0.459138  0.035114  0.857539  1
  O  O15  1  0.459138  0.464887  0.142461  1
  O  O16  1  0.683129  0.250000  0.000000  1
  O  O17  1  0.316870  0.749999  0.500000  1
  O  O18  1  0.316870  0.749999  0.000000  1
  O  O19  1  0.683129  0.250000  0.500000  1
  O  O20  1  0.818130  0.227905  0.750000  1
  O  O21  1  0.181870  0.727906  0.750000  1
  O  O22  1  0.818130  0.272094  0.250000  1
  O  O23  1  0.181870  0.772095  0.250000  1
  Na  Na24  1  0.256571  0.250000  0.000000  1
  Na  Na25  1  0.743429  0.749999  0.500000  1
  Na  Na26  1  0.743429  0.749999  0.000000  1
  Na  Na27  1  0.256571  0.250000  0.500000  1
  Na  Na28  1  0.258758  0.207116  0.250000  1
  Na  Na29  1  0.258758  0.292883  0.750000  1
  Na  Na30  1  0.741242  0.707117  0.250000  1
  Na  Na31  1  0.741242  0.792883  0.750000  1
  Nb  Nb32  1  0.245526  0.731308  0.125152  1
  Nb  Nb33  1  0.245526  0.768692  0.874848  1
  Nb  Nb34  1  0.754474  0.231307  0.374848  1
  Nb  Nb35  1  0.754474  0.268692  0.625152  1
  Nb  Nb36  1  0.754474  0.268692  0.874848  1
  Nb  Nb37  1  0.754474  0.231307  0.125152  1
  Nb  Nb38  1  0.245526  0.768692  0.625152  1
  Nb  Nb39  1  0.245526  0.731308  0.374848  1
