# generated using pymatgen
data_NaCaTaTiO6
_symmetry_space_group_name_H-M   'P 1'
_cell_length_a   5.46368147
_cell_length_b   5.55790893
_cell_length_c   7.75556701
_cell_angle_alpha   90.00000000
_cell_angle_beta   89.93029457
_cell_angle_gamma   90.00000000
_symmetry_Int_Tables_number   1
_chemical_formula_structural   NaCaTaTiO6
_chemical_formula_sum   'Na2 Ca2 Ta2 Ti2 O12'
_cell_volume   235.51036805
_cell_formula_units_Z   2
loop_
 _symmetry_equiv_pos_site_id
 _symmetry_equiv_pos_as_xyz
  1  'x, y, z'
loop_
 _atom_site_type_symbol
 _atom_site_label
 _atom_site_symmetry_multiplicity
 _atom_site_fract_x
 _atom_site_fract_y
 _atom_site_fract_z
 _atom_site_occupancy
  Ca  Ca0  1  0.487036  0.455163  0.750000  1
  Ca  Ca1  1  0.987036  0.044837  0.250000  1
  Na  Na2  1  0.004499  0.975944  0.749962  1
  Na  Na3  1  0.504499  0.524056  0.249962  1
  O  O4  1  0.073080  0.482313  0.247654  1
  O  O5  1  0.224934  0.220612  0.537047  1
  O  O6  1  0.221578  0.219589  0.961667  1
  O  O7  1  0.293432  0.713694  0.542502  1
  O  O8  1  0.291362  0.708338  0.956217  1
  O  O9  1  0.418293  0.983700  0.250615  1
  O  O10  1  0.573080  0.017687  0.747654  1
  O  O11  1  0.724934  0.279388  0.037047  1
  O  O12  1  0.721578  0.280411  0.461667  1
  O  O13  1  0.793432  0.786306  0.042502  1
  O  O14  1  0.791362  0.791662  0.456217  1
  O  O15  1  0.918293  0.516300  0.750615  1
  Ta  Ta16  1  0.493198  -0.005737  0.000536  1
  Ta  Ta17  1  0.993198  0.505737  0.500536  1
  Ti  Ti18  1  0.492588  0.994409  0.503799  1
  Ti  Ti19  1  0.992588  0.505591  0.003799  1
