# generated using pymatgen
data_Mg3Al14O24
_symmetry_space_group_name_H-M   'P 1'
_cell_length_a   5.73843620
_cell_length_b   17.06461929
_cell_length_c   9.93176430
_cell_angle_alpha   29.97639637
_cell_angle_beta   54.70306118
_cell_angle_gamma   59.69824062
_symmetry_Int_Tables_number   1
_chemical_formula_structural   Mg3Al14O24
_chemical_formula_sum   'Mg3 Al14 O24'
_cell_volume   396.58391936
_cell_formula_units_Z   1
loop_
 _symmetry_equiv_pos_site_id
 _symmetry_equiv_pos_as_xyz
  1  'x, y, z'
loop_
 _atom_site_type_symbol
 _atom_site_label
 _atom_site_symmetry_multiplicity
 _atom_site_fract_x
 _atom_site_fract_y
 _atom_site_fract_z
 _atom_site_occupancy
  Al  Al0  1  0.505895  0.158950  0.005687  1
  Al  Al1  1  0.500733  0.165673  0.500743  1
  Al  Al2  1  0.494346  0.509550  0.991287  1
  Al  Al3  1  0.499986  0.334157  0.496800  1
  Al  Al4  1  0.494981  0.502197  0.501719  1
  Al  Al5  1  0.497149  0.830210  0.007561  1
  Al  Al6  1  0.120787  0.005822  0.120492  1
  Al  Al7  1  0.494264  0.673005  0.500730  1
  Al  Al8  1  0.003917  0.334172  0.496788  1
  Al  Al9  1  0.985235  0.673034  0.500711  1
  Al  Al10  1  0.507075  0.993720  0.494322  1
  Al  Al11  1  0.879824  0.661877  0.877300  1
  Al  Al12  1  0.023213  0.993685  0.494332  1
  Al  Al13  1  0.881306  0.992720  0.879610  1
  Mg  Mg14  1  0.123685  0.339578  0.116922  1
  Mg  Mg15  1  0.120063  0.671422  0.122831  1
  Mg  Mg16  1  0.875500  0.326718  0.884446  1
  O  O17  1  0.270463  0.153133  0.249797  1
  O  O18  1  0.261303  0.327365  0.276131  1
  O  O19  1  0.272183  0.998023  0.751577  1
  O  O20  1  0.729253  0.139253  0.311845  1
  O  O21  1  0.260069  0.481085  0.268249  1
  O  O22  1  0.255943  0.174672  0.732059  1
  O  O23  1  0.730605  0.997973  0.751644  1
  O  O24  1  0.704312  0.327305  0.276226  1
  O  O25  1  0.301542  0.336518  0.723600  1
  O  O26  1  0.264246  0.668494  0.264028  1
  O  O27  1  0.751139  0.172674  0.739863  1
  O  O28  1  0.746554  0.489589  0.269011  1
  O  O29  1  0.264980  0.522257  0.701696  1
  O  O30  1  0.249804  0.830114  0.254996  1
  O  O31  1  0.741709  0.336448  0.723704  1
  O  O32  1  0.702274  0.668424  0.264112  1
  O  O33  1  0.255860  0.649444  0.767920  1
  O  O34  1  0.240432  0.020556  0.225642  1
  O  O35  1  0.731801  0.519579  0.738889  1
  O  O36  1  0.765308  0.819748  0.255014  1
  O  O37  1  0.241741  0.860422  0.717715  1
  O  O38  1  0.759887  0.649377  0.768028  1
  O  O39  1  0.746620  0.020485  0.225777  1
  O  O40  1  0.744015  0.837241  0.750195  1
