# generated using pymatgen
data_Ti4FeS8
_symmetry_space_group_name_H-M   'P 1'
_cell_length_a   6.75115615
_cell_length_b   6.75115615
_cell_length_c   11.13895520
_cell_angle_alpha   89.48271804
_cell_angle_beta   90.51728196
_cell_angle_gamma   119.69832299
_symmetry_Int_Tables_number   1
_chemical_formula_structural   Ti4FeS8
_chemical_formula_sum   'Ti8 Fe2 S16'
_cell_volume   440.98104612
_cell_formula_units_Z   2
loop_
 _symmetry_equiv_pos_site_id
 _symmetry_equiv_pos_as_xyz
  1  'x, y, z'
loop_
 _atom_site_type_symbol
 _atom_site_label
 _atom_site_symmetry_multiplicity
 _atom_site_fract_x
 _atom_site_fract_y
 _atom_site_fract_z
 _atom_site_occupancy
  S  S0  1  0.840930  0.675516  0.883276  1
  S  S1  1  0.675516  0.840930  0.116724  1
  S  S2  1  0.159070  0.324484  0.116724  1
  S  S3  1  0.324484  0.159070  0.883276  1
  S  S4  1  0.824484  0.659070  0.383276  1
  S  S5  1  0.659070  0.824484  0.616724  1
  S  S6  1  0.175516  0.340930  0.616724  1
  S  S7  1  0.340930  0.175516  0.383276  1
  S  S8  1  0.667320  0.332680  0.116999  1
  S  S9  1  0.332680  0.667320  0.883001  1
  S  S10  1  0.161567  0.838433  0.125095  1
  S  S11  1  0.838433  0.161567  0.874905  1
  S  S12  1  0.167320  0.832680  0.616999  1
  S  S13  1  0.832680  0.167320  0.383001  1
  S  S14  1  0.338433  0.661567  0.374905  1
  S  S15  1  0.661567  0.338433  0.625095  1
  Ti  Ti16  1  0.510743  0.010743  0.250000  1
  Ti  Ti17  1  0.010743  0.510743  0.750000  1
  Ti  Ti18  1  0.489257  0.989257  0.750000  1
  Ti  Ti19  1  0.989257  0.489257  0.250000  1
  Ti  Ti20  1  0.496949  0.503050  0.757446  1
  Ti  Ti21  1  0.503050  0.496949  0.242554  1
  Ti  Ti22  1  0.003050  0.996950  0.742554  1
  Ti  Ti23  1  0.996950  0.003050  0.257446  1
  Fe  Fe24  1  0.500000  0.500000  0.500000  1
  Fe  Fe25  1  0.000000  0.000000  0.000000  1
