# generated using pymatgen
data_K4GaAu8
_symmetry_space_group_name_H-M   'P 1'
_cell_length_a   5.91749001
_cell_length_b   11.02078010
_cell_length_c   11.07958697
_cell_angle_alpha   97.44475577
_cell_angle_beta   90.00000000
_cell_angle_gamma   105.57322251
_symmetry_Int_Tables_number   1
_chemical_formula_structural   K4GaAu8
_chemical_formula_sum   'K8 Ga2 Au16'
_cell_volume   689.70750569
_cell_formula_units_Z   2
loop_
 _symmetry_equiv_pos_site_id
 _symmetry_equiv_pos_as_xyz
  1  'x, y, z'
loop_
 _atom_site_type_symbol
 _atom_site_label
 _atom_site_symmetry_multiplicity
 _atom_site_fract_x
 _atom_site_fract_y
 _atom_site_fract_z
 _atom_site_occupancy
  K  K0  1  0.515592  0.031184  0.836912  1
  K  K1  1  0.484408  0.968816  0.163088  1
  K  K2  1  0.715010  0.430019  0.898634  1
  K  K3  1  0.284990  0.569981  0.101366  1
  K  K4  1  0.776544  0.553088  0.594752  1
  K  K5  1  0.223456  0.446912  0.405248  1
  K  K6  1  0.953956  0.907912  0.656091  1
  K  K7  1  0.046044  0.092088  0.343909  1
  Ga  Ga8  1  0.327007  0.654014  0.765625  1
  Ga  Ga9  1  0.672993  0.345986  0.234375  1
  Au  Au10  1  0.209649  0.419299  0.732661  1
  Au  Au11  1  0.790351  0.580701  0.267339  1
  Au  Au12  1  0.376048  0.752095  0.574412  1
  Au  Au13  1  0.623952  0.247905  0.425588  1
  Au  Au14  1  0.500000  0.000000  0.500000  1
  Au  Au15  1  0.000000  0.000000  0.000000  1
  Au  Au16  1  0.900925  0.801850  0.148834  1
  Au  Au17  1  0.099075  0.198150  0.851166  1
  Au  Au18  1  0.646957  0.794490  0.368108  1
  Au  Au19  1  0.852467  0.205510  0.631892  1
  Au  Au20  1  0.353043  0.205510  0.631892  1
  Au  Au21  1  0.147533  0.794490  0.368108  1
  Au  Au22  1  0.350771  0.235904  0.080185  1
  Au  Au23  1  0.114867  0.764096  0.919815  1
  Au  Au24  1  0.649229  0.764096  0.919815  1
  Au  Au25  1  0.885133  0.235904  0.080185  1
