# generated using pymatgen
data_NdPS4
_symmetry_space_group_name_H-M   'P 1'
_cell_length_a   11.04191335
_cell_length_b   11.04191335
_cell_length_c   12.46772895
_cell_angle_alpha   116.28393148
_cell_angle_beta   116.28393148
_cell_angle_gamma   90.00000000
_symmetry_Int_Tables_number   1
_chemical_formula_structural   NdPS4
_chemical_formula_sum   'Nd8 P8 S32'
_cell_volume   1185.12453574
_cell_formula_units_Z   8
loop_
 _symmetry_equiv_pos_site_id
 _symmetry_equiv_pos_as_xyz
  1  'x, y, z'
loop_
 _atom_site_type_symbol
 _atom_site_label
 _atom_site_symmetry_multiplicity
 _atom_site_fract_x
 _atom_site_fract_y
 _atom_site_fract_z
 _atom_site_occupancy
  P  P0  1  0.287327  0.250000  0.500000  1
  P  P1  1  0.787327  0.250000  0.500000  1
  P  P2  1  0.750000  0.787327  0.000000  1
  P  P3  1  0.250000  0.712673  0.000000  1
  P  P4  1  0.712673  0.750000  0.500000  1
  P  P5  1  0.212673  0.750000  0.500000  1
  P  P6  1  0.250000  0.212673  0.000000  1
  P  P7  1  0.750000  0.287327  0.000000  1
  S  S8  1  0.090762  0.612847  0.996983  1
  S  S9  1  0.906221  0.884136  0.996983  1
  S  S10  1  0.612847  0.906221  0.496983  1
  S  S11  1  0.884136  0.090762  0.496983  1
  S  S12  1  0.409238  0.615864  0.003017  1
  S  S13  1  0.593779  0.887153  0.003017  1
  S  S14  1  0.887153  0.409238  0.503017  1
  S  S15  1  0.615864  0.593779  0.503017  1
  S  S16  1  0.339353  0.403215  0.175371  1
  S  S17  1  0.272156  0.339353  0.675371  1
  S  S18  1  0.403215  0.836018  0.675371  1
  S  S19  1  0.663982  0.096785  0.824629  1
  S  S20  1  0.160647  0.227844  0.824629  1
  S  S21  1  0.227844  0.663982  0.324629  1
  S  S22  1  0.096785  0.160647  0.324629  1
  S  S23  1  0.836018  0.272156  0.175371  1
  S  S24  1  0.660647  0.596785  0.824629  1
  S  S25  1  0.727844  0.660647  0.324629  1
  S  S26  1  0.596785  0.163982  0.324629  1
  S  S27  1  0.336018  0.903215  0.175371  1
  S  S28  1  0.839353  0.772156  0.175371  1
  S  S29  1  0.772156  0.336018  0.675371  1
  S  S30  1  0.903215  0.839353  0.675371  1
  S  S31  1  0.163982  0.727844  0.824629  1
  S  S32  1  0.093779  0.115864  0.003017  1
  S  S33  1  0.387153  0.093779  0.503017  1
  S  S34  1  0.115864  0.909238  0.503017  1
  S  S35  1  0.590762  0.384136  0.996983  1
  S  S36  1  0.406221  0.112847  0.996983  1
  S  S37  1  0.112847  0.590762  0.496983  1
  S  S38  1  0.384136  0.406221  0.496983  1
  S  S39  1  0.909238  0.387153  0.003017  1
  Nd  Nd40  1  0.875000  0.125000  0.750000  1
  Nd  Nd41  1  0.125000  0.875000  0.250000  1
  Nd  Nd42  1  0.625000  0.375000  0.250000  1
  Nd  Nd43  1  0.375000  0.625000  0.750000  1
  Nd  Nd44  1  0.625000  0.875000  0.250000  1
  Nd  Nd45  1  0.875000  0.625000  0.750000  1
  Nd  Nd46  1  0.375000  0.125000  0.750000  1
  Nd  Nd47  1  0.125000  0.375000  0.250000  1
