# generated using pymatgen
data_Sr3P2
_symmetry_space_group_name_H-M   'P 1'
_cell_length_a   24.33906024
_cell_length_b   9.37771688
_cell_length_c   9.37771682
_cell_angle_alpha   89.99999579
_cell_angle_beta   54.69404502
_cell_angle_gamma   54.69404530
_symmetry_Int_Tables_number   1
_chemical_formula_structural   Sr3P2
_chemical_formula_sum   'Sr24 P16'
_cell_volume   1233.23050479
_cell_formula_units_Z   8
loop_
 _symmetry_equiv_pos_site_id
 _symmetry_equiv_pos_as_xyz
  1  'x, y, z'
loop_
 _atom_site_type_symbol
 _atom_site_label
 _atom_site_symmetry_multiplicity
 _atom_site_fract_x
 _atom_site_fract_y
 _atom_site_fract_z
 _atom_site_occupancy
  P  P0  1  0.089145  0.616282  0.366282  1
  P  P1  1  0.166667  0.250000  0.628932  1
  P  P2  1  0.244188  0.883718  0.133718  1
  P  P3  1  0.341763  0.385160  0.248182  1
  P  P4  1  0.341763  0.089551  0.726529  1
  P  P5  1  0.166667  0.750000  0.871068  1
  P  P6  1  0.491570  0.273471  0.614840  1
  P  P7  1  0.666667  0.371068  0.250000  1
  P  P8  1  0.589145  0.866282  0.116282  1
  P  P9  1  0.491570  0.751818  0.910449  1
  P  P10  1  0.666667  0.128932  0.750000  1
  P  P11  1  0.744188  0.633718  0.383718  1
  P  P12  1  0.841763  0.226529  0.589551  1
  P  P13  1  0.991570  0.410449  0.251818  1
  P  P14  1  0.991570  0.114840  0.773471  1
  P  P15  1  0.841763  0.748182  0.885160  1
  Sr  Sr16  1  0.138284  0.476502  0.986856  1
  Sr  Sr17  1  0.045156  0.374087  0.489986  1
  Sr  Sr18  1  0.288177  0.125913  0.125456  1
  Sr  Sr19  1  0.045156  0.990443  0.374544  1
  Sr  Sr20  1  0.288177  0.509557  0.010014  1
  Sr  Sr21  1  0.138284  0.608646  0.598292  1
  Sr  Sr22  1  0.195049  0.891354  0.513144  1
  Sr  Sr23  1  0.455461  0.486876  0.982087  1
  Sr  Sr24  1  0.377873  0.348469  0.513124  1
  Sr  Sr25  1  0.195049  0.023498  0.901708  1
  Sr  Sr26  1  0.638284  0.098292  0.108646  1
  Sr  Sr27  1  0.377873  0.017913  0.353257  1
  Sr  Sr28  1  0.638284  0.486856  0.976502  1
  Sr  Sr29  1  0.455461  0.646743  0.651531  1
  Sr  Sr30  1  0.545156  0.874544  0.490443  1
  Sr  Sr31  1  0.788177  0.510014  0.009557  1
  Sr  Sr32  1  0.695049  0.401708  0.523498  1
  Sr  Sr33  1  0.545156  0.989986  0.874087  1
  Sr  Sr34  1  0.955461  0.151531  0.146743  1
  Sr  Sr35  1  0.695049  0.013144  0.391354  1
  Sr  Sr36  1  0.955461  0.482087  0.986876  1
  Sr  Sr37  1  0.788177  0.625456  0.625913  1
  Sr  Sr38  1  0.877873  0.853257  0.517913  1
  Sr  Sr39  1  0.877873  0.013124  0.848469  1
