# generated using pymatgen
data_CoB4O7
_symmetry_space_group_name_H-M   'P 1'
_cell_length_a   8.31080698
_cell_length_b   8.77091183
_cell_length_c   13.87953497
_cell_angle_alpha   90.00000000
_cell_angle_beta   90.00000000
_cell_angle_gamma   90.00000000
_symmetry_Int_Tables_number   1
_chemical_formula_structural   CoB4O7
_chemical_formula_sum   'Co8 B32 O56'
_cell_volume   1011.72587338
_cell_formula_units_Z   8
loop_
 _symmetry_equiv_pos_site_id
 _symmetry_equiv_pos_as_xyz
  1  'x, y, z'
loop_
 _atom_site_type_symbol
 _atom_site_label
 _atom_site_symmetry_multiplicity
 _atom_site_fract_x
 _atom_site_fract_y
 _atom_site_fract_z
 _atom_site_occupancy
  B  B0  1  0.163113  0.143158  0.461843  1
  B  B1  1  0.663113  0.356843  0.538157  1
  B  B2  1  0.836887  0.643157  0.038157  1
  B  B3  1  0.336887  0.856842  0.961844  1
  B  B4  1  0.836887  0.856842  0.538157  1
  B  B5  1  0.336887  0.643157  0.461843  1
  B  B6  1  0.163113  0.356843  0.961844  1
  B  B7  1  0.663113  0.143158  0.038157  1
  B  B8  1  0.970235  0.085032  0.332250  1
  B  B9  1  0.470235  0.414967  0.667750  1
  B  B10  1  0.029765  0.585033  0.167750  1
  B  B11  1  0.529765  0.914968  0.832250  1
  B  B12  1  0.029765  0.914968  0.667750  1
  B  B13  1  0.529765  0.585033  0.332250  1
  B  B14  1  0.970235  0.414967  0.832250  1
  B  B15  1  0.470235  0.085032  0.167750  1
  B  B16  1  0.025741  0.352377  0.270042  1
  B  B17  1  0.525741  0.147624  0.729959  1
  B  B18  1  0.974259  0.852377  0.229959  1
  B  B19  1  0.474259  0.647623  0.770041  1
  B  B20  1  0.974259  0.647623  0.729959  1
  B  B21  1  0.474259  0.852377  0.270042  1
  B  B22  1  0.025741  0.147624  0.770041  1
  B  B23  1  0.525741  0.352377  0.229959  1
  B  B24  1  0.913558  0.300557  0.436902  1
  B  B25  1  0.413558  0.199443  0.563098  1
  B  B26  1  0.086442  0.800557  0.063098  1
  B  B27  1  0.586442  0.699443  0.936902  1
  B  B28  1  0.086442  0.699443  0.563098  1
  B  B29  1  0.586442  0.800557  0.436902  1
  B  B30  1  0.913558  0.199443  0.936902  1
  B  B31  1  0.413558  0.300557  0.063098  1
  O  O32  1  0.117064  0.057211  0.385766  1
  O  O33  1  0.617064  0.442788  0.614233  1
  O  O34  1  0.882936  0.557212  0.114233  1
  O  O35  1  0.382936  0.942789  0.885767  1
  O  O36  1  0.882936  0.942789  0.614233  1
  O  O37  1  0.382936  0.557212  0.385766  1
  O  O38  1  0.117064  0.442788  0.885767  1
  O  O39  1  0.617064  0.057211  0.114233  1
  O  O40  1  0.061813  0.260262  0.495892  1
  O  O41  1  0.561813  0.239737  0.504108  1
  O  O42  1  0.938187  0.760262  0.004108  1
  O  O43  1  0.438187  0.739738  0.995892  1
  O  O44  1  0.938187  0.739738  0.504108  1
  O  O45  1  0.438187  0.760262  0.495892  1
  O  O46  1  0.061813  0.239737  0.995892  1
  O  O47  1  0.561813  0.260262  0.004108  1
  O  O48  1  0.017121  0.197272  0.249327  1
  O  O49  1  0.517121  0.302729  0.750673  1
  O  O50  1  0.982879  0.697272  0.250673  1
  O  O51  1  0.482879  0.802728  0.749327  1
  O  O52  1  0.982879  0.802728  0.750673  1
  O  O53  1  0.482879  0.697272  0.249327  1
  O  O54  1  0.017121  0.302729  0.749327  1
  O  O55  1  0.517121  0.197272  0.250673  1
  O  O56  1  0.967222  0.408125  0.357189  1
  O  O57  1  0.467222  0.091875  0.642812  1
  O  O58  1  0.032778  0.908126  0.142812  1
  O  O59  1  0.532778  0.591875  0.857188  1
  O  O60  1  0.032778  0.591875  0.642812  1
  O  O61  1  0.532778  0.908126  0.357189  1
  O  O62  1  0.967222  0.091875  0.857188  1
  O  O63  1  0.467222  0.408125  0.142812  1
  O  O64  1  0.808852  0.385827  0.496895  1
  O  O65  1  0.308852  0.114173  0.503105  1
  O  O66  1  0.191148  0.885827  0.003105  1
  O  O67  1  0.691148  0.614172  0.996895  1
  O  O68  1  0.191148  0.614172  0.503105  1
  O  O69  1  0.691148  0.885827  0.496895  1
  O  O70  1  0.808852  0.114173  0.996895  1
  O  O71  1  0.308852  0.385827  0.003105  1
  O  O72  1  0.847960  0.163387  0.391603  1
  O  O73  1  0.347960  0.336613  0.608397  1
  O  O74  1  0.152040  0.663387  0.108398  1
  O  O75  1  0.652040  0.836613  0.891603  1
  O  O76  1  0.152040  0.836613  0.608397  1
  O  O77  1  0.652040  0.663387  0.391603  1
  O  O78  1  0.847960  0.336613  0.891603  1
  O  O79  1  0.347960  0.163387  0.108398  1
  O  O80  1  0.594695  0.445325  0.295893  1
  O  O81  1  0.094695  0.054676  0.704106  1
  O  O82  1  0.405305  0.945324  0.204107  1
  O  O83  1  0.905305  0.554675  0.795894  1
  O  O84  1  0.405305  0.554675  0.704106  1
  O  O85  1  0.905305  0.945324  0.295893  1
  O  O86  1  0.594695  0.054676  0.795894  1
  O  O87  1  0.094695  0.445325  0.204107  1
  Co  Co88  1  0.611020  0.126473  0.379357  1
  Co  Co89  1  0.111020  0.373527  0.620643  1
  Co  Co90  1  0.388980  0.626473  0.120643  1
  Co  Co91  1  0.888980  0.873527  0.879357  1
  Co  Co92  1  0.388980  0.873527  0.620643  1
  Co  Co93  1  0.888980  0.626473  0.379357  1
  Co  Co94  1  0.611020  0.373527  0.879357  1
  Co  Co95  1  0.111020  0.126473  0.120643  1
