# generated using pymatgen
data_Rb4Sn2Au7
_symmetry_space_group_name_H-M   'P 1'
_cell_length_a   10.67379420
_cell_length_b   10.67379420
_cell_length_c   10.67379420
_cell_angle_alpha   38.08262655
_cell_angle_beta   38.08262655
_cell_angle_gamma   38.08262653
_symmetry_Int_Tables_number   1
_chemical_formula_structural   Rb4Sn2Au7
_chemical_formula_sum   'Rb4 Sn2 Au7'
_cell_volume   415.34783426
_cell_formula_units_Z   1
loop_
 _symmetry_equiv_pos_site_id
 _symmetry_equiv_pos_as_xyz
  1  'x, y, z'
loop_
 _atom_site_type_symbol
 _atom_site_label
 _atom_site_symmetry_multiplicity
 _atom_site_fract_x
 _atom_site_fract_y
 _atom_site_fract_z
 _atom_site_occupancy
  Rb  Rb0  1  0.684063  0.684063  0.684063  1
  Rb  Rb1  1  0.315937  0.315937  0.315937  1
  Rb  Rb2  1  0.187408  0.187408  0.187408  1
  Rb  Rb3  1  0.812592  0.812592  0.812592  1
  Sn  Sn4  1  0.450010  0.450010  0.450010  1
  Sn  Sn5  1  0.549990  0.549990  0.549990  1
  Au  Au6  1  0.212714  0.212714  0.806701  1
  Au  Au7  1  0.212714  0.806701  0.212714  1
  Au  Au8  1  0.806701  0.212714  0.212714  1
  Au  Au9  1  0.193299  0.787286  0.787286  1
  Au  Au10  1  0.787286  0.787286  0.193299  1
  Au  Au11  1  0.787286  0.193299  0.787286  1
  Au  Au12  1  0.000000  0.000000  0.000000  1
