# generated using pymatgen
data_Nd3Sb5O12
_symmetry_space_group_name_H-M   'P 1'
_cell_length_a   9.65626213
_cell_length_b   9.65626212
_cell_length_c   9.65626213
_cell_angle_alpha   109.47122062
_cell_angle_beta   109.47122062
_cell_angle_gamma   109.47122065
_symmetry_Int_Tables_number   1
_chemical_formula_structural   Nd3Sb5O12
_chemical_formula_sum   'Nd6 Sb10 O24'
_cell_volume   693.11492199
_cell_formula_units_Z   2
loop_
 _symmetry_equiv_pos_site_id
 _symmetry_equiv_pos_as_xyz
  1  'x, y, z'
loop_
 _atom_site_type_symbol
 _atom_site_label
 _atom_site_symmetry_multiplicity
 _atom_site_fract_x
 _atom_site_fract_y
 _atom_site_fract_z
 _atom_site_occupancy
  O  O0  1  0.274995  0.802510  0.802510  1
  O  O1  1  0.527516  0.527516  0.725005  1
  O  O2  1  0.527516  0.725005  0.527516  1
  O  O3  1  0.197490  0.000000  0.472484  1
  O  O4  1  0.197490  0.472484  0.000000  1
  O  O5  1  0.000000  0.197490  0.472484  1
  O  O6  1  0.000000  0.472484  0.197490  1
  O  O7  1  0.472484  0.197490  0.000000  1
  O  O8  1  0.802510  0.802510  0.274995  1
  O  O9  1  0.802510  0.274995  0.802510  1
  O  O10  1  0.472484  0.000000  0.197490  1
  O  O11  1  0.725005  0.527516  0.527516  1
  O  O12  1  0.801908  0.292519  0.292519  1
  O  O13  1  0.490610  0.490610  0.198092  1
  O  O14  1  0.490610  0.198092  0.490610  1
  O  O15  1  0.707481  0.000000  0.509390  1
  O  O16  1  0.198092  0.490610  0.490610  1
  O  O17  1  0.509390  0.000000  0.707481  1
  O  O18  1  0.292519  0.801908  0.292519  1
  O  O19  1  0.292519  0.292519  0.801908  1
  O  O20  1  0.509390  0.707481  0.000000  1
  O  O21  1  0.000000  0.509390  0.707481  1
  O  O22  1  0.000000  0.707481  0.509390  1
  O  O23  1  0.707481  0.509390  0.000000  1
  Sb  Sb24  1  0.000000  0.000000  0.505928  1
  Sb  Sb25  1  0.000000  0.505928  0.000000  1
  Sb  Sb26  1  0.505928  0.000000  0.000000  1
  Sb  Sb27  1  0.494072  0.494072  0.494072  1
  Sb  Sb28  1  0.718473  0.000000  0.718473  1
  Sb  Sb29  1  0.281527  0.000000  0.281527  1
  Sb  Sb30  1  0.000000  0.281527  0.281527  1
  Sb  Sb31  1  0.000000  0.718473  0.718473  1
  Sb  Sb32  1  0.718473  0.718473  0.000000  1
  Sb  Sb33  1  0.281527  0.281527  0.000000  1
  Nd  Nd34  1  0.500000  0.750000  0.250000  1
  Nd  Nd35  1  0.250000  0.750000  0.500000  1
  Nd  Nd36  1  0.750000  0.250000  0.500000  1
  Nd  Nd37  1  0.250000  0.500000  0.750000  1
  Nd  Nd38  1  0.750000  0.500000  0.250000  1
  Nd  Nd39  1  0.500000  0.250000  0.750000  1
