# generated using pymatgen
data_Dy6Se11
_symmetry_space_group_name_H-M   'P 1'
_cell_length_a   11.58043533
_cell_length_b   11.62528639
_cell_length_c   12.07541637
_cell_angle_alpha   89.90232093
_cell_angle_beta   90.18919825
_cell_angle_gamma   91.73407829
_symmetry_Int_Tables_number   1
_chemical_formula_structural   Dy6Se11
_chemical_formula_sum   'Dy24 Se44'
_cell_volume   1624.90807698
_cell_formula_units_Z   4
loop_
 _symmetry_equiv_pos_site_id
 _symmetry_equiv_pos_as_xyz
  1  'x, y, z'
loop_
 _atom_site_type_symbol
 _atom_site_label
 _atom_site_symmetry_multiplicity
 _atom_site_fract_x
 _atom_site_fract_y
 _atom_site_fract_z
 _atom_site_occupancy
  Dy  Dy0  1  0.006406  0.249658  0.500745  1
  Dy  Dy1  1  0.138677  0.861009  0.666537  1
  Dy  Dy2  1  0.139882  0.862082  0.336320  1
  Dy  Dy3  1  0.154935  0.844079  0.999308  1
  Dy  Dy4  1  0.239230  0.513385  0.499847  1
  Dy  Dy5  1  0.245899  0.497615  0.830010  1
  Dy  Dy6  1  0.254068  0.499007  0.170465  1
  Dy  Dy7  1  0.387173  0.119262  0.332578  1
  Dy  Dy8  1  0.385603  0.119845  0.668549  1
  Dy  Dy9  1  0.386803  0.106513  0.999237  1
  Dy  Dy10  1  0.483329  0.775365  0.504125  1
  Dy  Dy11  1  0.495667  0.758220  0.164940  1
  Dy  Dy12  1  0.502161  0.752745  0.828042  1
  Dy  Dy13  1  0.625430  0.372437  0.000970  1
  Dy  Dy14  1  0.651211  0.342249  0.328801  1
  Dy  Dy15  1  0.647452  0.354436  0.665091  1
  Dy  Dy16  1  0.749345  0.991989  0.500962  1
  Dy  Dy17  1  0.740053  0.013073  0.837208  1
  Dy  Dy18  1  0.739879  0.008583  0.163282  1
  Dy  Dy19  1  0.893584  0.609840  0.332182  1
  Dy  Dy20  1  0.879818  0.615785  0.663505  1
  Dy  Dy21  1  0.891919  0.612841  0.000008  1
  Dy  Dy22  1  0.989767  0.261364  0.162898  1
  Dy  Dy23  1  0.986756  0.262374  0.837407  1
  Se  Se24  1  0.004065  0.993698  0.503026  1
  Se  Se25  1  0.059258  0.689040  0.500352  1
  Se  Se26  1  0.066804  0.685493  0.832946  1
  Se  Se27  1  0.070483  0.685979  0.167219  1
  Se  Se28  1  0.069355  0.431769  0.000660  1
  Se  Se29  1  0.072870  0.430592  0.332487  1
  Se  Se30  1  0.066325  0.432623  0.665723  1
  Se  Se31  1  0.066509  0.082019  0.001816  1
  Se  Se32  1  0.122747  0.114920  0.695013  1
  Se  Se33  1  0.125599  0.116079  0.308828  1
  Se  Se34  1  0.244180  0.232686  0.161815  1
  Se  Se35  1  0.238285  0.228520  0.839939  1
  Se  Se36  1  0.270042  0.263241  0.498626  1
  Se  Se37  1  0.308862  0.947552  0.501198  1
  Se  Se38  1  0.314627  0.931792  0.833589  1
  Se  Se39  1  0.312304  0.933690  0.166059  1
  Se  Se40  1  0.318340  0.683186  0.664656  1
  Se  Se41  1  0.324524  0.684392  0.337626  1
  Se  Se42  1  0.329389  0.670315  0.998861  1
  Se  Se43  1  0.368602  0.360039  0.002735  1
  Se  Se44  1  0.405877  0.398491  0.348664  1
  Se  Se45  1  0.391371  0.383973  0.651332  1
  Se  Se46  1  0.522202  0.510815  0.204758  1
  Se  Se47  1  0.505363  0.497496  0.810124  1
  Se  Se48  1  0.566747  0.932406  0.331272  1
  Se  Se49  1  0.568625  0.934857  0.668476  1
  Se  Se50  1  0.569418  0.930923  0.998699  1
  Se  Se51  1  0.559787  0.186218  0.164982  1
  Se  Se52  1  0.559687  0.189497  0.833537  1
  Se  Se53  1  0.570223  0.182352  0.499719  1
  Se  Se54  1  0.619069  0.609991  0.629050  1
  Se  Se55  1  0.635508  0.627958  0.002934  1
  Se  Se56  1  0.725555  0.720208  0.478423  1
  Se  Se57  1  0.761150  0.749662  0.170782  1
  Se  Se58  1  0.767024  0.758378  0.837289  1
  Se  Se59  1  0.813330  0.440496  0.167997  1
  Se  Se60  1  0.810892  0.442502  0.832087  1
  Se  Se61  1  0.804034  0.196223  0.000424  1
  Se  Se62  1  0.814258  0.431532  0.494587  1
  Se  Se63  1  0.827162  0.170621  0.330197  1
  Se  Se64  1  0.823959  0.176231  0.668229  1
  Se  Se65  1  0.879726  0.869433  0.313992  1
  Se  Se66  1  0.881434  0.873497  0.689740  1
  Se  Se67  1  0.914084  0.929353  0.000718  1
