# generated using pymatgen
data_SiPN3
_symmetry_space_group_name_H-M   'P 1'
_cell_length_a   9.41993417
_cell_length_b   5.30268496
_cell_length_c   5.30268508
_cell_angle_alpha   120.22365838
_cell_angle_beta   89.90810550
_cell_angle_gamma   89.90810549
_symmetry_Int_Tables_number   1
_chemical_formula_structural   SiPN3
_chemical_formula_sum   'Si4 P4 N12'
_cell_volume   228.86780769
_cell_formula_units_Z   4
loop_
 _symmetry_equiv_pos_site_id
 _symmetry_equiv_pos_as_xyz
  1  'x, y, z'
loop_
 _atom_site_type_symbol
 _atom_site_label
 _atom_site_symmetry_multiplicity
 _atom_site_fract_x
 _atom_site_fract_y
 _atom_site_fract_z
 _atom_site_occupancy
  N  N0  1  0.177502  0.095297  0.664566  1
  N  N1  1  0.171653  0.656038  0.087038  1
  N  N2  1  0.218544  0.247098  0.226468  1
  N  N3  1  0.421292  0.339844  0.897158  1
  N  N4  1  0.428014  0.920735  0.341446  1
  N  N5  1  0.467600  0.776128  0.753442  1
  N  N6  1  0.671653  0.087038  0.656038  1
  N  N7  1  0.677502  0.664566  0.095297  1
  N  N8  1  0.718544  0.226468  0.247098  1
  N  N9  1  0.928014  0.341446  0.920735  1
  N  N10  1  0.921292  0.897158  0.339844  1
  N  N11  1  0.967600  0.753442  0.776128  1
  P  P12  1  0.997235  0.663530  0.006173  1
  P  P13  1  0.248585  0.325465  0.988061  1
  P  P14  1  0.497235  0.006173  0.663530  1
  P  P15  1  0.748585  0.988061  0.325465  1
  Si  Si16  1  0.002438  0.999551  0.681723  1
  Si  Si17  1  0.250837  0.004051  0.326191  1
  Si  Si18  1  0.502438  0.681723  0.999551  1
  Si  Si19  1  0.750837  0.326191  0.004051  1
