# generated using pymatgen
data_K2NaAs
_symmetry_space_group_name_H-M   'P 1'
_cell_length_a   5.37954028
_cell_length_b   5.37954058
_cell_length_c   10.65568984
_cell_angle_alpha   90.00000000
_cell_angle_beta   90.00000000
_cell_angle_gamma   119.99999815
_symmetry_Int_Tables_number   1
_chemical_formula_structural   K2NaAs
_chemical_formula_sum   'K4 Na2 As2'
_cell_volume   267.05613678
_cell_formula_units_Z   2
loop_
 _symmetry_equiv_pos_site_id
 _symmetry_equiv_pos_as_xyz
  1  'x, y, z'
loop_
 _atom_site_type_symbol
 _atom_site_label
 _atom_site_symmetry_multiplicity
 _atom_site_fract_x
 _atom_site_fract_y
 _atom_site_fract_z
 _atom_site_occupancy
  As  As0  1  0.333333  0.666667  0.750000  1
  As  As1  1  0.666667  0.333333  0.250000  1
  K  K2  1  0.333333  0.666667  0.084412  1
  K  K3  1  0.333333  0.666667  0.415588  1
  K  K4  1  0.666667  0.333333  0.584412  1
  K  K5  1  0.666667  0.333333  0.915588  1
  Na  Na6  1  0.000000  0.000000  0.250000  1
  Na  Na7  1  0.000000  0.000000  0.750000  1
