# generated using pymatgen
data_WI3O
_symmetry_space_group_name_H-M   'P 1'
_cell_length_a   3.86775593
_cell_length_b   13.98673533
_cell_length_c   13.98673533
_cell_angle_alpha   90.00000000
_cell_angle_beta   90.00000000
_cell_angle_gamma   90.00000000
_symmetry_Int_Tables_number   1
_chemical_formula_structural   WI3O
_chemical_formula_sum   'W4 I12 O4'
_cell_volume   756.64431665
_cell_formula_units_Z   4
loop_
 _symmetry_equiv_pos_site_id
 _symmetry_equiv_pos_as_xyz
  1  'x, y, z'
loop_
 _atom_site_type_symbol
 _atom_site_label
 _atom_site_symmetry_multiplicity
 _atom_site_fract_x
 _atom_site_fract_y
 _atom_site_fract_z
 _atom_site_occupancy
  O  O0  1  0.499999  0.897923  0.897923  1
  O  O1  1  0.000000  0.602077  0.397923  1
  O  O2  1  0.000000  0.397923  0.602077  1
  O  O3  1  0.499999  0.102077  0.102077  1
  I  I4  1  0.000000  0.900789  0.099212  1
  I  I5  1  0.499999  0.599212  0.599212  1
  I  I6  1  0.499999  0.400789  0.400789  1
  I  I7  1  0.000000  0.099212  0.900789  1
  I  I8  1  0.000000  0.300673  0.098680  1
  I  I9  1  0.499999  0.401321  0.800673  1
  I  I10  1  0.000000  0.901321  0.699327  1
  I  I11  1  0.000000  0.699327  0.901321  1
  I  I12  1  0.499999  0.800673  0.401321  1
  I  I13  1  0.499999  0.199327  0.598680  1
  I  I14  1  0.000000  0.098680  0.300673  1
  I  I15  1  0.499999  0.598680  0.199327  1
  W  W16  1  0.000000  0.893001  0.893001  1
  W  W17  1  0.499999  0.606998  0.393001  1
  W  W18  1  0.499999  0.393001  0.606998  1
  W  W19  1  0.000000  0.106999  0.106999  1
