# generated using pymatgen
data_AgSbS2
_symmetry_space_group_name_H-M   'P 1'
_cell_length_a   7.76915133
_cell_length_b   10.41516511
_cell_length_c   6.91011344
_cell_angle_alpha   29.01564553
_cell_angle_beta   55.78549393
_cell_angle_gamma   41.55904826
_symmetry_Int_Tables_number   1
_chemical_formula_structural   AgSbS2
_chemical_formula_sum   'Ag2 Sb2 S4'
_cell_volume   172.39924694
_cell_formula_units_Z   2
loop_
 _symmetry_equiv_pos_site_id
 _symmetry_equiv_pos_as_xyz
  1  'x, y, z'
loop_
 _atom_site_type_symbol
 _atom_site_label
 _atom_site_symmetry_multiplicity
 _atom_site_fract_x
 _atom_site_fract_y
 _atom_site_fract_z
 _atom_site_occupancy
  Ag  Ag0  1  0.499498  1.000013  0.000922  1
  Ag  Ag1  1  0.250502  0.499987  0.999078  1
  S  S2  1  0.242250  0.999956  0.515611  1
  S  S3  1  0.758560  -0.000001  0.482876  1
  S  S4  1  0.507750  0.500044  0.484389  1
  S  S5  1  0.991440  0.500001  0.517124  1
  Sb  Sb6  1  0.998649  0.999855  0.003048  1
  Sb  Sb7  1  0.751351  0.500145  0.996952  1
