# generated using pymatgen
data_Hf2Si4Ru3
_symmetry_space_group_name_H-M   'P 1'
_cell_length_a   5.35490869
_cell_length_b   9.86859127
_cell_length_c   10.96874514
_cell_angle_alpha   79.19727327
_cell_angle_beta   75.87143528
_cell_angle_gamma   74.25772437
_symmetry_Int_Tables_number   1
_chemical_formula_structural   Hf2Si4Ru3
_chemical_formula_sum   'Hf8 Si16 Ru12'
_cell_volume   536.44909029
_cell_formula_units_Z   4
loop_
 _symmetry_equiv_pos_site_id
 _symmetry_equiv_pos_as_xyz
  1  'x, y, z'
loop_
 _atom_site_type_symbol
 _atom_site_label
 _atom_site_symmetry_multiplicity
 _atom_site_fract_x
 _atom_site_fract_y
 _atom_site_fract_z
 _atom_site_occupancy
  Si  Si0  1  0.872684  0.250000  0.750000  1
  Si  Si1  1  0.127316  0.750000  0.250000  1
  Si  Si2  1  0.381430  0.250000  0.750000  1
  Si  Si3  1  0.618570  0.750000  0.250000  1
  Si  Si4  1  0.744595  0.120661  0.105734  1
  Si  Si5  1  0.970991  0.379339  0.394266  1
  Si  Si6  1  0.255405  0.879339  0.894266  1
  Si  Si7  1  0.029009  0.620661  0.605734  1
  Si  Si8  1  0.913979  0.722761  0.935600  1
  Si  Si9  1  0.572340  0.777239  0.564400  1
  Si  Si10  1  0.086021  0.277239  0.064400  1
  Si  Si11  1  0.427660  0.222761  0.435600  1
  Si  Si12  1  0.857368  0.926447  0.604500  1
  Si  Si13  1  0.388315  0.573553  0.895500  1
  Si  Si14  1  0.142632  0.073553  0.395500  1
  Si  Si15  1  0.611685  0.426447  0.104500  1
  Ru  Ru16  1  0.174314  0.756352  0.719673  1
  Ru  Ru17  1  0.650339  0.743648  0.780327  1
  Ru  Ru18  1  0.521336  0.312699  0.932597  1
  Ru  Ru19  1  0.349661  0.256352  0.219673  1
  Ru  Ru20  1  0.865785  0.626663  0.415728  1
  Ru  Ru21  1  0.908176  0.873337  0.084272  1
  Ru  Ru22  1  0.134215  0.373337  0.584272  1
  Ru  Ru23  1  0.091824  0.126663  0.915728  1
  Ru  Ru24  1  0.478664  0.687301  0.067403  1
  Ru  Ru25  1  0.233368  0.812699  0.432597  1
  Ru  Ru26  1  0.766632  0.187301  0.567403  1
  Ru  Ru27  1  0.825686  0.243648  0.280327  1
  Hf  Hf28  1  0.444921  0.501252  0.351755  1
  Hf  Hf29  1  0.297928  0.998748  0.148245  1
  Hf  Hf30  1  0.555079  0.498748  0.648245  1
  Hf  Hf31  1  0.702072  0.001252  0.851755  1
  Hf  Hf32  1  0.705878  0.969610  0.362174  1
  Hf  Hf33  1  0.037663  0.530390  0.137826  1
  Hf  Hf34  1  0.294122  0.030390  0.637826  1
  Hf  Hf35  1  0.962337  0.469610  0.862174  1
