# generated using pymatgen
data_Li8CoO6
_symmetry_space_group_name_H-M   'P 1'
_cell_length_a   5.55638745
_cell_length_b   5.55638746
_cell_length_c   10.88678558
_cell_angle_alpha   90.00000000
_cell_angle_beta   90.00000000
_cell_angle_gamma   120.00000002
_symmetry_Int_Tables_number   1
_chemical_formula_structural   Li8CoO6
_chemical_formula_sum   'Li16 Co2 O12'
_cell_volume   291.08199645
_cell_formula_units_Z   2
loop_
 _symmetry_equiv_pos_site_id
 _symmetry_equiv_pos_as_xyz
  1  'x, y, z'
loop_
 _atom_site_type_symbol
 _atom_site_label
 _atom_site_symmetry_multiplicity
 _atom_site_fract_x
 _atom_site_fract_y
 _atom_site_fract_z
 _atom_site_occupancy
  Li  Li0  1  0.687316  0.000000  0.767648  1
  Li  Li1  1  0.687316  0.687316  0.267648  1
  Li  Li2  1  0.000000  0.312684  0.267648  1
  Li  Li3  1  0.000000  0.687316  0.767648  1
  Li  Li4  1  0.312684  0.312684  0.767648  1
  Li  Li5  1  0.312684  0.000000  0.267648  1
  Li  Li6  1  0.611942  0.000000  0.127480  1
  Li  Li7  1  0.611942  0.611942  0.627480  1
  Li  Li8  1  0.000000  0.388058  0.627480  1
  Li  Li9  1  0.000000  0.611942  0.127480  1
  Li  Li10  1  0.388058  0.388058  0.127480  1
  Li  Li11  1  0.388058  0.000000  0.627480  1
  Li  Li12  1  0.666667  0.333333  0.407135  1
  Li  Li13  1  0.333333  0.666667  0.907135  1
  Li  Li14  1  0.333333  0.666667  0.407135  1
  Li  Li15  1  0.666667  0.333333  0.907135  1
  O  O16  1  0.690559  0.000000  0.949139  1
  O  O17  1  0.690559  0.690559  0.449139  1
  O  O18  1  0.000000  0.309441  0.449139  1
  O  O19  1  0.000000  0.690559  0.949139  1
  O  O20  1  0.309441  0.309441  0.949139  1
  O  O21  1  0.309441  0.000000  0.449139  1
  O  O22  1  0.666667  0.333333  0.216638  1
  O  O23  1  0.333333  0.666667  0.716638  1
  O  O24  1  0.666667  0.333333  0.716638  1
  O  O25  1  0.333333  0.666667  0.216638  1
  O  O26  1  0.000000  0.000000  0.665707  1
  O  O27  1  0.000000  0.000000  0.165707  1
  Co  Co28  1  0.000000  0.000000  0.495944  1
  Co  Co29  1  0.000000  0.000000  0.995944  1
