# generated using pymatgen
data_HoTlPd
_symmetry_space_group_name_H-M   'P 1'
_cell_length_a   7.85779210
_cell_length_b   7.85779183
_cell_length_c   3.77913636
_cell_angle_alpha   90.00000000
_cell_angle_beta   90.00000000
_cell_angle_gamma   120.00000112
_symmetry_Int_Tables_number   1
_chemical_formula_structural   HoTlPd
_chemical_formula_sum   'Ho3 Tl3 Pd3'
_cell_volume   202.08042333
_cell_formula_units_Z   3
loop_
 _symmetry_equiv_pos_site_id
 _symmetry_equiv_pos_as_xyz
  1  'x, y, z'
loop_
 _atom_site_type_symbol
 _atom_site_label
 _atom_site_symmetry_multiplicity
 _atom_site_fract_x
 _atom_site_fract_y
 _atom_site_fract_z
 _atom_site_occupancy
  Ho  Ho0  1  0.593928  0.000000  0.500000  1
  Ho  Ho1  1  0.406072  0.406072  0.500000  1
  Ho  Ho2  1  0.000000  0.593928  0.500000  1
  Pd  Pd3  1  0.000000  0.000000  0.500000  1
  Pd  Pd4  1  0.333333  0.666667  0.000000  1
  Pd  Pd5  1  0.666667  0.333333  0.000000  1
  Tl  Tl6  1  0.267010  0.000000  0.000000  1
  Tl  Tl7  1  0.732990  0.732990  0.000000  1
  Tl  Tl8  1  1.000000  0.267010  0.000000  1
