# generated using pymatgen
data_Zr2Cr4Si5
_symmetry_space_group_name_H-M   'P 1'
_cell_length_a   4.96102277
_cell_length_b   7.60960324
_cell_length_c   9.25255675
_cell_angle_alpha   114.28034156
_cell_angle_beta   105.55024666
_cell_angle_gamma   90.00045237
_symmetry_Int_Tables_number   1
_chemical_formula_structural   Zr2Cr4Si5
_chemical_formula_sum   'Zr4 Cr8 Si10'
_cell_volume   304.31833832
_cell_formula_units_Z   2
loop_
 _symmetry_equiv_pos_site_id
 _symmetry_equiv_pos_as_xyz
  1  'x, y, z'
loop_
 _atom_site_type_symbol
 _atom_site_label
 _atom_site_symmetry_multiplicity
 _atom_site_fract_x
 _atom_site_fract_y
 _atom_site_fract_z
 _atom_site_occupancy
  Zr  Zr0  1  0.641213  0.263117  0.282439  1
  Zr  Zr1  1  0.358787  0.736883  0.717561  1
  Zr  Zr2  1  0.858793  0.980674  0.717558  1
  Zr  Zr3  1  0.141207  0.019326  0.282442  1
  Cr  Cr4  1  0.938647  0.685740  0.877285  1
  Cr  Cr5  1  0.061353  0.314260  0.122715  1
  Cr  Cr6  1  0.561349  0.808460  0.122712  1
  Cr  Cr7  1  0.438651  0.191540  0.877289  1
  Cr  Cr8  1  0.941092  0.691074  0.382140  1
  Cr  Cr9  1  0.558924  0.308933  0.617869  1
  Cr  Cr10  1  0.058908  0.308926  0.617860  1
  Cr  Cr11  1  0.441076  0.691067  0.382131  1
  Si  Si12  1  0.563947  0.491304  0.127964  1
  Si  Si13  1  0.436053  0.508696  0.872036  1
  Si  Si14  1  0.936039  0.363346  0.872059  1
  Si  Si15  1  0.063961  0.636654  0.127941  1
  Si  Si16  1  0.789112  0.580120  0.578270  1
  Si  Si17  1  0.210888  0.419880  0.421730  1
  Si  Si18  1  0.710826  0.001843  0.421738  1
  Si  Si19  1  0.289174  0.998157  0.578262  1
  Si  Si20  1  0.249979  0.999999  1.000003  1
  Si  Si21  1  0.750021  0.000001  -0.000003  1
