# generated using pymatgen
data_Sr(RuO3)2
_symmetry_space_group_name_H-M   'P 1'
_cell_length_a   5.47951755
_cell_length_b   5.47608468
_cell_length_c   5.47608437
_cell_angle_alpha   60.04119350
_cell_angle_beta   60.00552121
_cell_angle_gamma   60.00552303
_symmetry_Int_Tables_number   1
_chemical_formula_structural   Sr(RuO3)2
_chemical_formula_sum   'Sr1 Ru2 O6'
_cell_volume   116.23552958
_cell_formula_units_Z   1
loop_
 _symmetry_equiv_pos_site_id
 _symmetry_equiv_pos_as_xyz
  1  'x, y, z'
loop_
 _atom_site_type_symbol
 _atom_site_label
 _atom_site_symmetry_multiplicity
 _atom_site_fract_x
 _atom_site_fract_y
 _atom_site_fract_z
 _atom_site_occupancy
  O  O0  1  0.279280  0.250021  0.250021  1
  O  O1  1  0.234920  0.765103  0.265188  1
  O  O2  1  0.234920  0.265188  0.765103  1
  O  O3  1  0.765194  0.734868  0.234832  1
  O  O4  1  0.765194  0.234832  0.734868  1
  O  O5  1  0.720486  0.749978  0.749978  1
  Ru  Ru6  1  0.999706  0.500256  0.500256  1
  Ru  Ru7  1  0.500124  0.999768  0.999768  1
  Sr  Sr8  1  0.750677  0.249986  0.249986  1
