# generated using pymatgen
data_H34C19
_symmetry_space_group_name_H-M   'P 1'
_cell_length_a   7.66658327
_cell_length_b   11.10464874
_cell_length_c   10.96741759
_cell_angle_alpha   104.43852646
_cell_angle_beta   90.00000000
_cell_angle_gamma   90.00000000
_symmetry_Int_Tables_number   1
_chemical_formula_structural   H34C19
_chemical_formula_sum   'H68 C38'
_cell_volume   904.21746878
_cell_formula_units_Z   2
loop_
 _symmetry_equiv_pos_site_id
 _symmetry_equiv_pos_as_xyz
  1  'x, y, z'
loop_
 _atom_site_type_symbol
 _atom_site_label
 _atom_site_symmetry_multiplicity
 _atom_site_fract_x
 _atom_site_fract_y
 _atom_site_fract_z
 _atom_site_occupancy
  H  H0  1  0.232664  0.338761  0.219903  1
  H  H1  1  0.732664  0.661239  0.780097  1
  H  H2  1  0.624790  0.141881  0.685713  1
  H  H3  1  0.124790  0.858119  0.314287  1
  H  H4  1  0.781816  0.042603  0.593294  1
  H  H5  1  0.281816  0.957397  0.406706  1
  H  H6  1  0.821951  0.109571  0.754045  1
  H  H7  1  0.321951  0.890429  0.245955  1
  H  H8  1  0.901981  0.354668  0.048077  1
  H  H9  1  0.401981  0.645332  0.951923  1
  H  H10  1  0.701839  0.333543  0.964916  1
  H  H11  1  0.201839  0.666457  0.035084  1
  H  H12  1  0.864447  0.216772  0.929712  1
  H  H13  1  0.364447  0.783228  0.070288  1
  H  H14  1  0.199054  0.184296  0.232209  1
  H  H15  1  0.699054  0.815704  0.767791  1
  H  H16  1  0.190133  0.218925  0.083144  1
  H  H17  1  0.690133  0.781075  0.916856  1
  H  H18  1  0.428966  0.014915  0.066355  1
  H  H19  1  0.928966  0.985085  0.933645  1
  H  H20  1  0.418415  0.112132  0.960344  1
  H  H21  1  0.918415  0.887868  0.039656  1
  H  H22  1  0.622275  0.081609  0.022204  1
  H  H23  1  0.122275  0.918391  0.977796  1
  H  H24  1  0.018297  0.706288  0.868919  1
  H  H25  1  0.518297  0.293712  0.131081  1
  H  H26  1  0.583935  0.393116  0.365796  1
  H  H27  1  0.083935  0.606884  0.634204  1
  H  H28  1  0.377540  0.340021  0.401660  1
  H  H29  1  0.877540  0.659979  0.598340  1
  H  H30  1  0.970780  0.880041  0.695651  1
  H  H31  1  0.470780  0.119959  0.304349  1
  H  H32  1  0.258401  0.918136  0.807843  1
  H  H33  1  0.758401  0.081864  0.192157  1
  H  H34  1  0.807282  0.241940  0.243453  1
  H  H35  1  0.307282  0.758060  0.756547  1
  H  H36  1  0.945655  0.119567  0.379840  1
  H  H37  1  0.445655  0.880433  0.620160  1
  H  H38  1  0.612178  0.717922  0.426102  1
  H  H39  1  0.112178  0.282078  0.573898  1
  H  H40  1  0.077278  0.121418  0.556664  1
  H  H41  1  0.577278  0.878582  0.443336  1
  H  H42  1  0.286627  0.206406  0.728960  1
  H  H43  1  0.786627  0.793594  0.271040  1
  H  H44  1  0.600167  0.850285  0.211032  1
  H  H45  1  0.100167  0.149715  0.788968  1
  H  H46  1  0.178414  0.422591  0.795269  1
  H  H47  1  0.678414  0.577409  0.204731  1
  H  H48  1  0.184917  0.357333  0.926426  1
  H  H49  1  0.684917  0.642667  0.073574  1
  H  H50  1  0.914210  0.483415  0.904302  1
  H  H51  1  0.414210  0.516585  0.095698  1
  H  H52  1  0.390451  0.565726  0.311455  1
  H  H53  1  0.890451  0.434274  0.688545  1
  H  H54  1  0.120018  0.509061  0.181682  1
  H  H55  1  0.620018  0.490939  0.818318  1
  H  H56  1  0.557722  0.333638  0.780667  1
  H  H57  1  0.057722  0.666362  0.219333  1
  H  H58  1  0.624570  0.493147  0.593377  1
  H  H59  1  0.124570  0.506853  0.406623  1
  H  H60  1  0.419413  0.438447  0.629480  1
  H  H61  1  0.919413  0.561553  0.370520  1
  H  H62  1  0.509387  0.221093  0.538191  1
  H  H63  1  0.009387  0.778907  0.461809  1
  H  H64  1  0.355044  0.665839  0.515731  1
  H  H65  1  0.855044  0.334161  0.484269  1
  H  H66  1  0.740139  0.061382  0.409369  1
  H  H67  1  0.240139  0.938618  0.590631  1
  C  C68  1  0.765354  0.128011  0.668738  1
  C  C69  1  0.265354  0.871989  0.331262  1
  C  C70  1  0.843132  0.317738  0.954737  1
  C  C71  1  0.343132  0.682262  0.045263  1
  C  C72  1  0.483895  0.099318  0.045491  1
  C  C73  1  0.983895  0.900682  0.954509  1
  C  C74  1  0.258956  0.240840  0.173929  1
  C  C75  1  0.758956  0.759160  0.826071  1
  C  C76  1  0.455381  0.213357  0.155911  1
  C  C77  1  0.955381  0.786643  0.844089  1
  C  C78  1  0.516152  0.313705  0.389189  1
  C  C79  1  0.016152  0.686295  0.610811  1
  C  C80  1  0.539828  0.198253  0.279368  1
  C  C81  1  0.039828  0.801747  0.720632  1
  C  C82  1  0.734672  0.165507  0.268533  1
  C  C83  1  0.234672  0.834493  0.731467  1
  C  C84  1  0.806374  0.143625  0.391777  1
  C  C85  1  0.306374  0.856375  0.608223  1
  C  C86  1  0.854488  0.238808  0.632717  1
  C  C87  1  0.354488  0.761192  0.367283  1
  C  C88  1  0.780000  0.256041  0.504757  1
  C  C89  1  0.280000  0.743959  0.495243  1
  C  C90  1  0.586591  0.296553  0.514837  1
  C  C91  1  0.086591  0.703447  0.485163  1
  C  C92  1  0.559360  0.414826  0.620497  1
  C  C93  1  0.059360  0.585174  0.379503  1
  C  C94  1  0.633991  0.402476  0.746100  1
  C  C95  1  0.133991  0.597524  0.253900  1
  C  C96  1  0.826930  0.365435  0.732004  1
  C  C97  1  0.326930  0.634565  0.267996  1
  C  C98  1  0.923055  0.382630  0.859663  1
  C  C99  1  0.423055  0.617370  0.140337  1
  C  C100  1  0.117781  0.351450  0.836251  1
  C  C101  1  0.617781  0.648550  0.163749  1
  C  C102  1  0.146058  0.223654  0.745781  1
  C  C103  1  0.646058  0.776346  0.254219  1
  C  C104  1  0.053245  0.213844  0.619854  1
  C  C105  1  0.553245  0.786156  0.380146  1
