# generated using pymatgen
data_SrCO3
_symmetry_space_group_name_H-M   'P 1'
_cell_length_a   4.37156321
_cell_length_b   4.37156273
_cell_length_c   8.37043777
_cell_angle_alpha   71.76304336
_cell_angle_beta   71.76304470
_cell_angle_gamma   72.89890903
_symmetry_Int_Tables_number   1
_chemical_formula_structural   SrCO3
_chemical_formula_sum   'Sr2 C2 O6'
_cell_volume   140.84582452
_cell_formula_units_Z   2
loop_
 _symmetry_equiv_pos_site_id
 _symmetry_equiv_pos_as_xyz
  1  'x, y, z'
loop_
 _atom_site_type_symbol
 _atom_site_label
 _atom_site_symmetry_multiplicity
 _atom_site_fract_x
 _atom_site_fract_y
 _atom_site_fract_z
 _atom_site_occupancy
  C  C0  1  0.034400  0.034400  0.517577  1
  C  C1  1  0.965600  0.965600  0.982423  1
  O  O2  1  0.097236  0.663847  0.053732  1
  O  O3  1  0.125964  0.125964  0.839682  1
  O  O4  1  0.663847  0.097236  0.053732  1
  O  O5  1  0.336153  0.902764  0.446268  1
  O  O6  1  0.902764  0.336153  0.446268  1
  O  O7  1  0.874036  0.874036  0.660318  1
  Sr  Sr8  1  0.500000  0.500000  0.250000  1
  Sr  Sr9  1  0.500000  0.500000  0.750000  1
