# generated using pymatgen
data_Ca4Al51Cr7
_symmetry_space_group_name_H-M   'P 1'
_cell_length_a   10.24056617
_cell_length_b   10.24056617
_cell_length_c   11.50563477
_cell_angle_alpha   90.00000000
_cell_angle_beta   90.00000000
_cell_angle_gamma   119.99999998
_symmetry_Int_Tables_number   1
_chemical_formula_structural   Ca4Al51Cr7
_chemical_formula_sum   'Ca4 Al51 Cr7'
_cell_volume   1044.93470074
_cell_formula_units_Z   1
loop_
 _symmetry_equiv_pos_site_id
 _symmetry_equiv_pos_as_xyz
  1  'x, y, z'
loop_
 _atom_site_type_symbol
 _atom_site_label
 _atom_site_symmetry_multiplicity
 _atom_site_fract_x
 _atom_site_fract_y
 _atom_site_fract_z
 _atom_site_occupancy
  Al  Al0  1  0.244575  0.755425  0.922761  1
  Al  Al1  1  0.244575  0.489151  0.922761  1
  Al  Al2  1  0.510849  0.755425  0.922761  1
  Al  Al3  1  0.757399  0.242601  0.441518  1
  Al  Al4  1  0.757399  0.514799  0.441518  1
  Al  Al5  1  0.485201  0.242601  0.441518  1
  Al  Al6  1  0.512531  0.487469  0.314690  1
  Al  Al7  1  0.512531  0.025061  0.314690  1
  Al  Al8  1  0.974939  0.487469  0.314690  1
  Al  Al9  1  0.909147  0.090853  0.414238  1
  Al  Al10  1  0.909147  0.818295  0.414238  1
  Al  Al11  1  0.181705  0.090853  0.414238  1
  Al  Al12  1  0.757979  0.242021  0.874606  1
  Al  Al13  1  0.757979  0.515957  0.874606  1
  Al  Al14  1  0.484043  0.242021  0.874606  1
  Al  Al15  1  0.821042  0.178958  0.226005  1
  Al  Al16  1  0.821042  0.642085  0.226005  1
  Al  Al17  1  0.357915  0.178958  0.226005  1
  Al  Al18  1  0.424293  0.575707  0.127101  1
  Al  Al19  1  0.424293  0.848585  0.127101  1
  Al  Al20  1  0.151415  0.575707  0.127101  1
  Al  Al21  1  0.088856  0.911144  0.619096  1
  Al  Al22  1  0.088856  0.177712  0.619096  1
  Al  Al23  1  0.822288  0.911144  0.619096  1
  Al  Al24  1  0.166571  0.833429  0.270164  1
  Al  Al25  1  0.166571  0.333143  0.270164  1
  Al  Al26  1  0.666857  0.833429  0.270164  1
  Al  Al27  1  0.576106  0.423894  0.098816  1
  Al  Al28  1  0.576106  0.152212  0.098816  1
  Al  Al29  1  0.847788  0.423894  0.098816  1
  Al  Al30  1  0.575906  0.424094  0.664058  1
  Al  Al31  1  0.575906  0.151813  0.664058  1
  Al  Al32  1  0.848187  0.424094  0.664058  1
  Al  Al33  1  0.309101  0.335880  0.769330  1
  Al  Al34  1  0.664120  0.973221  0.769330  1
  Al  Al35  1  0.026779  0.690899  0.769330  1
  Al  Al36  1  0.026779  0.335880  0.769330  1
  Al  Al37  1  0.309101  0.973221  0.769330  1
  Al  Al38  1  0.664120  0.690899  0.769330  1
  Al  Al39  1  0.996997  0.730950  0.024826  1
  Al  Al40  1  0.269050  0.266047  0.024826  1
  Al  Al41  1  0.733953  0.003003  0.024826  1
  Al  Al42  1  0.733953  0.730950  0.024826  1
  Al  Al43  1  0.996997  0.266047  0.024826  1
  Al  Al44  1  0.269050  0.003003  0.024826  1
  Al  Al45  1  0.599506  0.664022  0.515414  1
  Al  Al46  1  0.335978  0.935484  0.515414  1
  Al  Al47  1  0.064516  0.400494  0.515414  1
  Al  Al48  1  0.064516  0.664022  0.515414  1
  Al  Al49  1  0.599506  0.935484  0.515414  1
  Al  Al50  1  0.335978  0.400494  0.515414  1
  Ca  Ca51  1  0.000000  0.000000  0.855615  1
  Ca  Ca52  1  0.000000  0.000000  0.173406  1
  Ca  Ca53  1  0.333333  0.666667  0.685438  1
  Ca  Ca54  1  0.333333  0.666667  0.366911  1
  Cr  Cr55  1  0.666667  0.333333  0.270267  1
  Cr  Cr56  1  0.835721  0.164279  0.614118  1
  Cr  Cr57  1  0.835721  0.671442  0.614118  1
  Cr  Cr58  1  0.328558  0.164279  0.614118  1
  Cr  Cr59  1  0.497387  0.502613  0.926911  1
  Cr  Cr60  1  0.497387  0.994774  0.926911  1
  Cr  Cr61  1  0.005226  0.502613  0.926911  1
