# generated using pymatgen
data_Mn2NiO4
_symmetry_space_group_name_H-M   'P 1'
_cell_length_a   6.03888540
_cell_length_b   6.03888552
_cell_length_c   6.00922699
_cell_angle_alpha   60.16233634
_cell_angle_beta   60.16233565
_cell_angle_gamma   60.18483674
_symmetry_Int_Tables_number   1
_chemical_formula_structural   Mn2NiO4
_chemical_formula_sum   'Mn4 Ni2 O8'
_cell_volume   155.55516902
_cell_formula_units_Z   2
loop_
 _symmetry_equiv_pos_site_id
 _symmetry_equiv_pos_as_xyz
  1  'x, y, z'
loop_
 _atom_site_type_symbol
 _atom_site_label
 _atom_site_symmetry_multiplicity
 _atom_site_fract_x
 _atom_site_fract_y
 _atom_site_fract_z
 _atom_site_occupancy
  Mn  Mn0  1  0.992316  0.992316  0.007684  1
  Mn  Mn1  1  0.257684  0.257684  0.242316  1
  Mn  Mn2  1  0.625000  0.625000  0.125000  1
  Mn  Mn3  1  0.625000  0.625000  0.625000  1
  Ni  Ni4  1  0.125000  0.625000  0.625000  1
  Ni  Ni5  1  0.625000  0.125000  0.625000  1
  O  O6  1  0.397956  0.397956  0.371557  1
  O  O7  1  0.406392  0.839596  0.377006  1
  O  O8  1  0.397956  0.397956  0.832532  1
  O  O9  1  0.839596  0.406392  0.377006  1
  O  O10  1  0.410404  0.843608  0.872994  1
  O  O11  1  0.852044  0.852044  0.417468  1
  O  O12  1  0.843608  0.410404  0.872994  1
  O  O13  1  0.852044  0.852044  0.878443  1
