# generated using pymatgen
data_Hg2SeO5
_symmetry_space_group_name_H-M   'P 1'
_cell_length_a   7.31752693
_cell_length_b   9.79135439
_cell_length_c   15.53719837
_cell_angle_alpha   108.60928118
_cell_angle_beta   90.00000000
_cell_angle_gamma   90.00000000
_symmetry_Int_Tables_number   1
_chemical_formula_structural   Hg2SeO5
_chemical_formula_sum   'Hg16 Se8 O40'
_cell_volume   1055.01432659
_cell_formula_units_Z   8
loop_
 _symmetry_equiv_pos_site_id
 _symmetry_equiv_pos_as_xyz
  1  'x, y, z'
loop_
 _atom_site_type_symbol
 _atom_site_label
 _atom_site_symmetry_multiplicity
 _atom_site_fract_x
 _atom_site_fract_y
 _atom_site_fract_z
 _atom_site_occupancy
  O  O0  1  0.184224  0.971861  0.699072  1
  O  O1  1  0.684224  0.528139  0.800928  1
  O  O2  1  0.815776  0.028139  0.300928  1
  O  O3  1  0.315776  0.471861  0.199072  1
  O  O4  1  0.367769  0.288386  0.849507  1
  O  O5  1  0.867769  0.211614  0.650493  1
  O  O6  1  0.632231  0.711614  0.150493  1
  O  O7  1  0.132231  0.788386  0.349507  1
  O  O8  1  0.272032  0.046434  0.549204  1
  O  O9  1  0.772032  0.453566  0.950796  1
  O  O10  1  0.727968  0.953566  0.450796  1
  O  O11  1  0.227968  0.546434  0.049204  1
  O  O12  1  0.039329  0.453939  0.827675  1
  O  O13  1  0.539329  0.046061  0.672325  1
  O  O14  1  0.960671  0.546061  0.172325  1
  O  O15  1  0.402128  0.744941  0.955444  1
  O  O16  1  0.460671  0.953939  0.327675  1
  O  O17  1  0.869383  0.078397  0.837116  1
  O  O18  1  0.630617  0.578397  0.337116  1
  O  O19  1  0.130617  0.921603  0.162884  1
  O  O20  1  0.894438  0.711049  0.938283  1
  O  O21  1  0.394438  0.788951  0.561717  1
  O  O22  1  0.105562  0.288951  0.061717  1
  O  O23  1  0.605562  0.211049  0.438283  1
  O  O24  1  0.816190  0.033777  0.062047  1
  O  O25  1  0.316190  0.466223  0.437953  1
  O  O26  1  0.183810  0.966223  0.937953  1
  O  O27  1  0.683810  0.533777  0.562047  1
  O  O28  1  0.230383  0.230841  0.290349  1
  O  O29  1  0.730383  0.269159  0.209651  1
  O  O30  1  0.769617  0.769159  0.709651  1
  O  O31  1  0.269617  0.730841  0.790349  1
  O  O32  1  0.467061  0.060197  0.123076  1
  O  O33  1  0.967061  0.439803  0.376924  1
  O  O34  1  0.532939  0.939803  0.876924  1
  O  O35  1  0.032939  0.560197  0.623076  1
  O  O36  1  0.097872  0.244941  0.455444  1
  O  O37  1  0.597872  0.255059  0.044556  1
  O  O38  1  0.902128  0.755059  0.544556  1
  O  O39  1  0.369383  0.421603  0.662884  1
  Se  Se40  1  0.346605  0.965172  0.622303  1
  Se  Se41  1  0.846605  0.534828  0.877697  1
  Se  Se42  1  0.653395  0.034828  0.377697  1
  Se  Se43  1  0.153395  0.465172  0.122303  1
  Se  Se44  1  0.347106  0.847033  0.886249  1
  Se  Se45  1  0.847106  0.652967  0.613751  1
  Se  Se46  1  0.652894  0.152967  0.113751  1
  Se  Se47  1  0.152894  0.347033  0.386249  1
  Hg  Hg48  1  0.117216  0.189389  0.857928  1
  Hg  Hg49  1  0.617216  0.310611  0.642072  1
  Hg  Hg50  1  0.882784  0.810611  0.142072  1
  Hg  Hg51  1  0.382784  0.689389  0.357928  1
  Hg  Hg52  1  0.364615  0.517330  0.887716  1
  Hg  Hg53  1  0.864615  0.982670  0.612284  1
  Hg  Hg54  1  0.635385  0.482670  0.112284  1
  Hg  Hg55  1  0.135385  0.017330  0.387716  1
  Hg  Hg56  1  0.117728  0.313698  0.644124  1
  Hg  Hg57  1  0.617728  0.186302  0.855876  1
  Hg  Hg58  1  0.882272  0.686302  0.355876  1
  Hg  Hg59  1  0.382272  0.813698  0.144124  1
  Hg  Hg60  1  0.364643  0.617351  0.623319  1
  Hg  Hg61  1  0.864643  0.882649  0.876681  1
  Hg  Hg62  1  0.635357  0.382649  0.376681  1
  Hg  Hg63  1  0.135357  0.117351  0.123319  1
