# generated using pymatgen
data_Li3V2(PO4)3
_symmetry_space_group_name_H-M   'P 1'
_cell_length_a   8.78825475
_cell_length_b   8.78825476
_cell_length_c   8.62573346
_cell_angle_alpha   58.66171868
_cell_angle_beta   121.33828136
_cell_angle_gamma   119.18487890
_symmetry_Int_Tables_number   1
_chemical_formula_structural   Li3V2(PO4)3
_chemical_formula_sum   'Li6 V4 P6 O24'
_cell_volume   463.96627733
_cell_formula_units_Z   2
loop_
 _symmetry_equiv_pos_site_id
 _symmetry_equiv_pos_as_xyz
  1  'x, y, z'
loop_
 _atom_site_type_symbol
 _atom_site_label
 _atom_site_symmetry_multiplicity
 _atom_site_fract_x
 _atom_site_fract_y
 _atom_site_fract_z
 _atom_site_occupancy
  Li  Li0  1  0.237144  0.838148  0.759316  1
  Li  Li1  1  0.161851  0.762857  0.259315  1
  Li  Li2  1  0.000001  0.500000  0.000000  1
  Li  Li3  1  0.838148  0.237143  0.740685  1
  Li  Li4  1  0.500001  0.000000  0.500000  1
  Li  Li5  1  0.762857  0.161852  0.240685  1
  O  O6  1  0.250119  0.594909  0.225551  1
  O  O7  1  0.016519  0.876351  0.435700  1
  O  O8  1  0.098628  0.561599  0.767782  1
  O  O9  1  0.405091  0.749881  0.725551  1
  O  O10  1  0.185729  0.546090  0.532356  1
  O  O11  1  0.319438  0.388957  0.897600  1
  O  O12  1  0.772254  0.945092  0.746368  1
  O  O13  1  0.438401  0.901372  0.267782  1
  O  O14  1  0.123650  0.983480  0.935701  1
  O  O15  1  0.453909  0.814270  0.032356  1
  O  O16  1  0.611042  0.680562  0.397601  1
  O  O17  1  0.054908  0.227745  0.246369  1
  O  O18  1  0.945091  0.772254  0.753631  1
  O  O19  1  0.388957  0.319438  0.602400  1
  O  O20  1  0.876351  0.016520  0.064300  1
  O  O21  1  0.749881  0.405091  0.774449  1
  O  O22  1  0.561600  0.098627  0.732219  1
  O  O23  1  0.227746  0.054908  0.253631  1
  O  O24  1  0.680562  0.611043  0.102399  1
  O  O25  1  0.814270  0.453910  0.467643  1
  O  O26  1  0.594909  0.250119  0.274449  1
  O  O27  1  0.901373  0.438401  0.232218  1
  O  O28  1  0.983480  0.123649  0.564300  1
  O  O29  1  0.546090  0.185730  0.967643  1
  P  P30  1  0.254297  0.555592  0.733703  1
  P  P31  1  0.956723  0.956722  0.750001  1
  P  P32  1  0.444408  0.745703  0.233703  1
  P  P33  1  0.555592  0.254297  0.766297  1
  P  P34  1  0.043278  0.043278  0.250001  1
  P  P35  1  0.745702  0.444408  0.266296  1
  V  V36  1  0.635323  0.854676  0.927203  1
  V  V37  1  0.145323  0.364677  0.427203  1
  V  V38  1  0.854676  0.635323  0.572796  1
  V  V39  1  0.364677  0.145324  0.072796  1
