# generated using pymatgen
data_TbAsO4
_symmetry_space_group_name_H-M   'P 1'
_cell_length_a   5.99841683
_cell_length_b   5.99841683
_cell_length_c   5.99841684
_cell_angle_alpha   106.42894217
_cell_angle_beta   106.42894209
_cell_angle_gamma   115.74381279
_symmetry_Int_Tables_number   1
_chemical_formula_structural   TbAsO4
_chemical_formula_sum   'Tb2 As2 O8'
_cell_volume   164.63574172
_cell_formula_units_Z   2
loop_
 _symmetry_equiv_pos_site_id
 _symmetry_equiv_pos_as_xyz
  1  'x, y, z'
loop_
 _atom_site_type_symbol
 _atom_site_label
 _atom_site_symmetry_multiplicity
 _atom_site_fract_x
 _atom_site_fract_y
 _atom_site_fract_z
 _atom_site_occupancy
  O  O0  1  0.301446  0.232463  0.431017  1
  O  O1  1  0.870429  0.301446  0.568983  1
  O  O2  1  0.232463  0.301446  0.931017  1
  O  O3  1  0.301446  0.870429  0.068983  1
  O  O4  1  0.129571  0.698554  0.431017  1
  O  O5  1  0.698554  0.767537  0.568983  1
  O  O6  1  0.698554  0.129571  0.931017  1
  O  O7  1  0.767537  0.698554  0.068983  1
  As  As8  1  0.875000  0.125000  0.750000  1
  As  As9  1  0.125000  0.875000  0.250000  1
  Tb  Tb10  1  0.375000  0.625000  0.750000  1
  Tb  Tb11  1  0.625000  0.375000  0.250000  1
