# generated using pymatgen
data_Sr(AsS2)2
_symmetry_space_group_name_H-M   'P 1'
_cell_length_a   8.59676714
_cell_length_b   10.66889797
_cell_length_c   5.87390456
_cell_angle_alpha   42.22580648
_cell_angle_beta   44.09645746
_cell_angle_gamma   34.16843797
_symmetry_Int_Tables_number   1
_chemical_formula_structural   Sr(AsS2)2
_chemical_formula_sum   'Sr1 As2 S4'
_cell_volume   195.24285491
_cell_formula_units_Z   1
loop_
 _symmetry_equiv_pos_site_id
 _symmetry_equiv_pos_as_xyz
  1  'x, y, z'
loop_
 _atom_site_type_symbol
 _atom_site_label
 _atom_site_symmetry_multiplicity
 _atom_site_fract_x
 _atom_site_fract_y
 _atom_site_fract_z
 _atom_site_occupancy
  As  As0  1  0.569819  0.977074  0.917287  1
  As  As1  1  0.297002  0.440085  0.033022  1
  S  S2  1  0.292614  0.462868  0.391553  1
  S  S3  1  0.197592  0.998069  0.192809  1
  S  S4  1  0.848498  0.543054  0.301100  1
  S  S5  1  0.573930  0.033558  0.234371  1
  Sr  Sr6  1  0.720545  0.545292  0.929858  1
