# generated using pymatgen
data_Pr2SmS4
_symmetry_space_group_name_H-M   'P 1'
_cell_length_a   7.43968764
_cell_length_b   7.43968687
_cell_length_c   7.43968717
_cell_angle_alpha   109.58923176
_cell_angle_beta   109.23545083
_cell_angle_gamma   109.58923671
_symmetry_Int_Tables_number   1
_chemical_formula_structural   Pr2SmS4
_chemical_formula_sum   'Pr4 Sm2 S8'
_cell_volume   316.98347826
_cell_formula_units_Z   2
loop_
 _symmetry_equiv_pos_site_id
 _symmetry_equiv_pos_as_xyz
  1  'x, y, z'
loop_
 _atom_site_type_symbol
 _atom_site_label
 _atom_site_symmetry_multiplicity
 _atom_site_fract_x
 _atom_site_fract_y
 _atom_site_fract_z
 _atom_site_occupancy
  Pr  Pr0  1  0.250000  0.624225  0.374225  1
  Pr  Pr1  1  0.750000  0.875775  0.125775  1
  Pr  Pr2  1  0.625775  0.375775  0.250000  1
  Pr  Pr3  1  0.874225  0.124225  0.750000  1
  S  S4  1  0.004223  0.853047  0.502878  1
  S  S5  1  0.151176  0.146953  0.149831  1
  S  S6  1  0.348824  0.498655  0.995777  1
  S  S7  1  0.649831  0.646953  0.651176  1
  S  S8  1  0.495777  0.998655  0.848824  1
  S  S9  1  0.497122  0.001345  0.350169  1
  S  S10  1  0.850169  0.501345  0.997122  1
  S  S11  1  0.002878  0.353047  0.504223  1
  Sm  Sm12  1  0.125000  0.750000  0.875000  1
  Sm  Sm13  1  0.375000  0.250000  0.625000  1
