# generated using pymatgen
data_Zn(FeO2)2
_symmetry_space_group_name_H-M   'P 1'
_cell_length_a   6.05293073
_cell_length_b   6.05293114
_cell_length_c   18.20786291
_cell_angle_alpha   60.08910790
_cell_angle_beta   60.08910563
_cell_angle_gamma   59.99999612
_symmetry_Int_Tables_number   1
_chemical_formula_structural   Zn(FeO2)2
_chemical_formula_sum   'Zn6 Fe12 O24'
_cell_volume   472.34466951
_cell_formula_units_Z   6
loop_
 _symmetry_equiv_pos_site_id
 _symmetry_equiv_pos_as_xyz
  1  'x, y, z'
loop_
 _atom_site_type_symbol
 _atom_site_label
 _atom_site_symmetry_multiplicity
 _atom_site_fract_x
 _atom_site_fract_y
 _atom_site_fract_z
 _atom_site_occupancy
  Zn  Zn0  1  0.123304  0.123304  0.043363  1
  Zn  Zn1  1  0.122219  0.122219  0.377781  1
  Zn  Zn2  1  0.498737  0.498737  0.334596  1
  Zn  Zn3  1  0.125906  0.125906  0.707427  1
  Zn  Zn4  1  0.876793  0.876793  0.623207  1
  Zn  Zn5  1  0.499043  0.499043  0.000957  1
  Fe  Fe6  1  0.497860  0.497860  0.166212  1
  Fe  Fe7  1  0.497860  0.005644  0.166212  1
  Fe  Fe8  1  0.498805  0.498805  0.499187  1
  Fe  Fe9  1  0.005644  0.497860  0.166212  1
  Fe  Fe10  1  0.877633  0.877633  0.289034  1
  Fe  Fe11  1  0.498805  0.004830  0.499187  1
  Fe  Fe12  1  0.502489  0.502489  0.664178  1
  Fe  Fe13  1  0.499923  0.499923  0.832327  1
  Fe  Fe14  1  0.004830  0.498805  0.499187  1
  Fe  Fe15  1  0.499923  0.003172  0.832327  1
  Fe  Fe16  1  0.003172  0.499923  0.832327  1
  Fe  Fe17  1  0.875936  0.875936  0.957397  1
  O  O18  1  0.253595  0.253595  0.090869  1
  O  O19  1  0.258541  0.258541  0.241459  1
  O  O20  1  0.253595  0.720203  0.090869  1
  O  O21  1  0.720203  0.253595  0.090869  1
  O  O22  1  0.271429  0.747958  0.244218  1
  O  O23  1  0.252200  0.252200  0.425302  1
  O  O24  1  0.747958  0.271429  0.244218  1
  O  O25  1  0.744151  0.744151  0.089182  1
  O  O26  1  0.258359  0.258359  0.574974  1
  O  O27  1  0.252200  0.719692  0.425302  1
  O  O28  1  0.719692  0.252200  0.425302  1
  O  O29  1  0.747958  0.747958  0.244218  1
  O  O30  1  0.283574  0.738693  0.579680  1
  O  O31  1  0.260797  0.260797  0.753470  1
  O  O32  1  0.738693  0.283574  0.579680  1
  O  O33  1  0.746024  0.746024  0.420643  1
  O  O34  1  0.259828  0.259828  0.906839  1
  O  O35  1  0.260797  0.717997  0.753470  1
  O  O36  1  0.717997  0.260797  0.753470  1
  O  O37  1  0.738693  0.738693  0.579680  1
  O  O38  1  0.268141  0.749091  0.911226  1
  O  O39  1  0.749091  0.268141  0.911226  1
  O  O40  1  0.738511  0.738511  0.761489  1
  O  O41  1  0.749091  0.749091  0.911226  1
