# generated using pymatgen
data_RbFe2S3
_symmetry_space_group_name_H-M   'P 1'
_cell_length_a   5.16447678
_cell_length_b   7.36937058
_cell_length_c   7.36937057
_cell_angle_alpha   103.45616673
_cell_angle_beta   90.00000000
_cell_angle_gamma   90.00000000
_symmetry_Int_Tables_number   1
_chemical_formula_structural   RbFe2S3
_chemical_formula_sum   'Rb2 Fe4 S6'
_cell_volume   272.77104569
_cell_formula_units_Z   2
loop_
 _symmetry_equiv_pos_site_id
 _symmetry_equiv_pos_as_xyz
  1  'x, y, z'
loop_
 _atom_site_type_symbol
 _atom_site_label
 _atom_site_symmetry_multiplicity
 _atom_site_fract_x
 _atom_site_fract_y
 _atom_site_fract_z
 _atom_site_occupancy
  S  S0  1  0.750000  0.165643  0.372524  1
  S  S1  1  0.250000  0.834357  0.627476  1
  S  S2  1  0.250000  0.372524  0.165643  1
  S  S3  1  0.750000  0.627476  0.834357  1
  S  S4  1  0.750000  0.105122  0.894878  1
  S  S5  1  0.250000  0.894878  0.105122  1
  Fe  Fe6  1  0.000000  0.860911  0.860911  1
  Fe  Fe7  1  0.000000  0.139089  0.139089  1
  Fe  Fe8  1  0.500000  0.139089  0.139089  1
  Fe  Fe9  1  0.500000  0.860911  0.860911  1
  Rb  Rb10  1  0.250000  0.324026  0.675974  1
  Rb  Rb11  1  0.750000  0.675974  0.324026  1
