# generated using pymatgen
data_Th2Hg
_symmetry_space_group_name_H-M   'P 1'
_cell_length_a   5.88108312
_cell_length_b   6.25369301
_cell_length_c   6.25369319
_cell_angle_alpha   77.22657067
_cell_angle_beta   61.95214695
_cell_angle_gamma   61.95215068
_symmetry_Int_Tables_number   1
_chemical_formula_structural   Th2Hg
_chemical_formula_sum   'Th4 Hg2'
_cell_volume   179.14892382
_cell_formula_units_Z   2
loop_
 _symmetry_equiv_pos_site_id
 _symmetry_equiv_pos_as_xyz
  1  'x, y, z'
loop_
 _atom_site_type_symbol
 _atom_site_label
 _atom_site_symmetry_multiplicity
 _atom_site_fract_x
 _atom_site_fract_y
 _atom_site_fract_z
 _atom_site_occupancy
  Hg  Hg0  1  0.250000  0.000000  0.000000  1
  Hg  Hg1  1  0.750000  0.000000  0.000000  1
  Th  Th2  1  0.153172  0.500000  0.193656  1
  Th  Th3  1  0.346828  0.806344  0.500000  1
  Th  Th4  1  0.653172  0.193656  0.500000  1
  Th  Th5  1  0.846828  0.500000  0.806344  1
