# generated using pymatgen
data_LiMg9B20
_symmetry_space_group_name_H-M   'P 1'
_cell_length_a   6.13970727
_cell_length_b   15.32285718
_cell_length_c   7.07529426
_cell_angle_alpha   29.79460921
_cell_angle_beta   115.67982692
_cell_angle_gamma   119.93984021
_symmetry_Int_Tables_number   1
_chemical_formula_structural   LiMg9B20
_chemical_formula_sum   'Li1 Mg9 B20'
_cell_volume   286.60761886
_cell_formula_units_Z   1
loop_
 _symmetry_equiv_pos_site_id
 _symmetry_equiv_pos_as_xyz
  1  'x, y, z'
loop_
 _atom_site_type_symbol
 _atom_site_label
 _atom_site_symmetry_multiplicity
 _atom_site_fract_x
 _atom_site_fract_y
 _atom_site_fract_z
 _atom_site_occupancy
  B  B0  1  0.166846  0.933328  0.499761  1
  B  B1  1  0.165769  0.733209  0.499578  1
  B  B2  1  0.334791  0.868022  0.498514  1
  B  B3  1  0.166750  0.533638  0.499072  1
  B  B4  1  0.334925  0.666646  0.500289  1
  B  B5  1  0.665075  0.933354  0.499711  1
  B  B6  1  0.335358  0.467705  0.499927  1
  B  B7  1  0.665209  0.731978  0.501486  1
  B  B8  1  0.165671  0.332628  0.501024  1
  B  B9  1  0.834231  0.866791  0.500422  1
  B  B10  1  0.665042  0.533380  0.499710  1
  B  B11  1  0.833154  0.666672  0.500239  1
  B  B12  1  0.165108  0.132522  0.500288  1
  B  B13  1  0.334733  0.266881  0.500756  1
  B  B14  1  0.834892  0.467478  0.499713  1
  B  B15  1  0.665267  0.333119  0.499244  1
  B  B16  1  0.334958  0.066620  0.500290  1
  B  B17  1  0.664642  0.132295  0.500073  1
  B  B18  1  0.834329  0.267372  0.498976  1
  B  B19  1  0.833250  0.066362  0.500928  1
  Li  Li20  1  0.500000  0.800000  1.000000  1
  Mg  Mg21  1  1.000000  0.800000  0.000000  1
  Mg  Mg22  1  0.999896  0.400258  0.999374  1
  Mg  Mg23  1  0.500240  0.601736  0.999504  1
  Mg  Mg24  1  0.000104  0.199742  0.000627  1
  Mg  Mg25  1  0.500299  0.401533  0.996495  1
  Mg  Mg26  1  0.996303  0.998210  0.000645  1
  Mg  Mg27  1  0.003697  0.601791  0.999354  1
  Mg  Mg28  1  0.499701  0.198469  0.003503  1
  Mg  Mg29  1  0.499761  0.998262  0.000498  1
