# generated using pymatgen
data_La3OsO7
_symmetry_space_group_name_H-M   'P 1'
_cell_length_a   6.76199719
_cell_length_b   6.76199724
_cell_length_c   7.71304992
_cell_angle_alpha   90.00000000
_cell_angle_beta   90.00000000
_cell_angle_gamma   111.87167695
_symmetry_Int_Tables_number   1
_chemical_formula_structural   La3OsO7
_chemical_formula_sum   'La6 Os2 O14'
_cell_volume   327.29072371
_cell_formula_units_Z   2
loop_
 _symmetry_equiv_pos_site_id
 _symmetry_equiv_pos_as_xyz
  1  'x, y, z'
loop_
 _atom_site_type_symbol
 _atom_site_label
 _atom_site_symmetry_multiplicity
 _atom_site_fract_x
 _atom_site_fract_y
 _atom_site_fract_z
 _atom_site_occupancy
  La  La0  1  0.500000  0.500000  0.000000  1
  La  La1  1  0.500000  0.500000  0.500000  1
  La  La2  1  0.584581  0.031167  0.250000  1
  La  La3  1  0.415419  0.968833  0.750000  1
  La  La4  1  0.031167  0.584581  0.250000  1
  La  La5  1  0.968833  0.415419  0.750000  1
  Os  Os6  1  0.000000  0.000000  0.000000  1
  Os  Os7  1  0.000000  0.000000  0.500000  1
  O  O8  1  0.923511  0.923511  0.250000  1
  O  O9  1  0.076489  0.076489  0.750000  1
  O  O10  1  0.308380  0.059718  0.037983  1
  O  O11  1  0.691620  0.940282  0.537983  1
  O  O12  1  0.059718  0.308380  0.462017  1
  O  O13  1  0.940282  0.691620  0.962017  1
  O  O14  1  0.691620  0.940282  0.962017  1
  O  O15  1  0.308380  0.059718  0.462017  1
  O  O16  1  0.940282  0.691620  0.537983  1
  O  O17  1  0.059718  0.308380  0.037983  1
  O  O18  1  0.398662  0.659763  0.250000  1
  O  O19  1  0.601338  0.340237  0.750000  1
  O  O20  1  0.659763  0.398662  0.250000  1
  O  O21  1  0.340237  0.601338  0.750000  1
