# generated using pymatgen
data_Li3Ni2P5O16
_symmetry_space_group_name_H-M   'P 1'
_cell_length_a   18.17680593
_cell_length_b   6.87520866
_cell_length_c   5.02023674
_cell_angle_alpha   90.00000000
_cell_angle_beta   92.18294834
_cell_angle_gamma   90.00000000
_symmetry_Int_Tables_number   1
_chemical_formula_structural   Li3Ni2P5O16
_chemical_formula_sum   'Li6 Ni4 P10 O32'
_cell_volume   626.92035049
_cell_formula_units_Z   2
loop_
 _symmetry_equiv_pos_site_id
 _symmetry_equiv_pos_as_xyz
  1  'x, y, z'
loop_
 _atom_site_type_symbol
 _atom_site_label
 _atom_site_symmetry_multiplicity
 _atom_site_fract_x
 _atom_site_fract_y
 _atom_site_fract_z
 _atom_site_occupancy
  Li  Li0  1  0.033657  0.326429  0.261440  1
  Li  Li1  1  0.250000  0.984102  0.500001  1
  Li  Li2  1  0.466343  0.326429  0.738559  1
  Li  Li3  1  0.533657  0.673570  0.261440  1
  Li  Li4  1  0.750000  0.015899  0.500000  1
  Li  Li5  1  0.966343  0.673570  0.738561  1
  O  O6  1  0.294058  0.612977  0.196108  1
  O  O7  1  0.930968  0.378997  0.079942  1
  O  O8  1  0.929417  0.921390  0.935737  1
  O  O9  1  0.892080  0.448207  0.558115  1
  O  O10  1  0.017093  0.206685  0.621111  1
  O  O11  1  0.069032  0.621002  0.920059  1
  O  O12  1  0.070583  0.078609  0.064264  1
  O  O13  1  0.107920  0.551794  0.441884  1
  O  O14  1  0.127942  0.975099  0.616236  1
  O  O15  1  0.142768  0.310492  0.802617  1
  O  O16  1  0.200297  0.869074  0.176476  1
  O  O17  1  0.205942  0.612977  0.803892  1
  O  O18  1  0.982907  0.793315  0.378890  1
  O  O19  1  0.299703  0.869074  0.823524  1
  O  O20  1  0.357232  0.310492  0.197383  1
  O  O21  1  0.372058  0.975099  0.383764  1
  O  O22  1  0.392080  0.551794  0.558116  1
  O  O23  1  0.429417  0.078609  0.935736  1
  O  O24  1  0.430968  0.621002  0.079940  1
  O  O25  1  0.482907  0.206685  0.378889  1
  O  O26  1  0.872058  0.024901  0.383765  1
  O  O27  1  0.569032  0.378997  0.920059  1
  O  O28  1  0.570583  0.921390  0.064263  1
  O  O29  1  0.607920  0.448207  0.441885  1
  O  O30  1  0.627942  0.024901  0.616235  1
  O  O31  1  0.642768  0.689508  0.802616  1
  O  O32  1  0.700297  0.130926  0.176475  1
  O  O33  1  0.705942  0.387023  0.803891  1
  O  O34  1  0.794058  0.387023  0.196109  1
  O  O35  1  0.799703  0.130926  0.823525  1
  O  O36  1  0.857232  0.689508  0.197384  1
  O  O37  1  0.517093  0.793315  0.621110  1
  P  P38  1  0.914912  0.875651  0.226545  1
  P  P39  1  0.875339  0.467758  0.261820  1
  P  P40  1  0.750000  0.243511  1.000000  1
  P  P41  1  0.624661  0.467758  0.738180  1
  P  P42  1  0.085088  0.124350  0.773455  1
  P  P43  1  0.124661  0.532241  0.738181  1
  P  P44  1  0.250000  0.756489  0.000001  1
  P  P45  1  0.585088  0.875651  0.773454  1
  P  P46  1  0.414912  0.124350  0.226545  1
  P  P47  1  0.375339  0.532241  0.261819  1
  Ni  Ni48  1  0.089961  0.823727  0.266183  1
  Ni  Ni49  1  0.410039  0.823727  0.733817  1
  Ni  Ni50  1  0.589961  0.176272  0.266182  1
  Ni  Ni51  1  0.910039  0.176272  0.733818  1
