# generated using pymatgen
data_Nd2EuS4
_symmetry_space_group_name_H-M   'P 1'
_cell_length_a   7.48070480
_cell_length_b   7.48070487
_cell_length_c   7.48070498
_cell_angle_alpha   109.31181583
_cell_angle_beta   109.31181601
_cell_angle_gamma   109.79050273
_symmetry_Int_Tables_number   1
_chemical_formula_structural   Nd2EuS4
_chemical_formula_sum   'Nd4 Eu2 S8'
_cell_volume   322.25194953
_cell_formula_units_Z   2
loop_
 _symmetry_equiv_pos_site_id
 _symmetry_equiv_pos_as_xyz
  1  'x, y, z'
loop_
 _atom_site_type_symbol
 _atom_site_label
 _atom_site_symmetry_multiplicity
 _atom_site_fract_x
 _atom_site_fract_y
 _atom_site_fract_z
 _atom_site_occupancy
  Nd  Nd0  1  0.122835  0.750000  0.872835  1
  Nd  Nd1  1  0.250000  0.622835  0.372835  1
  Nd  Nd2  1  0.377165  0.250000  0.627165  1
  Nd  Nd3  1  0.750000  0.877165  0.127165  1
  Eu  Eu4  1  0.625000  0.375000  0.250000  1
  Eu  Eu5  1  0.875000  0.125000  0.750000  1
  S  S6  1  0.005224  0.855014  0.499911  1
  S  S7  1  0.494776  0.994687  0.849790  1
  S  S8  1  0.144986  0.144897  0.150210  1
  S  S9  1  0.494687  0.994776  0.349790  1
  S  S10  1  0.355014  0.505224  -0.000089  1
  S  S11  1  0.644897  0.644986  0.650210  1
  S  S12  1  0.855103  0.505313  0.000089  1
  S  S13  1  0.005313  0.355103  0.500089  1
