# generated using pymatgen
data_B36O5
_symmetry_space_group_name_H-M   'P 1'
_cell_length_a   10.29060929
_cell_length_b   18.38690389
_cell_length_c   13.46545720
_cell_angle_alpha   20.28146038
_cell_angle_beta   58.02224495
_cell_angle_gamma   48.11230846
_symmetry_Int_Tables_number   1
_chemical_formula_structural   B36O5
_chemical_formula_sum   'B72 O10'
_cell_volume   609.57826803
_cell_formula_units_Z   2
loop_
 _symmetry_equiv_pos_site_id
 _symmetry_equiv_pos_as_xyz
  1  'x, y, z'
loop_
 _atom_site_type_symbol
 _atom_site_label
 _atom_site_symmetry_multiplicity
 _atom_site_fract_x
 _atom_site_fract_y
 _atom_site_fract_z
 _atom_site_occupancy
  B  B0  1  0.052662  0.093160  0.199614  1
  B  B1  1  0.997342  0.334893  1.000359  1
  B  B2  1  0.451134  0.103713  0.006745  1
  B  B3  1  0.380715  0.022629  0.358064  1
  B  B4  1  0.206791  0.258270  0.210228  1
  B  B5  1  0.126548  0.075060  0.789772  1
  B  B6  1  0.554893  0.085832  0.208451  1
  B  B7  1  0.278896  0.439177  0.006822  1
  B  B8  1  0.445834  0.104064  0.342503  1
  B  B9  1  0.205652  0.386175  0.321606  1
  B  B10  1  0.027028  0.596253  0.211166  1
  B  B11  1  0.499487  0.329755  0.005711  1
  B  B12  1  0.335990  0.998445  -0.000360  1
  B  B13  1  0.387693  0.427289  0.198228  1
  B  B14  1  0.109298  0.775304  0.005622  1
  B  B15  1  0.274991  0.443846  0.337074  1
  B  B16  1  0.943225  0.122171  0.987447  1
  B  B17  1  0.391804  0.218618  0.668883  1
  B  B18  1  0.041350  0.720197  0.320087  1
  B  B19  1  0.280667  0.240181  0.800381  1
  B  B20  1  0.333816  0.665963  0.002132  1
  B  B21  1  0.870792  0.053721  0.321121  1
  B  B22  1  0.699581  0.273090  0.195579  1
  B  B23  1  0.168378  0.323044  0.011025  1
  B  B24  1  0.633751  0.060250  0.804414  1
  B  B25  1  0.221504  0.762184  0.196411  1
  B  B26  1  0.462540  0.279621  0.678872  1
  B  B27  1  0.111331  0.783121  0.328181  1
  B  B28  1  0.773415  0.449694  0.996681  1
  B  B29  1  0.941525  0.114724  0.331109  1
  B  B30  1  0.390115  0.211151  0.012565  1
  B  B31  1  0.222006  0.550208  0.671820  1
  B  B32  1  0.111831  0.571150  0.803588  1
  B  B33  1  0.164963  0.010285  0.988976  1
  B  B34  1  0.707861  0.382974  0.324706  1
  B  B35  1  0.538352  0.599497  0.201483  1
  B  B36  1  0.461693  0.395935  0.804155  1
  B  B37  1  0.291982  0.613144  0.679908  1
  B  B38  1  0.833848  0.003584  0.994284  1
  B  B39  1  0.888590  0.424026  0.201616  1
  B  B40  1  0.612791  0.776823  0.000659  1
  B  B41  1  0.778409  0.445631  0.331845  1
  B  B42  1  0.058344  0.889482  0.662928  1
  B  B43  1  0.224033  0.558033  0.994371  1
  B  B44  1  0.887499  0.229265  0.657501  1
  B  B45  1  0.545113  0.712537  0.326809  1
  B  B46  1  0.778438  0.247504  0.791549  1
  B  B47  1  0.374540  0.929337  0.203983  1
  B  B48  1  0.834268  0.666798  -0.000391  1
  B  B49  1  0.306308  0.737073  0.788842  1
  B  B50  1  0.127682  0.947151  0.678396  1
  B  B51  1  0.658298  0.342399  0.992402  1
  B  B52  1  0.952621  0.310697  0.641945  1
  B  B53  1  0.739355  0.736575  0.216074  1
  B  B54  1  0.618957  0.770818  0.337932  1
  B  B55  1  0.054441  0.894151  0.993185  1
  B  B56  1  0.882201  0.229616  0.993261  1
  B  B57  1  0.714377  0.562515  0.662068  1
  B  B58  1  0.593981  0.596762  0.783921  1
  B  B59  1  0.675039  0.990936  0.007595  1
  B  B60  1  0.499066  0.666529  1.000397  1
  B  B61  1  0.958792  0.403998  0.796019  1
  B  B62  1  0.788218  0.620799  0.673188  1
  B  B63  1  0.554921  0.887698  0.668162  1
  B  B64  1  0.720542  0.556512  0.999342  1
  B  B65  1  0.444740  0.909302  0.798390  1
  B  B66  1  0.871640  0.937402  0.195843  1
  B  B67  1  0.794975  0.733843  0.798516  1
  B  B68  1  0.625468  0.950359  0.675294  1
  B  B69  1  0.559916  0.883649  0.003308  1
  B  B70  1  0.999517  0.667363  0.997875  1
  B  B71  1  0.945640  0.906042  0.801772  1
  O  O72  1  0.085802  0.204869  0.381994  1
  O  O73  1  0.247524  0.128465  0.617991  1
  O  O74  1  0.081255  0.460909  0.619978  1
  O  O75  1  0.584291  0.208155  0.378895  1
  O  O76  1  0.419659  0.540341  0.379156  1
  O  O77  1  0.749031  0.125183  0.621091  1
  O  O78  1  0.252082  0.872424  0.380029  1
  O  O79  1  0.580211  0.457961  0.623452  1
  O  O80  1  0.753122  0.875374  0.376548  1
  O  O81  1  0.913684  0.792990  0.620861  1
