# generated using pymatgen
data_U4N7
_symmetry_space_group_name_H-M   'P 1'
_cell_length_a   9.20379854
_cell_length_b   9.20292186
_cell_length_c   9.20379811
_cell_angle_alpha   109.53444688
_cell_angle_beta   109.45819394
_cell_angle_gamma   109.42490594
_symmetry_Int_Tables_number   1
_chemical_formula_structural   U4N7
_chemical_formula_sum   'U16 N28'
_cell_volume   600.09069790
_cell_formula_units_Z   4
loop_
 _symmetry_equiv_pos_site_id
 _symmetry_equiv_pos_as_xyz
  1  'x, y, z'
loop_
 _atom_site_type_symbol
 _atom_site_label
 _atom_site_symmetry_multiplicity
 _atom_site_fract_x
 _atom_site_fract_y
 _atom_site_fract_z
 _atom_site_occupancy
  U  U0  1  0.005828  0.749484  0.771775  1
  U  U1  1  0.249712  0.982806  0.256898  1
  U  U2  1  0.005677  0.021759  0.499420  1
  U  U3  1  0.249990  0.730872  0.480855  1
  U  U4  1  0.250295  0.507221  0.733130  1
  U  U5  1  0.250017  0.230872  0.980882  1
  U  U6  1  0.494206  0.265948  0.743682  1
  U  U7  1  0.522340  0.521759  0.516082  1
  U  U8  1  0.522265  0.765948  0.271742  1
  U  U9  1  0.750004  0.755311  0.005326  1
  U  U10  1  0.725907  0.482806  0.233094  1
  U  U11  1  0.749985  0.255311  0.505306  1
  U  U12  1  0.494312  0.993761  0.016115  1
  U  U13  1  0.774091  0.007221  0.756927  1
  U  U14  1  0.977710  0.249484  0.243656  1
  U  U15  1  0.977646  0.493761  0.999449  1
  N  N16  1  0.019861  0.502151  0.777696  1
  N  N17  1  0.249443  0.981382  0.506163  1
  N  N18  1  0.997958  0.266294  0.494706  1
  N  N19  1  0.250540  0.756729  0.731949  1
  N  N20  1  0.250353  0.276933  0.757612  1
  N  N21  1  0.017480  0.026261  0.250938  1
  N  N22  1  0.250184  0.482372  0.462785  1
  N  N23  1  0.024781  0.256729  0.006189  1
  N  N24  1  0.249757  0.712581  0.232170  1
  N  N25  1  0.724455  0.002151  0.982291  1
  N  N26  1  0.519320  0.776933  0.526579  1
  N  N27  1  0.480410  0.212581  0.962823  1
  N  N28  1  0.502783  0.518517  0.747134  1
  N  N29  1  0.475219  0.481382  0.231940  1
  N  N30  1  0.482511  0.733462  0.008734  1
  N  N31  1  0.480136  0.257821  0.482266  1
  N  N32  1  0.771588  0.766294  0.768336  1
  N  N33  1  0.249629  0.007227  0.026543  1
  N  N34  1  0.724728  0.233462  0.750952  1
  N  N35  1  0.997213  0.744326  0.015693  1
  N  N36  1  0.775323  0.526261  0.508781  1
  N  N37  1  0.502038  0.996783  0.268319  1
  N  N38  1  0.019586  0.982372  0.732189  1
  N  N39  1  0.775554  0.757821  0.277684  1
  N  N40  1  0.728465  0.496783  0.994745  1
  N  N41  1  0.728633  0.244326  0.247112  1
  N  N42  1  0.771382  0.018517  0.515734  1
  N  N43  1  0.980684  0.507227  0.257598  1
