# generated using pymatgen
data_Eu2Te4O11
_symmetry_space_group_name_H-M   'P 1'
_cell_length_a   5.30010032
_cell_length_b   6.85992034
_cell_length_c   16.49615306
_cell_angle_alpha   79.29399814
_cell_angle_beta   80.75557344
_cell_angle_gamma   67.27496052
_symmetry_Int_Tables_number   1
_chemical_formula_structural   Eu2Te4O11
_chemical_formula_sum   'Eu4 Te8 O22'
_cell_volume   540.96100179
_cell_formula_units_Z   2
loop_
 _symmetry_equiv_pos_site_id
 _symmetry_equiv_pos_as_xyz
  1  'x, y, z'
loop_
 _atom_site_type_symbol
 _atom_site_label
 _atom_site_symmetry_multiplicity
 _atom_site_fract_x
 _atom_site_fract_y
 _atom_site_fract_z
 _atom_site_occupancy
  O  O0  1  0.850259  0.250000  0.750000  1
  O  O1  1  0.149741  0.750000  0.250000  1
  O  O2  1  0.196121  0.871496  0.830279  1
  O  O3  1  0.897896  0.628504  0.669721  1
  O  O4  1  0.803879  0.128504  0.169721  1
  O  O5  1  0.102104  0.371496  0.330279  1
  O  O6  1  0.601819  0.054763  0.897578  1
  O  O7  1  0.554160  0.445237  0.602422  1
  O  O8  1  0.398181  0.945237  0.102422  1
  O  O9  1  0.445840  0.554763  0.397578  1
  O  O10  1  0.037971  0.189554  0.951873  1
  O  O11  1  0.179399  0.310446  0.548127  1
  O  O12  1  0.677479  0.136368  0.371759  1
  O  O13  1  0.185605  0.363632  0.128241  1
  O  O14  1  0.322521  0.863632  0.628241  1
  O  O15  1  0.814395  0.636368  0.871759  1
  O  O16  1  0.256303  0.968610  0.447239  1
  O  O17  1  0.672153  0.531390  0.052761  1
  O  O18  1  0.743697  0.031390  0.552761  1
  O  O19  1  0.327847  0.468610  0.947239  1
  O  O20  1  0.820601  0.689554  0.451873  1
  O  O21  1  0.962029  0.810446  0.048127  1
  Te  Te22  1  0.599575  0.540758  0.699128  1
  Te  Te23  1  0.839461  0.959242  0.800872  1
  Te  Te24  1  0.400425  0.459242  0.300872  1
  Te  Te25  1  0.160539  0.040758  0.199128  1
  Te  Te26  1  0.151061  0.387612  0.875261  1
  Te  Te27  1  0.413935  0.112388  0.624739  1
  Te  Te28  1  0.848939  0.612388  0.124739  1
  Te  Te29  1  0.586065  0.887612  0.375261  1
  Eu  Eu30  1  0.128649  0.701249  0.538807  1
  Eu  Eu31  1  0.368705  0.798751  0.961193  1
  Eu  Eu32  1  0.871351  0.298751  0.461193  1
  Eu  Eu33  1  0.631295  0.201249  0.038807  1
