# generated using pymatgen
data_Hg3(SeBr)2
_symmetry_space_group_name_H-M   'P 1'
_cell_length_a   9.67094657
_cell_length_b   10.07436103
_cell_length_c   10.37238826
_cell_angle_alpha   90.53353735
_cell_angle_beta   117.78707427
_cell_angle_gamma   89.99999999
_symmetry_Int_Tables_number   1
_chemical_formula_structural   Hg3(SeBr)2
_chemical_formula_sum   'Hg12 Se8 Br8'
_cell_volume   893.98542384
_cell_formula_units_Z   4
loop_
 _symmetry_equiv_pos_site_id
 _symmetry_equiv_pos_as_xyz
  1  'x, y, z'
loop_
 _atom_site_type_symbol
 _atom_site_label
 _atom_site_symmetry_multiplicity
 _atom_site_fract_x
 _atom_site_fract_y
 _atom_site_fract_z
 _atom_site_occupancy
  Se  Se0  1  0.221721  0.246868  0.969420  1
  Se  Se1  1  0.747699  0.246868  0.969420  1
  Se  Se2  1  0.778279  0.753132  0.030580  1
  Se  Se3  1  0.499577  0.753109  0.475787  1
  Se  Se4  1  0.023790  0.246891  0.524213  1
  Se  Se5  1  0.500423  0.246891  0.524213  1
  Se  Se6  1  0.976210  0.753109  0.475787  1
  Se  Se7  1  0.252301  0.753132  0.030580  1
  Br  Br8  1  0.624097  0.489563  0.248193  1
  Br  Br9  1  0.125530  0.476035  0.251060  1
  Br  Br10  1  0.874470  0.523965  0.748940  1
  Br  Br11  1  0.122244  0.008733  0.244488  1
  Br  Br12  1  0.877756  0.991267  0.755512  1
  Br  Br13  1  0.378319  0.973110  0.756639  1
  Br  Br14  1  0.621681  0.026890  0.243361  1
  Br  Br15  1  0.375903  0.510437  0.751807  1
  Hg  Hg16  1  0.103286  0.797962  0.753712  1
  Hg  Hg17  1  0.349574  0.202038  0.246288  1
  Hg  Hg18  1  0.896714  0.202038  0.246288  1
  Hg  Hg19  1  0.650426  0.797962  0.753712  1
  Hg  Hg20  1  0.000000  0.500000  0.500000  1
  Hg  Hg21  1  0.500000  0.500000  0.500000  1
  Hg  Hg22  1  0.235909  0.500000  0.000000  1
  Hg  Hg23  1  0.764091  0.500000  0.000000  1
  Hg  Hg24  1  0.475616  0.229136  0.951231  1
  Hg  Hg25  1  0.524384  0.770864  0.048769  1
  Hg  Hg26  1  0.769308  0.212707  0.538616  1
  Hg  Hg27  1  0.230692  0.787293  0.461384  1
