# generated using pymatgen
data_HoGaPd
_symmetry_space_group_name_H-M   'P 1'
_cell_length_a   4.46434190
_cell_length_b   6.91307744
_cell_length_c   7.65963385
_cell_angle_alpha   90.00000000
_cell_angle_beta   90.00000000
_cell_angle_gamma   90.00000000
_symmetry_Int_Tables_number   1
_chemical_formula_structural   HoGaPd
_chemical_formula_sum   'Ho4 Ga4 Pd4'
_cell_volume   236.39423391
_cell_formula_units_Z   4
loop_
 _symmetry_equiv_pos_site_id
 _symmetry_equiv_pos_as_xyz
  1  'x, y, z'
loop_
 _atom_site_type_symbol
 _atom_site_label
 _atom_site_symmetry_multiplicity
 _atom_site_fract_x
 _atom_site_fract_y
 _atom_site_fract_z
 _atom_site_occupancy
  Ga  Ga0  1  0.250000  0.824450  0.075126  1
  Ga  Ga1  1  0.750000  0.175550  0.924874  1
  Ga  Ga2  1  0.250000  0.324450  0.424874  1
  Ga  Ga3  1  0.750000  0.675550  0.575126  1
  Pd  Pd4  1  0.750000  0.778822  0.902504  1
  Pd  Pd5  1  0.250000  0.221178  0.097496  1
  Pd  Pd6  1  0.750000  0.278822  0.597496  1
  Pd  Pd7  1  0.250000  0.721178  0.402504  1
  Ho  Ho8  1  0.250000  0.483680  0.801943  1
  Ho  Ho9  1  0.750000  0.516320  0.198057  1
  Ho  Ho10  1  0.250000  0.983680  0.698057  1
  Ho  Ho11  1  0.750000  0.016320  0.301943  1
