# generated using pymatgen
data_Cu10Sn3
_symmetry_space_group_name_H-M   'P 1'
_cell_length_a   7.35739878
_cell_length_b   7.35739878
_cell_length_c   7.92923072
_cell_angle_alpha   90.00000000
_cell_angle_beta   90.00000000
_cell_angle_gamma   120.00000003
_symmetry_Int_Tables_number   1
_chemical_formula_structural   Cu10Sn3
_chemical_formula_sum   'Cu20 Sn6'
_cell_volume   371.71516418
_cell_formula_units_Z   2
loop_
 _symmetry_equiv_pos_site_id
 _symmetry_equiv_pos_as_xyz
  1  'x, y, z'
loop_
 _atom_site_type_symbol
 _atom_site_label
 _atom_site_symmetry_multiplicity
 _atom_site_fract_x
 _atom_site_fract_y
 _atom_site_fract_z
 _atom_site_occupancy
  Cu  Cu0  1  0.000000  0.000000  0.000000  1
  Cu  Cu1  1  0.000000  0.000000  0.500000  1
  Cu  Cu2  1  0.333333  0.666667  0.750000  1
  Cu  Cu3  1  0.666667  0.333333  0.250000  1
  Cu  Cu4  1  0.333333  0.666667  0.078271  1
  Cu  Cu5  1  0.666667  0.333333  0.578271  1
  Cu  Cu6  1  0.666667  0.333333  0.921729  1
  Cu  Cu7  1  0.333333  0.666667  0.421729  1
  Cu  Cu8  1  0.669381  0.028067  0.083444  1
  Cu  Cu9  1  0.641314  0.669381  0.583444  1
  Cu  Cu10  1  0.028067  0.358686  0.583444  1
  Cu  Cu11  1  0.971933  0.641314  0.083444  1
  Cu  Cu12  1  0.358686  0.330619  0.083444  1
  Cu  Cu13  1  0.330619  0.971933  0.583444  1
  Cu  Cu14  1  0.330619  0.971933  0.916556  1
  Cu  Cu15  1  0.358686  0.330619  0.416556  1
  Cu  Cu16  1  0.971933  0.641314  0.416556  1
  Cu  Cu17  1  0.028067  0.358686  0.916556  1
  Cu  Cu18  1  0.641314  0.669381  0.916556  1
  Cu  Cu19  1  0.669381  0.028067  0.416556  1
  Sn  Sn20  1  0.291992  0.977353  0.250000  1
  Sn  Sn21  1  0.314639  0.291992  0.750000  1
  Sn  Sn22  1  0.977353  0.685361  0.750000  1
  Sn  Sn23  1  0.022647  0.314639  0.250000  1
  Sn  Sn24  1  0.685361  0.708008  0.250000  1
  Sn  Sn25  1  0.708008  0.022647  0.750000  1
