# generated using pymatgen
data_CsU2F9
_symmetry_space_group_name_H-M   'P 1'
_cell_length_a   7.17246005
_cell_length_b   8.38645368
_cell_length_c   8.72633445
_cell_angle_alpha   115.97331141
_cell_angle_beta   90.00337161
_cell_angle_gamma   114.35801043
_symmetry_Int_Tables_number   1
_chemical_formula_structural   CsU2F9
_chemical_formula_sum   'Cs2 U4 F18'
_cell_volume   419.28879069
_cell_formula_units_Z   2
loop_
 _symmetry_equiv_pos_site_id
 _symmetry_equiv_pos_as_xyz
  1  'x, y, z'
loop_
 _atom_site_type_symbol
 _atom_site_label
 _atom_site_symmetry_multiplicity
 _atom_site_fract_x
 _atom_site_fract_y
 _atom_site_fract_z
 _atom_site_occupancy
  Cs  Cs0  1  0.107829  0.991792  0.244942  1
  Cs  Cs1  1  0.878161  -0.007471  0.750708  1
  F  F2  1  0.027730  0.678729  0.576699  1
  F  F3  1  0.122415  0.670223  0.283544  1
  F  F4  1  0.055707  0.312182  0.132331  1
  F  F5  1  0.260645  0.634209  -0.010252  1
  F  F6  1  0.365791  0.629485  0.487776  1
  F  F7  1  0.261742  0.311197  0.630547  1
  F  F8  1  0.338274  0.321524  0.926970  1
  F  F9  1  0.540866  0.669893  0.783403  1
  F  F10  1  0.443006  0.332921  0.219381  1
  F  F11  1  0.645372  0.676473  0.076062  1
  F  F12  1  0.478412  0.103171  0.654676  1
  F  F13  1  0.733301  0.688275  0.366099  1
  F  F14  1  0.641671  0.380438  0.515082  1
  F  F15  1  0.740582  0.377932  0.014166  1
  F  F16  1  0.641495  0.104619  0.156313  1
  F  F17  1  0.946145  0.687499  0.864524  1
  F  F18  1  0.895634  0.334224  0.720881  1
  F  F19  1  0.985871  0.321818  0.428522  1
  U  U20  1  0.184642  0.563051  0.699936  1
  U  U21  1  0.376319  0.563357  0.200033  1
  U  U22  1  0.613315  0.415750  0.788141  1
  U  U23  1  0.804276  0.417110  0.288917  1
