# generated using pymatgen
data_Sr3SiO
_symmetry_space_group_name_H-M   'P 1'
_cell_length_a   7.20019712
_cell_length_b   7.15882967
_cell_length_c   10.15259766
_cell_angle_alpha   90.00000000
_cell_angle_beta   90.00000000
_cell_angle_gamma   90.00000000
_symmetry_Int_Tables_number   1
_chemical_formula_structural   Sr3SiO
_chemical_formula_sum   'Sr12 Si4 O4'
_cell_volume   523.31549179
_cell_formula_units_Z   4
loop_
 _symmetry_equiv_pos_site_id
 _symmetry_equiv_pos_as_xyz
  1  'x, y, z'
loop_
 _atom_site_type_symbol
 _atom_site_label
 _atom_site_symmetry_multiplicity
 _atom_site_fract_x
 _atom_site_fract_y
 _atom_site_fract_z
 _atom_site_occupancy
  O  O0  1  0.000000  0.500000  0.500000  1
  O  O1  1  0.500000  0.000000  0.000000  1
  O  O2  1  0.500000  0.000000  0.500000  1
  O  O3  1  0.000000  0.500000  0.000000  1
  Si  Si4  1  0.972427  -0.007089  0.250000  1
  Si  Si5  1  0.472427  0.507089  0.250000  1
  Si  Si6  1  0.527573  0.492911  0.750000  1
  Si  Si7  1  0.027573  1.007089  0.750000  1
  Sr  Sr8  1  0.218468  0.782039  0.034036  1
  Sr  Sr9  1  0.718468  0.717961  0.465964  1
  Sr  Sr10  1  0.281532  0.282039  0.965964  1
  Sr  Sr11  1  0.781532  0.217961  0.534036  1
  Sr  Sr12  1  0.218468  0.782039  0.465964  1
  Sr  Sr13  1  0.718468  0.717961  0.034036  1
  Sr  Sr14  1  0.281532  0.282039  0.534036  1
  Sr  Sr15  1  0.781532  0.217961  0.965964  1
  Sr  Sr16  1  0.511522  0.065111  0.250000  1
  Sr  Sr17  1  0.011522  0.434889  0.250000  1
  Sr  Sr18  1  0.988478  0.565111  0.750000  1
  Sr  Sr19  1  0.488478  0.934889  0.750000  1
