# generated using pymatgen
data_Ba(TeP2)2
_symmetry_space_group_name_H-M   'P 1'
_cell_length_a   6.52884425
_cell_length_b   7.24453050
_cell_length_c   16.68280782
_cell_angle_alpha   90.00000000
_cell_angle_beta   90.00000000
_cell_angle_gamma   90.00000000
_symmetry_Int_Tables_number   1
_chemical_formula_structural   Ba(TeP2)2
_chemical_formula_sum   'Ba4 Te8 P16'
_cell_volume   789.07030589
_cell_formula_units_Z   4
loop_
 _symmetry_equiv_pos_site_id
 _symmetry_equiv_pos_as_xyz
  1  'x, y, z'
loop_
 _atom_site_type_symbol
 _atom_site_label
 _atom_site_symmetry_multiplicity
 _atom_site_fract_x
 _atom_site_fract_y
 _atom_site_fract_z
 _atom_site_occupancy
  Ba  Ba0  1  0.250000  0.101364  0.162150  1
  Ba  Ba1  1  0.750000  0.898636  0.837850  1
  Ba  Ba2  1  0.750000  0.601364  0.337850  1
  Ba  Ba3  1  0.250000  0.398636  0.662150  1
  Te  Te4  1  0.250000  0.593825  0.246596  1
  Te  Te5  1  0.750000  0.406175  0.753404  1
  Te  Te6  1  0.750000  0.093825  0.253404  1
  Te  Te7  1  0.250000  0.906175  0.746596  1
  Te  Te8  1  0.750000  0.937648  0.063491  1
  Te  Te9  1  0.250000  0.062352  0.936509  1
  Te  Te10  1  0.250000  0.437648  0.436509  1
  Te  Te11  1  0.750000  0.562352  0.563491  1
  P  P12  1  0.250000  0.120445  0.378741  1
  P  P13  1  0.750000  0.879555  0.621259  1
  P  P14  1  0.750000  0.620445  0.121259  1
  P  P15  1  0.250000  0.379555  0.878741  1
  P  P16  1  0.007821  0.464435  0.065191  1
  P  P17  1  0.507821  0.535565  0.934809  1
  P  P18  1  0.992179  0.964435  0.434809  1
  P  P19  1  0.492179  0.035565  0.565191  1
  P  P20  1  0.992179  0.535565  0.934809  1
  P  P21  1  0.492179  0.464435  0.065191  1
  P  P22  1  0.007821  0.035565  0.565191  1
  P  P23  1  0.507821  0.964435  0.434809  1
  P  P24  1  0.250000  0.667932  0.095870  1
  P  P25  1  0.750000  0.332068  0.904130  1
  P  P26  1  0.750000  0.167932  0.404130  1
  P  P27  1  0.250000  0.832068  0.595870  1
