# generated using pymatgen
data_Ba8P5Br
_symmetry_space_group_name_H-M   'P 1'
_cell_length_a   8.59692804
_cell_length_b   8.59692756
_cell_length_c   8.59692807
_cell_angle_alpha   109.34277175
_cell_angle_beta   109.34276568
_cell_angle_gamma   109.72843080
_symmetry_Int_Tables_number   1
_chemical_formula_structural   Ba8P5Br
_chemical_formula_sum   'Ba8 P5 Br1'
_cell_volume   489.10420246
_cell_formula_units_Z   1
loop_
 _symmetry_equiv_pos_site_id
 _symmetry_equiv_pos_as_xyz
  1  'x, y, z'
loop_
 _atom_site_type_symbol
 _atom_site_label
 _atom_site_symmetry_multiplicity
 _atom_site_fract_x
 _atom_site_fract_y
 _atom_site_fract_z
 _atom_site_occupancy
  Ba  Ba0  1  0.002316  0.383588  0.493950  1
  Ba  Ba1  1  0.483685  0.987937  0.348689  1
  Ba  Ba2  1  0.139248  0.134997  0.151311  1
  Ba  Ba3  1  0.389638  0.508366  0.006050  1
  Ba  Ba4  1  0.616412  0.610362  0.618729  1
  Ba  Ba5  1  0.491634  0.997684  0.881271  1
  Ba  Ba6  1  0.012063  0.860752  0.495748  1
  Ba  Ba7  1  0.865003  0.516315  0.004252  1
  Br  Br8  1  0.875000  0.125000  0.750000  1
  P  P9  1  0.119083  0.753458  0.876332  1
  P  P10  1  0.246542  0.622874  0.365625  1
  P  P11  1  0.377126  0.242751  0.623668  1
  P  P12  1  0.625000  0.375000  0.250000  1
  P  P13  1  0.757249  0.880917  0.134375  1
