# generated using pymatgen
data_TaBi3O7
_symmetry_space_group_name_H-M   'P 1'
_cell_length_a   3.92701263
_cell_length_b   3.77107908
_cell_length_c   15.44178900
_cell_angle_alpha   60.92798059
_cell_angle_beta   60.54467005
_cell_angle_gamma   61.79983333
_symmetry_Int_Tables_number   1
_chemical_formula_structural   TaBi3O7
_chemical_formula_sum   'Ta1 Bi3 O7'
_cell_volume   165.63024027
_cell_formula_units_Z   1
loop_
 _symmetry_equiv_pos_site_id
 _symmetry_equiv_pos_as_xyz
  1  'x, y, z'
loop_
 _atom_site_type_symbol
 _atom_site_label
 _atom_site_symmetry_multiplicity
 _atom_site_fract_x
 _atom_site_fract_y
 _atom_site_fract_z
 _atom_site_occupancy
  Bi  Bi0  1  0.064978  0.010776  0.984992  1
  Bi  Bi1  1  0.020582  0.979580  0.262646  1
  Bi  Bi2  1  0.085361  0.021473  0.725317  1
  O  O3  1  0.298799  0.185554  0.340709  1
  O  O4  1  0.354013  0.272339  0.530730  1
  O  O5  1  0.847548  0.739924  0.175672  1
  O  O6  1  0.320625  0.248721  0.802019  1
  O  O7  1  0.814522  0.698757  0.454849  1
  O  O8  1  0.846116  0.794833  0.646878  1
  O  O9  1  0.738257  0.703813  0.969158  1
  Ta  Ta10  1  0.960698  0.054128  0.494405  1
