# generated using pymatgen
data_SrBr2
_symmetry_space_group_name_H-M   'P 1'
_cell_length_a   7.26381333
_cell_length_b   11.75127146
_cell_length_c   11.75127146
_cell_angle_alpha   90.00000000
_cell_angle_beta   90.00000000
_cell_angle_gamma   90.00000000
_symmetry_Int_Tables_number   1
_chemical_formula_structural   SrBr2
_chemical_formula_sum   'Sr10 Br20'
_cell_volume   1003.07727735
_cell_formula_units_Z   10
loop_
 _symmetry_equiv_pos_site_id
 _symmetry_equiv_pos_as_xyz
  1  'x, y, z'
loop_
 _atom_site_type_symbol
 _atom_site_label
 _atom_site_symmetry_multiplicity
 _atom_site_fract_x
 _atom_site_fract_y
 _atom_site_fract_z
 _atom_site_occupancy
  Sr  Sr0  1  0.247873  0.104147  0.585057  1
  Sr  Sr1  1  0.247873  0.585057  0.395853  1
  Sr  Sr2  1  0.752127  0.085057  0.895853  1
  Sr  Sr3  1  0.752127  0.604147  0.085057  1
  Sr  Sr4  1  0.752127  0.895853  0.414943  1
  Sr  Sr5  1  0.150556  0.750000  0.750000  1
  Sr  Sr6  1  0.752127  0.414943  0.604147  1
  Sr  Sr7  1  0.247873  0.395853  0.914943  1
  Sr  Sr8  1  0.849444  0.250000  0.250000  1
  Sr  Sr9  1  0.247873  0.914943  0.104147  1
  Br  Br10  1  0.903509  0.542704  0.839096  1
  Br  Br11  1  0.000000  0.750000  0.250000  1
  Br  Br12  1  0.376240  0.652110  0.959684  1
  Br  Br13  1  0.096491  0.339096  0.457296  1
  Br  Br14  1  0.903509  0.957296  0.660904  1
  Br  Br15  1  0.376240  0.959684  0.847890  1
  Br  Br16  1  0.623760  0.040316  0.152110  1
  Br  Br17  1  0.376240  0.847890  0.540316  1
  Br  Br18  1  0.903509  0.839096  0.957296  1
  Br  Br19  1  0.903509  0.660904  0.542704  1
  Br  Br20  1  0.623760  0.459684  0.347890  1
  Br  Br21  1  0.376240  0.540316  0.652110  1
  Br  Br22  1  0.500000  0.750000  0.250000  1
  Br  Br23  1  0.000000  0.250000  0.750000  1
  Br  Br24  1  0.096491  0.160904  0.042704  1
  Br  Br25  1  0.623760  0.347890  0.040316  1
  Br  Br26  1  0.500000  0.250000  0.750000  1
  Br  Br27  1  0.096491  0.457296  0.160904  1
  Br  Br28  1  0.623760  0.152110  0.459684  1
  Br  Br29  1  0.096491  0.042704  0.339096  1
