# generated using pymatgen
data_NbSbO4
_symmetry_space_group_name_H-M   'P 1'
_cell_length_a   5.07869452
_cell_length_b   5.67490502
_cell_length_c   12.04775139
_cell_angle_alpha   90.00000000
_cell_angle_beta   90.00000000
_cell_angle_gamma   90.00000000
_symmetry_Int_Tables_number   1
_chemical_formula_structural   NbSbO4
_chemical_formula_sum   'Nb4 Sb4 O16'
_cell_volume   347.22955634
_cell_formula_units_Z   4
loop_
 _symmetry_equiv_pos_site_id
 _symmetry_equiv_pos_as_xyz
  1  'x, y, z'
loop_
 _atom_site_type_symbol
 _atom_site_label
 _atom_site_symmetry_multiplicity
 _atom_site_fract_x
 _atom_site_fract_y
 _atom_site_fract_z
 _atom_site_occupancy
  O  O0  1  0.508307  0.844316  0.198063  1
  O  O1  1  0.508307  0.655684  0.801937  1
  O  O2  1  0.991693  0.844316  0.301937  1
  O  O3  1  0.991693  0.655684  0.698063  1
  O  O4  1  0.491694  0.155684  0.801937  1
  O  O5  1  0.491694  0.344316  0.198063  1
  O  O6  1  0.008306  0.155684  0.698063  1
  O  O7  1  0.008306  0.344316  0.301937  1
  O  O8  1  0.083235  0.577056  0.094281  1
  O  O9  1  0.083235  0.922943  0.905720  1
  O  O10  1  0.416765  0.577056  0.405720  1
  O  O11  1  0.416765  0.922943  0.594280  1
  O  O12  1  0.583236  0.077056  0.405720  1
  O  O13  1  0.916764  0.077056  0.094281  1
  O  O14  1  0.583236  0.422944  0.594280  1
  O  O15  1  0.916764  0.422944  0.905720  1
  Nb  Nb16  1  0.750000  0.128318  0.250000  1
  Nb  Nb17  1  0.750000  0.371682  0.750000  1
  Nb  Nb18  1  0.250001  0.871682  0.750000  1
  Nb  Nb19  1  0.250001  0.628317  0.250000  1
  Sb  Sb20  1  0.809278  0.750000  0.000000  1
  Sb  Sb21  1  0.690723  0.750000  0.500000  1
  Sb  Sb22  1  0.190723  0.250000  0.000000  1
  Sb  Sb23  1  0.309276  0.250000  0.500000  1
