# generated using pymatgen
data_Na2Ta4O11
_symmetry_space_group_name_H-M   'P 1'
_cell_length_a   12.87125735
_cell_length_b   12.87125735
_cell_length_c   12.87125735
_cell_angle_alpha   28.21244902
_cell_angle_beta   28.21244902
_cell_angle_gamma   28.21244902
_symmetry_Int_Tables_number   1
_chemical_formula_structural   Na2Ta4O11
_chemical_formula_sum   'Na4 Ta8 O22'
_cell_volume   421.03674132
_cell_formula_units_Z   2
loop_
 _symmetry_equiv_pos_site_id
 _symmetry_equiv_pos_as_xyz
  1  'x, y, z'
loop_
 _atom_site_type_symbol
 _atom_site_label
 _atom_site_symmetry_multiplicity
 _atom_site_fract_x
 _atom_site_fract_y
 _atom_site_fract_z
 _atom_site_occupancy
  O  O0  1  0.745732  0.437844  0.224105  1
  O  O1  1  0.437844  0.224105  0.745732  1
  O  O2  1  0.224105  0.745732  0.437844  1
  O  O3  1  0.275895  0.062156  0.754268  1
  O  O4  1  0.062156  0.754268  0.275895  1
  O  O5  1  0.754268  0.275895  0.062156  1
  O  O6  1  0.254268  0.562156  0.775895  1
  O  O7  1  0.562156  0.775895  0.254268  1
  O  O8  1  0.775895  0.254268  0.562156  1
  O  O9  1  0.724105  0.937844  0.245732  1
  O  O10  1  0.937844  0.245732  0.724105  1
  O  O11  1  0.245732  0.724105  0.937844  1
  O  O12  1  0.002794  0.497206  0.250000  1
  O  O13  1  0.250000  0.002794  0.497206  1
  O  O14  1  0.497206  0.250000  0.002794  1
  O  O15  1  0.997206  0.502794  0.750000  1
  O  O16  1  0.750000  0.997206  0.502794  1
  O  O17  1  0.502794  0.750000  0.997206  1
  O  O18  1  0.093930  0.093930  0.093930  1
  O  O19  1  0.406070  0.406070  0.406070  1
  O  O20  1  0.906070  0.906070  0.906070  1
  O  O21  1  0.593930  0.593930  0.593930  1
  Na  Na22  1  0.165459  0.165459  0.165459  1
  Na  Na23  1  0.334541  0.334541  0.334541  1
  Na  Na24  1  0.834541  0.834541  0.834541  1
  Na  Na25  1  0.665459  0.665459  0.665459  1
  Ta  Ta26  1  0.250000  0.612671  0.887329  1
  Ta  Ta27  1  0.612671  0.887329  0.250000  1
  Ta  Ta28  1  0.500000  0.500000  0.500000  1
  Ta  Ta29  1  0.000000  0.000000  0.000000  1
  Ta  Ta30  1  0.887329  0.250000  0.612671  1
  Ta  Ta31  1  0.387329  0.112671  0.750000  1
  Ta  Ta32  1  0.750000  0.387329  0.112671  1
  Ta  Ta33  1  0.112671  0.750000  0.387329  1
