# generated using pymatgen
data_ErCuP2
_symmetry_space_group_name_H-M   'P 1'
_cell_length_a   3.69985266
_cell_length_b   3.73236825
_cell_length_c   19.33047763
_cell_angle_alpha   90.00000000
_cell_angle_beta   90.00000000
_cell_angle_gamma   90.02711704
_symmetry_Int_Tables_number   1
_chemical_formula_structural   ErCuP2
_chemical_formula_sum   'Er4 Cu4 P8'
_cell_volume   266.93864507
_cell_formula_units_Z   4
loop_
 _symmetry_equiv_pos_site_id
 _symmetry_equiv_pos_as_xyz
  1  'x, y, z'
loop_
 _atom_site_type_symbol
 _atom_site_label
 _atom_site_symmetry_multiplicity
 _atom_site_fract_x
 _atom_site_fract_y
 _atom_site_fract_z
 _atom_site_occupancy
  P  P0  1  0.750292  0.802607  0.501343  1
  P  P1  1  0.749708  0.697393  0.001343  1
  P  P2  1  0.249708  0.197393  0.498657  1
  P  P3  1  0.250292  0.302607  0.998657  1
  P  P4  1  0.250543  0.727764  0.170625  1
  P  P5  1  0.750543  0.227764  0.329375  1
  P  P6  1  0.749457  0.272236  0.829375  1
  P  P7  1  0.249457  0.772236  0.670625  1
  Cu  Cu8  1  0.250760  0.228859  0.250042  1
  Cu  Cu9  1  0.749240  0.771141  0.749958  1
  Cu  Cu10  1  0.249240  0.271141  0.750042  1
  Cu  Cu11  1  0.750760  0.728859  0.249958  1
  Er  Er12  1  0.250490  0.726460  0.382748  1
  Er  Er13  1  0.249510  0.773540  0.882748  1
  Er  Er14  1  0.749510  0.273540  0.617252  1
  Er  Er15  1  0.750490  0.226460  0.117252  1
