# generated using pymatgen
data_NaSbSe2
_symmetry_space_group_name_H-M   'P 1'
_cell_length_a   8.24355424
_cell_length_b   11.02659799
_cell_length_c   7.29914099
_cell_angle_alpha   29.05602026
_cell_angle_beta   55.62809311
_cell_angle_gamma   41.45863371
_symmetry_Int_Tables_number   1
_chemical_formula_structural   NaSbSe2
_chemical_formula_sum   'Na2 Sb2 Se4'
_cell_volume   204.70665630
_cell_formula_units_Z   2
loop_
 _symmetry_equiv_pos_site_id
 _symmetry_equiv_pos_as_xyz
  1  'x, y, z'
loop_
 _atom_site_type_symbol
 _atom_site_label
 _atom_site_symmetry_multiplicity
 _atom_site_fract_x
 _atom_site_fract_y
 _atom_site_fract_z
 _atom_site_occupancy
  Na  Na0  1  0.250140  0.499965  0.999830  1
  Na  Na1  1  0.499860  0.000035  0.000170  1
  Sb  Sb2  1  0.997556  0.999998  0.004777  1
  Sb  Sb3  1  0.752444  0.500002  0.995223  1
  Se  Se4  1  0.989026  0.500090  0.521674  1
  Se  Se5  1  0.509429  0.499780  0.481788  1
  Se  Se6  1  0.240571  0.000220  0.518212  1
  Se  Se7  1  0.760974  0.999910  0.478326  1
