# generated using pymatgen
data_CsNd5Se8
_symmetry_space_group_name_H-M   'P 1'
_cell_length_a   7.92624293
_cell_length_b   7.92624320
_cell_length_c   7.92624356
_cell_angle_alpha   109.08688759
_cell_angle_beta   109.08689192
_cell_angle_gamma   110.24264786
_symmetry_Int_Tables_number   1
_chemical_formula_structural   CsNd5Se8
_chemical_formula_sum   'Cs1 Nd5 Se8'
_cell_volume   383.28440667
_cell_formula_units_Z   1
loop_
 _symmetry_equiv_pos_site_id
 _symmetry_equiv_pos_as_xyz
  1  'x, y, z'
loop_
 _atom_site_type_symbol
 _atom_site_label
 _atom_site_symmetry_multiplicity
 _atom_site_fract_x
 _atom_site_fract_y
 _atom_site_fract_z
 _atom_site_occupancy
  Cs  Cs0  1  0.875000  0.125000  0.750000  1
  Nd  Nd1  1  0.114605  0.751061  0.872964  1
  Nd  Nd2  1  0.248939  0.621904  0.363545  1
  Nd  Nd3  1  0.378096  0.241641  0.627036  1
  Nd  Nd4  1  0.758359  0.885395  0.136455  1
  Nd  Nd5  1  0.625000  0.375000  0.250000  1
  Se  Se6  1  0.013541  0.835938  0.491223  1
  Se  Se7  1  0.004911  0.368707  0.492021  1
  Se  Se8  1  0.164062  0.155285  0.177604  1
  Se  Se9  1  0.477682  0.986459  0.322396  1
  Se  Se10  1  0.376686  0.512889  0.007979  1
  Se  Se11  1  0.487111  0.995089  0.863796  1
  Se  Se12  1  0.631293  0.623314  0.636204  1
  Se  Se13  1  0.844715  0.522318  0.008777  1
