# generated using pymatgen
data_Na3YCl6
_symmetry_space_group_name_H-M   'P 1'
_cell_length_a   6.93705148
_cell_length_b   7.32344783
_cell_length_c   10.30947302
_cell_angle_alpha   90.00000000
_cell_angle_beta   90.67275306
_cell_angle_gamma   90.00000000
_symmetry_Int_Tables_number   1
_chemical_formula_structural   Na3YCl6
_chemical_formula_sum   'Na6 Y2 Cl12'
_cell_volume   523.71744145
_cell_formula_units_Z   2
loop_
 _symmetry_equiv_pos_site_id
 _symmetry_equiv_pos_as_xyz
  1  'x, y, z'
loop_
 _atom_site_type_symbol
 _atom_site_label
 _atom_site_symmetry_multiplicity
 _atom_site_fract_x
 _atom_site_fract_y
 _atom_site_fract_z
 _atom_site_occupancy
  Na  Na0  1  0.000000  0.500000  0.500000  1
  Na  Na1  1  0.500000  0.000000  0.000000  1
  Na  Na2  1  0.976725  0.925607  0.258675  1
  Na  Na3  1  0.523275  0.425607  0.241325  1
  Na  Na4  1  0.023275  0.074393  0.741325  1
  Na  Na5  1  0.476725  0.574393  0.758675  1
  Cl  Cl6  1  0.638370  0.933658  0.738213  1
  Cl  Cl7  1  0.330829  0.305108  0.579211  1
  Cl  Cl8  1  0.169171  0.805108  0.920789  1
  Cl  Cl9  1  0.669171  0.694892  0.420789  1
  Cl  Cl10  1  0.314356  0.321274  0.934901  1
  Cl  Cl11  1  0.185644  0.821274  0.565099  1
  Cl  Cl12  1  0.685644  0.678726  0.065099  1
  Cl  Cl13  1  0.814356  0.178726  0.434901  1
  Cl  Cl14  1  0.361630  0.066342  0.261787  1
  Cl  Cl15  1  0.138370  0.566342  0.238213  1
  Cl  Cl16  1  0.830829  0.194892  0.079211  1
  Cl  Cl17  1  0.861630  0.433658  0.761787  1
  Y  Y18  1  0.500000  0.000000  0.500000  1
  Y  Y19  1  0.000000  0.500000  0.000000  1
