# generated using pymatgen
data_Sc5CCl8
_symmetry_space_group_name_H-M   'P 1'
_cell_length_a   3.54457443
_cell_length_b   9.27303102
_cell_length_c   9.63080451
_cell_angle_alpha   80.44372084
_cell_angle_beta   79.39583754
_cell_angle_gamma   78.98168597
_symmetry_Int_Tables_number   1
_chemical_formula_structural   Sc5CCl8
_chemical_formula_sum   'Sc5 C1 Cl8'
_cell_volume   302.59095664
_cell_formula_units_Z   1
loop_
 _symmetry_equiv_pos_site_id
 _symmetry_equiv_pos_as_xyz
  1  'x, y, z'
loop_
 _atom_site_type_symbol
 _atom_site_label
 _atom_site_symmetry_multiplicity
 _atom_site_fract_x
 _atom_site_fract_y
 _atom_site_fract_z
 _atom_site_occupancy
  C  C0  1  0.000000  0.500000  0.500000  1
  Cl  Cl1  1  0.028269  0.179303  0.764159  1
  Cl  Cl2  1  0.971731  0.820697  0.235841  1
  Cl  Cl3  1  0.330185  0.508477  0.831153  1
  Cl  Cl4  1  0.669815  0.491523  0.168847  1
  Cl  Cl5  1  0.697563  0.169638  0.435235  1
  Cl  Cl6  1  0.302437  0.830362  0.564765  1
  Cl  Cl7  1  0.370922  0.156802  0.101353  1
  Cl  Cl8  1  0.629078  0.843198  0.898647  1
  Sc  Sc9  1  0.841899  0.645966  0.670235  1
  Sc  Sc10  1  0.158101  0.354034  0.329765  1
  Sc  Sc11  1  0.488396  0.636198  0.387010  1
  Sc  Sc12  1  0.511604  0.363802  0.612990  1
  Sc  Sc13  1  0.000000  0.000000  0.000000  1
