# generated using pymatgen
data_Tl9SbTe6
_symmetry_space_group_name_H-M   'P 1'
_cell_length_a   8.96686788
_cell_length_b   8.96608860
_cell_length_c   9.29384249
_cell_angle_alpha   118.81055205
_cell_angle_beta   118.80963802
_cell_angle_gamma   90.01106294
_symmetry_Int_Tables_number   1
_chemical_formula_structural   Tl9SbTe6
_chemical_formula_sum   'Tl9 Sb1 Te6'
_cell_volume   546.75695222
_cell_formula_units_Z   1
loop_
 _symmetry_equiv_pos_site_id
 _symmetry_equiv_pos_as_xyz
  1  'x, y, z'
loop_
 _atom_site_type_symbol
 _atom_site_label
 _atom_site_symmetry_multiplicity
 _atom_site_fract_x
 _atom_site_fract_y
 _atom_site_fract_z
 _atom_site_occupancy
  Sb  Sb0  1  0.499205  0.499121  0.998336  1
  Te  Te1  1  0.280156  0.280147  0.560248  1
  Te  Te2  1  0.187060  0.358154  0.015806  1
  Te  Te3  1  0.358355  0.829008  0.015941  1
  Te  Te4  1  0.751095  0.751104  0.502014  1
  Te  Te5  1  0.657415  0.187006  0.015868  1
  Te  Te6  1  0.828981  0.657723  0.016072  1
  Tl  Tl7  1  0.200415  0.995042  0.699438  1
  Tl  Tl8  1  0.014055  0.520828  0.327155  1
  Tl  Tl9  1  0.004100  0.004104  0.008249  1
  Tl  Tl10  1  0.312855  0.806317  0.326933  1
  Tl  Tl11  1  0.499064  0.704490  0.699594  1
  Tl  Tl12  1  0.704829  0.200873  0.699971  1
  Tl  Tl13  1  0.520717  0.313100  0.327251  1
  Tl  Tl14  1  0.806662  0.014065  0.327453  1
  Tl  Tl15  1  0.995135  0.499018  0.699868  1
