# generated using pymatgen
data_Li3Cr2(PO4)3
_symmetry_space_group_name_H-M   'P 1'
_cell_length_a   8.47067464
_cell_length_b   8.73658946
_cell_length_c   12.26836536
_cell_angle_alpha   90.00000000
_cell_angle_beta   87.74822126
_cell_angle_gamma   90.00000000
_symmetry_Int_Tables_number   1
_chemical_formula_structural   Li3Cr2(PO4)3
_chemical_formula_sum   'Li12 Cr8 P12 O48'
_cell_volume   907.21692904
_cell_formula_units_Z   4
loop_
 _symmetry_equiv_pos_site_id
 _symmetry_equiv_pos_as_xyz
  1  'x, y, z'
loop_
 _atom_site_type_symbol
 _atom_site_label
 _atom_site_symmetry_multiplicity
 _atom_site_fract_x
 _atom_site_fract_y
 _atom_site_fract_z
 _atom_site_occupancy
  Li  Li0  1  0.717353  0.190320  0.946974  1
  Li  Li1  1  0.282647  0.809680  0.053026  1
  Li  Li2  1  0.499999  0.500000  1.000000  1
  Li  Li3  1  0.000000  0.000000  0.000000  1
  Li  Li4  1  0.000000  0.105104  0.250000  1
  Li  Li5  1  0.500000  0.400995  0.250000  1
  Li  Li6  1  1.000000  0.894897  0.750000  1
  Li  Li7  1  0.717353  0.809680  0.446974  1
  Li  Li8  1  0.500000  0.500000  0.500000  1
  Li  Li9  1  0.500000  0.599005  0.750000  1
  Li  Li10  1  0.282647  0.190320  0.553026  1
  Li  Li11  1  0.000001  0.000000  0.500000  1
  O  O12  1  0.253005  0.589299  0.992306  1
  O  O13  1  0.378090  0.807127  0.312957  1
  O  O14  1  0.344213  0.323141  0.086174  1
  O  O15  1  0.621911  0.807127  0.187043  1
  O  O16  1  0.429837  0.601347  0.162248  1
  O  O17  1  0.067279  0.909820  0.337513  1
  O  O18  1  0.011946  0.418601  0.109119  1
  O  O19  1  0.127880  0.706078  0.187854  1
  O  O20  1  0.872120  0.293922  0.812145  1
  O  O21  1  0.988054  0.581398  0.890882  1
  O  O22  1  0.932721  0.090180  0.662487  1
  O  O23  1  0.570163  0.398653  0.837752  1
  O  O24  1  0.378089  0.192872  0.812956  1
  O  O25  1  0.655787  0.676859  0.913826  1
  O  O26  1  0.621910  0.192872  0.687044  1
  O  O27  1  0.747062  0.943124  0.983289  1
  O  O28  1  0.067278  0.090180  0.837513  1
  O  O29  1  0.252938  0.056875  0.016710  1
  O  O30  1  0.747063  0.056875  0.483290  1
  O  O31  1  0.745687  0.593065  0.709700  1
  O  O32  1  0.473678  0.891757  0.906004  1
  O  O33  1  0.732840  0.903435  0.788777  1
  O  O34  1  0.429836  0.398653  0.662248  1
  O  O35  1  0.988053  0.418601  0.390881  1
  O  O36  1  0.254313  0.593065  0.790300  1
  O  O37  1  0.857337  0.819546  0.593264  1
  O  O38  1  0.127880  0.293922  0.687855  1
  O  O39  1  0.732840  0.096565  0.288777  1
  O  O40  1  0.473678  0.108243  0.406003  1
  O  O41  1  0.746995  0.589299  0.507694  1
  O  O42  1  0.655787  0.323141  0.413826  1
  O  O43  1  0.142664  0.819546  0.906736  1
  O  O44  1  0.857336  0.180453  0.093264  1
  O  O45  1  0.344213  0.676859  0.586174  1
  O  O46  1  0.253005  0.410701  0.492306  1
  O  O47  1  0.526322  0.891757  0.593996  1
  O  O48  1  0.267160  0.903435  0.711223  1
  O  O49  1  0.872120  0.706078  0.312146  1
  O  O50  1  0.142663  0.180453  0.406736  1
  O  O51  1  0.745687  0.406936  0.209699  1
  O  O52  1  0.932722  0.909820  0.162487  1
  O  O53  1  0.570164  0.601347  0.337752  1
  O  O54  1  0.267160  0.096565  0.211223  1
  O  O55  1  0.526322  0.108243  0.093997  1
  O  O56  1  0.254313  0.406936  0.290301  1
  O  O57  1  0.252937  0.943124  0.516711  1
  O  O58  1  0.746995  0.410701  0.007694  1
  O  O59  1  0.011947  0.581398  0.609118  1
  P  P60  1  0.155598  0.640398  0.893409  1
  P  P61  1  1.000000  0.200901  0.750000  1
  P  P62  1  0.651060  0.146905  0.397587  1
  P  P63  1  0.348940  0.853094  0.602413  1
  P  P64  1  0.844402  0.359602  0.106590  1
  P  P65  1  0.155598  0.359602  0.393410  1
  P  P66  1  0.348939  0.146905  0.102413  1
  P  P67  1  0.500000  0.710636  0.250000  1
  P  P68  1  0.500000  0.289364  0.750000  1
  P  P69  1  0.651061  0.853094  0.897587  1
  P  P70  1  0.844402  0.640398  0.606590  1
  P  P71  1  0.000000  0.799100  0.250000  1
  Cr  Cr72  1  0.717433  0.000563  0.142532  1
  Cr  Cr73  1  0.282568  0.000563  0.357467  1
  Cr  Cr74  1  0.216574  0.502241  0.144257  1
  Cr  Cr75  1  0.783425  0.502241  0.355743  1
  Cr  Cr76  1  0.216575  0.497760  0.644257  1
  Cr  Cr77  1  0.783426  0.497760  0.855743  1
  Cr  Cr78  1  0.717432  0.999437  0.642532  1
  Cr  Cr79  1  0.282567  0.999437  0.857468  1
