# generated using pymatgen
data_NaNO
_symmetry_space_group_name_H-M   'P 1'
_cell_length_a   5.14674927
_cell_length_b   6.25666318
_cell_length_c   9.29750764
_cell_angle_alpha   90.00000000
_cell_angle_beta   90.00000000
_cell_angle_gamma   98.46682247
_symmetry_Int_Tables_number   1
_chemical_formula_structural   NaNO
_chemical_formula_sum   'Na8 N8 O8'
_cell_volume   296.13047189
_cell_formula_units_Z   8
loop_
 _symmetry_equiv_pos_site_id
 _symmetry_equiv_pos_as_xyz
  1  'x, y, z'
loop_
 _atom_site_type_symbol
 _atom_site_label
 _atom_site_symmetry_multiplicity
 _atom_site_fract_x
 _atom_site_fract_y
 _atom_site_fract_z
 _atom_site_occupancy
  N  N0  1  0.778948  0.835961  0.670518  1
  N  N1  1  0.900436  0.249089  0.929156  1
  N  N2  1  0.099564  0.250911  0.429156  1
  N  N3  1  0.099564  0.750911  0.070844  1
  N  N4  1  0.778948  0.335961  0.829482  1
  N  N5  1  0.221052  0.164039  0.329482  1
  N  N6  1  0.221052  0.664039  0.170518  1
  N  N7  1  0.900436  0.749089  0.570844  1
  O  O8  1  0.523129  0.356076  0.848377  1
  O  O9  1  0.523129  0.856076  0.651623  1
  O  O10  1  0.476871  0.643924  0.151623  1
  O  O11  1  0.476871  0.143924  0.348377  1
  O  O12  1  0.769122  0.679995  0.449154  1
  O  O13  1  0.230878  0.820005  0.949154  1
  O  O14  1  0.230878  0.320005  0.550846  1
  O  O15  1  0.769122  0.179995  0.050846  1
  Na  Na16  1  0.790037  0.940099  0.249487  1
  Na  Na17  1  0.209963  0.559901  0.749487  1
  Na  Na18  1  0.209963  0.059901  0.750513  1
  Na  Na19  1  0.790037  0.440099  0.250513  1
  Na  Na20  1  0.682765  0.782333  0.936172  1
  Na  Na21  1  0.317235  0.717667  0.436172  1
  Na  Na22  1  0.317235  0.217667  0.063828  1
  Na  Na23  1  0.682765  0.282333  0.563828  1
