# generated using pymatgen
data_KAlO
_symmetry_space_group_name_H-M   'P 1'
_cell_length_a   5.41740259
_cell_length_b   5.25737734
_cell_length_c   11.09268365
_cell_angle_alpha   59.54162673
_cell_angle_beta   60.76609308
_cell_angle_gamma   58.98790095
_symmetry_Int_Tables_number   1
_chemical_formula_structural   KAlO
_chemical_formula_sum   'K4 Al4 O4'
_cell_volume   222.09473595
_cell_formula_units_Z   4
loop_
 _symmetry_equiv_pos_site_id
 _symmetry_equiv_pos_as_xyz
  1  'x, y, z'
loop_
 _atom_site_type_symbol
 _atom_site_label
 _atom_site_symmetry_multiplicity
 _atom_site_fract_x
 _atom_site_fract_y
 _atom_site_fract_z
 _atom_site_occupancy
  K  K0  1  0.395196  0.378229  0.187646  1
  K  K1  1  0.351283  0.378229  0.687646  1
  K  K2  1  0.640445  0.626278  0.311155  1
  K  K3  1  0.610967  0.626278  0.811155  1
  Al  Al4  1  0.149106  0.158310  0.049097  1
  Al  Al5  1  0.094391  0.158310  0.549097  1
  Al  Al6  1  0.901937  0.855541  0.445502  1
  Al  Al7  1  0.851518  0.855541  0.945502  1
  O  O8  1  0.049241  0.967914  0.246972  1
  O  O9  1  0.497865  0.060729  0.486128  1
  O  O10  1  0.969151  0.060729  0.986128  1
  O  O11  1  0.988900  0.967914  0.746972  1
