# generated using pymatgen
data_Sm2Se3
_symmetry_space_group_name_H-M   'P 1'
_cell_length_a   22.98456308
_cell_length_b   8.84747203
_cell_length_c   8.84747227
_cell_angle_alpha   89.99999832
_cell_angle_beta   54.73235766
_cell_angle_gamma   54.73235656
_symmetry_Int_Tables_number   1
_chemical_formula_structural   Sm2Se3
_chemical_formula_sum   'Sm16 Se24'
_cell_volume   1038.59036239
_cell_formula_units_Z   8
loop_
 _symmetry_equiv_pos_site_id
 _symmetry_equiv_pos_as_xyz
  1  'x, y, z'
loop_
 _atom_site_type_symbol
 _atom_site_label
 _atom_site_symmetry_multiplicity
 _atom_site_fract_x
 _atom_site_fract_y
 _atom_site_fract_z
 _atom_site_occupancy
  Se  Se0  1  0.050048  0.999283  0.353963  1
  Se  Se1  1  0.124613  0.490390  0.993513  1
  Se  Se2  1  0.050048  0.350573  0.495893  1
  Se  Se3  1  0.283285  0.149427  0.146037  1
  Se  Se4  1  0.283285  0.500717  0.004107  1
  Se  Se5  1  0.208721  0.009610  0.867351  1
  Se  Se6  1  0.124613  0.635771  0.632649  1
  Se  Se7  1  0.384109  1.000158  0.343842  1
  Se  Se8  1  0.208721  0.864229  0.506487  1
  Se  Se9  1  0.449224  0.496170  -0.000158  1
  Se  Se10  1  0.384109  0.347514  0.503830  1
  Se  Se11  1  0.624613  0.132649  0.135771  1
  Se  Se12  1  0.624613  0.493513  0.990390  1
  Se  Se13  1  0.550048  0.995893  0.850573  1
  Se  Se14  1  0.449224  0.656158  0.652486  1
  Se  Se15  1  0.708721  0.006487  0.364229  1
  Se  Se16  1  0.550048  0.853963  0.499283  1
  Se  Se17  1  0.783285  0.504107  0.000717  1
  Se  Se18  1  0.708721  0.367351  0.509610  1
  Se  Se19  1  0.949224  0.152486  0.156158  1
  Se  Se20  1  0.949224  0.499842  0.996170  1
  Se  Se21  1  0.884109  0.003830  0.847514  1
  Se  Se22  1  0.783285  0.646037  0.649427  1
  Se  Se23  1  0.884109  0.843842  0.500158  1
  Sm  Sm24  1  0.996208  0.389020  0.247781  1
  Sm  Sm25  1  0.996208  0.122356  0.763595  1
  Sm  Sm26  1  0.082924  0.625613  0.375613  1
  Sm  Sm27  1  0.166667  0.250000  0.631002  1
  Sm  Sm28  1  0.337125  0.377644  0.252219  1
  Sm  Sm29  1  0.250409  0.874387  0.124387  1
  Sm  Sm30  1  0.337125  0.110980  0.736405  1
  Sm  Sm31  1  0.166667  0.750000  0.868998  1
  Sm  Sm32  1  0.496208  0.263595  0.622356  1
  Sm  Sm33  1  0.582924  0.875613  0.125613  1
  Sm  Sm34  1  0.666667  0.368998  0.250000  1
  Sm  Sm35  1  0.666667  0.131002  0.750000  1
  Sm  Sm36  1  0.496208  0.747781  0.889020  1
  Sm  Sm37  1  0.750409  0.624387  0.374387  1
  Sm  Sm38  1  0.837125  0.236405  0.610980  1
  Sm  Sm39  1  0.837125  0.752219  0.877644  1
