# generated using pymatgen
data_Pr2Te3
_symmetry_space_group_name_H-M   'P 1'
_cell_length_a   24.94002552
_cell_length_b   9.58995237
_cell_length_c   9.58995153
_cell_angle_alpha   90.00000142
_cell_angle_beta   54.77555917
_cell_angle_gamma   54.77556278
_symmetry_Int_Tables_number   1
_chemical_formula_structural   Pr2Te3
_chemical_formula_sum   'Pr16 Te24'
_cell_volume   1326.85580589
_cell_formula_units_Z   8
loop_
 _symmetry_equiv_pos_site_id
 _symmetry_equiv_pos_as_xyz
  1  'x, y, z'
loop_
 _atom_site_type_symbol
 _atom_site_label
 _atom_site_symmetry_multiplicity
 _atom_site_fract_x
 _atom_site_fract_y
 _atom_site_fract_z
 _atom_site_occupancy
  Pr  Pr0  1  0.081161  0.628258  0.378258  1
  Pr  Pr1  1  0.166667  0.250000  0.630513  1
  Pr  Pr2  1  0.252172  0.871742  0.121742  1
  Pr  Pr3  1  0.335350  0.376892  0.252828  1
  Pr  Pr4  1  0.335350  0.117058  0.741122  1
  Pr  Pr5  1  0.166667  0.750000  0.869487  1
  Pr  Pr6  1  0.497983  0.258878  0.623108  1
  Pr  Pr7  1  0.581161  0.878258  0.128258  1
  Pr  Pr8  1  0.666667  0.369487  0.250000  1
  Pr  Pr9  1  0.666667  0.130513  0.750000  1
  Pr  Pr10  1  0.497983  0.747172  0.882942  1
  Pr  Pr11  1  0.752172  0.621742  0.371742  1
  Pr  Pr12  1  0.835350  0.241122  0.617058  1
  Pr  Pr13  1  0.997983  0.382942  0.247172  1
  Pr  Pr14  1  0.997983  0.123108  0.758878  1
  Pr  Pr15  1  0.835350  0.752828  0.876892  1
  Te  Te16  1  0.051676  -0.000233  0.347776  1
  Te  Te17  1  0.120990  0.493589  0.995776  1
  Te  Te18  1  0.051676  0.345206  0.497197  1
  Te  Te19  1  0.281657  0.154794  0.152224  1
  Te  Te20  1  0.281657  0.500233  0.002803  1
  Te  Te21  1  0.212343  0.006411  0.858747  1
  Te  Te22  1  0.120990  0.643441  0.641253  1
  Te  Te23  1  0.385266  0.998379  0.341200  1
  Te  Te24  1  0.212343  0.856559  0.504224  1
  Te  Te25  1  0.448068  0.496997  0.001621  1
  Te  Te26  1  0.385266  0.345824  0.503003  1
  Te  Te27  1  0.620990  0.141253  0.143441  1
  Te  Te28  1  0.620990  0.495776  0.993589  1
  Te  Te29  1  0.551676  0.997197  0.845206  1
  Te  Te30  1  0.448068  0.658800  0.654176  1
  Te  Te31  1  0.712343  0.004224  0.356559  1
  Te  Te32  1  0.551676  0.847776  0.499767  1
  Te  Te33  1  0.781657  0.502803  1.000233  1
  Te  Te34  1  0.712343  0.358747  0.506411  1
  Te  Te35  1  0.948068  0.154176  0.158800  1
  Te  Te36  1  0.948068  0.501621  0.996997  1
  Te  Te37  1  0.885266  0.003003  0.845824  1
  Te  Te38  1  0.781657  0.652224  0.654794  1
  Te  Te39  1  0.885266  0.841200  0.498379  1
