# generated using pymatgen
data_Sr3GeO
_symmetry_space_group_name_H-M   'P 1'
_cell_length_a   7.20463266
_cell_length_b   7.19562251
_cell_length_c   10.18439792
_cell_angle_alpha   90.00000000
_cell_angle_beta   90.00000000
_cell_angle_gamma   90.00000000
_symmetry_Int_Tables_number   1
_chemical_formula_structural   Sr3GeO
_chemical_formula_sum   'Sr12 Ge4 O4'
_cell_volume   527.97769266
_cell_formula_units_Z   4
loop_
 _symmetry_equiv_pos_site_id
 _symmetry_equiv_pos_as_xyz
  1  'x, y, z'
loop_
 _atom_site_type_symbol
 _atom_site_label
 _atom_site_symmetry_multiplicity
 _atom_site_fract_x
 _atom_site_fract_y
 _atom_site_fract_z
 _atom_site_occupancy
  O  O0  1  0.000000  0.500000  0.500000  1
  O  O1  1  0.500000  0.000000  0.000000  1
  O  O2  1  0.500000  0.000000  0.500000  1
  O  O3  1  0.000000  0.500000  0.000000  1
  Ge  Ge4  1  0.979231  -0.005072  0.250000  1
  Ge  Ge5  1  0.479231  0.505072  0.250000  1
  Ge  Ge6  1  0.520769  0.494928  0.750000  1
  Ge  Ge7  1  0.020769  1.005072  0.750000  1
  Sr  Sr8  1  0.222507  0.777886  0.031456  1
  Sr  Sr9  1  0.722507  0.722114  0.468544  1
  Sr  Sr10  1  0.277493  0.277886  0.968544  1
  Sr  Sr11  1  0.777493  0.222114  0.531456  1
  Sr  Sr12  1  0.222507  0.777886  0.468544  1
  Sr  Sr13  1  0.722507  0.722114  0.031456  1
  Sr  Sr14  1  0.277493  0.277886  0.531456  1
  Sr  Sr15  1  0.777493  0.222114  0.968544  1
  Sr  Sr16  1  0.508637  0.060697  0.250000  1
  Sr  Sr17  1  0.008637  0.439303  0.250000  1
  Sr  Sr18  1  0.991363  0.560697  0.750000  1
  Sr  Sr19  1  0.491362  0.939303  0.750000  1
