# generated using pymatgen
data_CdBi3O7
_symmetry_space_group_name_H-M   'P 1'
_cell_length_a   3.78353565
_cell_length_b   3.78353568
_cell_length_c   15.91522684
_cell_angle_alpha   120.24963245
_cell_angle_beta   91.09065219
_cell_angle_gamma   116.75748348
_symmetry_Int_Tables_number   1
_chemical_formula_structural   CdBi3O7
_chemical_formula_sum   'Cd1 Bi3 O7'
_cell_volume   166.56872093
_cell_formula_units_Z   1
loop_
 _symmetry_equiv_pos_site_id
 _symmetry_equiv_pos_as_xyz
  1  'x, y, z'
loop_
 _atom_site_type_symbol
 _atom_site_label
 _atom_site_symmetry_multiplicity
 _atom_site_fract_x
 _atom_site_fract_y
 _atom_site_fract_z
 _atom_site_occupancy
  Bi  Bi0  1  0.055737  0.963865  0.504900  1
  Bi  Bi1  1  0.060641  0.000403  0.265261  1
  Bi  Bi2  1  0.947140  0.958648  0.976447  1
  Cd  Cd3  1  0.025766  1.003438  0.757301  1
  O  O4  1  0.530507  0.157122  0.921907  1
  O  O5  1  0.312067  0.452920  0.441247  1
  O  O6  1  0.728914  0.458303  0.796804  1
  O  O7  1  0.358302  0.583901  0.235551  1
  O  O8  1  0.822038  0.515028  0.584266  1
  O  O9  1  0.816894  0.501399  0.329573  1
  O  O10  1  0.833995  0.572974  0.101742  1
