# generated using pymatgen
data_SrGd2O4
_symmetry_space_group_name_H-M   'P 1'
_cell_length_a   3.48678227
_cell_length_b   10.25197590
_cell_length_c   12.15045860
_cell_angle_alpha   90.00000000
_cell_angle_beta   90.00000000
_cell_angle_gamma   90.00000000
_symmetry_Int_Tables_number   1
_chemical_formula_structural   SrGd2O4
_chemical_formula_sum   'Sr4 Gd8 O16'
_cell_volume   434.33524808
_cell_formula_units_Z   4
loop_
 _symmetry_equiv_pos_site_id
 _symmetry_equiv_pos_as_xyz
  1  'x, y, z'
loop_
 _atom_site_type_symbol
 _atom_site_label
 _atom_site_symmetry_multiplicity
 _atom_site_fract_x
 _atom_site_fract_y
 _atom_site_fract_z
 _atom_site_occupancy
  O  O0  1  0.250000  0.925682  0.921572  1
  O  O1  1  0.750000  0.074317  0.078428  1
  O  O2  1  0.250000  0.425683  0.578428  1
  O  O3  1  0.750000  0.574318  0.421572  1
  O  O4  1  0.250000  0.011897  0.284234  1
  O  O5  1  0.750000  0.988103  0.715766  1
  O  O6  1  0.250000  0.511897  0.215766  1
  O  O7  1  0.750000  0.488103  0.784234  1
  O  O8  1  0.250000  0.627998  0.979887  1
  O  O9  1  0.750000  0.372002  0.020113  1
  O  O10  1  0.250000  0.127998  0.520113  1
  O  O11  1  0.750000  0.872002  0.479887  1
  O  O12  1  0.750000  0.787252  0.178797  1
  O  O13  1  0.250000  0.212748  0.821203  1
  O  O14  1  0.750000  0.287252  0.321203  1
  O  O15  1  0.250000  0.712748  0.678797  1
  Sr  Sr16  1  0.750000  0.247348  0.648276  1
  Sr  Sr17  1  0.250000  0.752652  0.351724  1
  Sr  Sr18  1  0.750000  0.747348  0.851724  1
  Sr  Sr19  1  0.250000  0.252652  0.148276  1
  Gd  Gd20  1  0.250000  0.923734  0.611713  1
  Gd  Gd21  1  0.750000  0.076266  0.388287  1
  Gd  Gd22  1  0.250000  0.423734  0.888287  1
  Gd  Gd23  1  0.750000  0.576266  0.111713  1
  Gd  Gd24  1  0.750000  0.579288  0.612051  1
  Gd  Gd25  1  0.250000  0.420712  0.387949  1
  Gd  Gd26  1  0.750000  0.079288  0.887949  1
  Gd  Gd27  1  0.250000  0.920712  0.112051  1
