# generated using pymatgen
data_Bi(IO3)3
_symmetry_space_group_name_H-M   'P 1'
_cell_length_a   6.11417760
_cell_length_b   8.97515769
_cell_length_c   15.53057358
_cell_angle_alpha   96.61039015
_cell_angle_beta   90.00000000
_cell_angle_gamma   90.00000000
_symmetry_Int_Tables_number   1
_chemical_formula_structural   Bi(IO3)3
_chemical_formula_sum   'Bi4 I12 O36'
_cell_volume   846.58537637
_cell_formula_units_Z   4
loop_
 _symmetry_equiv_pos_site_id
 _symmetry_equiv_pos_as_xyz
  1  'x, y, z'
loop_
 _atom_site_type_symbol
 _atom_site_label
 _atom_site_symmetry_multiplicity
 _atom_site_fract_x
 _atom_site_fract_y
 _atom_site_fract_z
 _atom_site_occupancy
  O  O0  1  0.321718  0.090203  0.245060  1
  O  O1  1  0.821718  0.409797  0.254940  1
  O  O2  1  0.678282  0.909797  0.754940  1
  O  O3  1  0.178282  0.590203  0.745060  1
  O  O4  1  0.586558  0.950898  0.116280  1
  O  O5  1  0.086558  0.549102  0.383720  1
  O  O6  1  0.413442  0.049102  0.883720  1
  O  O7  1  0.913442  0.450898  0.616280  1
  O  O8  1  0.506786  0.263931  0.133919  1
  O  O9  1  0.006786  0.236069  0.366081  1
  O  O10  1  0.493214  0.736069  0.866081  1
  O  O11  1  0.993214  0.763931  0.633919  1
  O  O12  1  0.971406  0.216323  0.119790  1
  O  O13  1  0.471406  0.283677  0.380210  1
  O  O14  1  0.028594  0.783677  0.880210  1
  O  O15  1  0.528594  0.716323  0.619790  1
  O  O16  1  0.899496  0.859603  0.463709  1
  O  O17  1  0.399496  0.640397  0.036291  1
  O  O18  1  0.100504  0.140397  0.536291  1
  O  O19  1  0.600504  0.359603  0.963709  1
  O  O20  1  0.053994  0.864331  0.301421  1
  O  O21  1  0.553994  0.635669  0.198579  1
  O  O22  1  0.946006  0.135669  0.698579  1
  O  O23  1  0.446006  0.364331  0.801421  1
  O  O24  1  0.613301  0.930220  0.328681  1
  O  O25  1  0.113301  0.569780  0.171319  1
  O  O26  1  0.386699  0.069780  0.671319  1
  O  O27  1  0.886699  0.430220  0.828681  1
  O  O28  1  0.396997  0.856653  0.490302  1
  O  O29  1  0.896997  0.643347  0.009698  1
  O  O30  1  0.603003  0.143347  0.509698  1
  O  O31  1  0.103003  0.356653  0.990302  1
  O  O32  1  0.582233  0.587354  0.444975  1
  O  O33  1  0.082233  0.912646  0.055025  1
  O  O34  1  0.417767  0.412646  0.555025  1
  O  O35  1  0.917767  0.087354  0.944975  1
  I  I36  1  0.596518  0.113649  0.198646  1
  I  I37  1  0.096518  0.386351  0.301354  1
  I  I38  1  0.403482  0.886351  0.801354  1
  I  I39  1  0.903482  0.613649  0.698646  1
  I  I40  1  0.137084  0.164142  0.020745  1
  I  I41  1  0.637084  0.335858  0.479255  1
  I  I42  1  0.862916  0.835858  0.979255  1
  I  I43  1  0.362916  0.664142  0.520745  1
  I  I44  1  0.684068  0.286496  0.854107  1
  I  I45  1  0.184068  0.213504  0.645893  1
  I  I46  1  0.315932  0.713504  0.145893  1
  I  I47  1  0.815932  0.786496  0.354107  1
  Bi  Bi48  1  0.782144  0.453097  0.105355  1
  Bi  Bi49  1  0.282144  0.046903  0.394645  1
  Bi  Bi50  1  0.217856  0.546903  0.894645  1
  Bi  Bi51  1  0.717856  0.953097  0.605355  1
