# generated using pymatgen
data_HoScO3
_symmetry_space_group_name_H-M   'P 1'
_cell_length_a   5.44088566
_cell_length_b   5.73488225
_cell_length_c   7.96332477
_cell_angle_alpha   90.00000000
_cell_angle_beta   90.00000000
_cell_angle_gamma   90.00000000
_symmetry_Int_Tables_number   1
_chemical_formula_structural   HoScO3
_chemical_formula_sum   'Ho4 Sc4 O12'
_cell_volume   248.47833748
_cell_formula_units_Z   4
loop_
 _symmetry_equiv_pos_site_id
 _symmetry_equiv_pos_as_xyz
  1  'x, y, z'
loop_
 _atom_site_type_symbol
 _atom_site_label
 _atom_site_symmetry_multiplicity
 _atom_site_fract_x
 _atom_site_fract_y
 _atom_site_fract_z
 _atom_site_occupancy
  Ho  Ho0  1  0.018961  0.938258  0.250000  1
  Ho  Ho1  1  0.518961  0.561742  0.750000  1
  Ho  Ho2  1  0.481039  0.438258  0.250000  1
  Ho  Ho3  1  0.981039  0.061742  0.750000  1
  Sc  Sc4  1  0.000000  0.500000  0.000000  1
  Sc  Sc5  1  0.500000  0.000000  0.000000  1
  Sc  Sc6  1  0.500000  0.000000  0.500000  1
  Sc  Sc7  1  0.000000  0.500000  0.500000  1
  O  O8  1  0.868253  0.558727  0.250000  1
  O  O9  1  0.368253  0.941273  0.750000  1
  O  O10  1  0.631747  0.058727  0.250000  1
  O  O11  1  0.131747  0.441273  0.750000  1
  O  O12  1  0.689283  0.308055  0.931189  1
  O  O13  1  0.189283  0.191945  0.068811  1
  O  O14  1  0.810717  0.808055  0.568811  1
  O  O15  1  0.310717  0.691945  0.431189  1
  O  O16  1  0.310717  0.691945  0.068811  1
  O  O17  1  0.810717  0.808055  0.931189  1
  O  O18  1  0.189283  0.191945  0.431189  1
  O  O19  1  0.689283  0.308055  0.568811  1
