# generated using pymatgen
data_TlSbO3
_symmetry_space_group_name_H-M   'P 1'
_cell_length_a   8.04723811
_cell_length_b   8.04723804
_cell_length_c   8.04723799
_cell_angle_alpha   39.32795322
_cell_angle_beta   39.32795386
_cell_angle_gamma   39.32795525
_symmetry_Int_Tables_number   1
_chemical_formula_structural   TlSbO3
_chemical_formula_sum   'Tl2 Sb2 O6'
_cell_volume   188.35141927
_cell_formula_units_Z   2
loop_
 _symmetry_equiv_pos_site_id
 _symmetry_equiv_pos_as_xyz
  1  'x, y, z'
loop_
 _atom_site_type_symbol
 _atom_site_label
 _atom_site_symmetry_multiplicity
 _atom_site_fract_x
 _atom_site_fract_y
 _atom_site_fract_z
 _atom_site_occupancy
  Tl  Tl0  1  0.380861  0.380861  0.380861  1
  Tl  Tl1  1  0.619139  0.619139  0.619139  1
  Sb  Sb2  1  0.166572  0.166572  0.166572  1
  Sb  Sb3  1  0.833428  0.833428  0.833428  1
  O  O4  1  0.936840  0.165423  0.550900  1
  O  O5  1  0.550900  0.936840  0.165423  1
  O  O6  1  0.165423  0.550900  0.936840  1
  O  O7  1  0.063160  0.834577  0.449100  1
  O  O8  1  0.449100  0.063160  0.834577  1
  O  O9  1  0.834577  0.449100  0.063160  1
