# generated using pymatgen
data_BaGe4O9
_symmetry_space_group_name_H-M   'P 1'
_cell_length_a   11.79327927
_cell_length_b   11.79327927
_cell_length_c   4.82575922
_cell_angle_alpha   90.00000000
_cell_angle_beta   90.00000000
_cell_angle_gamma   119.99999998
_symmetry_Int_Tables_number   1
_chemical_formula_structural   BaGe4O9
_chemical_formula_sum   'Ba3 Ge12 O27'
_cell_volume   581.25332014
_cell_formula_units_Z   3
loop_
 _symmetry_equiv_pos_site_id
 _symmetry_equiv_pos_as_xyz
  1  'x, y, z'
loop_
 _atom_site_type_symbol
 _atom_site_label
 _atom_site_symmetry_multiplicity
 _atom_site_fract_x
 _atom_site_fract_y
 _atom_site_fract_z
 _atom_site_occupancy
  O  O0  1  0.517388  0.517388  0.500000  1
  O  O1  1  0.000000  0.482612  0.500000  1
  O  O2  1  0.482612  0.000000  0.500000  1
  O  O3  1  0.593874  0.181549  0.871282  1
  O  O4  1  0.818451  0.412325  0.871282  1
  O  O5  1  0.587675  0.406126  0.871282  1
  O  O6  1  0.412325  0.818451  0.128718  1
  O  O7  1  0.406126  0.587675  0.128718  1
  O  O8  1  0.181549  0.593874  0.128718  1
  O  O9  1  0.513200  0.262960  0.321637  1
  O  O10  1  0.737040  0.250240  0.321637  1
  O  O11  1  0.749760  0.486800  0.321637  1
  O  O12  1  0.250240  0.737040  0.678363  1
  O  O13  1  0.486800  0.749760  0.678363  1
  O  O14  1  0.262960  0.513200  0.678363  1
  O  O15  1  0.088519  0.152509  0.764851  1
  O  O16  1  0.847491  0.936010  0.764851  1
  O  O17  1  0.063990  0.911481  0.764851  1
  O  O18  1  0.936010  0.847491  0.235149  1
  O  O19  1  0.911481  0.063990  0.235149  1
  O  O20  1  0.152509  0.088519  0.235149  1
  O  O21  1  0.112861  0.325219  0.310680  1
  O  O22  1  0.674781  0.787642  0.310680  1
  O  O23  1  0.212358  0.887139  0.310680  1
  O  O24  1  0.787642  0.674781  0.689320  1
  O  O25  1  0.887139  0.212358  0.689320  1
  O  O26  1  0.325219  0.112861  0.689320  1
  Ge  Ge27  1  0.000000  0.000000  0.000000  1
  Ge  Ge28  1  0.666667  0.333333  0.097212  1
  Ge  Ge29  1  0.333333  0.666667  0.902788  1
  Ge  Ge30  1  0.820822  0.820822  0.500000  1
  Ge  Ge31  1  0.000000  0.179178  0.500000  1
  Ge  Ge32  1  0.179178  0.000000  0.500000  1
  Ge  Ge33  1  0.487509  0.150061  0.588565  1
  Ge  Ge34  1  0.849939  0.337447  0.588565  1
  Ge  Ge35  1  0.662553  0.512491  0.588565  1
  Ge  Ge36  1  0.337447  0.849939  0.411435  1
  Ge  Ge37  1  0.512491  0.662553  0.411435  1
  Ge  Ge38  1  0.150061  0.487509  0.411435  1
  Ba  Ba39  1  0.331731  0.331731  0.000000  1
  Ba  Ba40  1  0.000000  0.668269  0.000000  1
  Ba  Ba41  1  0.668269  0.000000  0.000000  1
