# generated using pymatgen
data_La5AgS8
_symmetry_space_group_name_H-M   'P 1'
_cell_length_a   7.55856814
_cell_length_b   7.55856837
_cell_length_c   7.55856829
_cell_angle_alpha   109.72975799
_cell_angle_beta   109.72975680
_cell_angle_gamma   108.95537515
_symmetry_Int_Tables_number   1
_chemical_formula_structural   La5AgS8
_chemical_formula_sum   'La5 Ag1 S8'
_cell_volume   332.40714900
_cell_formula_units_Z   1
loop_
 _symmetry_equiv_pos_site_id
 _symmetry_equiv_pos_as_xyz
  1  'x, y, z'
loop_
 _atom_site_type_symbol
 _atom_site_label
 _atom_site_symmetry_multiplicity
 _atom_site_fract_x
 _atom_site_fract_y
 _atom_site_fract_z
 _atom_site_occupancy
  Ag  Ag0  1  0.875000  0.125000  0.750000  1
  La  La1  1  0.109986  0.744759  0.867095  1
  La  La2  1  0.255241  0.622336  0.365227  1
  La  La3  1  0.377664  0.242891  0.632905  1
  La  La4  1  0.757109  0.890014  0.134773  1
  La  La5  1  0.625000  0.375000  0.250000  1
  S  S6  1  0.482614  0.992225  0.854944  1
  S  S7  1  0.148814  0.146958  0.140004  1
  S  S8  1  0.372331  0.517386  0.009611  1
  S  S9  1  0.637280  0.627669  0.645056  1
  S  S10  1  0.506954  0.008810  0.359996  1
  S  S11  1  0.991190  0.851186  0.498144  1
  S  S12  1  0.853042  0.493046  0.001856  1
  S  S13  1  0.007775  0.362720  0.490389  1
