# generated using pymatgen
data_Tl2(SbO3)3
_symmetry_space_group_name_H-M   'P 1'
_cell_length_a   9.59075346
_cell_length_b   9.59075346
_cell_length_c   9.59075346
_cell_angle_alpha   90.00000000
_cell_angle_beta   90.00000000
_cell_angle_gamma   90.00000000
_symmetry_Int_Tables_number   1
_chemical_formula_structural   Tl2(SbO3)3
_chemical_formula_sum   'Tl8 Sb12 O36'
_cell_volume   882.18197819
_cell_formula_units_Z   4
loop_
 _symmetry_equiv_pos_site_id
 _symmetry_equiv_pos_as_xyz
  1  'x, y, z'
loop_
 _atom_site_type_symbol
 _atom_site_label
 _atom_site_symmetry_multiplicity
 _atom_site_fract_x
 _atom_site_fract_y
 _atom_site_fract_z
 _atom_site_occupancy
  O  O0  1  0.038722  0.755875  0.414449  1
  O  O1  1  0.038722  0.744125  0.085551  1
  O  O2  1  0.461278  0.755875  0.085551  1
  O  O3  1  0.744125  0.085551  0.038722  1
  O  O4  1  0.085551  0.461278  0.755875  1
  O  O5  1  0.085551  0.038722  0.744125  1
  O  O6  1  0.755875  0.414449  0.038722  1
  O  O7  1  0.414449  0.038722  0.755875  1
  O  O8  1  0.755875  0.085551  0.461278  1
  O  O9  1  0.744125  0.414449  0.461278  1
  O  O10  1  0.414449  0.461278  0.744125  1
  O  O11  1  0.461278  0.744125  0.414449  1
  O  O12  1  0.961278  0.244125  0.585551  1
  O  O13  1  0.961278  0.255875  0.914449  1
  O  O14  1  0.538722  0.244125  0.914449  1
  O  O15  1  0.255875  0.914449  0.961278  1
  O  O16  1  0.914449  0.538722  0.244125  1
  O  O17  1  0.914449  0.961278  0.255875  1
  O  O18  1  0.244125  0.585551  0.961278  1
  O  O19  1  0.585551  0.961278  0.244125  1
  O  O20  1  0.613109  0.250000  0.250000  1
  O  O21  1  0.250000  0.613109  0.250000  1
  O  O22  1  0.250000  0.250000  0.613109  1
  O  O23  1  0.250000  0.886891  0.250000  1
  O  O24  1  0.250000  0.250000  0.886891  1
  O  O25  1  0.886891  0.250000  0.250000  1
  O  O26  1  0.386891  0.750000  0.750000  1
  O  O27  1  0.750000  0.386891  0.750000  1
  O  O28  1  0.750000  0.750000  0.386891  1
  O  O29  1  0.750000  0.113109  0.750000  1
  O  O30  1  0.750000  0.750000  0.113109  1
  O  O31  1  0.113109  0.750000  0.750000  1
  O  O32  1  0.538722  0.255875  0.585551  1
  O  O33  1  0.585551  0.538722  0.255875  1
  O  O34  1  0.255875  0.585551  0.538722  1
  O  O35  1  0.244125  0.914449  0.538722  1
  Sb  Sb36  1  0.087326  0.250000  0.750000  1
  Sb  Sb37  1  0.250000  0.750000  0.087326  1
  Sb  Sb38  1  0.750000  0.087326  0.250000  1
  Sb  Sb39  1  0.250000  0.750000  0.412674  1
  Sb  Sb40  1  0.750000  0.412674  0.250000  1
  Sb  Sb41  1  0.412674  0.250000  0.750000  1
  Sb  Sb42  1  0.912674  0.750000  0.250000  1
  Sb  Sb43  1  0.750000  0.250000  0.912674  1
  Sb  Sb44  1  0.250000  0.912674  0.750000  1
  Sb  Sb45  1  0.750000  0.250000  0.587326  1
  Sb  Sb46  1  0.250000  0.587326  0.750000  1
  Sb  Sb47  1  0.587326  0.750000  0.250000  1
  Tl  Tl48  1  0.888547  0.611453  0.888547  1
  Tl  Tl49  1  0.611453  0.888547  0.888547  1
  Tl  Tl50  1  0.888547  0.888547  0.611453  1
  Tl  Tl51  1  0.611453  0.611453  0.611453  1
  Tl  Tl52  1  0.111453  0.388547  0.111453  1
  Tl  Tl53  1  0.388547  0.111453  0.111453  1
  Tl  Tl54  1  0.111453  0.111453  0.388547  1
  Tl  Tl55  1  0.388547  0.388547  0.388547  1
