# generated using pymatgen
data_La2S3
_symmetry_space_group_name_H-M   'P 1'
_cell_length_a   22.72681913
_cell_length_b   8.76398008
_cell_length_c   8.76397955
_cell_angle_alpha   90.00000477
_cell_angle_beta   54.65951094
_cell_angle_gamma   54.65951329
_symmetry_Int_Tables_number   1
_chemical_formula_structural   La2S3
_chemical_formula_sum   'La16 S24'
_cell_volume   1004.01990302
_cell_formula_units_Z   8
loop_
 _symmetry_equiv_pos_site_id
 _symmetry_equiv_pos_as_xyz
  1  'x, y, z'
loop_
 _atom_site_type_symbol
 _atom_site_label
 _atom_site_symmetry_multiplicity
 _atom_site_fract_x
 _atom_site_fract_y
 _atom_site_fract_z
 _atom_site_occupancy
  La  La0  1  0.994572  0.397925  0.249799  1
  La  La1  1  0.994572  0.118358  0.766484  1
  La  La2  1  0.086040  0.620940  0.370940  1
  La  La3  1  0.166667  0.250000  0.629293  1
  La  La4  1  0.247293  0.879060  0.129060  1
  La  La5  1  0.338761  0.381642  0.250201  1
  La  La6  1  0.338761  0.102075  0.733516  1
  La  La7  1  0.166667  0.750000  0.870707  1
  La  La8  1  0.494572  0.266484  0.618358  1
  La  La9  1  0.666667  0.370707  0.250000  1
  La  La10  1  0.586040  0.870940  0.120940  1
  La  La11  1  0.494572  0.749799  0.897925  1
  La  La12  1  0.666667  0.129293  0.750000  1
  La  La13  1  0.747293  0.629060  0.379060  1
  La  La14  1  0.838761  0.233516  0.602075  1
  La  La15  1  0.838761  0.750201  0.881642  1
  S  S16  1  0.126730  0.486882  0.991968  1
  S  S17  1  0.050459  0.350243  0.495950  1
  S  S18  1  0.050459  0.998379  0.352673  1
  S  S19  1  0.282874  0.149757  0.147327  1
  S  S20  1  0.282874  0.501621  0.004050  1
  S  S21  1  0.126730  0.632927  0.627841  1
  S  S22  1  0.206603  0.867073  0.508032  1
  S  S23  1  0.449771  0.494397  0.991948  1
  S  S24  1  0.383563  0.341261  0.505603  1
  S  S25  1  0.206603  0.013118  0.872159  1
  S  S26  1  0.383563  0.008052  0.343709  1
  S  S27  1  0.626730  0.127841  0.132927  1
  S  S28  1  0.626730  0.491968  0.986882  1
  S  S29  1  0.449771  0.656291  0.658739  1
  S  S30  1  0.550459  0.852673  0.498379  1
  S  S31  1  0.782874  0.504050  0.001621  1
  S  S32  1  0.706603  0.372159  0.513118  1
  S  S33  1  0.550459  0.995950  0.850243  1
  S  S34  1  0.949771  0.158739  0.156291  1
  S  S35  1  0.706603  0.008032  0.367073  1
  S  S36  1  0.949771  0.491948  0.994397  1
  S  S37  1  0.782874  0.647327  0.649757  1
  S  S38  1  0.883563  0.843709  0.508052  1
  S  S39  1  0.883563  0.005603  0.841261  1
