# generated using pymatgen
data_LiV2(PO4)3
_symmetry_space_group_name_H-M   'P 1'
_cell_length_a   8.53009510
_cell_length_b   8.53009510
_cell_length_c   8.53009509
_cell_angle_alpha   60.45337622
_cell_angle_beta   60.45337627
_cell_angle_gamma   60.45337621
_symmetry_Int_Tables_number   1
_chemical_formula_structural   LiV2(PO4)3
_chemical_formula_sum   'Li2 V4 P6 O24'
_cell_volume   443.37909105
_cell_formula_units_Z   2
loop_
 _symmetry_equiv_pos_site_id
 _symmetry_equiv_pos_as_xyz
  1  'x, y, z'
loop_
 _atom_site_type_symbol
 _atom_site_label
 _atom_site_symmetry_multiplicity
 _atom_site_fract_x
 _atom_site_fract_y
 _atom_site_fract_z
 _atom_site_occupancy
  Li  Li0  1  0.000000  0.000000  0.000000  1
  Li  Li1  1  0.500000  0.500001  0.500000  1
  O  O2  1  0.193598  0.375990  0.996557  1
  O  O3  1  0.003442  0.806403  0.624009  1
  O  O4  1  0.083555  0.732142  0.943346  1
  O  O5  1  0.375990  0.996558  0.193597  1
  O  O6  1  0.496559  0.875990  0.693597  1
  O  O7  1  0.232141  0.583555  0.443346  1
  O  O8  1  0.732142  0.943346  0.083555  1
  O  O9  1  0.556653  0.767859  0.416445  1
  O  O10  1  0.306403  0.503442  0.124011  1
  O  O11  1  0.124010  0.306402  0.503442  1
  O  O12  1  0.056653  0.916445  0.267859  1
  O  O13  1  0.416445  0.556653  0.767859  1
  O  O14  1  0.583556  0.443347  0.232141  1
  O  O15  1  0.875990  0.693598  0.496558  1
  O  O16  1  0.806403  0.624010  0.003442  1
  O  O17  1  0.693598  0.496558  0.875989  1
  O  O18  1  0.943347  0.083555  0.732140  1
  O  O19  1  0.443346  0.232141  0.583555  1
  O  O20  1  0.767858  0.416445  0.556654  1
  O  O21  1  0.503442  0.124010  0.306402  1
  O  O22  1  0.624010  0.003442  0.806403  1
  O  O23  1  0.916445  0.267860  0.056653  1
  O  O24  1  0.996558  0.193598  0.375990  1
  O  O25  1  0.267859  0.056653  0.916445  1
  P  P26  1  0.040028  0.750001  0.459972  1
  P  P27  1  0.540028  0.959972  0.250000  1
  P  P28  1  0.250000  0.540029  0.959970  1
  P  P29  1  0.750000  0.459972  0.040029  1
  P  P30  1  0.459971  0.040028  0.750000  1
  P  P31  1  0.959972  0.250001  0.540028  1
  V  V32  1  0.140940  0.140941  0.140941  1
  V  V33  1  0.359059  0.359060  0.359060  1
  V  V34  1  0.640941  0.640940  0.640941  1
  V  V35  1  0.859059  0.859059  0.859060  1
