# generated using pymatgen
data_Nd2CdS4
_symmetry_space_group_name_H-M   'P 1'
_cell_length_a   7.45417324
_cell_length_b   7.45417324
_cell_length_c   7.45417385
_cell_angle_alpha   110.72169556
_cell_angle_beta   110.72169558
_cell_angle_gamma   106.99821289
_symmetry_Int_Tables_number   1
_chemical_formula_structural   Nd2CdS4
_chemical_formula_sum   'Nd4 Cd2 S8'
_cell_volume   318.39971371
_cell_formula_units_Z   2
loop_
 _symmetry_equiv_pos_site_id
 _symmetry_equiv_pos_as_xyz
  1  'x, y, z'
loop_
 _atom_site_type_symbol
 _atom_site_label
 _atom_site_symmetry_multiplicity
 _atom_site_fract_x
 _atom_site_fract_y
 _atom_site_fract_z
 _atom_site_occupancy
  Cd  Cd0  1  0.625000  0.375000  0.250000  1
  Cd  Cd1  1  0.875000  0.125000  0.750000  1
  Nd  Nd2  1  0.111498  0.750000  0.861498  1
  Nd  Nd3  1  0.250000  0.611498  0.361498  1
  Nd  Nd4  1  0.388502  0.250000  0.638502  1
  Nd  Nd5  1  0.750000  0.888502  0.138502  1
  S  S6  1  0.007404  0.882031  0.514281  1
  S  S7  1  0.117969  0.132250  0.125373  1
  S  S8  1  0.382031  0.507404  0.014281  1
  S  S9  1  0.492596  0.006877  0.874627  1
  S  S10  1  0.632250  0.617969  0.625373  1
  S  S11  1  0.506877  0.992596  0.374627  1
  S  S12  1  0.867750  0.493123  0.985719  1
  S  S13  1  0.993123  0.367750  0.485719  1
