# generated using pymatgen
data_Mg2SnO4
_symmetry_space_group_name_H-M   'P 1'
_cell_length_a   6.17732809
_cell_length_b   6.17732831
_cell_length_c   6.12228960
_cell_angle_alpha   60.29430183
_cell_angle_beta   60.29429706
_cell_angle_gamma   61.30351420
_symmetry_Int_Tables_number   1
_chemical_formula_structural   Mg2SnO4
_chemical_formula_sum   'Mg4 Sn2 O8'
_cell_volume   167.51469326
_cell_formula_units_Z   2
loop_
 _symmetry_equiv_pos_site_id
 _symmetry_equiv_pos_as_xyz
  1  'x, y, z'
loop_
 _atom_site_type_symbol
 _atom_site_label
 _atom_site_symmetry_multiplicity
 _atom_site_fract_x
 _atom_site_fract_y
 _atom_site_fract_z
 _atom_site_occupancy
  Mg  Mg0  1  0.012346  0.012346  0.987654  1
  Mg  Mg1  1  0.237654  0.237654  0.262346  1
  Mg  Mg2  1  0.625000  0.625000  0.125000  1
  Mg  Mg3  1  0.625000  0.625000  0.625000  1
  O  O4  1  0.378878  0.378878  0.386832  1
  O  O5  1  0.379578  0.843175  0.388624  1
  O  O6  1  0.378878  0.378878  0.855412  1
  O  O7  1  0.843175  0.379578  0.388624  1
  O  O8  1  0.406825  0.870422  0.861376  1
  O  O9  1  0.870422  0.406825  0.861376  1
  O  O10  1  0.871122  0.871122  0.394588  1
  O  O11  1  0.871122  0.871122  0.863168  1
  Sn  Sn12  1  0.125000  0.625000  0.625000  1
  Sn  Sn13  1  0.625000  0.125000  0.625000  1
