# generated using pymatgen
data_Ba(CO)4
_symmetry_space_group_name_H-M   'P 1'
_cell_length_a   6.46368673
_cell_length_b   6.46368673
_cell_length_c   7.76092638
_cell_angle_alpha   114.60908434
_cell_angle_beta   114.60908435
_cell_angle_gamma   89.99999996
_symmetry_Int_Tables_number   1
_chemical_formula_structural   Ba(CO)4
_chemical_formula_sum   'Ba2 C8 O8'
_cell_volume   262.05399028
_cell_formula_units_Z   2
loop_
 _symmetry_equiv_pos_site_id
 _symmetry_equiv_pos_as_xyz
  1  'x, y, z'
loop_
 _atom_site_type_symbol
 _atom_site_label
 _atom_site_symmetry_multiplicity
 _atom_site_fract_x
 _atom_site_fract_y
 _atom_site_fract_z
 _atom_site_occupancy
  C  C0  1  0.978279  0.639198  0.117476  1
  C  C1  1  0.021721  0.360802  0.882524  1
  C  C2  1  0.521721  0.021721  0.882524  1
  C  C3  1  0.478279  0.978279  0.117476  1
  C  C4  1  0.639198  0.139198  0.117476  1
  C  C5  1  0.139198  0.478279  0.117476  1
  C  C6  1  0.860802  0.521721  0.882524  1
  C  C7  1  0.360802  0.860802  0.882524  1
  O  O8  1  0.046831  0.191616  0.738447  1
  O  O9  1  0.953169  0.808384  0.261553  1
  O  O10  1  0.546831  0.046831  0.738447  1
  O  O11  1  0.453169  0.953169  0.261553  1
  O  O12  1  0.808384  0.308384  0.261553  1
  O  O13  1  0.308384  0.453169  0.261553  1
  O  O14  1  0.691616  0.546831  0.738447  1
  O  O15  1  0.191616  0.691616  0.738447  1
  Ba  Ba16  1  0.750000  0.750000  0.500000  1
  Ba  Ba17  1  0.250000  0.250000  0.500000  1
