# generated using pymatgen
data_Li3V2P5O16
_symmetry_space_group_name_H-M   'P 1'
_cell_length_a   18.43466342
_cell_length_b   7.04668998
_cell_length_c   5.07954560
_cell_angle_alpha   90.00000000
_cell_angle_beta   93.22307124
_cell_angle_gamma   90.00000000
_symmetry_Int_Tables_number   1
_chemical_formula_structural   Li3V2P5O16
_chemical_formula_sum   'Li6 V4 P10 O32'
_cell_volume   658.80628300
_cell_formula_units_Z   2
loop_
 _symmetry_equiv_pos_site_id
 _symmetry_equiv_pos_as_xyz
  1  'x, y, z'
loop_
 _atom_site_type_symbol
 _atom_site_label
 _atom_site_symmetry_multiplicity
 _atom_site_fract_x
 _atom_site_fract_y
 _atom_site_fract_z
 _atom_site_occupancy
  Li  Li0  1  0.033695  0.321434  0.261145  1
  Li  Li1  1  0.250000  0.983915  0.500000  1
  Li  Li2  1  0.466305  0.321434  0.738855  1
  Li  Li3  1  0.533695  0.678566  0.261145  1
  Li  Li4  1  0.750000  0.016086  0.500000  1
  Li  Li5  1  0.966305  0.678566  0.738855  1
  O  O6  1  0.392629  0.546459  0.550509  1
  O  O7  1  0.069491  0.620831  0.917452  1
  O  O8  1  0.071198  0.085144  0.056760  1
  O  O9  1  0.107372  0.546459  0.449491  1
  O  O10  1  0.130562  0.988204  0.620473  1
  O  O11  1  0.142779  0.316376  0.814149  1
  O  O12  1  0.204228  0.614751  0.810046  1
  O  O13  1  0.202997  0.865034  0.178731  1
  O  O14  1  0.297003  0.865034  0.821269  1
  O  O15  1  0.295772  0.614751  0.189954  1
  O  O16  1  0.357221  0.316376  0.185851  1
  O  O17  1  0.369437  0.988204  0.379526  1
  O  O18  1  0.020120  0.209038  0.614384  1
  O  O19  1  0.428803  0.085144  0.943239  1
  O  O20  1  0.430510  0.620831  0.082548  1
  O  O21  1  0.479880  0.209038  0.385616  1
  O  O22  1  0.520120  0.790961  0.614384  1
  O  O23  1  0.569490  0.379169  0.917452  1
  O  O24  1  0.571197  0.914856  0.056761  1
  O  O25  1  0.607371  0.453540  0.449491  1
  O  O26  1  0.979880  0.790961  0.385616  1
  O  O27  1  0.642779  0.683625  0.814149  1
  O  O28  1  0.704228  0.385249  0.810046  1
  O  O29  1  0.702997  0.134966  0.178731  1
  O  O30  1  0.797003  0.134966  0.821269  1
  O  O31  1  0.795772  0.385249  0.189954  1
  O  O32  1  0.857221  0.683625  0.185851  1
  O  O33  1  0.869438  0.011795  0.379527  1
  O  O34  1  0.892628  0.453540  0.550509  1
  O  O35  1  0.928803  0.914856  0.943240  1
  O  O36  1  0.930509  0.379169  0.082548  1
  O  O37  1  0.630563  0.011795  0.620474  1
  P  P38  1  0.087204  0.132032  0.772668  1
  P  P39  1  0.124378  0.531242  0.743134  1
  P  P40  1  0.250000  0.755291  0.000000  1
  P  P41  1  0.375622  0.531242  0.256866  1
  P  P42  1  0.412796  0.132032  0.227332  1
  P  P43  1  0.587204  0.867967  0.772668  1
  P  P44  1  0.624377  0.468759  0.743134  1
  P  P45  1  0.912796  0.867967  0.227332  1
  P  P46  1  0.875622  0.468759  0.256866  1
  P  P47  1  0.750000  0.244708  0.000000  1
  V  V48  1  0.090138  0.822785  0.266222  1
  V  V49  1  0.409863  0.822785  0.733780  1
  V  V50  1  0.590137  0.177216  0.266222  1
  V  V51  1  0.909862  0.177216  0.733778  1
