# generated using pymatgen
data_Sm(DyS2)2
_symmetry_space_group_name_H-M   'P 1'
_cell_length_a   7.24550863
_cell_length_b   7.24550802
_cell_length_c   7.24550803
_cell_angle_alpha   109.30464715
_cell_angle_beta   109.80488205
_cell_angle_gamma   109.30464582
_symmetry_Int_Tables_number   1
_chemical_formula_structural   Sm(DyS2)2
_chemical_formula_sum   'Sm2 Dy4 S8'
_cell_volume   292.80172681
_cell_formula_units_Z   2
loop_
 _symmetry_equiv_pos_site_id
 _symmetry_equiv_pos_as_xyz
  1  'x, y, z'
loop_
 _atom_site_type_symbol
 _atom_site_label
 _atom_site_symmetry_multiplicity
 _atom_site_fract_x
 _atom_site_fract_y
 _atom_site_fract_z
 _atom_site_occupancy
  Sm  Sm0  1  0.125000  0.750000  0.875000  1
  Sm  Sm1  1  0.375000  0.250000  0.625000  1
  Dy  Dy2  1  0.250000  0.625827  0.375827  1
  Dy  Dy3  1  0.750000  0.874173  0.124173  1
  Dy  Dy4  1  0.624173  0.374173  0.250000  1
  Dy  Dy5  1  0.875827  0.125827  0.750000  1
  S  S6  1  0.994715  0.853116  0.496932  1
  S  S7  1  0.996932  0.353116  0.494715  1
  S  S8  1  0.141599  0.146884  0.143816  1
  S  S9  1  0.358401  0.502216  0.005285  1
  S  S10  1  0.643816  0.646884  0.641599  1
  S  S11  1  0.505285  0.002216  0.858401  1
  S  S12  1  0.503068  0.997784  0.356184  1
  S  S13  1  0.856184  0.497784  0.003068  1
