# generated using pymatgen
data_U3Sb4
_symmetry_space_group_name_H-M   'P 1'
_cell_length_a   7.88276012
_cell_length_b   7.88276013
_cell_length_c   7.88276012
_cell_angle_alpha   109.47122065
_cell_angle_beta   109.47122067
_cell_angle_gamma   109.47122062
_symmetry_Int_Tables_number   1
_chemical_formula_structural   U3Sb4
_chemical_formula_sum   'U6 Sb8'
_cell_volume   377.06223859
_cell_formula_units_Z   2
loop_
 _symmetry_equiv_pos_site_id
 _symmetry_equiv_pos_as_xyz
  1  'x, y, z'
loop_
 _atom_site_type_symbol
 _atom_site_label
 _atom_site_symmetry_multiplicity
 _atom_site_fract_x
 _atom_site_fract_y
 _atom_site_fract_z
 _atom_site_occupancy
  Sb  Sb0  1  0.659210  0.659210  0.659210  1
  Sb  Sb1  1  0.340790  0.500000  0.000000  1
  Sb  Sb2  1  0.500000  0.000000  0.340790  1
  Sb  Sb3  1  0.000000  0.340790  0.500000  1
  Sb  Sb4  1  0.500000  0.000000  0.840790  1
  Sb  Sb5  1  0.000000  0.840790  0.500000  1
  Sb  Sb6  1  0.159210  0.159210  0.159210  1
  Sb  Sb7  1  0.840790  0.500000  0.000000  1
  U  U8  1  0.750000  0.875000  0.125000  1
  U  U9  1  0.625000  0.375000  0.250000  1
  U  U10  1  0.875000  0.125000  0.750000  1
  U  U11  1  0.125000  0.750000  0.875000  1
  U  U12  1  0.375000  0.250000  0.625000  1
  U  U13  1  0.250000  0.625000  0.375000  1
