# generated using pymatgen
data_LiHS
_symmetry_space_group_name_H-M   'P 1'
_cell_length_a   3.95729972
_cell_length_b   7.91596551
_cell_length_c   12.33103688
_cell_angle_alpha   90.00000000
_cell_angle_beta   90.00000000
_cell_angle_gamma   90.00000000
_symmetry_Int_Tables_number   1
_chemical_formula_structural   LiHS
_chemical_formula_sum   'Li8 H8 S8'
_cell_volume   386.28018817
_cell_formula_units_Z   8
loop_
 _symmetry_equiv_pos_site_id
 _symmetry_equiv_pos_as_xyz
  1  'x, y, z'
loop_
 _atom_site_type_symbol
 _atom_site_label
 _atom_site_symmetry_multiplicity
 _atom_site_fract_x
 _atom_site_fract_y
 _atom_site_fract_z
 _atom_site_occupancy
  H  H0  1  0.145133  0.500000  0.250000  1
  H  H1  1  0.145133  0.000000  0.750000  1
  H  H2  1  0.854867  0.000000  0.250000  1
  H  H3  1  0.854867  0.500000  0.750000  1
  H  H4  1  0.000000  0.073799  0.000000  1
  H  H5  1  0.000000  0.426201  0.500000  1
  H  H6  1  0.000000  0.573799  0.000000  1
  H  H7  1  0.000000  0.926201  0.500000  1
  Li  Li8  1  0.500327  0.253116  0.124967  1
  Li  Li9  1  0.499673  0.246884  0.375033  1
  Li  Li10  1  0.500327  0.246884  0.624967  1
  Li  Li11  1  0.499673  0.753116  0.124967  1
  Li  Li12  1  0.499673  0.746884  0.624967  1
  Li  Li13  1  0.499673  0.253116  0.875033  1
  Li  Li14  1  0.500327  0.746884  0.375033  1
  Li  Li15  1  0.500327  0.753116  0.875033  1
  S  S16  1  0.486637  0.500000  0.250000  1
  S  S17  1  0.513363  0.500000  0.750000  1
  S  S18  1  0.513363  0.000000  0.250000  1
  S  S19  1  0.486637  0.000000  0.750000  1
  S  S20  1  0.000000  0.244411  0.000000  1
  S  S21  1  0.000000  0.255589  0.500000  1
  S  S22  1  0.000000  0.744411  0.000000  1
  S  S23  1  0.000000  0.755589  0.500000  1
