# generated using pymatgen
data_Ta3SBr7
_symmetry_space_group_name_H-M   'P 1'
_cell_length_a   7.16399057
_cell_length_b   7.16422515
_cell_length_c   7.83172454
_cell_angle_alpha   76.24677108
_cell_angle_beta   62.78247645
_cell_angle_gamma   60.00108309
_symmetry_Int_Tables_number   1
_chemical_formula_structural   Ta3SBr7
_chemical_formula_sum   'Ta3 S1 Br7'
_cell_volume   309.54497873
_cell_formula_units_Z   1
loop_
 _symmetry_equiv_pos_site_id
 _symmetry_equiv_pos_as_xyz
  1  'x, y, z'
loop_
 _atom_site_type_symbol
 _atom_site_label
 _atom_site_symmetry_multiplicity
 _atom_site_fract_x
 _atom_site_fract_y
 _atom_site_fract_z
 _atom_site_occupancy
  S  S0  1  0.636804  0.589948  0.136444  1
  Br  Br1  1  0.727154  0.415378  0.633278  1
  Br  Br2  1  0.224189  0.415378  0.633278  1
  Br  Br3  1  0.748073  0.917342  0.586512  1
  Br  Br4  1  0.115583  0.586650  0.182184  1
  Br  Br5  1  0.224057  0.918283  0.633602  1
  Br  Br6  1  0.611017  0.090792  0.182475  1
  Br  Br7  1  0.115716  0.090792  0.182475  1
  Ta  Ta8  1  0.245253  0.720405  0.387081  1
  Ta  Ta9  1  0.647261  0.720405  0.387081  1
  Ta  Ta10  1  0.647292  0.318428  0.386988  1
