# generated using pymatgen
data_Ca3Si2O7
_symmetry_space_group_name_H-M   'P 1'
_cell_length_a   7.92686737
_cell_length_b   8.99405956
_cell_length_c   9.69341695
_cell_angle_alpha   90.00000000
_cell_angle_beta   106.14696813
_cell_angle_gamma   90.00000000
_symmetry_Int_Tables_number   1
_chemical_formula_structural   Ca3Si2O7
_chemical_formula_sum   'Ca12 Si8 O28'
_cell_volume   663.82698199
_cell_formula_units_Z   4
loop_
 _symmetry_equiv_pos_site_id
 _symmetry_equiv_pos_as_xyz
  1  'x, y, z'
loop_
 _atom_site_type_symbol
 _atom_site_label
 _atom_site_symmetry_multiplicity
 _atom_site_fract_x
 _atom_site_fract_y
 _atom_site_fract_z
 _atom_site_occupancy
  O  O0  1  0.488982  0.334583  0.427376  1
  O  O1  1  0.011018  0.834583  0.072624  1
  O  O2  1  0.511018  0.665417  0.572624  1
  O  O3  1  0.988982  0.165417  0.927376  1
  O  O4  1  0.798167  0.359695  0.641071  1
  O  O5  1  0.701833  0.859695  0.858929  1
  O  O6  1  0.201833  0.640305  0.358929  1
  O  O7  1  0.298167  0.140305  0.141071  1
  O  O8  1  0.625634  0.103781  0.598643  1
  O  O9  1  0.874366  0.603781  0.901357  1
  O  O10  1  0.374366  0.896219  0.401357  1
  O  O11  1  0.125634  0.396219  0.098643  1
  O  O12  1  0.492641  0.346495  0.703009  1
  O  O13  1  0.007359  0.846495  0.796991  1
  O  O14  1  0.507359  0.653505  0.296991  1
  O  O15  1  0.992641  0.153505  0.203009  1
  O  O16  1  0.362569  0.398320  0.910931  1
  O  O17  1  0.137431  0.898320  0.589069  1
  O  O18  1  0.637431  0.601680  0.089069  1
  O  O19  1  0.862569  0.101680  0.410931  1
  O  O20  1  0.936442  0.397163  0.356690  1
  O  O21  1  0.563558  0.897163  0.143310  1
  O  O22  1  0.063558  0.602837  0.643310  1
  O  O23  1  0.436442  0.102837  0.856690  1
  O  O24  1  0.669902  0.238568  0.179326  1
  O  O25  1  0.830098  0.738568  0.320674  1
  O  O26  1  0.330098  0.761432  0.820674  1
  O  O27  1  0.169902  0.261432  0.679326  1
  Si  Si28  1  0.604320  0.284389  0.589169  1
  Si  Si29  1  0.895680  0.784389  0.910831  1
  Si  Si30  1  0.395680  0.715611  0.410831  1
  Si  Si31  1  0.104320  0.215611  0.089169  1
  Si  Si32  1  0.363549  0.266519  0.796087  1
  Si  Si33  1  0.136451  0.766519  0.703913  1
  Si  Si34  1  0.636451  0.733481  0.203913  1
  Si  Si35  1  0.863549  0.233481  0.296087  1
  Ca  Ca36  1  0.556407  0.593781  0.842811  1
  Ca  Ca37  1  0.943593  0.093781  0.657189  1
  Ca  Ca38  1  0.443593  0.406219  0.157189  1
  Ca  Ca39  1  0.056407  0.906219  0.342811  1
  Ca  Ca40  1  0.461203  0.924879  0.668795  1
  Ca  Ca41  1  0.038797  0.424879  0.831205  1
  Ca  Ca42  1  0.538797  0.075121  0.331205  1
  Ca  Ca43  1  0.961203  0.575121  0.168795  1
  Ca  Ca44  1  0.218278  0.440147  0.508435  1
  Ca  Ca45  1  0.281722  0.940147  0.991565  1
  Ca  Ca46  1  0.781722  0.559853  0.491565  1
  Ca  Ca47  1  0.718278  0.059853  0.008435  1
