# generated using pymatgen
data_Mg(GaO2)2
_symmetry_space_group_name_H-M   'P 1'
_cell_length_a   5.91929297
_cell_length_b   5.91929270
_cell_length_c   5.98998012
_cell_angle_alpha   59.60417548
_cell_angle_beta   59.60417169
_cell_angle_gamma   59.59701409
_symmetry_Int_Tables_number   1
_chemical_formula_structural   Mg(GaO2)2
_chemical_formula_sum   'Mg2 Ga4 O8'
_cell_volume   147.06232013
_cell_formula_units_Z   2
loop_
 _symmetry_equiv_pos_site_id
 _symmetry_equiv_pos_as_xyz
  1  'x, y, z'
loop_
 _atom_site_type_symbol
 _atom_site_label
 _atom_site_symmetry_multiplicity
 _atom_site_fract_x
 _atom_site_fract_y
 _atom_site_fract_z
 _atom_site_occupancy
  Ga  Ga0  1  0.989850  0.989850  0.010150  1
  Ga  Ga1  1  0.260150  0.260150  0.239850  1
  Ga  Ga2  1  0.625000  0.625000  0.125000  1
  Ga  Ga3  1  0.625000  0.625000  0.625000  1
  Mg  Mg4  1  0.125000  0.625000  0.625000  1
  Mg  Mg5  1  0.625000  0.125000  0.625000  1
  O  O6  1  0.386845  0.386845  0.372405  1
  O  O7  1  0.386845  0.386845  0.853904  1
  O  O8  1  0.388060  0.860218  0.375861  1
  O  O9  1  0.860218  0.388060  0.375861  1
  O  O10  1  0.389782  0.861940  0.874139  1
  O  O11  1  0.861940  0.389782  0.874139  1
  O  O12  1  0.863155  0.863155  0.396096  1
  O  O13  1  0.863155  0.863155  0.877595  1
