# generated using pymatgen
data_Ti(NO3)4
_symmetry_space_group_name_H-M   'P 1'
_cell_length_a   8.01882961
_cell_length_b   8.97172087
_cell_length_c   14.04337656
_cell_angle_alpha   90.00000000
_cell_angle_beta   90.00000000
_cell_angle_gamma   101.90048080
_symmetry_Int_Tables_number   1
_chemical_formula_structural   Ti(NO3)4
_chemical_formula_sum   'Ti4 N16 O48'
_cell_volume   988.60392434
_cell_formula_units_Z   4
loop_
 _symmetry_equiv_pos_site_id
 _symmetry_equiv_pos_as_xyz
  1  'x, y, z'
loop_
 _atom_site_type_symbol
 _atom_site_label
 _atom_site_symmetry_multiplicity
 _atom_site_fract_x
 _atom_site_fract_y
 _atom_site_fract_z
 _atom_site_occupancy
  N  N0  1  0.670098  0.152783  0.067666  1
  N  N1  1  0.567101  0.440517  0.259333  1
  N  N2  1  0.932899  0.059483  0.759333  1
  N  N3  1  0.432899  0.559483  0.740667  1
  N  N4  1  0.067101  0.940517  0.240667  1
  N  N5  1  0.829902  0.347217  0.567666  1
  N  N6  1  0.329902  0.847217  0.932334  1
  N  N7  1  0.170098  0.652783  0.432334  1
  N  N8  1  0.634905  0.028318  0.320640  1
  N  N9  1  0.865095  0.471682  0.820640  1
  N  N10  1  0.365095  0.971682  0.679360  1
  N  N11  1  0.134905  0.528318  0.179360  1
  N  N12  1  0.738854  0.738730  0.055236  1
  N  N13  1  0.761146  0.761270  0.555236  1
  N  N14  1  0.261146  0.261270  0.944764  1
  N  N15  1  0.238854  0.238730  0.444764  1
  O  O16  1  0.346792  0.260806  0.865980  1
  O  O17  1  0.201309  0.930566  0.275941  1
  O  O18  1  0.298691  0.569434  0.775941  1
  O  O19  1  0.798691  0.069434  0.724059  1
  O  O20  1  0.829671  0.161965  0.087398  1
  O  O21  1  0.670329  0.338035  0.587398  1
  O  O22  1  0.170329  0.838035  0.912602  1
  O  O23  1  0.329671  0.661965  0.412602  1
  O  O24  1  0.574437  0.030493  0.106110  1
  O  O25  1  0.925563  0.469507  0.606110  1
  O  O26  1  0.425563  0.969507  0.893890  1
  O  O27  1  0.074437  0.530493  0.393890  1
  O  O28  1  0.614689  0.243740  0.020596  1
  O  O29  1  0.885311  0.256260  0.520596  1
  O  O30  1  0.385311  0.756260  0.979404  1
  O  O31  1  0.114689  0.743740  0.479404  1
  O  O32  1  0.766391  0.116928  0.279394  1
  O  O33  1  0.733609  0.383072  0.779394  1
  O  O34  1  0.233609  0.883072  0.720606  1
  O  O35  1  0.266391  0.616928  0.220606  1
  O  O36  1  0.595573  0.897176  0.278319  1
  O  O37  1  0.904427  0.602824  0.778319  1
  O  O38  1  0.404427  0.102824  0.721681  1
  O  O39  1  0.095573  0.397176  0.221681  1
  O  O40  1  0.560591  0.066195  0.388015  1
  O  O41  1  0.939409  0.433805  0.888015  1
  O  O42  1  0.439409  0.933805  0.611985  1
  O  O43  1  0.060591  0.566195  0.111985  1
  O  O44  1  0.653208  0.739194  0.134020  1
  O  O45  1  0.846792  0.760806  0.634020  1
  O  O46  1  0.701309  0.430566  0.224059  1
  O  O47  1  0.153208  0.239194  0.365980  1
  O  O48  1  0.848361  0.868289  0.043911  1
  O  O49  1  0.651639  0.631711  0.543911  1
  O  O50  1  0.151639  0.131711  0.956089  1
  O  O51  1  0.545646  0.546622  0.318018  1
  O  O52  1  0.720372  0.634041  1.000216  1
  O  O53  1  0.779628  0.865959  0.500216  1
  O  O54  1  0.279628  0.365959  -0.000216  1
  O  O55  1  0.220372  0.134041  0.499784  1
  O  O56  1  0.922714  0.843994  0.257332  1
  O  O57  1  0.577286  0.656006  0.757332  1
  O  O58  1  0.077286  0.156006  0.742668  1
  O  O59  1  0.422714  0.343994  0.242668  1
  O  O60  1  0.045646  0.046622  0.181982  1
  O  O61  1  0.454354  0.453378  0.681982  1
  O  O62  1  0.954354  0.953378  0.818018  1
  O  O63  1  0.348361  0.368289  0.456089  1
  Ti  Ti64  1  0.280537  0.461434  0.329142  1
  Ti  Ti65  1  0.219463  0.038566  0.829142  1
  Ti  Ti66  1  0.719463  0.538566  0.670858  1
  Ti  Ti67  1  0.780537  0.961434  0.170858  1
