# generated using pymatgen
data_LiCr2(PO3)5
_symmetry_space_group_name_H-M   'P 1'
_cell_length_a   12.98744527
_cell_length_b   8.83963826
_cell_length_c   5.43158217
_cell_angle_alpha   90.00000000
_cell_angle_beta   95.43513582
_cell_angle_gamma   90.00000000
_symmetry_Int_Tables_number   1
_chemical_formula_structural   LiCr2(PO3)5
_chemical_formula_sum   'Li2 Cr4 P10 O30'
_cell_volume   620.76556237
_cell_formula_units_Z   2
loop_
 _symmetry_equiv_pos_site_id
 _symmetry_equiv_pos_as_xyz
  1  'x, y, z'
loop_
 _atom_site_type_symbol
 _atom_site_label
 _atom_site_symmetry_multiplicity
 _atom_site_fract_x
 _atom_site_fract_y
 _atom_site_fract_z
 _atom_site_occupancy
  Li  Li0  1  0.438879  0.002665  0.608365  1
  Li  Li1  1  0.938879  0.997335  0.108366  1
  O  O2  1  0.334385  0.874332  0.416436  1
  O  O3  1  0.943560  0.538455  0.219669  1
  O  O4  1  0.562912  0.536350  0.279142  1
  O  O5  1  0.966850  0.859381  0.387162  1
  O  O6  1  0.033098  0.145874  0.605549  1
  O  O7  1  0.038319  0.166126  0.133527  1
  O  O8  1  0.062912  0.463650  0.779143  1
  O  O9  1  0.145851  0.341493  0.408602  1
  O  O10  1  0.144000  0.622619  0.445238  1
  O  O11  1  0.172866  0.859718  0.091824  1
  O  O12  1  0.194714  0.069200  0.419631  1
  O  O13  1  0.253239  0.461940  0.744225  1
  O  O14  1  0.306468  0.064510  0.067523  1
  O  O15  1  0.958449  0.835755  0.866505  1
  O  O16  1  0.360551  0.619137  0.053416  1
  O  O17  1  0.357378  0.337803  0.082127  1
  O  O18  1  0.443560  0.461544  0.719668  1
  O  O19  1  0.466850  0.140619  0.887161  1
  O  O20  1  0.860550  0.380863  0.553416  1
  O  O21  1  0.538319  0.833874  0.633527  1
  O  O22  1  0.533098  0.854126  0.105550  1
  O  O23  1  0.857378  0.662197  0.582127  1
  O  O24  1  0.645852  0.658507  0.908602  1
  O  O25  1  0.644000  0.377381  0.945238  1
  O  O26  1  0.672867  0.140282  0.591825  1
  O  O27  1  0.694715  0.930800  0.919631  1
  O  O28  1  0.753239  0.538060  0.244224  1
  O  O29  1  0.806468  0.935490  0.567523  1
  O  O30  1  0.834385  0.125668  0.916436  1
  O  O31  1  0.458449  0.164245  0.366505  1
  P  P32  1  0.593035  0.823211  0.892054  1
  P  P33  1  0.643374  0.518475  0.097489  1
  P  P34  1  0.750244  0.048594  0.748166  1
  P  P35  1  0.861661  0.520424  0.397402  1
  P  P36  1  0.093035  0.176789  0.392054  1
  P  P37  1  0.143375  0.481525  0.597490  1
  P  P38  1  0.250243  0.951406  0.248166  1
  P  P39  1  0.361661  0.479576  0.897401  1
  P  P40  1  0.407638  0.172051  0.104796  1
  P  P41  1  0.907638  0.827949  0.604796  1
  Cr  Cr42  1  0.951778  0.292969  0.849795  1
  Cr  Cr43  1  0.555151  0.295900  0.640355  1
  Cr  Cr44  1  0.451778  0.707031  0.349795  1
  Cr  Cr45  1  0.055151  0.704100  0.140355  1
