# generated using pymatgen
data_BaPrO3
_symmetry_space_group_name_H-M   'P 1'
_cell_length_a   6.49651373
_cell_length_b   6.43086655
_cell_length_c   9.03878605
_cell_angle_alpha   90.00000000
_cell_angle_beta   90.00000000
_cell_angle_gamma   90.00000000
_symmetry_Int_Tables_number   1
_chemical_formula_structural   BaPrO3
_chemical_formula_sum   'Ba4 Pr4 O12'
_cell_volume   377.62432739
_cell_formula_units_Z   4
loop_
 _symmetry_equiv_pos_site_id
 _symmetry_equiv_pos_as_xyz
  1  'x, y, z'
loop_
 _atom_site_type_symbol
 _atom_site_label
 _atom_site_symmetry_multiplicity
 _atom_site_fract_x
 _atom_site_fract_y
 _atom_site_fract_z
 _atom_site_occupancy
  Ba  Ba0  1  0.965246  0.014904  0.750000  1
  Ba  Ba1  1  0.034754  0.985096  0.250000  1
  Ba  Ba2  1  0.465246  0.485096  0.750000  1
  Ba  Ba3  1  0.534754  0.514904  0.250000  1
  O  O4  1  0.219695  0.219428  0.943902  1
  O  O5  1  0.536179  0.899821  0.750000  1
  O  O6  1  0.719695  0.280572  0.556098  1
  O  O7  1  0.719695  0.280572  0.943902  1
  O  O8  1  0.780305  0.780572  0.443902  1
  O  O9  1  0.036179  0.600179  0.750000  1
  O  O10  1  0.219695  0.219428  0.556098  1
  O  O11  1  0.280305  0.719428  0.056098  1
  O  O12  1  0.280305  0.719428  0.443902  1
  O  O13  1  0.463821  0.100179  0.250000  1
  O  O14  1  0.780305  0.780572  0.056098  1
  O  O15  1  0.963821  0.399821  0.250000  1
  Pr  Pr16  1  0.500000  0.000000  0.000000  1
  Pr  Pr17  1  0.000000  0.500000  0.500000  1
  Pr  Pr18  1  0.500000  0.000000  0.500000  1
  Pr  Pr19  1  0.000000  0.500000  0.000000  1
