# generated using pymatgen
data_Si3(Cl4O)2
_symmetry_space_group_name_H-M   'P 1'
_cell_length_a   6.64944754
_cell_length_b   11.39201547
_cell_length_c   21.10047987
_cell_angle_alpha   90.00000000
_cell_angle_beta   90.00000000
_cell_angle_gamma   90.00000000
_symmetry_Int_Tables_number   1
_chemical_formula_structural   Si3(Cl4O)2
_chemical_formula_sum   'Si12 Cl32 O8'
_cell_volume   1598.37420546
_cell_formula_units_Z   4
loop_
 _symmetry_equiv_pos_site_id
 _symmetry_equiv_pos_as_xyz
  1  'x, y, z'
loop_
 _atom_site_type_symbol
 _atom_site_label
 _atom_site_symmetry_multiplicity
 _atom_site_fract_x
 _atom_site_fract_y
 _atom_site_fract_z
 _atom_site_occupancy
  O  O0  1  0.123169  0.857605  0.187885  1
  O  O1  1  0.623169  0.642395  0.687885  1
  O  O2  1  0.376831  0.357605  0.187885  1
  O  O3  1  0.876831  0.142395  0.812115  1
  O  O4  1  0.876831  0.142395  0.687885  1
  O  O5  1  0.376831  0.357605  0.312115  1
  O  O6  1  0.623169  0.642395  0.812115  1
  O  O7  1  0.123169  0.857605  0.312115  1
  Si  Si8  1  0.477958  0.297252  0.250000  1
  Si  Si9  1  0.110001  0.912402  0.116768  1
  Si  Si10  1  0.022042  0.797252  0.250000  1
  Si  Si11  1  0.977958  0.202748  0.750000  1
  Si  Si12  1  0.610001  0.587598  0.883232  1
  Si  Si13  1  0.389999  0.412402  0.383232  1
  Si  Si14  1  0.889999  0.087598  0.616768  1
  Si  Si15  1  0.889999  0.087598  0.883232  1
  Si  Si16  1  0.389999  0.412402  0.116768  1
  Si  Si17  1  0.610001  0.587598  0.616768  1
  Si  Si18  1  0.522042  0.702748  0.750000  1
  Si  Si19  1  0.110001  0.912402  0.383232  1
  Cl  Cl20  1  0.964258  0.069307  0.119475  1
  Cl  Cl21  1  0.459675  0.699449  0.558406  1
  Cl  Cl22  1  0.540325  0.300551  0.058406  1
  Cl  Cl23  1  0.040325  0.199449  0.941594  1
  Cl  Cl24  1  0.040325  0.199449  0.558406  1
  Cl  Cl25  1  0.540325  0.300551  0.441594  1
  Cl  Cl26  1  0.959675  0.800551  0.441594  1
  Cl  Cl27  1  0.959675  0.800551  0.058406  1
  Cl  Cl28  1  0.394588  0.935845  0.415652  1
  Cl  Cl29  1  0.894588  0.564155  0.584348  1
  Cl  Cl30  1  0.105412  0.435845  0.084348  1
  Cl  Cl31  1  0.605412  0.064155  0.915652  1
  Cl  Cl32  1  0.605412  0.064155  0.584348  1
  Cl  Cl33  1  0.105412  0.435845  0.415652  1
  Cl  Cl34  1  0.894588  0.564155  0.915652  1
  Cl  Cl35  1  0.394588  0.935845  0.084348  1
  Cl  Cl36  1  0.718820  0.821578  0.250000  1
  Cl  Cl37  1  0.218820  0.678422  0.750000  1
  Cl  Cl38  1  0.781180  0.321578  0.250000  1
  Cl  Cl39  1  0.281180  0.178422  0.750000  1
  Cl  Cl40  1  0.083189  0.622743  0.250000  1
  Cl  Cl41  1  0.583189  0.877257  0.750000  1
  Cl  Cl42  1  0.416811  0.122743  0.250000  1
  Cl  Cl43  1  0.916811  0.377257  0.750000  1
  Cl  Cl44  1  0.464258  0.430693  0.880525  1
  Cl  Cl45  1  0.535742  0.569307  0.380525  1
  Cl  Cl46  1  0.035742  0.930693  0.619475  1
  Cl  Cl47  1  0.035742  0.930693  0.880525  1
  Cl  Cl48  1  0.535742  0.569307  0.119475  1
  Cl  Cl49  1  0.464258  0.430693  0.619475  1
  Cl  Cl50  1  0.964258  0.069307  0.380525  1
  Cl  Cl51  1  0.459675  0.699449  0.941594  1
