# generated using pymatgen
data_SrSiO3
_symmetry_space_group_name_H-M   'P 1'
_cell_length_a   7.21770671
_cell_length_b   7.21770670
_cell_length_c   10.99613718
_cell_angle_alpha   71.37841910
_cell_angle_beta   71.37841913
_cell_angle_gamma   60.17394177
_symmetry_Int_Tables_number   1
_chemical_formula_structural   SrSiO3
_chemical_formula_sum   'Sr6 Si6 O18'
_cell_volume   461.88838970
_cell_formula_units_Z   6
loop_
 _symmetry_equiv_pos_site_id
 _symmetry_equiv_pos_as_xyz
  1  'x, y, z'
loop_
 _atom_site_type_symbol
 _atom_site_label
 _atom_site_symmetry_multiplicity
 _atom_site_fract_x
 _atom_site_fract_y
 _atom_site_fract_z
 _atom_site_occupancy
  O  O0  1  0.631767  0.368233  0.250000  1
  O  O1  1  0.368233  0.631767  0.750000  1
  O  O2  1  0.113386  0.980972  0.110644  1
  O  O3  1  0.019028  0.886614  0.389356  1
  O  O4  1  0.886614  0.019028  0.889356  1
  O  O5  1  0.980972  0.113386  0.610644  1
  O  O6  1  0.417330  0.796156  0.251885  1
  O  O7  1  0.203844  0.582670  0.248115  1
  O  O8  1  0.582670  0.203844  0.748115  1
  O  O9  1  0.796156  0.417330  0.751885  1
  O  O10  1  0.815691  0.628191  0.114875  1
  O  O11  1  0.371809  0.184309  0.385125  1
  O  O12  1  0.534956  0.719704  0.894632  1
  O  O13  1  0.280296  0.465044  0.605368  1
  O  O14  1  0.465044  0.280296  0.105368  1
  O  O15  1  0.719704  0.534956  0.394632  1
  O  O16  1  0.628191  0.815691  0.614875  1
  O  O17  1  0.184309  0.371809  0.885125  1
  Si  Si18  1  0.169173  0.830827  0.250000  1
  Si  Si19  1  0.830827  0.169173  0.750000  1
  Si  Si20  1  0.665797  0.581668  0.253645  1
  Si  Si21  1  0.418332  0.334203  0.246355  1
  Si  Si22  1  0.334203  0.418332  0.746355  1
  Si  Si23  1  0.581668  0.665797  0.753645  1
  Sr  Sr24  1  0.000000  0.500000  0.500000  1
  Sr  Sr25  1  0.500000  0.000000  0.000000  1
  Sr  Sr26  1  0.848319  0.326450  0.000831  1
  Sr  Sr27  1  0.673550  0.151681  0.499169  1
  Sr  Sr28  1  0.151681  0.673550  0.999169  1
  Sr  Sr29  1  0.326450  0.848319  0.500831  1
