# generated using pymatgen
data_Na(Pr2Se3)4
_symmetry_space_group_name_H-M   'P 1'
_cell_length_a   23.43130719
_cell_length_b   9.00984956
_cell_length_c   9.00984984
_cell_angle_alpha   90.00000014
_cell_angle_beta   54.77542293
_cell_angle_gamma   54.77542169
_symmetry_Int_Tables_number   1
_chemical_formula_structural   Na(Pr2Se3)4
_chemical_formula_sum   'Na2 Pr16 Se24'
_cell_volume   1100.32918780
_cell_formula_units_Z   2
loop_
 _symmetry_equiv_pos_site_id
 _symmetry_equiv_pos_as_xyz
  1  'x, y, z'
loop_
 _atom_site_type_symbol
 _atom_site_label
 _atom_site_symmetry_multiplicity
 _atom_site_fract_x
 _atom_site_fract_y
 _atom_site_fract_z
 _atom_site_occupancy
  Na  Na0  1  0.083333  0.625000  0.375000  1
  Na  Na1  1  0.583333  0.875000  0.125000  1
  Pr  Pr2  1  0.002172  0.118044  0.743170  1
  Pr  Pr3  1  0.164495  0.256830  0.624558  1
  Pr  Pr4  1  0.248499  0.877251  0.127251  1
  Pr  Pr5  1  0.333333  0.369882  0.250000  1
  Pr  Pr6  1  0.333333  0.130118  0.750000  1
  Pr  Pr7  1  0.164495  0.749685  0.881956  1
  Pr  Pr8  1  0.418168  0.622749  0.372749  1
  Pr  Pr9  1  0.502172  0.243170  0.618044  1
  Pr  Pr10  1  0.664495  0.381956  0.249685  1
  Pr  Pr11  1  0.664495  0.124558  0.756830  1
  Pr  Pr12  1  0.502172  0.750315  0.875442  1
  Pr  Pr13  1  0.748499  0.627251  0.377251  1
  Pr  Pr14  1  0.833333  0.250000  0.630118  1
  Pr  Pr15  1  0.002172  0.375442  0.250315  1
  Pr  Pr16  1  0.918168  0.872749  0.122749  1
  Pr  Pr17  1  0.833333  0.750000  0.869882  1
  Se  Se18  1  0.115370  0.499225  1.001339  1
  Se  Se19  1  0.051296  0.347450  0.500775  1
  Se  Se20  1  0.051296  -0.001339  0.345336  1
  Se  Se21  1  0.288793  0.137549  0.140511  1
  Se  Se22  1  0.288793  0.496073  0.993111  1
  Se  Se23  1  0.115370  0.654664  0.652550  1
  Se  Se24  1  0.217040  0.850430  0.499939  1
  Se  Se25  1  0.449627  0.501549  1.000061  1
  Se  Se26  1  0.377874  0.362451  0.506889  1
  Se  Se27  1  0.217040  0.998451  0.848943  1
  Se  Se28  1  0.377874  0.003927  0.359489  1
  Se  Se29  1  0.615370  0.152550  0.154664  1
  Se  Se30  1  0.615370  0.501339  0.999225  1
  Se  Se31  1  0.449627  0.649570  0.651057  1
  Se  Se32  1  0.551296  0.845336  0.498661  1
  Se  Se33  1  0.788793  0.493111  0.996073  1
  Se  Se34  1  0.717040  0.348943  0.498451  1
  Se  Se35  1  0.551296  0.000775  0.847450  1
  Se  Se36  1  0.717040  -0.000061  0.350430  1
  Se  Se37  1  0.949627  0.151057  0.149570  1
  Se  Se38  1  0.949627  0.500061  0.001549  1
  Se  Se39  1  0.788793  0.640511  0.637549  1
  Se  Se40  1  0.877874  0.859489  0.503927  1
  Se  Se41  1  0.877874  0.006889  0.862451  1
