# generated using pymatgen
data_PrFeSi2
_symmetry_space_group_name_H-M   'P 1'
_cell_length_a   4.03015335
_cell_length_b   4.12557971
_cell_length_c   8.75268698
_cell_angle_alpha   103.63141752
_cell_angle_beta   90.00000000
_cell_angle_gamma   90.00000000
_symmetry_Int_Tables_number   1
_chemical_formula_structural   PrFeSi2
_chemical_formula_sum   'Pr2 Fe2 Si4'
_cell_volume   141.42920817
_cell_formula_units_Z   2
loop_
 _symmetry_equiv_pos_site_id
 _symmetry_equiv_pos_as_xyz
  1  'x, y, z'
loop_
 _atom_site_type_symbol
 _atom_site_label
 _atom_site_symmetry_multiplicity
 _atom_site_fract_x
 _atom_site_fract_y
 _atom_site_fract_z
 _atom_site_occupancy
  Si  Si0  1  0.250000  0.689463  0.378926  1
  Si  Si1  1  0.750000  0.310537  0.621074  1
  Si  Si2  1  0.750000  0.461741  0.923482  1
  Si  Si3  1  0.250000  0.538259  0.076518  1
  Fe  Fe4  1  0.750000  0.749539  0.499079  1
  Fe  Fe5  1  0.250000  0.250461  0.500921  1
  Pr  Pr6  1  0.250000  0.893144  0.786288  1
  Pr  Pr7  1  0.750000  0.106856  0.213712  1
