# generated using pymatgen
data_UP2O7
_symmetry_space_group_name_H-M   'P 1'
_cell_length_a   7.11779240
_cell_length_b   11.69727699
_cell_length_c   12.97033628
_cell_angle_alpha   90.00000000
_cell_angle_beta   90.00000000
_cell_angle_gamma   90.00000000
_symmetry_Int_Tables_number   1
_chemical_formula_structural   UP2O7
_chemical_formula_sum   'U8 P16 O56'
_cell_volume   1079.89449497
_cell_formula_units_Z   8
loop_
 _symmetry_equiv_pos_site_id
 _symmetry_equiv_pos_as_xyz
  1  'x, y, z'
loop_
 _atom_site_type_symbol
 _atom_site_label
 _atom_site_symmetry_multiplicity
 _atom_site_fract_x
 _atom_site_fract_y
 _atom_site_fract_z
 _atom_site_occupancy
  O  O0  1  0.456809  0.190582  0.565593  1
  O  O1  1  0.956809  0.809418  0.434407  1
  O  O2  1  0.956809  0.309418  0.065593  1
  O  O3  1  0.456809  0.690582  0.934407  1
  O  O4  1  0.763315  0.160873  0.485030  1
  O  O5  1  0.263315  0.839127  0.514970  1
  O  O6  1  0.263315  0.339127  0.985030  1
  O  O7  1  0.763315  0.660873  0.014970  1
  O  O8  1  0.692294  0.048845  0.642977  1
  O  O9  1  0.192294  0.951155  0.357023  1
  O  O10  1  0.192294  0.451155  0.142977  1
  O  O11  1  0.692294  0.548845  0.857023  1
  O  O12  1  0.741387  0.263562  0.657391  1
  O  O13  1  0.241387  0.736438  0.342609  1
  O  O14  1  0.241387  0.236438  0.157391  1
  O  O15  1  0.741387  0.763562  0.842609  1
  O  O16  1  0.659170  0.367911  0.987748  1
  O  O17  1  0.159170  0.632089  0.012252  1
  O  O18  1  0.159170  0.132089  0.487748  1
  O  O19  1  0.725019  0.424653  0.174244  1
  O  O20  1  0.659170  0.867911  0.512252  1
  O  O21  1  0.165289  0.784400  0.870701  1
  O  O22  1  0.165289  0.284400  0.629299  1
  O  O23  1  0.665289  0.715600  0.370701  1
  O  O24  1  0.880572  0.988552  0.827180  1
  O  O25  1  0.380572  0.011448  0.172820  1
  O  O26  1  0.380572  0.511448  0.327180  1
  O  O27  1  0.880572  0.488552  0.672820  1
  O  O28  1  0.532460  0.984450  0.835841  1
  O  O29  1  0.032460  0.015550  0.164159  1
  O  O30  1  0.032460  0.515550  0.335841  1
  O  O31  1  0.532460  0.484450  0.664159  1
  O  O32  1  0.718639  0.026344  0.999489  1
  O  O33  1  0.218639  0.973656  0.000511  1
  O  O34  1  0.218639  0.473656  0.499489  1
  O  O35  1  0.718639  0.526344  0.500511  1
  O  O36  1  0.702462  0.174714  0.858207  1
  O  O37  1  0.202462  0.825286  0.141793  1
  O  O38  1  0.202462  0.325286  0.358207  1
  O  O39  1  0.702462  0.674714  0.641793  1
  O  O40  1  0.032281  0.351636  0.834570  1
  O  O41  1  0.532281  0.648364  0.165430  1
  O  O42  1  0.532281  0.148364  0.334570  1
  O  O43  1  0.032281  0.851636  0.665430  1
  O  O44  1  0.203329  0.164361  0.875392  1
  O  O45  1  0.703329  0.835639  0.124608  1
  O  O46  1  0.703329  0.335639  0.375392  1
  O  O47  1  0.203329  0.664361  0.624608  1
  O  O48  1  0.377883  0.341212  0.805775  1
  O  O49  1  0.877883  0.658788  0.194225  1
  O  O50  1  0.877883  0.158788  0.305775  1
  O  O51  1  0.377883  0.841212  0.694225  1
  O  O52  1  0.725019  0.924653  0.325756  1
  O  O53  1  0.225019  0.075347  0.674244  1
  O  O54  1  0.225019  0.575347  0.825756  1
  O  O55  1  0.665289  0.215600  0.129299  1
  P  P56  1  0.666104  0.164748  0.595490  1
  P  P57  1  0.166104  0.835252  0.404510  1
  P  P58  1  0.166104  0.335252  0.095490  1
  P  P59  1  0.666104  0.664748  0.904510  1
  P  P60  1  0.736130  0.331281  0.092206  1
  P  P61  1  0.236130  0.668719  0.907794  1
  P  P62  1  0.236130  0.168719  0.592206  1
  P  P63  1  0.736130  0.831281  0.407794  1
  P  P64  1  0.214618  0.792880  0.628491  1
  P  P65  1  0.714618  0.207120  0.371509  1
  P  P66  1  0.714618  0.707120  0.128491  1
  P  P67  1  0.214618  0.292880  0.871509  1
  P  P68  1  0.708704  0.546222  0.616829  1
  P  P69  1  0.208704  0.453778  0.383171  1
  P  P70  1  0.208704  0.953778  0.116829  1
  P  P71  1  0.708704  0.046222  0.883171  1
  U  U72  1  0.709730  0.359339  0.812828  1
  U  U73  1  0.209730  0.640661  0.187172  1
  U  U74  1  0.209730  0.140661  0.312828  1
  U  U75  1  0.709730  0.859339  0.687172  1
  U  U76  1  0.207805  0.974712  0.827378  1
  U  U77  1  0.707805  0.025288  0.172622  1
  U  U78  1  0.707805  0.525288  0.327378  1
  U  U79  1  0.207805  0.474712  0.672622  1
