# generated using pymatgen
data_CaLaMn2O6
_symmetry_space_group_name_H-M   'P 1'
_cell_length_a   5.47802202
_cell_length_b   7.77259762
_cell_length_c   10.99432553
_cell_angle_alpha   90.00000000
_cell_angle_beta   90.00000000
_cell_angle_gamma   90.00000000
_symmetry_Int_Tables_number   1
_chemical_formula_structural   CaLaMn2O6
_chemical_formula_sum   'Ca4 La4 Mn8 O24'
_cell_volume   468.12145987
_cell_formula_units_Z   4
loop_
 _symmetry_equiv_pos_site_id
 _symmetry_equiv_pos_as_xyz
  1  'x, y, z'
loop_
 _atom_site_type_symbol
 _atom_site_label
 _atom_site_symmetry_multiplicity
 _atom_site_fract_x
 _atom_site_fract_y
 _atom_site_fract_z
 _atom_site_occupancy
  Ca  Ca0  1  0.479833  0.000000  0.392186  1
  Ca  Ca1  1  0.988310  0.500000  0.104909  1
  Ca  Ca2  1  0.979833  0.500000  0.607814  1
  Ca  Ca3  1  0.488310  0.000000  0.895091  1
  La  La4  1  0.476002  0.500000  0.861731  1
  La  La5  1  0.969340  0.000000  0.636840  1
  La  La6  1  0.469340  0.500000  0.363160  1
  La  La7  1  0.976002  0.000000  0.138269  1
  Mn  Mn8  1  0.473935  0.249734  0.625569  1
  Mn  Mn9  1  0.473935  0.750266  0.625569  1
  Mn  Mn10  1  0.480007  0.251423  0.125526  1
  Mn  Mn11  1  0.980007  0.248577  0.874474  1
  Mn  Mn12  1  0.480007  0.748577  0.125526  1
  Mn  Mn13  1  0.973935  0.749734  0.374431  1
  Mn  Mn14  1  0.973935  0.250266  0.374431  1
  Mn  Mn15  1  0.980007  0.751423  0.874474  1
  O  O16  1  0.691399  0.788710  0.768097  1
  O  O17  1  0.052895  0.000000  0.868910  1
  O  O18  1  0.544951  0.500000  0.631950  1
  O  O19  1  0.918547  0.500000  0.881210  1
  O  O20  1  0.689041  0.787571  0.268633  1
  O  O21  1  0.552895  0.500000  0.131090  1
  O  O22  1  0.264434  0.717324  0.983591  1
  O  O23  1  0.252884  0.282758  0.484414  1
  O  O24  1  0.044951  0.000000  0.368050  1
  O  O25  1  0.910921  0.500000  0.383109  1
  O  O26  1  0.764434  0.782676  0.016409  1
  O  O27  1  0.752884  0.217242  0.515586  1
  O  O28  1  0.264434  0.282676  0.983591  1
  O  O29  1  0.189041  0.287571  0.731367  1
  O  O30  1  0.689041  0.212429  0.268633  1
  O  O31  1  0.764434  0.217324  0.016409  1
  O  O32  1  0.418547  0.000000  0.118790  1
  O  O33  1  0.691399  0.211290  0.768097  1
  O  O34  1  0.189041  0.712429  0.731367  1
  O  O35  1  0.191399  0.288710  0.231903  1
  O  O36  1  0.410921  0.000000  0.616891  1
  O  O37  1  0.752884  0.782758  0.515586  1
  O  O38  1  0.191399  0.711290  0.231903  1
  O  O39  1  0.252884  0.717242  0.484414  1
