# generated using pymatgen
data_Ti19Se20
_symmetry_space_group_name_H-M   'P 1'
_cell_length_a   6.91900676
_cell_length_b   17.28021322
_cell_length_c   9.63299677
_cell_angle_alpha   44.05614279
_cell_angle_beta   111.02438529
_cell_angle_gamma   120.00775367
_symmetry_Int_Tables_number   1
_chemical_formula_structural   Ti19Se20
_chemical_formula_sum   'Ti19 Se20'
_cell_volume   693.52516707
_cell_formula_units_Z   1
loop_
 _symmetry_equiv_pos_site_id
 _symmetry_equiv_pos_as_xyz
  1  'x, y, z'
loop_
 _atom_site_type_symbol
 _atom_site_label
 _atom_site_symmetry_multiplicity
 _atom_site_fract_x
 _atom_site_fract_y
 _atom_site_fract_z
 _atom_site_occupancy
  Se  Se0  1  0.331339  0.964777  0.750982  1
  Se  Se1  1  0.159214  0.838508  0.233555  1
  Se  Se2  1  0.328930  0.767932  0.737326  1
  Se  Se3  1  0.164693  0.629115  0.256158  1
  Se  Se4  1  0.832081  0.964049  0.753837  1
  Se  Se5  1  0.332431  0.564721  0.753784  1
  Se  Se6  1  0.670805  0.838807  0.232597  1
  Se  Se7  1  0.165787  0.433322  0.249024  1
  Se  Se8  1  0.335929  0.370498  0.745281  1
  Se  Se9  1  0.827865  0.767419  0.738855  1
  Se  Se10  1  0.664071  0.629502  0.254719  1
  Se  Se11  1  0.834213  0.566678  0.750976  1
  Se  Se12  1  0.329195  0.161193  0.767403  1
  Se  Se13  1  0.172135  0.232581  0.261145  1
  Se  Se14  1  0.667570  0.435279  0.246216  1
  Se  Se15  1  0.835307  0.370885  0.743842  1
  Se  Se16  1  0.167919  0.035951  0.246163  1
  Se  Se17  1  0.671070  0.232068  0.262674  1
  Se  Se18  1  0.840786  0.161492  0.766445  1
  Se  Se19  1  0.668661  0.035223  0.249018  1
  Ti  Ti20  1  0.994240  0.802329  0.484317  1
  Ti  Ti21  1  0.992658  0.791586  0.996073  1
  Ti  Ti22  1  0.009291  0.607775  0.495404  1
  Ti  Ti23  1  0.489118  0.796654  0.484817  1
  Ti  Ti24  1  0.506678  0.608234  0.496038  1
  Ti  Ti25  1  0.482059  0.791421  0.995549  1
  Ti  Ti26  1  0.992900  0.394378  0.003113  1
  Ti  Ti27  1  0.005760  0.197671  0.515683  1
  Ti  Ti28  1  0.493322  0.391766  0.503962  1
  Ti  Ti29  1  0.503094  0.604909  0.997442  1
  Ti  Ti30  1  0.007342  0.208414  0.003927  1
  Ti  Ti31  1  0.000000  0.000000  0.500000  1
  Ti  Ti32  1  0.496906  0.395091  0.002558  1
  Ti  Ti33  1  0.510882  0.203346  0.515183  1
  Ti  Ti34  1  0.990709  0.392225  0.504596  1
  Ti  Ti35  1  0.007100  0.605622  0.996887  1
  Ti  Ti36  1  0.517941  0.208579  0.004451  1
  Ti  Ti37  1  0.500000  0.000000  0.500000  1
  Ti  Ti38  1  0.500000  0.000000  0.000000  1
