# generated using pymatgen
data_PrGaCo2
_symmetry_space_group_name_H-M   'P 1'
_cell_length_a   3.74760188
_cell_length_b   5.28218222
_cell_length_c   6.94758076
_cell_angle_alpha   90.00000000
_cell_angle_beta   90.00000000
_cell_angle_gamma   90.00000000
_symmetry_Int_Tables_number   1
_chemical_formula_structural   PrGaCo2
_chemical_formula_sum   'Pr2 Ga2 Co4'
_cell_volume   137.53094622
_cell_formula_units_Z   2
loop_
 _symmetry_equiv_pos_site_id
 _symmetry_equiv_pos_as_xyz
  1  'x, y, z'
loop_
 _atom_site_type_symbol
 _atom_site_label
 _atom_site_symmetry_multiplicity
 _atom_site_fract_x
 _atom_site_fract_y
 _atom_site_fract_z
 _atom_site_occupancy
  Co  Co0  1  0.500000  0.000000  0.000000  1
  Co  Co1  1  0.500000  0.500000  0.000000  1
  Co  Co2  1  0.500000  0.750000  0.330927  1
  Co  Co3  1  0.500000  0.250000  0.669073  1
  Ga  Ga4  1  0.000000  0.750000  0.114599  1
  Ga  Ga5  1  0.000000  0.250000  0.885401  1
  Pr  Pr6  1  0.000000  0.750000  0.671628  1
  Pr  Pr7  1  0.000000  0.250000  0.328372  1
