# generated using pymatgen
data_Re3O8
_symmetry_space_group_name_H-M   'P 1'
_cell_length_a   4.75641638
_cell_length_b   5.60808066
_cell_length_c   5.60740234
_cell_angle_alpha   119.86508553
_cell_angle_beta   92.95740311
_cell_angle_gamma   87.04737228
_symmetry_Int_Tables_number   1
_chemical_formula_structural   Re3O8
_chemical_formula_sum   'Re3 O8'
_cell_volume   129.48021413
_cell_formula_units_Z   1
loop_
 _symmetry_equiv_pos_site_id
 _symmetry_equiv_pos_as_xyz
  1  'x, y, z'
loop_
 _atom_site_type_symbol
 _atom_site_label
 _atom_site_symmetry_multiplicity
 _atom_site_fract_x
 _atom_site_fract_y
 _atom_site_fract_z
 _atom_site_occupancy
  O  O0  1  0.261898  0.155360  0.845659  1
  O  O1  1  0.228995  0.127726  0.325599  1
  O  O2  1  0.296908  0.656804  0.343740  1
  O  O3  1  0.229411  0.674404  0.872171  1
  O  O4  1  0.770589  0.325596  0.127829  1
  O  O5  1  0.703092  0.343196  0.656260  1
  O  O6  1  0.771005  0.872274  0.674401  1
  O  O7  1  0.738102  0.844640  0.154341  1
  Re  Re8  1  0.000000  0.000000  0.000000  1
  Re  Re9  1  0.500000  0.500000  0.000000  1
  Re  Re10  1  0.500000  0.000000  0.500000  1
