# generated using pymatgen
data_Bi2O3
_symmetry_space_group_name_H-M   'P 1'
_cell_length_a   4.31918962
_cell_length_b   8.21751898
_cell_length_c   7.32295353
_cell_angle_alpha   26.97720870
_cell_angle_beta   51.24266673
_cell_angle_gamma   56.09049560
_symmetry_Int_Tables_number   1
_chemical_formula_structural   Bi2O3
_chemical_formula_sum   'Bi2 O3'
_cell_volume   91.94380520
_cell_formula_units_Z   1
loop_
 _symmetry_equiv_pos_site_id
 _symmetry_equiv_pos_as_xyz
  1  'x, y, z'
loop_
 _atom_site_type_symbol
 _atom_site_label
 _atom_site_symmetry_multiplicity
 _atom_site_fract_x
 _atom_site_fract_y
 _atom_site_fract_z
 _atom_site_occupancy
  Bi  Bi0  1  0.920709  0.999993  0.035781  1
  Bi  Bi1  1  0.038770  0.500092  0.979975  1
  O  O2  1  0.284119  0.999985  0.212210  1
  O  O3  1  0.023520  0.999934  0.686252  1
  O  O4  1  0.695882  0.499996  0.764781  1
