# generated using pymatgen
data_CrSiH12(OF)6
_symmetry_space_group_name_H-M   'P 1'
_cell_length_a   6.40288439
_cell_length_b   6.40288447
_cell_length_c   6.40288464
_cell_angle_alpha   97.35842639
_cell_angle_beta   97.35842637
_cell_angle_gamma   97.35842453
_symmetry_Int_Tables_number   1
_chemical_formula_structural   CrSiH12(OF)6
_chemical_formula_sum   'Cr1 Si1 H12 O6 F6'
_cell_volume   255.39210237
_cell_formula_units_Z   1
loop_
 _symmetry_equiv_pos_site_id
 _symmetry_equiv_pos_as_xyz
  1  'x, y, z'
loop_
 _atom_site_type_symbol
 _atom_site_label
 _atom_site_symmetry_multiplicity
 _atom_site_fract_x
 _atom_site_fract_y
 _atom_site_fract_z
 _atom_site_occupancy
  Cr  Cr0  1  0.000000  0.000000  0.000000  1
  Si  Si1  1  0.500000  0.500000  0.500000  1
  H  H2  1  0.162558  0.694531  0.754028  1
  H  H3  1  0.064148  0.413075  0.203219  1
  H  H4  1  0.203219  0.064148  0.413075  1
  H  H5  1  0.245972  0.837442  0.305470  1
  H  H6  1  0.305470  0.245972  0.837442  1
  H  H7  1  0.586925  0.796781  0.935852  1
  H  H8  1  0.413075  0.203219  0.064148  1
  H  H9  1  0.694531  0.754028  0.162558  1
  H  H10  1  0.754028  0.162558  0.694531  1
  H  H11  1  0.796781  0.935852  0.586925  1
  H  H12  1  0.935852  0.586925  0.796781  1
  H  H13  1  0.837442  0.305470  0.245972  1
  O  O14  1  0.060648  0.692140  0.856456  1
  O  O15  1  0.143544  0.939352  0.307860  1
  O  O16  1  0.307860  0.143544  0.939352  1
  O  O17  1  0.692140  0.856456  0.060648  1
  O  O18  1  0.856456  0.060648  0.692140  1
  O  O19  1  0.939352  0.307860  0.143544  1
  F  F20  1  0.297166  0.327352  0.564991  1
  F  F21  1  0.327352  0.564991  0.297166  1
  F  F22  1  0.435009  0.702834  0.672648  1
  F  F23  1  0.564991  0.297166  0.327352  1
  F  F24  1  0.672648  0.435009  0.702834  1
  F  F25  1  0.702834  0.672648  0.435009  1
