# generated using pymatgen
data_Ba(PrSe2)2
_symmetry_space_group_name_H-M   'P 1'
_cell_length_a   8.02095929
_cell_length_b   8.02095987
_cell_length_c   8.02095962
_cell_angle_alpha   109.39876170
_cell_angle_beta   109.39875358
_cell_angle_gamma   109.61624125
_symmetry_Int_Tables_number   1
_chemical_formula_structural   Ba(PrSe2)2
_chemical_formula_sum   'Ba2 Pr4 Se8'
_cell_volume   397.24187452
_cell_formula_units_Z   2
loop_
 _symmetry_equiv_pos_site_id
 _symmetry_equiv_pos_as_xyz
  1  'x, y, z'
loop_
 _atom_site_type_symbol
 _atom_site_label
 _atom_site_symmetry_multiplicity
 _atom_site_fract_x
 _atom_site_fract_y
 _atom_site_fract_z
 _atom_site_occupancy
  Ba  Ba0  1  0.625000  0.375000  0.250000  1
  Ba  Ba1  1  0.875000  0.125000  0.750000  1
  Pr  Pr2  1  0.125683  0.750000  0.875683  1
  Pr  Pr3  1  0.250000  0.625683  0.375683  1
  Pr  Pr4  1  0.374317  0.250000  0.624317  1
  Pr  Pr5  1  0.750000  0.874317  0.124317  1
  Se  Se6  1  0.484161  0.980263  0.840168  1
  Se  Se7  1  0.143993  0.140095  0.159832  1
  Se  Se8  1  0.356007  0.515839  0.996102  1
  Se  Se9  1  0.640095  0.643993  0.659832  1
  Se  Se10  1  0.480263  0.984161  0.340168  1
  Se  Se11  1  0.015839  0.856007  0.496102  1
  Se  Se12  1  0.859905  0.519737  0.003898  1
  Se  Se13  1  0.019737  0.359905  0.503898  1
