# generated using pymatgen
data_Ba4Ga2O7
_symmetry_space_group_name_H-M   'P 1'
_cell_length_a   7.45037718
_cell_length_b   10.83479403
_cell_length_c   18.01900360
_cell_angle_alpha   90.00000000
_cell_angle_beta   98.17524563
_cell_angle_gamma   90.00000000
_symmetry_Int_Tables_number   1
_chemical_formula_structural   Ba4Ga2O7
_chemical_formula_sum   'Ba24 Ga12 O42'
_cell_volume   1439.77195261
_cell_formula_units_Z   6
loop_
 _symmetry_equiv_pos_site_id
 _symmetry_equiv_pos_as_xyz
  1  'x, y, z'
loop_
 _atom_site_type_symbol
 _atom_site_label
 _atom_site_symmetry_multiplicity
 _atom_site_fract_x
 _atom_site_fract_y
 _atom_site_fract_z
 _atom_site_occupancy
  O  O0  1  0.500000  0.500000  0.500000  1
  O  O1  1  0.000000  0.000000  0.500000  1
  O  O2  1  0.842979  0.438183  0.926447  1
  O  O3  1  0.657021  0.938183  0.073553  1
  O  O4  1  0.157021  0.561817  0.073553  1
  O  O5  1  0.342979  0.061817  0.926447  1
  O  O6  1  0.673942  0.141735  0.508466  1
  O  O7  1  0.826058  0.641735  0.491534  1
  O  O8  1  0.326058  0.858265  0.491534  1
  O  O9  1  0.173942  0.358265  0.508466  1
  O  O10  1  0.620056  0.939979  0.753760  1
  O  O11  1  0.879944  0.439979  0.246240  1
  O  O12  1  0.379944  0.060021  0.246240  1
  O  O13  1  0.120056  0.560021  0.753760  1
  O  O14  1  0.830037  0.426559  0.603541  1
  O  O15  1  0.669963  0.926559  0.396459  1
  O  O16  1  0.169963  0.573441  0.396459  1
  O  O17  1  0.330037  0.073441  0.603541  1
  O  O18  1  0.738184  0.216429  0.792866  1
  O  O19  1  0.761816  0.716429  0.207134  1
  O  O20  1  0.261816  0.783571  0.207134  1
  O  O21  1  0.238184  0.283571  0.792866  1
  O  O22  1  0.686126  0.686240  0.638701  1
  O  O23  1  0.813874  0.186240  0.361299  1
  O  O24  1  0.313874  0.313760  0.361299  1
  O  O25  1  0.186126  0.813760  0.638701  1
  O  O26  1  0.958967  0.992368  0.857109  1
  O  O27  1  0.541033  0.492368  0.142891  1
  O  O28  1  0.041033  0.007632  0.142891  1
  O  O29  1  0.458967  0.507632  0.857109  1
  O  O30  1  0.780324  0.672141  0.838306  1
  O  O31  1  0.719676  0.172141  0.161694  1
  O  O32  1  0.219676  0.327859  0.161694  1
  O  O33  1  0.280324  0.827859  0.838306  1
  O  O34  1  0.339867  0.328602  0.009594  1
  O  O35  1  0.160133  0.828602  0.990406  1
  O  O36  1  0.660133  0.671398  0.990406  1
  O  O37  1  0.839867  0.171398  0.009594  1
  O  O38  1  0.930193  0.039382  0.687276  1
  O  O39  1  0.569807  0.539382  0.312724  1
  O  O40  1  0.069807  0.960618  0.312724  1
  O  O41  1  0.430193  0.460618  0.687276  1
  Ga  Ga42  1  0.704581  0.569452  0.565711  1
  Ga  Ga43  1  0.795419  0.069452  0.434289  1
  Ga  Ga44  1  0.295419  0.430548  0.434289  1
  Ga  Ga45  1  0.204581  0.930548  0.565711  1
  Ga  Ga46  1  0.185231  0.926482  0.908788  1
  Ga  Ga47  1  0.314769  0.426482  0.091212  1
  Ga  Ga48  1  0.814769  0.073518  0.091212  1
  Ga  Ga49  1  0.685231  0.573518  0.908788  1
  Ga  Ga50  1  0.803350  0.059930  0.768050  1
  Ga  Ga51  1  0.696650  0.559930  0.231950  1
  Ga  Ga52  1  0.196650  0.940070  0.231950  1
  Ga  Ga53  1  0.303350  0.440070  0.768050  1
  Ba  Ba54  1  0.960212  0.786227  0.743106  1
  Ba  Ba55  1  0.539788  0.286227  0.256894  1
  Ba  Ba56  1  0.039788  0.213773  0.256894  1
  Ba  Ba57  1  0.460212  0.713773  0.743106  1
  Ba  Ba58  1  0.543038  0.267765  0.907305  1
  Ba  Ba59  1  0.956962  0.767765  0.092695  1
  Ba  Ba60  1  0.456962  0.732235  0.092695  1
  Ba  Ba61  1  0.043038  0.232235  0.907305  1
  Ba  Ba62  1  0.497552  0.290486  0.589418  1
  Ba  Ba63  1  0.002448  0.790486  0.410582  1
  Ba  Ba64  1  0.502448  0.709514  0.410582  1
  Ba  Ba65  1  0.997552  0.209514  0.589418  1
  Ba  Ba66  1  0.657964  0.895895  0.918019  1
  Ba  Ba67  1  0.842036  0.395895  0.081981  1
  Ba  Ba68  1  0.342036  0.104105  0.081981  1
  Ba  Ba69  1  0.157964  0.604105  0.918019  1
  Ba  Ba70  1  0.796916  0.449028  0.750670  1
  Ba  Ba71  1  0.703084  0.949028  0.249330  1
  Ba  Ba72  1  0.203084  0.550972  0.249330  1
  Ba  Ba73  1  0.296916  0.050972  0.750670  1
  Ba  Ba74  1  0.656773  0.927042  0.588316  1
  Ba  Ba75  1  0.843227  0.427042  0.411684  1
  Ba  Ba76  1  0.343227  0.072958  0.411684  1
  Ba  Ba77  1  0.156773  0.572958  0.588316  1
