# generated using pymatgen
data_Sr7Au3
_symmetry_space_group_name_H-M   'P 1'
_cell_length_a   11.17506385
_cell_length_b   11.17506384
_cell_length_c   7.20370339
_cell_angle_alpha   90.00000000
_cell_angle_beta   90.00000000
_cell_angle_gamma   119.99999999
_symmetry_Int_Tables_number   1
_chemical_formula_structural   Sr7Au3
_chemical_formula_sum   'Sr14 Au6'
_cell_volume   779.08793798
_cell_formula_units_Z   2
loop_
 _symmetry_equiv_pos_site_id
 _symmetry_equiv_pos_as_xyz
  1  'x, y, z'
loop_
 _atom_site_type_symbol
 _atom_site_label
 _atom_site_symmetry_multiplicity
 _atom_site_fract_x
 _atom_site_fract_y
 _atom_site_fract_z
 _atom_site_occupancy
  Sr  Sr0  1  0.457643  0.542357  0.566210  1
  Sr  Sr1  1  0.915285  0.457643  0.066210  1
  Sr  Sr2  1  0.542357  0.084715  0.066210  1
  Sr  Sr3  1  0.457643  0.915285  0.566210  1
  Sr  Sr4  1  0.084715  0.542357  0.566210  1
  Sr  Sr5  1  0.542357  0.457643  0.066210  1
  Sr  Sr6  1  0.333333  0.666667  0.044751  1
  Sr  Sr7  1  0.666667  0.333333  0.544751  1
  Sr  Sr8  1  0.125130  0.874870  0.249277  1
  Sr  Sr9  1  0.250261  0.125130  0.749277  1
  Sr  Sr10  1  0.874870  0.749739  0.749277  1
  Sr  Sr11  1  0.125130  0.250261  0.249277  1
  Sr  Sr12  1  0.749739  0.874870  0.249277  1
  Sr  Sr13  1  0.874870  0.125130  0.749277  1
  Au  Au14  1  0.188276  0.811724  0.831596  1
  Au  Au15  1  0.376552  0.188276  0.331596  1
  Au  Au16  1  0.811724  0.623448  0.331596  1
  Au  Au17  1  0.188276  0.376552  0.831596  1
  Au  Au18  1  0.623448  0.811724  0.831596  1
  Au  Au19  1  0.811724  0.188276  0.331596  1
