# generated using pymatgen
data_Ni19Ge12
_symmetry_space_group_name_H-M   'P 1'
_cell_length_a   6.71166118
_cell_length_b   6.72279883
_cell_length_c   10.06317625
_cell_angle_alpha   90.05710328
_cell_angle_beta   90.00000000
_cell_angle_gamma   119.94521198
_symmetry_Int_Tables_number   1
_chemical_formula_structural   Ni19Ge12
_chemical_formula_sum   'Ni19 Ge12'
_cell_volume   393.44593642
_cell_formula_units_Z   1
loop_
 _symmetry_equiv_pos_site_id
 _symmetry_equiv_pos_as_xyz
  1  'x, y, z'
loop_
 _atom_site_type_symbol
 _atom_site_label
 _atom_site_symmetry_multiplicity
 _atom_site_fract_x
 _atom_site_fract_y
 _atom_site_fract_z
 _atom_site_occupancy
  Ni  Ni0  1  0.671393  0.000000  0.500000  1
  Ni  Ni1  1  1.001459  0.996001  0.254405  1
  Ni  Ni2  1  0.005458  0.003999  0.745595  1
  Ni  Ni3  1  0.332122  0.668804  0.252269  1
  Ni  Ni4  1  0.663318  0.331196  0.747731  1
  Ni  Ni5  1  0.002396  0.663868  0.003628  1
  Ni  Ni6  1  0.338528  0.336132  0.996372  1
  Ni  Ni7  1  0.985306  0.318754  0.125755  1
  Ni  Ni8  1  0.666552  0.681246  0.874245  1
  Ni  Ni9  1  -0.001564  0.337947  0.377044  1
  Ni  Ni10  1  0.660489  0.662053  0.622956  1
  Ni  Ni11  1  0.018948  0.353994  0.623821  1
  Ni  Ni12  1  0.664954  0.646006  0.376179  1
  Ni  Ni13  1  -0.002392  0.328276  0.874226  1
  Ni  Ni14  1  0.669332  0.671724  0.125774  1
  Ni  Ni15  1  0.351319  0.011445  0.125847  1
  Ni  Ni16  1  0.339874  0.988555  0.874153  1
  Ni  Ni17  1  0.346483  0.023212  0.377255  1
  Ni  Ni18  1  0.323271  0.976788  0.622745  1
  Ge  Ge19  1  0.974277  0.000000  0.000000  1
  Ge  Ge20  1  0.022761  0.000000  0.500000  1
  Ge  Ge21  1  0.668191  0.030793  0.252494  1
  Ge  Ge22  1  0.637399  0.969207  0.747506  1
  Ge  Ge23  1  0.368605  0.700025  0.002282  1
  Ge  Ge24  1  0.668579  0.299975  0.997718  1
  Ge  Ge25  1  0.319740  0.648460  0.497968  1
  Ge  Ge26  1  0.671280  0.351540  0.502032  1
  Ge  Ge27  1  0.964104  0.628397  0.252259  1
  Ge  Ge28  1  0.335707  0.371603  0.747741  1
  Ge  Ge29  1  0.028484  0.664857  0.752015  1
  Ge  Ge30  1  0.363628  0.335143  0.247985  1
