# generated using pymatgen
data_Ce2CdS4
_symmetry_space_group_name_H-M   'P 1'
_cell_length_a   7.42815473
_cell_length_b   7.42815425
_cell_length_c   7.42815474
_cell_angle_alpha   110.80503569
_cell_angle_beta   110.80503484
_cell_angle_gamma   106.83531558
_symmetry_Int_Tables_number   1
_chemical_formula_structural   Ce2CdS4
_chemical_formula_sum   'Ce4 Cd2 S8'
_cell_volume   315.01770637
_cell_formula_units_Z   2
loop_
 _symmetry_equiv_pos_site_id
 _symmetry_equiv_pos_as_xyz
  1  'x, y, z'
loop_
 _atom_site_type_symbol
 _atom_site_label
 _atom_site_symmetry_multiplicity
 _atom_site_fract_x
 _atom_site_fract_y
 _atom_site_fract_z
 _atom_site_occupancy
  Cd  Cd0  1  0.625000  0.375000  0.250000  1
  Cd  Cd1  1  0.875000  0.125000  0.750000  1
  Ce  Ce2  1  0.110959  0.750000  0.860959  1
  Ce  Ce3  1  0.250000  0.610959  0.360959  1
  Ce  Ce4  1  0.389041  0.250000  0.639041  1
  Ce  Ce5  1  0.750000  0.889041  0.139041  1
  S  S6  1  0.007515  0.879023  0.512883  1
  S  S7  1  0.994632  0.366139  0.487117  1
  S  S8  1  0.120977  0.133861  0.128493  1
  S  S9  1  0.379023  0.507515  0.012883  1
  S  S10  1  0.633861  0.620977  0.628493  1
  S  S11  1  0.492485  0.005368  0.871507  1
  S  S12  1  0.505368  0.992485  0.371507  1
  S  S13  1  0.866139  0.494632  0.987117  1
