# generated using pymatgen
data_Ga2CuO4
_symmetry_space_group_name_H-M   'P 1'
_cell_length_a   6.03773550
_cell_length_b   6.03773614
_cell_length_c   5.72201752
_cell_angle_alpha   61.71520373
_cell_angle_beta   61.71520045
_cell_angle_gamma   58.20901514
_symmetry_Int_Tables_number   1
_chemical_formula_structural   Ga2CuO4
_chemical_formula_sum   'Ga4 Cu2 O8'
_cell_volume   148.95935968
_cell_formula_units_Z   2
loop_
 _symmetry_equiv_pos_site_id
 _symmetry_equiv_pos_as_xyz
  1  'x, y, z'
loop_
 _atom_site_type_symbol
 _atom_site_label
 _atom_site_symmetry_multiplicity
 _atom_site_fract_x
 _atom_site_fract_y
 _atom_site_fract_z
 _atom_site_occupancy
  Ga  Ga0  1  0.014105  0.014105  0.985895  1
  Ga  Ga1  1  0.235895  0.235895  0.264105  1
  Ga  Ga2  1  0.125000  0.625000  0.625000  1
  Ga  Ga3  1  0.625000  0.125000  0.625000  1
  Cu  Cu4  1  0.625000  0.625000  0.125000  1
  Cu  Cu5  1  0.625000  0.625000  0.625000  1
  O  O6  1  0.363306  0.363306  0.401437  1
  O  O7  1  0.371602  0.845517  0.391441  1
  O  O8  1  0.363306  0.363306  0.871950  1
  O  O9  1  0.845517  0.371602  0.391441  1
  O  O10  1  0.404483  0.878398  0.858559  1
  O  O11  1  0.886694  0.886694  0.378050  1
  O  O12  1  0.878398  0.404483  0.858559  1
  O  O13  1  0.886694  0.886694  0.848563  1
