# generated using pymatgen
data_LiCoP2O7
_symmetry_space_group_name_H-M   'P 1'
_cell_length_a   12.55599329
_cell_length_b   5.08943021
_cell_length_c   8.54343171
_cell_angle_alpha   90.00000000
_cell_angle_beta   101.89982516
_cell_angle_gamma   90.00000000
_symmetry_Int_Tables_number   1
_chemical_formula_structural   LiCoP2O7
_chemical_formula_sum   'Li4 Co4 P8 O28'
_cell_volume   534.21698006
_cell_formula_units_Z   4
loop_
 _symmetry_equiv_pos_site_id
 _symmetry_equiv_pos_as_xyz
  1  'x, y, z'
loop_
 _atom_site_type_symbol
 _atom_site_label
 _atom_site_symmetry_multiplicity
 _atom_site_fract_x
 _atom_site_fract_y
 _atom_site_fract_z
 _atom_site_occupancy
  Li  Li0  1  0.315056  0.238406  0.375434  1
  Li  Li1  1  0.916182  0.722402  0.412279  1
  Li  Li2  1  0.815056  0.261594  0.875434  1
  Li  Li3  1  0.416182  0.777598  0.912279  1
  O  O4  1  0.631439  0.956476  0.837138  1
  O  O5  1  0.933305  0.329306  0.417088  1
  O  O6  1  0.905432  0.454333  0.079632  1
  O  O7  1  0.945439  0.896350  0.220094  1
  O  O8  1  0.058595  0.088207  0.791294  1
  O  O9  1  0.084825  0.553885  0.892116  1
  O  O10  1  0.056580  0.714485  0.567297  1
  O  O11  1  0.131439  0.543524  0.337138  1
  O  O12  1  0.151715  0.032695  0.407442  1
  O  O13  1  0.105451  0.179338  0.093617  1
  O  O14  1  0.241551  0.227384  0.918423  1
  O  O15  1  0.257914  0.700771  0.593445  1
  O  O16  1  0.433305  0.170694  0.917088  1
  O  O17  1  0.405432  0.045667  0.579632  1
  O  O18  1  0.387604  0.623533  0.410351  1
  O  O19  1  0.871591  0.416001  0.679223  1
  O  O20  1  0.371591  0.083999  0.179223  1
  O  O21  1  0.368648  0.556536  0.072467  1
  O  O22  1  0.445439  0.603650  0.720094  1
  O  O23  1  0.651715  0.467305  0.907442  1
  O  O24  1  0.558595  0.411793  0.291294  1
  O  O25  1  0.605451  0.320662  0.593617  1
  O  O26  1  0.584825  0.946115  0.392116  1
  O  O27  1  0.556580  0.785515  0.067297  1
  O  O28  1  0.741551  0.272616  0.418423  1
  O  O29  1  0.757914  0.799229  0.093445  1
  O  O30  1  0.887604  0.876467  0.910351  1
  O  O31  1  0.868648  0.943464  0.572467  1
  P  P32  1  0.361144  0.262243  0.032194  1
  P  P33  1  0.643968  0.749146  0.970344  1
  P  P34  1  0.616079  0.235795  0.426383  1
  P  P35  1  0.861144  0.237757  0.532194  1
  P  P36  1  0.116079  0.264205  0.926383  1
  P  P37  1  0.143968  0.750854  0.470344  1
  P  P38  1  0.882756  0.749673  0.072242  1
  P  P39  1  0.382756  0.750327  0.572242  1
  Co  Co40  1  0.979932  0.762505  0.750761  1
  Co  Co41  1  0.479932  0.737495  0.250761  1
  Co  Co42  1  0.531780  0.259536  0.764697  1
  Co  Co43  1  0.031780  0.240464  0.264697  1
