# generated using pymatgen
data_MgAl2O4
_symmetry_space_group_name_H-M   'P 1'
_cell_length_a   5.76441480
_cell_length_b   5.76441823
_cell_length_c   17.34582078
_cell_angle_alpha   60.09195041
_cell_angle_beta   60.09197969
_cell_angle_gamma   59.97487866
_symmetry_Int_Tables_number   1
_chemical_formula_structural   MgAl2O4
_chemical_formula_sum   'Mg6 Al12 O24'
_cell_volume   408.04692619
_cell_formula_units_Z   6
loop_
 _symmetry_equiv_pos_site_id
 _symmetry_equiv_pos_as_xyz
  1  'x, y, z'
loop_
 _atom_site_type_symbol
 _atom_site_label
 _atom_site_symmetry_multiplicity
 _atom_site_fract_x
 _atom_site_fract_y
 _atom_site_fract_z
 _atom_site_occupancy
  Al  Al0  1  0.010455  0.496068  0.165777  1
  Al  Al1  1  0.496110  0.496110  0.165790  1
  Al  Al2  1  0.005467  0.496714  0.500280  1
  Al  Al3  1  0.496067  0.010456  0.165777  1
  Al  Al4  1  0.496821  0.496822  0.500356  1
  Al  Al5  1  0.006496  0.498706  0.832027  1
  Al  Al6  1  0.502175  0.502174  0.664566  1
  Al  Al7  1  0.881002  0.881003  0.285615  1
  Al  Al8  1  0.496715  0.005466  0.500280  1
  Al  Al9  1  0.498760  0.498760  0.832002  1
  Al  Al10  1  0.498706  0.006496  0.832026  1
  Al  Al11  1  0.876747  0.876747  0.956545  1
  Mg  Mg12  1  0.121651  0.121651  0.045104  1
  Mg  Mg13  1  0.498391  0.498391  0.001561  1
  Mg  Mg14  1  0.121546  0.121546  0.378571  1
  Mg  Mg15  1  0.497437  0.497437  0.335788  1
  Mg  Mg16  1  0.123932  0.123932  0.709444  1
  Mg  Mg17  1  0.877707  0.877708  0.622274  1
  O  O18  1  0.253539  0.253540  0.093482  1
  O  O19  1  0.260199  0.260201  0.239802  1
  O  O20  1  0.253477  0.712507  0.093516  1
  O  O21  1  0.712507  0.253477  0.093516  1
  O  O22  1  0.249945  0.249943  0.429496  1
  O  O23  1  0.271774  0.751179  0.241940  1
  O  O24  1  0.751178  0.271774  0.241940  1
  O  O25  1  0.259947  0.259947  0.573411  1
  O  O26  1  0.249836  0.711511  0.429577  1
  O  O27  1  0.745190  0.745190  0.088152  1
  O  O28  1  0.751111  0.751112  0.241974  1
  O  O29  1  0.711511  0.249835  0.429578  1
  O  O30  1  0.265615  0.265615  0.753621  1
  O  O31  1  0.296106  0.734784  0.578156  1
  O  O32  1  0.734786  0.296105  0.578156  1
  O  O33  1  0.262803  0.262803  0.903882  1
  O  O34  1  0.265524  0.707988  0.753644  1
  O  O35  1  0.749781  0.749781  0.416853  1
  O  O36  1  0.734726  0.734726  0.578189  1
  O  O37  1  0.707988  0.265524  0.753644  1
  O  O38  1  0.263924  0.754732  0.908864  1
  O  O39  1  0.754732  0.263924  0.908865  1
  O  O40  1  0.732939  0.732939  0.767064  1
  O  O41  1  0.754677  0.754677  0.908896  1
