# generated using pymatgen
data_Na2Si2O5
_symmetry_space_group_name_H-M   'P 1'
_cell_length_a   4.92454843
_cell_length_b   8.22768053
_cell_length_c   12.47554685
_cell_angle_alpha   104.23484871
_cell_angle_beta   90.00000000
_cell_angle_gamma   90.00000000
_symmetry_Int_Tables_number   1
_chemical_formula_structural   Na2Si2O5
_chemical_formula_sum   'Na8 Si8 O20'
_cell_volume   489.95910274
_cell_formula_units_Z   4
loop_
 _symmetry_equiv_pos_site_id
 _symmetry_equiv_pos_as_xyz
  1  'x, y, z'
loop_
 _atom_site_type_symbol
 _atom_site_label
 _atom_site_symmetry_multiplicity
 _atom_site_fract_x
 _atom_site_fract_y
 _atom_site_fract_z
 _atom_site_occupancy
  O  O0  1  0.251524  0.906671  0.563987  1
  O  O1  1  0.751524  0.093329  0.936013  1
  O  O2  1  0.748476  0.093329  0.436013  1
  O  O3  1  0.248476  0.906671  0.063987  1
  O  O4  1  0.269931  0.391447  0.901192  1
  O  O5  1  0.769931  0.608553  0.598808  1
  O  O6  1  0.730069  0.608553  0.098808  1
  O  O7  1  0.230069  0.391447  0.401192  1
  O  O8  1  0.253196  0.225661  0.680925  1
  O  O9  1  0.753196  0.774339  0.819075  1
  O  O10  1  0.746804  0.774339  0.319075  1
  O  O11  1  0.246804  0.225661  0.180925  1
  O  O12  1  0.884310  0.455190  0.767800  1
  O  O13  1  0.384310  0.544810  0.732200  1
  O  O14  1  0.115690  0.544810  0.232200  1
  O  O15  1  0.615690  0.455190  0.267800  1
  O  O16  1  0.863298  0.014529  0.214462  1
  O  O17  1  0.363298  0.985471  0.285538  1
  O  O18  1  0.136702  0.985471  0.785538  1
  O  O19  1  0.636702  0.014529  0.714462  1
  Na  Na20  1  0.753860  0.379343  0.442534  1
  Na  Na21  1  0.253860  0.620657  0.057466  1
  Na  Na22  1  0.246140  0.620657  0.557466  1
  Na  Na23  1  0.746140  0.379343  0.942534  1
  Na  Na24  1  0.226411  0.135343  0.471703  1
  Na  Na25  1  0.726411  0.864657  0.028297  1
  Na  Na26  1  0.773589  0.864657  0.528297  1
  Na  Na27  1  0.273589  0.135343  0.971703  1
  Si  Si28  1  0.188424  0.027527  0.182553  1
  Si  Si29  1  0.688424  0.972473  0.317447  1
  Si  Si30  1  0.811576  0.972473  0.817447  1
  Si  Si31  1  0.311576  0.027527  0.682553  1
  Si  Si32  1  0.291867  0.403213  0.277214  1
  Si  Si33  1  0.791867  0.596787  0.222786  1
  Si  Si34  1  0.708133  0.596787  0.722786  1
  Si  Si35  1  0.208133  0.403213  0.777214  1
