# generated using pymatgen
data_BaMn2O8
_symmetry_space_group_name_H-M   'P 1'
_cell_length_a   7.14540094
_cell_length_b   7.14540094
_cell_length_c   8.44444439
_cell_angle_alpha   103.42531592
_cell_angle_beta   103.42531592
_cell_angle_gamma   116.82225275
_symmetry_Int_Tables_number   1
_chemical_formula_structural   BaMn2O8
_chemical_formula_sum   'Ba2 Mn4 O16'
_cell_volume   344.89948321
_cell_formula_units_Z   2
loop_
 _symmetry_equiv_pos_site_id
 _symmetry_equiv_pos_as_xyz
  1  'x, y, z'
loop_
 _atom_site_type_symbol
 _atom_site_label
 _atom_site_symmetry_multiplicity
 _atom_site_fract_x
 _atom_site_fract_y
 _atom_site_fract_z
 _atom_site_occupancy
  O  O0  1  0.131331  0.934982  0.416922  1
  O  O1  1  0.518060  0.214409  0.083078  1
  O  O2  1  0.065018  0.868669  0.083078  1
  O  O3  1  0.785591  0.481940  0.416922  1
  O  O4  1  0.868669  0.065018  0.583078  1
  O  O5  1  0.481940  0.785591  0.916922  1
  O  O6  1  0.446215  0.940248  0.299479  1
  O  O7  1  0.640769  0.646736  0.200521  1
  O  O8  1  0.059752  0.553785  0.200521  1
  O  O9  1  0.353264  0.359231  0.299479  1
  O  O10  1  0.553785  0.059752  0.700521  1
  O  O11  1  0.359231  0.353264  0.799479  1
  O  O12  1  0.940248  0.446215  0.799479  1
  O  O13  1  0.646736  0.640769  0.700521  1
  O  O14  1  0.214409  0.518060  0.583078  1
  O  O15  1  0.934982  0.131331  0.916922  1
  Mn  Mn16  1  0.823044  0.176956  0.750000  1
  Mn  Mn17  1  0.426956  0.573044  0.750000  1
  Mn  Mn18  1  0.176956  0.823044  0.250000  1
  Mn  Mn19  1  0.573044  0.426956  0.250000  1
  Ba  Ba20  1  0.125000  0.875000  0.750000  1
  Ba  Ba21  1  0.875000  0.125000  0.250000  1
