# generated using pymatgen
data_LiCr2(PO4)3
_symmetry_space_group_name_H-M   'P 1'
_cell_length_a   8.35371920
_cell_length_b   8.39684358
_cell_length_c   8.75715816
_cell_angle_alpha   118.33982399
_cell_angle_beta   90.37468255
_cell_angle_gamma   120.04462852
_symmetry_Int_Tables_number   1
_chemical_formula_structural   LiCr2(PO4)3
_chemical_formula_sum   'Li2 Cr4 P6 O24'
_cell_volume   443.31119228
_cell_formula_units_Z   2
loop_
 _symmetry_equiv_pos_site_id
 _symmetry_equiv_pos_as_xyz
  1  'x, y, z'
loop_
 _atom_site_type_symbol
 _atom_site_label
 _atom_site_symmetry_multiplicity
 _atom_site_fract_x
 _atom_site_fract_y
 _atom_site_fract_z
 _atom_site_occupancy
  Li  Li0  1  0.226925  0.757827  0.579370  1
  Li  Li1  1  0.773075  0.242173  0.420629  1
  O  O2  1  0.450327  0.752267  0.275629  1
  O  O3  1  0.810980  0.297807  0.918858  1
  O  O4  1  0.522314  0.474321  0.300543  1
  O  O5  1  0.896941  0.133459  0.248391  1
  O  O6  1  0.103060  0.866540  0.751609  1
  O  O7  1  0.249222  0.890940  0.430875  1
  O  O8  1  0.189021  0.702193  0.081141  1
  O  O9  1  0.097911  0.500579  0.245035  1
  O  O10  1  0.269147  0.678734  0.768920  1
  O  O11  1  0.026320  0.140125  0.944845  1
  O  O12  1  0.750777  0.109060  0.569124  1
  O  O13  1  0.475362  0.763146  0.591401  1
  O  O14  1  0.180136  0.171920  0.706702  1
  O  O15  1  0.730852  0.321266  0.231080  1
  O  O16  1  0.634812  0.923092  0.928003  1
  O  O17  1  0.477686  0.525681  0.699457  1
  O  O18  1  0.902089  0.499421  0.754965  1
  O  O19  1  0.365189  0.076908  0.071997  1
  O  O20  1  0.827948  0.845062  0.612749  1
  O  O21  1  0.819863  0.828079  0.293297  1
  O  O22  1  0.524639  0.236854  0.408598  1
  O  O23  1  0.549673  0.247733  0.724371  1
  O  O24  1  0.973680  0.859875  0.055154  1
  O  O25  1  0.172052  0.154938  0.387251  1
  P  P26  1  0.036667  0.009682  0.753766  1
  P  P27  1  0.467162  0.719300  0.747116  1
  P  P28  1  0.532838  0.280700  0.252884  1
  P  P29  1  0.963333  0.990318  0.246234  1
  P  P30  1  0.247747  0.714530  0.252203  1
  P  P31  1  0.752252  0.285470  0.747796  1
  Cr  Cr32  1  0.865650  0.213744  0.072299  1
  Cr  Cr33  1  0.356571  0.210780  0.564932  1
  Cr  Cr34  1  0.643428  0.789220  0.435068  1
  Cr  Cr35  1  0.134349  0.786256  0.927701  1
