# generated using pymatgen
data_Ba5In4Bi5
_symmetry_space_group_name_H-M   'P 1'
_cell_length_a   9.15539296
_cell_length_b   10.78858275
_cell_length_c   10.78858275
_cell_angle_alpha   90.00000000
_cell_angle_beta   90.00000000
_cell_angle_gamma   90.00000000
_symmetry_Int_Tables_number   1
_chemical_formula_structural   Ba5In4Bi5
_chemical_formula_sum   'Ba10 In8 Bi10'
_cell_volume   1065.62839303
_cell_formula_units_Z   2
loop_
 _symmetry_equiv_pos_site_id
 _symmetry_equiv_pos_as_xyz
  1  'x, y, z'
loop_
 _atom_site_type_symbol
 _atom_site_label
 _atom_site_symmetry_multiplicity
 _atom_site_fract_x
 _atom_site_fract_y
 _atom_site_fract_z
 _atom_site_occupancy
  In  In0  1  0.031027  0.572142  0.684435  1
  In  In1  1  0.031027  0.427858  0.315565  1
  In  In2  1  0.031027  0.684435  0.427858  1
  In  In3  1  0.031027  0.315565  0.572142  1
  In  In4  1  0.531027  0.815565  0.927858  1
  In  In5  1  0.531027  0.072142  0.815565  1
  In  In6  1  0.531027  0.927858  0.184435  1
  In  In7  1  0.531027  0.184435  0.072142  1
  Ba  Ba8  1  0.198468  0.000000  0.000000  1
  Ba  Ba9  1  0.698468  0.500000  0.500000  1
  Ba  Ba10  1  0.374172  0.605294  0.189990  1
  Ba  Ba11  1  0.374172  0.810010  0.605294  1
  Ba  Ba12  1  0.374172  0.189990  0.394706  1
  Ba  Ba13  1  0.374172  0.394706  0.810010  1
  Ba  Ba14  1  0.874172  0.894706  0.689990  1
  Ba  Ba15  1  0.874172  0.105294  0.310010  1
  Ba  Ba16  1  0.874172  0.310010  0.894706  1
  Ba  Ba17  1  0.874172  0.689990  0.105294  1
  Bi  Bi18  1  0.812152  0.000000  0.000000  1
  Bi  Bi19  1  0.312152  0.500000  0.500000  1
  Bi  Bi20  1  0.192591  0.690386  0.890266  1
  Bi  Bi21  1  0.192591  0.309614  0.109734  1
  Bi  Bi22  1  0.192591  0.890266  0.309614  1
  Bi  Bi23  1  0.192591  0.109734  0.690386  1
  Bi  Bi24  1  0.692591  0.609734  0.809614  1
  Bi  Bi25  1  0.692591  0.190386  0.609734  1
  Bi  Bi26  1  0.692591  0.809614  0.390266  1
  Bi  Bi27  1  0.692591  0.390266  0.190386  1
