# generated using pymatgen
data_Ca(PrTe2)2
_symmetry_space_group_name_H-M   'P 1'
_cell_length_a   8.32624610
_cell_length_b   8.32624572
_cell_length_c   8.32624638
_cell_angle_alpha   109.73736593
_cell_angle_beta   109.73735943
_cell_angle_gamma   108.94023646
_symmetry_Int_Tables_number   1
_chemical_formula_structural   Ca(PrTe2)2
_chemical_formula_sum   'Ca2 Pr4 Te8'
_cell_volume   444.32208088
_cell_formula_units_Z   2
loop_
 _symmetry_equiv_pos_site_id
 _symmetry_equiv_pos_as_xyz
  1  'x, y, z'
loop_
 _atom_site_type_symbol
 _atom_site_label
 _atom_site_symmetry_multiplicity
 _atom_site_fract_x
 _atom_site_fract_y
 _atom_site_fract_z
 _atom_site_occupancy
  Ca  Ca0  1  0.625000  0.375000  0.250000  1
  Ca  Ca1  1  0.875000  0.125000  0.750000  1
  Pr  Pr2  1  0.124266  0.750000  0.874266  1
  Pr  Pr3  1  0.250000  0.624266  0.374266  1
  Pr  Pr4  1  0.375734  0.250000  0.625734  1
  Pr  Pr5  1  0.750000  0.875734  0.125734  1
  Te  Te6  1  0.002082  0.853382  0.502199  1
  Te  Te7  1  -0.000116  0.351183  0.497801  1
  Te  Te8  1  0.146618  0.148817  0.148700  1
  Te  Te9  1  0.353382  0.502082  0.002199  1
  Te  Te10  1  0.497918  1.000116  0.851300  1
  Te  Te11  1  0.648817  0.646618  0.648700  1
  Te  Te12  1  0.500116  0.997918  0.351300  1
  Te  Te13  1  0.851183  0.499884  0.997801  1
