# generated using pymatgen
data_K2(SO2)3
_symmetry_space_group_name_H-M   'P 1'
_cell_length_a   5.81556279
_cell_length_b   9.95427510
_cell_length_c   14.30669368
_cell_angle_alpha   90.00000000
_cell_angle_beta   90.00000000
_cell_angle_gamma   90.00000000
_symmetry_Int_Tables_number   1
_chemical_formula_structural   K2(SO2)3
_chemical_formula_sum   'K8 S12 O24'
_cell_volume   828.21037499
_cell_formula_units_Z   4
loop_
 _symmetry_equiv_pos_site_id
 _symmetry_equiv_pos_as_xyz
  1  'x, y, z'
loop_
 _atom_site_type_symbol
 _atom_site_label
 _atom_site_symmetry_multiplicity
 _atom_site_fract_x
 _atom_site_fract_y
 _atom_site_fract_z
 _atom_site_occupancy
  O  O0  1  0.960472  0.851293  0.924496  1
  O  O1  1  0.460472  0.148707  0.075504  1
  O  O2  1  0.539528  0.351293  0.575504  1
  O  O3  1  0.039528  0.648707  0.424496  1
  O  O4  1  0.039528  0.148707  0.075504  1
  O  O5  1  0.539528  0.851293  0.924496  1
  O  O6  1  0.460472  0.648707  0.424496  1
  O  O7  1  0.960472  0.351293  0.575504  1
  O  O8  1  0.960643  0.580258  0.771146  1
  O  O9  1  0.460643  0.419742  0.228854  1
  O  O10  1  0.539357  0.080258  0.728854  1
  O  O11  1  0.039357  0.919742  0.271146  1
  O  O12  1  0.039357  0.419742  0.228854  1
  O  O13  1  0.539357  0.580258  0.771146  1
  O  O14  1  0.460643  0.919742  0.271146  1
  O  O15  1  0.960643  0.080258  0.728854  1
  O  O16  1  0.250000  0.191591  0.929666  1
  O  O17  1  0.750000  0.808409  0.070334  1
  O  O18  1  0.250000  0.691591  0.570334  1
  O  O19  1  0.750000  0.308409  0.429666  1
  O  O20  1  0.750000  0.882740  0.671672  1
  O  O21  1  0.250000  0.117260  0.328328  1
  O  O22  1  0.750000  0.382740  0.828328  1
  O  O23  1  0.250000  0.617260  0.171672  1
  S  S24  1  0.250000  0.202368  0.032540  1
  S  S25  1  0.750000  0.797632  0.967460  1
  S  S26  1  0.250000  0.702368  0.467460  1
  S  S27  1  0.750000  0.297633  0.532540  1
  S  S28  1  0.250000  0.413698  0.041314  1
  S  S29  1  0.750000  0.586302  0.958686  1
  S  S30  1  0.250000  0.913698  0.458686  1
  S  S31  1  0.750000  0.086302  0.541314  1
  S  S32  1  0.250000  0.470780  0.184749  1
  S  S33  1  0.750000  0.529220  0.815251  1
  S  S34  1  0.250000  0.970780  0.315251  1
  S  S35  1  0.750000  0.029220  0.684749  1
  K  K36  1  0.250000  0.317384  0.735282  1
  K  K37  1  0.750000  0.682616  0.264718  1
  K  K38  1  0.250000  0.817384  0.764718  1
  K  K39  1  0.750000  0.182616  0.235282  1
  K  K40  1  0.250000  0.365098  0.410798  1
  K  K41  1  0.750000  0.634902  0.589202  1
  K  K42  1  0.250000  0.865098  0.089202  1
  K  K43  1  0.750000  0.134902  0.910798  1
