# generated using pymatgen
data_Ca(DyS2)2
_symmetry_space_group_name_H-M   'P 1'
_cell_length_a   7.25334814
_cell_length_b   7.25334802
_cell_length_c   7.25334838
_cell_angle_alpha   109.50652771
_cell_angle_beta   109.50652279
_cell_angle_gamma   109.40062995
_symmetry_Int_Tables_number   1
_chemical_formula_structural   Ca(DyS2)2
_chemical_formula_sum   'Ca2 Dy4 S8'
_cell_volume   293.76037549
_cell_formula_units_Z   2
loop_
 _symmetry_equiv_pos_site_id
 _symmetry_equiv_pos_as_xyz
  1  'x, y, z'
loop_
 _atom_site_type_symbol
 _atom_site_label
 _atom_site_symmetry_multiplicity
 _atom_site_fract_x
 _atom_site_fract_y
 _atom_site_fract_z
 _atom_site_occupancy
  Ca  Ca0  1  0.625000  0.375000  0.250000  1
  Ca  Ca1  1  0.875000  0.125000  0.750000  1
  Dy  Dy2  1  0.122773  0.750000  0.872773  1
  Dy  Dy3  1  0.250000  0.622773  0.372773  1
  Dy  Dy4  1  0.377227  0.250000  0.627227  1
  Dy  Dy5  1  0.750000  0.877227  0.127227  1
  S  S6  1  0.137947  0.138286  0.144706  1
  S  S7  1  0.493580  0.993242  0.355294  1
  S  S8  1  0.362053  0.506758  0.000338  1
  S  S9  1  0.638286  0.637947  0.644706  1
  S  S10  1  0.493242  0.993580  0.855294  1
  S  S11  1  0.006758  0.862053  0.500338  1
  S  S12  1  0.861714  0.506420  0.999662  1
  S  S13  1  0.006420  0.361714  0.499662  1
