# generated using pymatgen
data_Ag7NO11
_symmetry_space_group_name_H-M   'P 1'
_cell_length_a   7.21653299
_cell_length_b   7.08496840
_cell_length_c   7.05652658
_cell_angle_alpha   61.36844759
_cell_angle_beta   59.50996925
_cell_angle_gamma   59.12157558
_symmetry_Int_Tables_number   1
_chemical_formula_structural   Ag7NO11
_chemical_formula_sum   'Ag7 N1 O11'
_cell_volume   254.89181513
_cell_formula_units_Z   1
loop_
 _symmetry_equiv_pos_site_id
 _symmetry_equiv_pos_as_xyz
  1  'x, y, z'
loop_
 _atom_site_type_symbol
 _atom_site_label
 _atom_site_symmetry_multiplicity
 _atom_site_fract_x
 _atom_site_fract_y
 _atom_site_fract_z
 _atom_site_occupancy
  Ag  Ag0  1  0.003062  0.497896  0.996938  1
  Ag  Ag1  1  0.510604  0.001708  0.998292  1
  Ag  Ag2  1  0.001708  0.510604  0.489396  1
  Ag  Ag3  1  0.497896  0.003062  0.502104  1
  Ag  Ag4  1  0.501956  0.501956  0.998044  1
  Ag  Ag5  1  0.502183  0.502183  0.497817  1
  Ag  Ag6  1  0.001956  0.001956  0.498044  1
  N  N7  1  0.989756  0.989756  0.010244  1
  O  O8  1  0.158610  0.941940  0.058060  1
  O  O9  1  0.367480  0.361460  0.356062  1
  O  O10  1  0.085003  0.643938  0.638540  1
  O  O11  1  0.643938  0.085003  0.632520  1
  O  O12  1  0.644779  0.633622  0.080827  1
  O  O13  1  0.361460  0.367480  0.914997  1
  O  O14  1  0.359228  0.919173  0.366378  1
  O  O15  1  0.919173  0.359228  0.355221  1
  O  O16  1  0.633622  0.644779  0.640772  1
  O  O17  1  0.865646  0.865646  0.134354  1
  O  O18  1  0.941940  0.158610  0.841390  1
