# generated using pymatgen
data_Mg(FeO2)2
_symmetry_space_group_name_H-M   'P 1'
_cell_length_a   5.98258085
_cell_length_b   6.00259491
_cell_length_c   17.94373284
_cell_angle_alpha   59.88184967
_cell_angle_beta   59.89896660
_cell_angle_gamma   59.88927555
_symmetry_Int_Tables_number   1
_chemical_formula_structural   Mg(FeO2)2
_chemical_formula_sum   'Mg6 Fe12 O24'
_cell_volume   454.50688900
_cell_formula_units_Z   6
loop_
 _symmetry_equiv_pos_site_id
 _symmetry_equiv_pos_as_xyz
  1  'x, y, z'
loop_
 _atom_site_type_symbol
 _atom_site_label
 _atom_site_symmetry_multiplicity
 _atom_site_fract_x
 _atom_site_fract_y
 _atom_site_fract_z
 _atom_site_occupancy
  Mg  Mg0  1  0.132843  0.120898  0.041787  1
  Mg  Mg1  1  0.999656  0.498004  0.168112  1
  Mg  Mg2  1  0.000158  0.500399  0.499681  1
  Mg  Mg3  1  0.503240  0.495499  0.335253  1
  Mg  Mg4  1  0.002342  0.501188  0.831761  1
  Mg  Mg5  1  0.497450  0.505724  0.663701  1
  Fe  Fe6  1  0.128882  0.113226  0.381555  1
  Fe  Fe7  1  0.494693  0.496234  0.004280  1
  Fe  Fe8  1  0.495072  0.498411  0.168326  1
  Fe  Fe9  1  0.139171  0.120851  0.706375  1
  Fe  Fe10  1  0.495072  0.001541  0.168326  1
  Fe  Fe11  1  0.500351  0.500123  0.499778  1
  Fe  Fe12  1  0.500351  0.000193  0.499778  1
  Fe  Fe13  1  0.862653  0.881199  0.291650  1
  Fe  Fe14  1  0.500263  0.499657  0.831269  1
  Fe  Fe15  1  0.500263  0.006272  0.831269  1
  Fe  Fe16  1  0.870124  0.885200  0.619825  1
  Fe  Fe17  1  0.865417  0.879522  0.958513  1
  O  O18  1  0.267502  0.255040  0.086745  1
  O  O19  1  0.267502  0.717222  0.086745  1
  O  O20  1  0.256838  0.249213  0.248245  1
  O  O21  1  0.722273  0.257374  0.087659  1
  O  O22  1  0.267183  0.241937  0.422771  1
  O  O23  1  0.264512  0.745558  0.248124  1
  O  O24  1  0.738929  0.746005  0.089687  1
  O  O25  1  0.739839  0.270058  0.247024  1
  O  O26  1  0.267183  0.722568  0.422771  1
  O  O27  1  0.274467  0.252678  0.573392  1
  O  O28  1  0.726013  0.248729  0.425510  1
  O  O29  1  0.739839  0.749031  0.247024  1
  O  O30  1  0.272684  0.751520  0.574759  1
  O  O31  1  0.259984  0.252219  0.751771  1
  O  O32  1  0.726195  0.748053  0.425900  1
  O  O33  1  0.733500  0.275966  0.577520  1
  O  O34  1  0.259984  0.732484  0.751771  1
  O  O35  1  0.271520  0.257150  0.904727  1
  O  O36  1  0.733500  0.757973  0.577520  1
  O  O37  1  0.737530  0.255147  0.750725  1
  O  O38  1  0.269872  0.743722  0.914229  1
  O  O39  1  0.738904  0.748566  0.754655  1
  O  O40  1  0.738123  0.272936  0.914745  1
  O  O41  1  0.738123  0.744707  0.914745  1
