# generated using pymatgen
data_Li3Mo2(PO4)3
_symmetry_space_group_name_H-M   'P 1'
_cell_length_a   9.18939325
_cell_length_b   8.83378530
_cell_length_c   9.18939325
_cell_angle_alpha   58.27141657
_cell_angle_beta   121.63148330
_cell_angle_gamma   121.72858343
_symmetry_Int_Tables_number   1
_chemical_formula_structural   Li3Mo2(PO4)3
_chemical_formula_sum   'Li6 Mo4 P6 O24'
_cell_volume   506.98854281
_cell_formula_units_Z   2
loop_
 _symmetry_equiv_pos_site_id
 _symmetry_equiv_pos_as_xyz
  1  'x, y, z'
loop_
 _atom_site_type_symbol
 _atom_site_label
 _atom_site_symmetry_multiplicity
 _atom_site_fract_x
 _atom_site_fract_y
 _atom_site_fract_z
 _atom_site_occupancy
  Li  Li0  1  0.307193  0.569169  0.939416  1
  Li  Li1  1  0.060585  0.069170  0.692807  1
  Li  Li2  1  0.626975  0.742133  0.631296  1
  Li  Li3  1  0.368703  0.242132  0.373025  1
  Li  Li4  1  0.940328  0.919816  0.304331  1
  Li  Li5  1  0.695669  0.419817  0.059673  1
  O  O6  1  0.302564  0.970523  0.389201  1
  O  O7  1  0.978100  0.560416  0.098058  1
  O  O8  1  0.943489  0.261546  0.481672  1
  O  O9  1  0.620374  0.244569  0.275096  1
  O  O10  1  0.099307  0.929697  0.976700  1
  O  O11  1  0.023301  0.429698  0.900693  1
  O  O12  1  0.058492  0.727840  0.516772  1
  O  O13  1  0.382072  0.745136  0.723140  1
  O  O14  1  0.901942  0.060416  0.021899  1
  O  O15  1  0.755314  0.717441  0.926905  1
  O  O16  1  0.248330  0.627813  0.472630  1
  O  O17  1  0.483228  0.227841  0.941507  1
  O  O18  1  0.276860  0.245135  0.617929  1
  O  O19  1  0.610799  0.470523  0.697436  1
  O  O20  1  0.698945  0.019377  0.609107  1
  O  O21  1  0.930115  0.772433  0.754243  1
  O  O22  1  0.073095  0.217440  0.244686  1
  O  O23  1  0.527370  0.127814  0.751670  1
  O  O24  1  0.390892  0.519376  0.301055  1
  O  O25  1  0.724904  0.744570  0.379625  1
  O  O26  1  0.518328  0.761547  0.056511  1
  O  O27  1  0.754772  0.362448  0.525948  1
  O  O28  1  0.245757  0.272434  0.069884  1
  O  O29  1  0.474051  0.862448  0.245228  1
  P  P30  1  0.755865  0.225451  0.473725  1
  P  P31  1  0.054486  0.245068  0.052597  1
  P  P32  1  0.526274  0.725450  0.244135  1
  P  P33  1  0.475390  0.264347  0.753899  1
  P  P34  1  0.246100  0.764346  0.524610  1
  P  P35  1  0.947404  0.745068  0.945514  1
  Mo  Mo36  1  0.641548  0.924027  0.850005  1
  Mo  Mo37  1  0.149994  0.424026  0.358451  1
  Mo  Mo38  1  0.851659  0.566207  0.639576  1
  Mo  Mo39  1  0.360425  0.066208  0.148341  1
