# generated using pymatgen
data_CeNiGe2
_symmetry_space_group_name_H-M   'P 1'
_cell_length_a   4.22605239
_cell_length_b   4.22345228
_cell_length_c   8.56986040
_cell_angle_alpha   104.26536071
_cell_angle_beta   90.00000000
_cell_angle_gamma   90.00000000
_symmetry_Int_Tables_number   1
_chemical_formula_structural   CeNiGe2
_chemical_formula_sum   'Ce2 Ni2 Ge4'
_cell_volume   148.24289409
_cell_formula_units_Z   2
loop_
 _symmetry_equiv_pos_site_id
 _symmetry_equiv_pos_as_xyz
  1  'x, y, z'
loop_
 _atom_site_type_symbol
 _atom_site_label
 _atom_site_symmetry_multiplicity
 _atom_site_fract_x
 _atom_site_fract_y
 _atom_site_fract_z
 _atom_site_occupancy
  Ni  Ni0  1  0.250000  0.681349  0.362698  1
  Ni  Ni1  1  0.750000  0.318651  0.637302  1
  Ge  Ge2  1  0.750000  0.458120  0.916241  1
  Ge  Ge3  1  0.250000  0.541880  0.083759  1
  Ge  Ge4  1  0.750000  0.750238  0.500477  1
  Ge  Ge5  1  0.250000  0.249762  0.499523  1
  Ce  Ce6  1  0.250000  0.891779  0.783558  1
  Ce  Ce7  1  0.750000  0.108221  0.216442  1
