# generated using pymatgen
data_Li2HN
_symmetry_space_group_name_H-M   'P 1'
_cell_length_a   3.67729976
_cell_length_b   3.60310091
_cell_length_c   3.60310096
_cell_angle_alpha   60.00000447
_cell_angle_beta   60.66526556
_cell_angle_gamma   60.66526512
_symmetry_Int_Tables_number   1
_chemical_formula_structural   Li2HN
_chemical_formula_sum   'Li2 H1 N1'
_cell_volume   34.09271059
_cell_formula_units_Z   1
loop_
 _symmetry_equiv_pos_site_id
 _symmetry_equiv_pos_as_xyz
  1  'x, y, z'
loop_
 _atom_site_type_symbol
 _atom_site_label
 _atom_site_symmetry_multiplicity
 _atom_site_fract_x
 _atom_site_fract_y
 _atom_site_fract_z
 _atom_site_occupancy
  H  H0  1  0.734448  0.088517  0.088517  1
  Li  Li1  1  0.153370  0.282210  0.282210  1
  Li  Li2  1  0.758261  0.747246  0.747246  1
  N  N3  1  0.074922  0.975026  0.975026  1
