# generated using pymatgen
data_Pr2Se3
_symmetry_space_group_name_H-M   'P 1'
_cell_length_a   23.40074333
_cell_length_b   9.00924418
_cell_length_c   9.00924401
_cell_angle_alpha   90.00000040
_cell_angle_beta   54.72529517
_cell_angle_gamma   54.72529595
_symmetry_Int_Tables_number   1
_chemical_formula_structural   Pr2Se3
_chemical_formula_sum   'Pr16 Se24'
_cell_volume   1096.03510456
_cell_formula_units_Z   8
loop_
 _symmetry_equiv_pos_site_id
 _symmetry_equiv_pos_as_xyz
  1  'x, y, z'
loop_
 _atom_site_type_symbol
 _atom_site_label
 _atom_site_symmetry_multiplicity
 _atom_site_fract_x
 _atom_site_fract_y
 _atom_site_fract_z
 _atom_site_occupancy
  Pr  Pr0  1  0.082920  0.625620  0.375620  1
  Pr  Pr1  1  0.166667  0.250000  0.630333  1
  Pr  Pr2  1  0.336884  0.378307  0.252060  1
  Pr  Pr3  1  0.250413  0.874380  0.124380  1
  Pr  Pr4  1  0.336884  0.111042  0.737289  1
  Pr  Pr5  1  0.166667  0.750000  0.869667  1
  Pr  Pr6  1  0.496449  0.262711  0.621693  1
  Pr  Pr7  1  0.666667  0.369667  0.250000  1
  Pr  Pr8  1  0.582920  0.875620  0.125620  1
  Pr  Pr9  1  0.666667  0.130333  0.750000  1
  Pr  Pr10  1  0.496449  0.747940  0.888958  1
  Pr  Pr11  1  0.750413  0.624380  0.374380  1
  Pr  Pr12  1  0.836884  0.237289  0.611042  1
  Pr  Pr13  1  0.996449  0.388958  0.247940  1
  Pr  Pr14  1  0.996449  0.121693  0.762711  1
  Pr  Pr15  1  0.836884  0.752060  0.878307  1
  Se  Se16  1  0.123688  0.490513  0.993885  1
  Se  Se17  1  0.051003  0.347391  0.496482  1
  Se  Se18  1  0.051003  0.999602  0.350511  1
  Se  Se19  1  0.282331  0.152609  0.149489  1
  Se  Se20  1  0.282331  0.500398  0.003518  1
  Se  Se21  1  0.123688  0.638422  0.635049  1
  Se  Se22  1  0.209645  0.009487  0.864951  1
  Se  Se23  1  0.209645  0.861578  0.506115  1
  Se  Se24  1  0.448437  0.496479  0.998932  1
  Se  Se25  1  0.384896  0.344245  0.503521  1
  Se  Se26  1  0.384896  0.001068  0.341792  1
  Se  Se27  1  0.623688  0.135049  0.138422  1
  Se  Se28  1  0.623688  0.493885  0.990513  1
  Se  Se29  1  0.551003  0.996482  0.847391  1
  Se  Se30  1  0.448437  0.658208  0.655755  1
  Se  Se31  1  0.551003  0.850511  0.499602  1
  Se  Se32  1  0.782331  0.503518  0.000398  1
  Se  Se33  1  0.709645  0.364951  0.509487  1
  Se  Se34  1  0.709645  0.006115  0.361578  1
  Se  Se35  1  0.948437  0.155755  0.158208  1
  Se  Se36  1  0.948437  0.498932  0.996479  1
  Se  Se37  1  0.884896  0.003521  0.844245  1
  Se  Se38  1  0.782331  0.649489  0.652609  1
  Se  Se39  1  0.884896  0.841792  0.501068  1
