# generated using pymatgen
data_LaB5O9
_symmetry_space_group_name_H-M   'P 1'
_cell_length_a   6.50456821
_cell_length_b   8.26343060
_cell_length_c   11.82438682
_cell_angle_alpha   90.00000000
_cell_angle_beta   90.00000000
_cell_angle_gamma   105.28031152
_symmetry_Int_Tables_number   1
_chemical_formula_structural   LaB5O9
_chemical_formula_sum   'La4 B20 O36'
_cell_volume   613.09301612
_cell_formula_units_Z   4
loop_
 _symmetry_equiv_pos_site_id
 _symmetry_equiv_pos_as_xyz
  1  'x, y, z'
loop_
 _atom_site_type_symbol
 _atom_site_label
 _atom_site_symmetry_multiplicity
 _atom_site_fract_x
 _atom_site_fract_y
 _atom_site_fract_z
 _atom_site_occupancy
  B  B0  1  0.226244  0.169045  0.248704  1
  B  B1  1  0.773756  0.330955  0.748704  1
  B  B2  1  0.773756  0.830955  0.751296  1
  B  B3  1  0.226244  0.669045  0.251296  1
  B  B4  1  0.812159  0.592101  0.630386  1
  B  B5  1  0.187841  0.907899  0.130386  1
  B  B6  1  0.480825  0.274259  0.402044  1
  B  B7  1  0.519175  0.225741  0.902044  1
  B  B8  1  0.519175  0.725741  0.597956  1
  B  B9  1  0.480825  0.774259  0.097956  1
  B  B10  1  0.289302  0.545689  0.944732  1
  B  B11  1  0.710698  0.954311  0.444732  1
  B  B12  1  0.710698  0.454311  0.055268  1
  B  B13  1  0.289302  0.045689  0.555268  1
  B  B14  1  0.853177  0.255478  0.464044  1
  B  B15  1  0.146823  0.244522  0.964044  1
  B  B16  1  0.146823  0.744522  0.535956  1
  B  B17  1  0.853177  0.755478  0.035956  1
  B  B18  1  0.187841  0.407899  0.369614  1
  B  B19  1  0.812159  0.092101  0.869614  1
  O  O20  1  0.066280  0.338706  0.473983  1
  O  O21  1  0.756771  0.450810  0.167842  1
  O  O22  1  0.756771  0.950810  0.332158  1
  O  O23  1  0.243229  0.549190  0.832158  1
  O  O24  1  0.779548  0.597120  0.988839  1
  O  O25  1  0.220452  0.902880  0.488839  1
  O  O26  1  0.220452  0.402880  0.011161  1
  O  O27  1  0.243229  0.049190  0.667842  1
  O  O28  1  0.413418  0.664017  0.199001  1
  O  O29  1  0.586582  0.835983  0.699001  1
  O  O30  1  0.933720  0.161294  0.973983  1
  O  O31  1  0.413418  0.164017  0.300999  1
  O  O32  1  0.137359  0.564574  0.338555  1
  O  O33  1  0.862641  0.935426  0.838555  1
  O  O34  1  0.862641  0.435426  0.661445  1
  O  O35  1  0.137359  0.064574  0.161445  1
  O  O36  1  0.110662  0.780869  0.222215  1
  O  O37  1  0.889338  0.719131  0.722215  1
  O  O38  1  0.889338  0.219131  0.777785  1
  O  O39  1  0.110662  0.280869  0.277785  1
  O  O40  1  0.933720  0.661294  0.526017  1
  O  O41  1  0.066280  0.838706  0.026017  1
  O  O42  1  0.719139  0.325981  0.401631  1
  O  O43  1  0.280861  0.174019  0.901631  1
  O  O44  1  0.280861  0.674019  0.598369  1
  O  O45  1  0.586582  0.335983  0.800999  1
  O  O46  1  0.398012  0.198128  0.509502  1
  O  O47  1  0.601988  0.301872  0.009502  1
  O  O48  1  0.601988  0.801872  0.490498  1
  O  O49  1  0.398012  0.698128  0.990498  1
  O  O50  1  0.415504  0.430501  0.386996  1
  O  O51  1  0.584496  0.069500  0.886996  1
  O  O52  1  0.584496  0.569500  0.613004  1
  O  O53  1  0.415504  0.930500  0.113004  1
  O  O54  1  0.779548  0.097120  0.511161  1
  O  O55  1  0.719139  0.825981  0.098369  1
  La  La56  1  0.250236  0.360042  0.674078  1
  La  La57  1  0.749764  0.139958  0.174078  1
  La  La58  1  0.749764  0.639958  0.325922  1
  La  La59  1  0.250236  0.860042  0.825922  1
