# generated using pymatgen
data_Nd2Sn3
_symmetry_space_group_name_H-M   'P 1'
_cell_length_a   6.46704071
_cell_length_b   8.53077541
_cell_length_c   11.25032496
_cell_angle_alpha   107.41866379
_cell_angle_beta   96.67630709
_cell_angle_gamma   100.44277728
_symmetry_Int_Tables_number   1
_chemical_formula_structural   Nd2Sn3
_chemical_formula_sum   'Nd8 Sn12'
_cell_volume   572.69951302
_cell_formula_units_Z   4
loop_
 _symmetry_equiv_pos_site_id
 _symmetry_equiv_pos_as_xyz
  1  'x, y, z'
loop_
 _atom_site_type_symbol
 _atom_site_label
 _atom_site_symmetry_multiplicity
 _atom_site_fract_x
 _atom_site_fract_y
 _atom_site_fract_z
 _atom_site_occupancy
  Nd  Nd0  1  0.332128  0.032191  0.744339  1
  Nd  Nd1  1  0.442009  0.570280  0.663526  1
  Nd  Nd2  1  0.873059  0.246079  0.614980  1
  Nd  Nd3  1  0.667872  0.967809  0.255661  1
  Nd  Nd4  1  0.958889  0.252429  0.057368  1
  Nd  Nd5  1  0.557991  0.429720  0.336474  1
  Nd  Nd6  1  0.126941  0.753921  0.385020  1
  Nd  Nd7  1  0.041111  0.747571  0.942632  1
  Sn  Sn8  1  0.356637  0.166756  0.499746  1
  Sn  Sn9  1  0.643363  0.833244  0.500254  1
  Sn  Sn10  1  0.561882  0.830914  0.949333  1
  Sn  Sn11  1  0.778011  0.593559  0.135533  1
  Sn  Sn12  1  0.952383  0.646388  0.620972  1
  Sn  Sn13  1  0.438118  0.169086  0.050667  1
  Sn  Sn14  1  0.823373  0.963578  0.777197  1
  Sn  Sn15  1  0.047617  0.353612  0.379028  1
  Sn  Sn16  1  0.323280  0.602864  0.139630  1
  Sn  Sn17  1  0.221989  0.406441  0.864467  1
  Sn  Sn18  1  0.676720  0.397136  0.860370  1
  Sn  Sn19  1  0.176627  0.036422  0.222803  1
