# generated using pymatgen
data_SrLaMn2O6
_symmetry_space_group_name_H-M   'P 1'
_cell_length_a   5.49460942
_cell_length_b   5.49460929
_cell_length_c   5.53672216
_cell_angle_alpha   119.67207740
_cell_angle_beta   119.67207646
_cell_angle_gamma   90.13478370
_symmetry_Int_Tables_number   1
_chemical_formula_structural   SrLaMn2O6
_chemical_formula_sum   'Sr1 La1 Mn2 O6'
_cell_volume   119.22476588
_cell_formula_units_Z   1
loop_
 _symmetry_equiv_pos_site_id
 _symmetry_equiv_pos_as_xyz
  1  'x, y, z'
loop_
 _atom_site_type_symbol
 _atom_site_label
 _atom_site_symmetry_multiplicity
 _atom_site_fract_x
 _atom_site_fract_y
 _atom_site_fract_z
 _atom_site_occupancy
  Sr  Sr0  1  0.250081  0.750081  0.500161  1
  La  La1  1  0.749866  0.249866  0.499760  1
  Mn  Mn2  1  0.999989  0.999986  0.999963  1
  Mn  Mn3  1  0.499986  0.499989  0.999963  1
  O  O4  1  0.250069  0.249976  0.500017  1
  O  O5  1  0.207715  0.707715  0.985821  1
  O  O6  1  0.292570  0.221574  0.014146  1
  O  O7  1  0.749976  0.750069  0.500017  1
  O  O8  1  0.721574  0.792570  0.014146  1
  O  O9  1  0.778175  0.278175  0.986006  1
