# generated using pymatgen
data_Pr5CuSe8
_symmetry_space_group_name_H-M   'P 1'
_cell_length_a   7.75442696
_cell_length_b   7.75442662
_cell_length_c   7.75442695
_cell_angle_alpha   110.34789019
_cell_angle_beta   110.34789186
_cell_angle_gamma   107.73175725
_symmetry_Int_Tables_number   1
_chemical_formula_structural   Pr5CuSe8
_chemical_formula_sum   'Pr5 Cu1 Se8'
_cell_volume   358.69723519
_cell_formula_units_Z   1
loop_
 _symmetry_equiv_pos_site_id
 _symmetry_equiv_pos_as_xyz
  1  'x, y, z'
loop_
 _atom_site_type_symbol
 _atom_site_label
 _atom_site_symmetry_multiplicity
 _atom_site_fract_x
 _atom_site_fract_y
 _atom_site_fract_z
 _atom_site_occupancy
  Cu  Cu0  1  0.875000  0.125000  0.750000  1
  Pr  Pr1  1  0.113931  0.745503  0.872204  1
  Pr  Pr2  1  0.254497  0.626701  0.368427  1
  Pr  Pr3  1  0.373299  0.241727  0.627796  1
  Pr  Pr4  1  0.625000  0.375000  0.250000  1
  Pr  Pr5  1  0.758273  0.886069  0.131573  1
  Se  Se6  1  0.480660  0.989980  0.853804  1
  Se  Se7  1  0.527185  0.016306  0.380442  1
  Se  Se8  1  0.135864  0.146743  0.119558  1
  Se  Se9  1  0.373144  0.519340  0.009320  1
  Se  Se10  1  0.636176  0.626856  0.646196  1
  Se  Se11  1  0.983694  0.864136  0.510879  1
  Se  Se12  1  0.853257  0.472815  0.989121  1
  Se  Se13  1  0.010020  0.363824  0.490680  1
