# generated using pymatgen
data_Sr3Al2O6
_symmetry_space_group_name_H-M   'P 1'
_cell_length_a   15.99991462
_cell_length_b   15.99991462
_cell_length_c   15.99991462
_cell_angle_alpha   90.00000000
_cell_angle_beta   90.00000000
_cell_angle_gamma   90.00000000
_symmetry_Int_Tables_number   1
_chemical_formula_structural   Sr3Al2O6
_chemical_formula_sum   'Sr72 Al48 O144'
_cell_volume   4095.93442851
_cell_formula_units_Z   24
loop_
 _symmetry_equiv_pos_site_id
 _symmetry_equiv_pos_as_xyz
  1  'x, y, z'
loop_
 _atom_site_type_symbol
 _atom_site_label
 _atom_site_symmetry_multiplicity
 _atom_site_fract_x
 _atom_site_fract_y
 _atom_site_fract_z
 _atom_site_occupancy
  O  O0  1  0.263084  0.125221  0.002830  1
  O  O1  1  0.002830  0.263084  0.125221  1
  O  O2  1  0.125221  0.002830  0.263084  1
  O  O3  1  0.374779  0.997170  0.763084  1
  O  O4  1  0.502830  0.236916  0.874779  1
  O  O5  1  0.874779  0.502830  0.236916  1
  O  O6  1  0.497170  0.736916  0.625221  1
  O  O7  1  0.997170  0.763084  0.374779  1
  O  O8  1  0.625221  0.497170  0.736916  1
  O  O9  1  0.763084  0.374779  0.997170  1
  O  O10  1  0.736916  0.625221  0.497170  1
  O  O11  1  0.236916  0.874779  0.502830  1
  O  O12  1  0.736916  0.874779  0.997170  1
  O  O13  1  0.997170  0.736916  0.874779  1
  O  O14  1  0.874779  0.997170  0.736916  1
  O  O15  1  0.625221  0.002830  0.236916  1
  O  O16  1  0.497170  0.763084  0.125221  1
  O  O17  1  0.125221  0.497170  0.763084  1
  O  O18  1  0.502830  0.263084  0.374779  1
  O  O19  1  0.002830  0.236916  0.625221  1
  O  O20  1  0.374779  0.502830  0.263084  1
  O  O21  1  0.236916  0.625221  0.002830  1
  O  O22  1  0.263084  0.374779  0.502830  1
  O  O23  1  0.763084  0.125221  0.497170  1
  O  O24  1  0.492363  0.129366  0.244254  1
  O  O25  1  0.244254  0.492363  0.129366  1
  O  O26  1  0.129366  0.244254  0.492363  1
  O  O27  1  0.370634  0.755746  0.992363  1
  O  O28  1  0.744254  0.007637  0.870634  1
  O  O29  1  0.870634  0.744254  0.007637  1
  O  O30  1  0.255746  0.507637  0.629366  1
  O  O31  1  0.755746  0.992363  0.370634  1
  O  O32  1  0.629366  0.255746  0.507637  1
  O  O33  1  0.992363  0.370634  0.755746  1
  O  O34  1  0.507637  0.629366  0.255746  1
  O  O35  1  0.007637  0.870634  0.744254  1
  O  O36  1  0.507637  0.870634  0.755746  1
  O  O37  1  0.755746  0.507637  0.870634  1
  O  O38  1  0.870634  0.755746  0.507637  1
  O  O39  1  0.629366  0.244254  0.007637  1
  O  O40  1  0.255746  0.992363  0.129366  1
  O  O41  1  0.129366  0.255746  0.992363  1
  O  O42  1  0.744254  0.492363  0.370634  1
  O  O43  1  0.244254  0.007637  0.629366  1
  O  O44  1  0.370634  0.744254  0.492363  1
  O  O45  1  0.007637  0.629366  0.244254  1
  O  O46  1  0.492363  0.370634  0.744254  1
  O  O47  1  0.992363  0.129366  0.255746  1
  O  O48  1  0.269804  0.277108  0.100254  1
  O  O49  1  0.100254  0.269804  0.277108  1
  O  O50  1  0.277108  0.100254  0.269804  1
  O  O51  1  0.222892  0.899745  0.769804  1
  O  O52  1  0.600255  0.230196  0.722892  1
  O  O53  1  0.722892  0.600255  0.230196  1
  O  O54  1  0.399745  0.730196  0.777108  1
  O  O55  1  0.899745  0.769804  0.222892  1
  O  O56  1  0.777108  0.399745  0.730196  1
  O  O57  1  0.769804  0.222892  0.899745  1
  O  O58  1  0.730196  0.777108  0.399745  1
  O  O59  1  0.230196  0.722892  0.600255  1
  O  O60  1  0.730196  0.722892  0.899745  1
  O  O61  1  0.899745  0.730196  0.722892  1
  O  O62  1  0.722892  0.899745  0.730196  1
  O  O63  1  0.777108  0.100254  0.230196  1
  O  O64  1  0.399745  0.769804  0.277108  1
  O  O65  1  0.277108  0.399745  0.769804  1
  O  O66  1  0.600255  0.269804  0.222892  1
  O  O67  1  0.100254  0.230196  0.777108  1
  O  O68  1  0.222892  0.600255  0.269804  1
  O  O69  1  0.230196  0.777108  0.100254  1
  O  O70  1  0.269804  0.222892  0.600255  1
  O  O71  1  0.769804  0.277108  0.399745  1
  O  O72  1  0.234410  0.405867  0.279586  1
  O  O73  1  0.279586  0.234410  0.405867  1
  O  O74  1  0.405867  0.279586  0.234410  1
  O  O75  1  0.094133  0.720414  0.734410  1
  O  O76  1  0.779586  0.265590  0.594133  1
  O  O77  1  0.594133  0.779586  0.265590  1
  O  O78  1  0.220414  0.765590  0.905867  1
  O  O79  1  0.720414  0.734410  0.094133  1
  O  O80  1  0.905867  0.220414  0.765590  1
  O  O81  1  0.734410  0.094133  0.720414  1
  O  O82  1  0.765590  0.905867  0.220414  1
  O  O83  1  0.265590  0.594133  0.779586  1
  O  O84  1  0.765590  0.594133  0.720414  1
  O  O85  1  0.720414  0.765590  0.594133  1
  O  O86  1  0.594133  0.720414  0.765590  1
  O  O87  1  0.905867  0.279586  0.265590  1
  O  O88  1  0.220414  0.734410  0.405867  1
  O  O89  1  0.405867  0.220414  0.734410  1
  O  O90  1  0.779586  0.234410  0.094133  1
  O  O91  1  0.279586  0.265590  0.905867  1
  O  O92  1  0.094133  0.779586  0.234410  1
  O  O93  1  0.265590  0.905867  0.279586  1
  O  O94  1  0.234410  0.094133  0.779586  1
  O  O95  1  0.734410  0.405867  0.220414  1
  O  O96  1  0.346620  0.973904  0.980063  1
  O  O97  1  0.980063  0.346620  0.973904  1
  O  O98  1  0.973904  0.980063  0.346620  1
  O  O99  1  0.526096  0.019937  0.846620  1
  O  O100  1  0.480063  0.153380  0.026096  1
  O  O101  1  0.026096  0.480063  0.153380  1
  O  O102  1  0.519937  0.653380  0.473904  1
  O  O103  1  0.019937  0.846620  0.526096  1
  O  O104  1  0.473904  0.519937  0.653380  1
  O  O105  1  0.846620  0.526096  0.019937  1
  O  O106  1  0.653380  0.473904  0.519937  1
  O  O107  1  0.153380  0.026096  0.480063  1
  O  O108  1  0.653380  0.026096  0.019937  1
  O  O109  1  0.019937  0.653380  0.026096  1
  O  O110  1  0.026096  0.019937  0.653380  1
  O  O111  1  0.473904  0.980063  0.153380  1
  O  O112  1  0.519937  0.846620  0.973904  1
  O  O113  1  0.973904  0.519937  0.846620  1
  O  O114  1  0.480063  0.346620  0.526096  1
  O  O115  1  0.980063  0.153380  0.473904  1
  O  O116  1  0.526096  0.480063  0.346620  1
  O  O117  1  0.153380  0.473904  0.980063  1
  O  O118  1  0.346620  0.526096  0.480063  1
  O  O119  1  0.846620  0.973904  0.519937  1
  O  O120  1  0.153955  0.983128  0.982416  1
  O  O121  1  0.982416  0.153955  0.983128  1
  O  O122  1  0.983128  0.982416  0.153955  1
  O  O123  1  0.516872  0.017584  0.653955  1
  O  O124  1  0.482416  0.346045  0.016872  1
  O  O125  1  0.016872  0.482416  0.346045  1
  O  O126  1  0.517584  0.846045  0.483128  1
  O  O127  1  0.017584  0.653955  0.516872  1
  O  O128  1  0.483128  0.517584  0.846045  1
  O  O129  1  0.653955  0.516872  0.017584  1
  O  O130  1  0.846045  0.483128  0.517584  1
  O  O131  1  0.346045  0.016872  0.482416  1
  O  O132  1  0.846045  0.016872  0.017584  1
  O  O133  1  0.017584  0.846045  0.016872  1
  O  O134  1  0.016872  0.017584  0.846045  1
  O  O135  1  0.483128  0.982416  0.346045  1
  O  O136  1  0.517584  0.653955  0.983128  1
  O  O137  1  0.983128  0.517584  0.653955  1
  O  O138  1  0.482416  0.153955  0.516872  1
  O  O139  1  0.982416  0.346045  0.483128  1
  O  O140  1  0.516872  0.482416  0.153955  1
  O  O141  1  0.346045  0.483128  0.982416  1
  O  O142  1  0.153955  0.516872  0.482416  1
  O  O143  1  0.653955  0.983128  0.517584  1
  Al  Al144  1  0.251624  0.015904  0.020089  1
  Al  Al145  1  0.020089  0.251624  0.015904  1
  Al  Al146  1  0.015904  0.020089  0.251624  1
  Al  Al147  1  0.484096  0.979911  0.751624  1
  Al  Al148  1  0.520089  0.248376  0.984096  1
  Al  Al149  1  0.984096  0.520089  0.248376  1
  Al  Al150  1  0.479911  0.748376  0.515904  1
  Al  Al151  1  0.979911  0.751624  0.484096  1
  Al  Al152  1  0.515904  0.479911  0.748376  1
  Al  Al153  1  0.751624  0.484096  0.979911  1
  Al  Al154  1  0.748376  0.515904  0.479911  1
  Al  Al155  1  0.248376  0.984096  0.520089  1
  Al  Al156  1  0.748376  0.984096  0.979911  1
  Al  Al157  1  0.979911  0.748376  0.984096  1
  Al  Al158  1  0.984096  0.979911  0.748376  1
  Al  Al159  1  0.515904  0.020089  0.248376  1
  Al  Al160  1  0.479911  0.751624  0.015904  1
  Al  Al161  1  0.015904  0.479911  0.751624  1
  Al  Al162  1  0.520089  0.251624  0.484096  1
  Al  Al163  1  0.020089  0.248376  0.515904  1
  Al  Al164  1  0.484096  0.520089  0.251624  1
  Al  Al165  1  0.248376  0.515904  0.020089  1
  Al  Al166  1  0.251624  0.484096  0.520089  1
  Al  Al167  1  0.751624  0.015904  0.479911  1
  Al  Al168  1  0.238600  0.233955  0.004126  1
  Al  Al169  1  0.004126  0.238600  0.233955  1
  Al  Al170  1  0.233955  0.004126  0.238600  1
  Al  Al171  1  0.266045  0.995874  0.738600  1
  Al  Al172  1  0.504126  0.261400  0.766045  1
  Al  Al173  1  0.766045  0.504126  0.261400  1
  Al  Al174  1  0.495874  0.761400  0.733955  1
  Al  Al175  1  0.995874  0.738600  0.266045  1
  Al  Al176  1  0.733955  0.495874  0.761400  1
  Al  Al177  1  0.738600  0.266045  0.995874  1
  Al  Al178  1  0.761400  0.733955  0.495874  1
  Al  Al179  1  0.261400  0.766045  0.504126  1
  Al  Al180  1  0.761400  0.766045  0.995874  1
  Al  Al181  1  0.995874  0.761400  0.766045  1
  Al  Al182  1  0.766045  0.995874  0.761400  1
  Al  Al183  1  0.733955  0.004126  0.261400  1
  Al  Al184  1  0.495874  0.738600  0.233955  1
  Al  Al185  1  0.233955  0.495874  0.738600  1
  Al  Al186  1  0.504126  0.238600  0.266045  1
  Al  Al187  1  0.004126  0.261400  0.733955  1
  Al  Al188  1  0.266045  0.504126  0.238600  1
  Al  Al189  1  0.261400  0.733955  0.004126  1
  Al  Al190  1  0.238600  0.266045  0.504126  1
  Al  Al191  1  0.738600  0.233955  0.495874  1
  Sr  Sr192  1  0.000000  0.000000  0.000000  1
  Sr  Sr193  1  0.500000  0.000000  0.500000  1
  Sr  Sr194  1  0.500000  0.500000  0.000000  1
  Sr  Sr195  1  0.000000  0.500000  0.500000  1
  Sr  Sr196  1  0.500000  0.000000  0.000000  1
  Sr  Sr197  1  0.000000  0.500000  0.000000  1
  Sr  Sr198  1  0.000000  0.000000  0.500000  1
  Sr  Sr199  1  0.500000  0.500000  0.500000  1
  Sr  Sr200  1  0.252272  0.252272  0.252272  1
  Sr  Sr201  1  0.247728  0.747728  0.752272  1
  Sr  Sr202  1  0.752272  0.247728  0.747728  1
  Sr  Sr203  1  0.747728  0.752272  0.247728  1
  Sr  Sr204  1  0.747728  0.747728  0.747728  1
  Sr  Sr205  1  0.752272  0.252272  0.247728  1
  Sr  Sr206  1  0.247728  0.752272  0.252272  1
  Sr  Sr207  1  0.252272  0.247728  0.752272  1
  Sr  Sr208  1  0.375632  0.375632  0.375632  1
  Sr  Sr209  1  0.124368  0.624368  0.875632  1
  Sr  Sr210  1  0.875632  0.124368  0.624368  1
  Sr  Sr211  1  0.624368  0.875632  0.124368  1
  Sr  Sr212  1  0.624368  0.624368  0.624368  1
  Sr  Sr213  1  0.875632  0.375632  0.124368  1
  Sr  Sr214  1  0.124368  0.875632  0.375632  1
  Sr  Sr215  1  0.375632  0.124368  0.875632  1
  Sr  Sr216  1  0.134670  0.375428  0.131721  1
  Sr  Sr217  1  0.131721  0.134670  0.375428  1
  Sr  Sr218  1  0.375428  0.131721  0.134670  1
  Sr  Sr219  1  0.124572  0.868279  0.634670  1
  Sr  Sr220  1  0.631721  0.365330  0.624572  1
  Sr  Sr221  1  0.624572  0.631721  0.365330  1
  Sr  Sr222  1  0.368279  0.865330  0.875428  1
  Sr  Sr223  1  0.868279  0.634670  0.124572  1
  Sr  Sr224  1  0.875428  0.368279  0.865330  1
  Sr  Sr225  1  0.634670  0.124572  0.868279  1
  Sr  Sr226  1  0.865330  0.875428  0.368279  1
  Sr  Sr227  1  0.365330  0.624572  0.631721  1
  Sr  Sr228  1  0.865330  0.624572  0.868279  1
  Sr  Sr229  1  0.868279  0.865330  0.624572  1
  Sr  Sr230  1  0.624572  0.868279  0.865330  1
  Sr  Sr231  1  0.875428  0.131721  0.365330  1
  Sr  Sr232  1  0.368279  0.634670  0.375428  1
  Sr  Sr233  1  0.375428  0.368279  0.634670  1
  Sr  Sr234  1  0.631721  0.134670  0.124572  1
  Sr  Sr235  1  0.131721  0.365330  0.875428  1
  Sr  Sr236  1  0.124572  0.631721  0.134670  1
  Sr  Sr237  1  0.365330  0.875428  0.131721  1
  Sr  Sr238  1  0.134670  0.124572  0.631721  1
  Sr  Sr239  1  0.634670  0.375428  0.368279  1
  Sr  Sr240  1  0.380139  0.384046  0.124743  1
  Sr  Sr241  1  0.124743  0.380139  0.384046  1
  Sr  Sr242  1  0.384046  0.124743  0.380139  1
  Sr  Sr243  1  0.115954  0.875257  0.880139  1
  Sr  Sr244  1  0.624743  0.119861  0.615954  1
  Sr  Sr245  1  0.615954  0.624743  0.119861  1
  Sr  Sr246  1  0.375257  0.619861  0.884046  1
  Sr  Sr247  1  0.875257  0.880139  0.115954  1
  Sr  Sr248  1  0.884046  0.375257  0.619861  1
  Sr  Sr249  1  0.880139  0.115954  0.875257  1
  Sr  Sr250  1  0.619861  0.884046  0.375257  1
  Sr  Sr251  1  0.119861  0.615954  0.624743  1
  Sr  Sr252  1  0.619861  0.615954  0.875257  1
  Sr  Sr253  1  0.875257  0.619861  0.615954  1
  Sr  Sr254  1  0.615954  0.875257  0.619861  1
  Sr  Sr255  1  0.884046  0.124743  0.119861  1
  Sr  Sr256  1  0.375257  0.880139  0.384046  1
  Sr  Sr257  1  0.384046  0.375257  0.880139  1
  Sr  Sr258  1  0.624743  0.380139  0.115954  1
  Sr  Sr259  1  0.124743  0.119861  0.884046  1
  Sr  Sr260  1  0.115954  0.624743  0.380139  1
  Sr  Sr261  1  0.119861  0.884046  0.124743  1
  Sr  Sr262  1  0.380139  0.115954  0.624743  1
  Sr  Sr263  1  0.880139  0.384046  0.375257  1
