# generated using pymatgen
data_SrLaTiMnO6
_symmetry_space_group_name_H-M   'P 1'
_cell_length_a   5.64068981
_cell_length_b   5.68758737
_cell_length_c   7.69493883
_cell_angle_alpha   90.63601815
_cell_angle_beta   90.00000000
_cell_angle_gamma   90.00000000
_symmetry_Int_Tables_number   1
_chemical_formula_structural   SrLaTiMnO6
_chemical_formula_sum   'Sr2 La2 Ti2 Mn2 O12'
_cell_volume   246.85317232
_cell_formula_units_Z   2
loop_
 _symmetry_equiv_pos_site_id
 _symmetry_equiv_pos_as_xyz
  1  'x, y, z'
loop_
 _atom_site_type_symbol
 _atom_site_label
 _atom_site_symmetry_multiplicity
 _atom_site_fract_x
 _atom_site_fract_y
 _atom_site_fract_z
 _atom_site_occupancy
  Sr  Sr0  1  0.007182  0.999118  0.250253  1
  Sr  Sr1  1  0.492818  0.499118  0.750253  1
  La  La2  1  0.512760  0.509831  0.250223  1
  La  La3  1  0.987240  0.009831  0.750223  1
  Ti  Ti4  1  0.498069  0.001248  0.501661  1
  Ti  Ti5  1  0.001931  0.501248  0.001661  1
  Mn  Mn6  1  0.499202  0.002674  0.000000  1
  Mn  Mn7  1  0.000798  0.502674  0.500000  1
  O  O8  1  0.004042  0.578300  0.745672  1
  O  O9  1  0.242475  0.226362  0.538104  1
  O  O10  1  0.228234  0.243504  0.960954  1
  O  O11  1  0.271766  0.743504  0.460954  1
  O  O12  1  0.257525  0.726362  0.038104  1
  O  O13  1  0.495958  0.078300  0.245672  1
  O  O14  1  0.506896  0.937688  0.754052  1
  O  O15  1  0.740361  0.242020  0.536356  1
  O  O16  1  0.754504  0.259256  0.962724  1
  O  O17  1  0.759639  0.742020  0.036356  1
  O  O18  1  0.745496  0.759256  0.462724  1
  O  O19  1  0.993104  0.437688  0.254052  1
