# generated using pymatgen
data_Er(FeSn)6
_symmetry_space_group_name_H-M   'P 1'
_cell_length_a   5.41583043
_cell_length_b   8.94895216
_cell_length_c   19.25721619
_cell_angle_alpha   103.43565419
_cell_angle_beta   90.00000000
_cell_angle_gamma   90.00000000
_symmetry_Int_Tables_number   1
_chemical_formula_structural   Er(FeSn)6
_chemical_formula_sum   'Er4 Fe24 Sn24'
_cell_volume   907.77678246
_cell_formula_units_Z   4
loop_
 _symmetry_equiv_pos_site_id
 _symmetry_equiv_pos_as_xyz
  1  'x, y, z'
loop_
 _atom_site_type_symbol
 _atom_site_label
 _atom_site_symmetry_multiplicity
 _atom_site_fract_x
 _atom_site_fract_y
 _atom_site_fract_z
 _atom_site_occupancy
  Fe  Fe0  1  -0.000083  0.878666  0.249882  1
  Fe  Fe1  1  0.499917  0.121334  0.750118  1
  Fe  Fe2  1  1.000083  0.628784  0.750118  1
  Fe  Fe3  1  0.500083  0.371216  0.249882  1
  Fe  Fe4  1  1.000083  0.121334  0.750118  1
  Fe  Fe5  1  0.500083  0.878666  0.249882  1
  Fe  Fe6  1  -0.000083  0.371216  0.249882  1
  Fe  Fe7  1  0.499917  0.628784  0.750118  1
  Fe  Fe8  1  0.000000  0.753532  0.000000  1
  Fe  Fe9  1  0.500000  0.246468  1.000000  1
  Fe  Fe10  1  0.000000  0.246468  1.000000  1
  Fe  Fe11  1  0.500000  0.753532  0.000000  1
  Fe  Fe12  1  0.750000  0.940116  0.375045  1
  Fe  Fe13  1  0.250000  0.059884  0.624955  1
  Fe  Fe14  1  0.250000  0.565072  0.624955  1
  Fe  Fe15  1  0.750000  0.434928  0.375045  1
  Fe  Fe16  1  0.750000  0.183744  0.874875  1
  Fe  Fe17  1  0.250000  0.816256  0.125125  1
  Fe  Fe18  1  0.250000  0.308870  0.125125  1
  Fe  Fe19  1  0.750000  0.691130  0.874875  1
  Fe  Fe20  1  0.000000  0.000000  0.500000  1
  Fe  Fe21  1  0.500000  0.000000  0.500000  1
  Fe  Fe22  1  0.000000  0.500000  0.500000  1
  Fe  Fe23  1  0.500000  0.500000  0.500000  1
  Sn  Sn24  1  0.750000  0.230241  0.460481  1
  Sn  Sn25  1  0.250000  0.769759  0.539519  1
  Sn  Sn26  1  0.750000  0.727534  0.455068  1
  Sn  Sn27  1  0.250000  0.272466  0.544932  1
  Sn  Sn28  1  0.750000  0.146490  0.292980  1
  Sn  Sn29  1  0.250000  0.853510  0.707020  1
  Sn  Sn30  1  0.750000  0.645066  0.290132  1
  Sn  Sn31  1  0.250000  0.354934  0.709868  1
  Sn  Sn32  1  0.750000  0.895372  0.790744  1
  Sn  Sn33  1  0.250000  0.104628  0.209256  1
  Sn  Sn34  1  0.750000  0.395928  0.791856  1
  Sn  Sn35  1  0.250000  0.604072  0.208144  1
  Sn  Sn36  1  0.750000  0.479194  0.958387  1
  Sn  Sn37  1  0.250000  0.520806  0.041613  1
  Sn  Sn38  1  0.750000  0.979138  0.958276  1
  Sn  Sn39  1  0.250000  0.020862  0.041724  1
  Sn  Sn40  1  0.750000  0.476447  0.625677  1
  Sn  Sn41  1  0.250000  0.523553  0.374323  1
  Sn  Sn42  1  0.250000  0.850771  0.374323  1
  Sn  Sn43  1  0.750000  0.149229  0.625677  1
  Sn  Sn44  1  0.750000  0.726166  0.124829  1
  Sn  Sn45  1  0.250000  0.273834  0.875171  1
  Sn  Sn46  1  0.250000  0.601337  0.875171  1
  Sn  Sn47  1  0.750000  0.398663  0.124829  1
  Er  Er48  1  0.750000  0.810930  0.621861  1
  Er  Er49  1  0.250000  0.189070  0.378139  1
  Er  Er50  1  0.750000  0.062800  0.125600  1
  Er  Er51  1  0.250000  0.937200  0.874400  1
