# generated using pymatgen
data_Na3Zr2Si2PO12
_symmetry_space_group_name_H-M   'P 1'
_cell_length_a   9.19571584
_cell_length_b   9.21035094
_cell_length_c   9.22022545
_cell_angle_alpha   60.33771466
_cell_angle_beta   60.25671674
_cell_angle_gamma   59.98416054
_symmetry_Int_Tables_number   1
_chemical_formula_structural   Na3Zr2Si2PO12
_chemical_formula_sum   'Na6 Zr4 Si4 P2 O24'
_cell_volume   554.58975858
_cell_formula_units_Z   2
loop_
 _symmetry_equiv_pos_site_id
 _symmetry_equiv_pos_as_xyz
  1  'x, y, z'
loop_
 _atom_site_type_symbol
 _atom_site_label
 _atom_site_symmetry_multiplicity
 _atom_site_fract_x
 _atom_site_fract_y
 _atom_site_fract_z
 _atom_site_occupancy
  Na  Na0  1  0.258710  0.127666  0.205357  1
  Na  Na1  1  0.483623  0.023052  0.501663  1
  Na  Na2  1  0.605580  0.389499  0.257053  1
  Na  Na3  1  0.381059  0.609722  0.757972  1
  Na  Na4  1  0.877020  0.740288  0.291764  1
  Na  Na5  1  0.984283  0.513198  0.996810  1
  O  O6  1  0.134960  0.002393  0.081340  1
  O  O7  1  0.011845  0.105876  0.582840  1
  O  O8  1  0.083221  0.429074  0.260483  1
  O  O9  1  0.291969  0.626158  0.053013  1
  O  O10  1  0.226245  0.506185  0.401486  1
  O  O11  1  0.427409  0.275405  0.232497  1
  O  O12  1  0.065366  0.773088  0.752534  1
  O  O13  1  0.436633  0.077538  0.750333  1
  O  O14  1  0.271137  0.420728  0.750253  1
  O  O15  1  0.774503  0.067037  0.239212  1
  O  O16  1  0.373765  0.710594  0.442777  1
  O  O17  1  0.499053  0.772109  0.095628  1
  O  O18  1  0.495110  0.199879  0.924911  1
  O  O19  1  0.621218  0.298784  0.573103  1
  O  O20  1  0.230303  0.926843  0.747429  1
  O  O21  1  0.729225  0.577193  0.267160  1
  O  O22  1  0.570590  0.918251  0.239922  1
  O  O23  1  0.938226  0.223476  0.259751  1
  O  O24  1  0.588722  0.713076  0.748906  1
  O  O25  1  0.806189  0.502875  0.581095  1
  O  O26  1  0.706595  0.384547  0.916247  1
  O  O27  1  0.910169  0.563489  0.750144  1
  O  O28  1  0.992151  0.864889  0.424016  1
  O  O29  1  0.895509  0.991458  0.916817  1
  P  P30  1  0.050440  0.949591  0.749956  1
  P  P31  1  0.754498  0.542065  0.750131  1
  Si  Si32  1  0.255922  0.460905  0.235131  1
  Si  Si33  1  0.453888  0.246184  0.748573  1
  Si  Si34  1  0.541954  0.745042  0.261771  1
  Si  Si35  1  0.958387  0.039127  0.252429  1
  Zr  Zr36  1  0.148248  0.639763  0.561475  1
  Zr  Zr37  1  0.650791  0.141492  0.058063  1
  Zr  Zr38  1  0.358343  0.857459  0.938329  1
  Zr  Zr39  1  0.857143  0.344004  0.441625  1
