# generated using pymatgen
data_Li3Cr2(PO4)3
_symmetry_space_group_name_H-M   'P 1'
_cell_length_a   8.76540796
_cell_length_b   8.57378163
_cell_length_c   8.76540797
_cell_angle_alpha   59.67084927
_cell_angle_beta   120.61054216
_cell_angle_gamma   120.32915070
_symmetry_Int_Tables_number   1
_chemical_formula_structural   Li3Cr2(PO4)3
_chemical_formula_sum   'Li6 Cr4 P6 O24'
_cell_volume   461.31642615
_cell_formula_units_Z   2
loop_
 _symmetry_equiv_pos_site_id
 _symmetry_equiv_pos_as_xyz
  1  'x, y, z'
loop_
 _atom_site_type_symbol
 _atom_site_label
 _atom_site_symmetry_multiplicity
 _atom_site_fract_x
 _atom_site_fract_y
 _atom_site_fract_z
 _atom_site_occupancy
  Li  Li0  1  0.317228  0.565889  0.942240  1
  Li  Li1  1  0.691166  0.419559  0.059959  1
  Li  Li2  1  0.940042  0.919560  0.308835  1
  Li  Li3  1  0.364665  0.239562  0.375374  1
  Li  Li4  1  0.624625  0.739561  0.635336  1
  Li  Li5  1  0.057759  0.065889  0.682771  1
  O  O6  1  0.293001  0.964287  0.377108  1
  O  O7  1  0.941646  0.264005  0.467297  1
  O  O8  1  0.985350  0.558167  0.111348  1
  O  O9  1  0.888652  0.058167  0.014650  1
  O  O10  1  0.113033  0.932905  0.983526  1
  O  O11  1  0.016474  0.432905  0.886968  1
  O  O12  1  0.061015  0.726509  0.531311  1
  O  O13  1  0.402286  0.747646  0.722683  1
  O  O14  1  0.473687  0.877764  0.241542  1
  O  O15  1  0.758539  0.723362  0.935109  1
  O  O16  1  0.244845  0.613092  0.472153  1
  O  O17  1  0.709000  0.026346  0.621496  1
  O  O18  1  0.277316  0.247647  0.597714  1
  O  O19  1  0.622893  0.464287  0.706999  1
  O  O20  1  0.601536  0.242107  0.275237  1
  O  O21  1  0.064891  0.223363  0.241461  1
  O  O22  1  0.937241  0.766963  0.756944  1
  O  O23  1  0.527847  0.113093  0.755155  1
  O  O24  1  0.378504  0.526346  0.291001  1
  O  O25  1  0.724763  0.742106  0.398464  1
  O  O26  1  0.532704  0.764005  0.058354  1
  O  O27  1  0.758458  0.377764  0.526313  1
  O  O28  1  0.243057  0.266964  0.062758  1
  O  O29  1  0.468690  0.226510  0.938986  1
  P  P30  1  0.956392  0.745663  0.954215  1
  P  P31  1  0.475813  0.259652  0.752188  1
  P  P32  1  0.525809  0.730746  0.245567  1
  P  P33  1  0.045785  0.245663  0.043607  1
  P  P34  1  0.247812  0.759653  0.524186  1
  P  P35  1  0.754433  0.230745  0.474192  1
  Cr  Cr36  1  0.358576  0.068476  0.146077  1
  Cr  Cr37  1  0.853924  0.568477  0.641425  1
  Cr  Cr38  1  0.147646  0.422756  0.356096  1
  Cr  Cr39  1  0.643903  0.922755  0.852354  1
