# generated using pymatgen
data_Sr(NdSe2)2
_symmetry_space_group_name_H-M   'P 1'
_cell_length_a   7.85567235
_cell_length_b   7.85567302
_cell_length_c   7.85567298
_cell_angle_alpha   109.45450096
_cell_angle_beta   109.50466464
_cell_angle_gamma   109.45450272
_symmetry_Int_Tables_number   1
_chemical_formula_structural   Sr(NdSe2)2
_chemical_formula_sum   'Sr2 Nd4 Se8'
_cell_volume   373.18840984
_cell_formula_units_Z   2
loop_
 _symmetry_equiv_pos_site_id
 _symmetry_equiv_pos_as_xyz
  1  'x, y, z'
loop_
 _atom_site_type_symbol
 _atom_site_label
 _atom_site_symmetry_multiplicity
 _atom_site_fract_x
 _atom_site_fract_y
 _atom_site_fract_z
 _atom_site_occupancy
  Nd  Nd0  1  0.250000  0.626254  0.376254  1
  Nd  Nd1  1  0.750000  0.873746  0.123746  1
  Nd  Nd2  1  0.623746  0.373746  0.250000  1
  Nd  Nd3  1  0.876254  0.126254  0.750000  1
  Se  Se4  1  0.143014  0.153025  0.144053  1
  Se  Se5  1  0.356986  0.501039  0.010012  1
  Se  Se6  1  0.644053  0.653025  0.643014  1
  Se  Se7  1  0.510012  0.001039  0.856986  1
  Se  Se8  1  0.508973  0.998961  0.355947  1
  Se  Se9  1  0.989988  0.846975  0.491027  1
  Se  Se10  1  0.855947  0.498961  0.008973  1
  Se  Se11  1  0.991027  0.346975  0.489988  1
  Sr  Sr12  1  0.125000  0.750000  0.875000  1
  Sr  Sr13  1  0.375000  0.250000  0.625000  1
