# generated using pymatgen
data_RbO2
_symmetry_space_group_name_H-M   'P 1'
_cell_length_a   7.86733671
_cell_length_b   10.40450277
_cell_length_c   6.80872056
_cell_angle_alpha   29.21086018
_cell_angle_beta   54.70827330
_cell_angle_gamma   40.87427444
_symmetry_Int_Tables_number   1
_chemical_formula_structural   RbO2
_chemical_formula_sum   'Rb2 O4'
_cell_volume   171.98825026
_cell_formula_units_Z   2
loop_
 _symmetry_equiv_pos_site_id
 _symmetry_equiv_pos_as_xyz
  1  'x, y, z'
loop_
 _atom_site_type_symbol
 _atom_site_label
 _atom_site_symmetry_multiplicity
 _atom_site_fract_x
 _atom_site_fract_y
 _atom_site_fract_z
 _atom_site_occupancy
  Rb  Rb0  1  0.750000  0.000000  0.500000  1
  Rb  Rb1  1  0.500000  0.500000  0.500000  1
  O  O2  1  0.023570  1.000000  0.952860  1
  O  O3  1  0.476430  0.000000  0.047140  1
  O  O4  1  0.226430  0.500000  0.047140  1
  O  O5  1  0.773570  0.500000  0.952860  1
