# generated using pymatgen
data_KPb2Br5
_symmetry_space_group_name_H-M   'P 1'
_cell_length_a   8.63404657
_cell_length_b   9.38485960
_cell_length_c   13.33691492
_cell_angle_alpha   89.76387297
_cell_angle_beta   90.00000000
_cell_angle_gamma   90.00000000
_symmetry_Int_Tables_number   1
_chemical_formula_structural   KPb2Br5
_chemical_formula_sum   'K4 Pb8 Br20'
_cell_volume   1080.67190109
_cell_formula_units_Z   4
loop_
 _symmetry_equiv_pos_site_id
 _symmetry_equiv_pos_as_xyz
  1  'x, y, z'
loop_
 _atom_site_type_symbol
 _atom_site_label
 _atom_site_symmetry_multiplicity
 _atom_site_fract_x
 _atom_site_fract_y
 _atom_site_fract_z
 _atom_site_occupancy
  K  K0  1  0.949082  0.490325  0.827280  1
  K  K1  1  0.449082  0.509675  0.672720  1
  K  K2  1  0.050918  0.509675  0.172720  1
  K  K3  1  0.550918  0.490325  0.327280  1
  Br  Br4  1  0.185022  0.235246  0.716540  1
  Br  Br5  1  0.852058  0.236906  0.311658  1
  Br  Br6  1  0.352058  0.763094  0.188342  1
  Br  Br7  1  0.147942  0.763094  0.688342  1
  Br  Br8  1  0.647942  0.236906  0.811658  1
  Br  Br9  1  0.814978  0.764754  0.283460  1
  Br  Br10  1  0.314978  0.235246  0.216540  1
  Br  Br11  1  0.957740  0.780458  0.002909  1
  Br  Br12  1  0.837934  0.039862  0.602105  1
  Br  Br13  1  0.337934  0.960138  0.897895  1
  Br  Br14  1  0.162066  0.960138  0.397895  1
  Br  Br15  1  0.662066  0.039862  0.102105  1
  Br  Br16  1  0.042260  0.219542  0.997091  1
  Br  Br17  1  0.457740  0.219542  0.497091  1
  Br  Br18  1  0.679228  0.460687  0.079275  1
  Br  Br19  1  0.542260  0.780458  0.502909  1
  Br  Br20  1  0.820772  0.460687  0.579275  1
  Br  Br21  1  0.320772  0.539313  0.920725  1
  Br  Br22  1  0.179228  0.539313  0.420725  1
  Br  Br23  1  0.685022  0.764754  0.783460  1
  Pb  Pb24  1  1.009030  0.986329  0.824706  1
  Pb  Pb25  1  0.934631  0.744075  0.504118  1
  Pb  Pb26  1  0.434631  0.255925  0.995882  1
  Pb  Pb27  1  0.065369  0.255925  0.495882  1
  Pb  Pb28  1  0.565369  0.744075  0.004118  1
  Pb  Pb29  1  0.490970  0.986329  0.324706  1
  Pb  Pb30  1  -0.009030  0.013671  0.175294  1
  Pb  Pb31  1  0.509030  0.013671  0.675294  1
