# generated using pymatgen
data_Ba2TaCrO6
_symmetry_space_group_name_H-M   'P 1'
_cell_length_a   5.81948654
_cell_length_b   5.81948654
_cell_length_c   19.14643665
_cell_angle_alpha   90.00000000
_cell_angle_beta   90.00000000
_cell_angle_gamma   120.00000000
_symmetry_Int_Tables_number   1
_chemical_formula_structural   Ba2TaCrO6
_chemical_formula_sum   'Ba8 Ta4 Cr4 O24'
_cell_volume   561.54934737
_cell_formula_units_Z   4
loop_
 _symmetry_equiv_pos_site_id
 _symmetry_equiv_pos_as_xyz
  1  'x, y, z'
loop_
 _atom_site_type_symbol
 _atom_site_label
 _atom_site_symmetry_multiplicity
 _atom_site_fract_x
 _atom_site_fract_y
 _atom_site_fract_z
 _atom_site_occupancy
  O  O0  1  0.170660  0.829340  0.879929  1
  O  O1  1  0.170660  0.341319  0.879929  1
  O  O2  1  0.658681  0.829340  0.879929  1
  O  O3  1  0.341320  0.170661  0.379929  1
  O  O4  1  0.829341  0.658682  0.120071  1
  O  O5  1  0.829341  0.170661  0.379929  1
  O  O6  1  0.829341  0.658682  0.379929  1
  O  O7  1  0.170660  0.829340  0.620070  1
  O  O8  1  0.658681  0.829340  0.620070  1
  O  O9  1  0.341320  0.170661  0.120071  1
  O  O10  1  0.829341  0.170661  0.120071  1
  O  O11  1  0.170660  0.341319  0.620070  1
  O  O12  1  0.849718  0.699436  0.750000  1
  O  O13  1  0.150282  0.849718  0.250000  1
  O  O14  1  0.699437  0.849718  0.250000  1
  O  O15  1  0.300564  0.150282  0.750000  1
  O  O16  1  0.500000  0.000000  0.000000  1
  O  O17  1  0.499999  0.500000  0.500000  1
  O  O18  1  0.000001  0.500000  0.500000  1
  O  O19  1  0.000001  0.500000  0.000000  1
  O  O20  1  0.849719  0.150282  0.750000  1
  O  O21  1  0.500000  0.000000  0.500000  1
  O  O22  1  0.150281  0.300563  0.250000  1
  O  O23  1  0.499999  0.500000  0.000000  1
  Cr  Cr24  1  0.000000  0.000000  0.818612  1
  Cr  Cr25  1  0.000000  0.000000  0.181388  1
  Cr  Cr26  1  0.000000  0.000000  0.681388  1
  Cr  Cr27  1  0.000000  0.000000  0.318612  1
  Ba  Ba28  1  0.000000  0.000000  0.000000  1
  Ba  Ba29  1  0.666667  0.333333  0.250000  1
  Ba  Ba30  1  0.333333  0.666666  0.750000  1
  Ba  Ba31  1  0.000000  0.000000  0.500000  1
  Ba  Ba32  1  0.333333  0.666666  0.142058  1
  Ba  Ba33  1  0.666667  0.333333  0.857942  1
  Ba  Ba34  1  0.666667  0.333333  0.642058  1
  Ba  Ba35  1  0.333333  0.666666  0.357942  1
  Ta  Ta36  1  0.333333  0.666666  0.563419  1
  Ta  Ta37  1  0.666667  0.333333  0.063419  1
  Ta  Ta38  1  0.666667  0.333333  0.436581  1
  Ta  Ta39  1  0.333333  0.666666  0.936581  1
