# generated using pymatgen
data_Dy2S3
_symmetry_space_group_name_H-M   'P 1'
_cell_length_a   21.60968594
_cell_length_b   8.32508580
_cell_length_c   8.32508545
_cell_angle_alpha   90.00000256
_cell_angle_beta   54.69900485
_cell_angle_gamma   54.69900655
_symmetry_Int_Tables_number   1
_chemical_formula_structural   Dy2S3
_chemical_formula_sum   'Dy16 S24'
_cell_volume   863.13525597
_cell_formula_units_Z   8
loop_
 _symmetry_equiv_pos_site_id
 _symmetry_equiv_pos_as_xyz
  1  'x, y, z'
loop_
 _atom_site_type_symbol
 _atom_site_label
 _atom_site_symmetry_multiplicity
 _atom_site_fract_x
 _atom_site_fract_y
 _atom_site_fract_z
 _atom_site_occupancy
  Dy  Dy0  1  0.085751  0.621373  0.371373  1
  Dy  Dy1  1  0.166667  0.250000  0.631162  1
  Dy  Dy2  1  0.339126  0.380204  0.250944  1
  Dy  Dy3  1  0.247582  0.878627  0.128627  1
  Dy  Dy4  1  0.166667  0.750000  0.868838  1
  Dy  Dy5  1  0.339126  0.102418  0.731677  1
  Dy  Dy6  1  0.494207  0.268323  0.619796  1
  Dy  Dy7  1  0.666667  0.368838  0.250000  1
  Dy  Dy8  1  0.585751  0.871373  0.121373  1
  Dy  Dy9  1  0.666667  0.131162  0.750000  1
  Dy  Dy10  1  0.494207  0.749056  0.897582  1
  Dy  Dy11  1  0.747582  0.628627  0.378627  1
  Dy  Dy12  1  0.839126  0.231677  0.602418  1
  Dy  Dy13  1  0.994207  0.397582  0.249056  1
  Dy  Dy14  1  0.839126  0.750944  0.880204  1
  Dy  Dy15  1  0.994207  0.119796  0.768323  1
  S  S16  1  0.128640  0.486532  0.991094  1
  S  S17  1  0.048125  0.357827  0.494086  1
  S  S18  1  0.285208  0.142173  0.138461  1
  S  S19  1  0.048125  0.997798  0.361539  1
  S  S20  1  0.285208  0.502202  0.005914  1
  S  S21  1  0.128640  0.627548  0.622987  1
  S  S22  1  0.204693  0.872452  0.508906  1
  S  S23  1  0.451309  0.494291  0.997219  1
  S  S24  1  0.382025  0.351146  0.505709  1
  S  S25  1  0.204693  0.013468  0.877013  1
  S  S26  1  0.628640  0.122987  0.127548  1
  S  S27  1  0.382025  0.002781  0.348217  1
  S  S28  1  0.628640  0.491094  0.986532  1
  S  S29  1  0.451309  0.651783  0.648854  1
  S  S30  1  0.548125  0.861539  0.497798  1
  S  S31  1  0.785208  0.505914  0.002202  1
  S  S32  1  0.704693  0.377013  0.513468  1
  S  S33  1  0.548125  0.994086  0.857827  1
  S  S34  1  0.704693  0.008906  0.372452  1
  S  S35  1  0.951309  0.148854  0.151783  1
  S  S36  1  0.951309  0.497219  0.994291  1
  S  S37  1  0.785208  0.638461  0.642173  1
  S  S38  1  0.882025  0.848217  0.502781  1
  S  S39  1  0.882025  0.005709  0.851146  1
