# generated using pymatgen
data_Ti9O8
_symmetry_space_group_name_H-M   'P 1'
_cell_length_a   6.05961793
_cell_length_b   26.99234591
_cell_length_c   7.96188120
_cell_angle_alpha   19.29978208
_cell_angle_beta   55.05446419
_cell_angle_gamma   59.89221066
_symmetry_Int_Tables_number   1
_chemical_formula_structural   Ti9O8
_chemical_formula_sum   'Ti18 O16'
_cell_volume   349.13887685
_cell_formula_units_Z   2
loop_
 _symmetry_equiv_pos_site_id
 _symmetry_equiv_pos_as_xyz
  1  'x, y, z'
loop_
 _atom_site_type_symbol
 _atom_site_label
 _atom_site_symmetry_multiplicity
 _atom_site_fract_x
 _atom_site_fract_y
 _atom_site_fract_z
 _atom_site_occupancy
  Ti  Ti0  1  0.979032  0.004060  0.999834  1
  Ti  Ti1  1  0.016592  0.096016  0.048462  1
  Ti  Ti2  1  0.029362  0.237749  0.953439  1
  Ti  Ti3  1  0.470900  0.095033  0.048165  1
  Ti  Ti4  1  0.482824  0.237161  0.951990  1
  Ti  Ti5  1  0.974081  0.449295  0.977425  1
  Ti  Ti6  1  0.521013  0.329707  0.998767  1
  Ti  Ti7  1  0.019151  0.542113  0.044189  1
  Ti  Ti8  1  0.491853  0.440831  0.031410  1
  Ti  Ti9  1  0.009510  0.341447  0.964661  1
  Ti  Ti10  1  0.481360  0.542725  0.037373  1
  Ti  Ti11  1  0.494098  0.690231  0.923138  1
  Ti  Ti12  1  0.008146  0.892636  0.968289  1
  Ti  Ti13  1  0.481528  0.791302  0.955320  1
  Ti  Ti14  1  0.006115  0.643166  0.076358  1
  Ti  Ti15  1  0.525309  0.883940  0.023432  1
  Ti  Ti16  1  0.018688  0.790969  0.961556  1
  Ti  Ti17  1  0.490678  0.991681  0.035782  1
  O  O18  1  0.255534  0.048740  0.525170  1
  O  O19  1  0.250271  0.166735  0.499791  1
  O  O20  1  0.750222  0.069603  0.459052  1
  O  O21  1  0.244705  0.284443  0.475135  1
  O  O22  1  0.749615  0.166770  0.499708  1
  O  O23  1  0.749514  0.263748  0.540818  1
  O  O24  1  0.279765  0.496291  0.510917  1
  O  O25  1  0.761973  0.389571  0.487178  1
  O  O26  1  0.248835  0.606337  0.510877  1
  O  O27  1  0.725683  0.507411  0.484583  1
  O  O28  1  0.251139  0.727088  0.488747  1
  O  O29  1  0.742999  0.627203  0.452733  1
  O  O30  1  0.219629  0.836979  0.489788  1
  O  O31  1  0.757455  0.706140  0.547087  1
  O  O32  1  0.774587  0.825904  0.515438  1
  O  O33  1  0.737835  0.943641  0.513386  1
