# generated using pymatgen
data_Rb6C5
_symmetry_space_group_name_H-M   'P 1'
_cell_length_a   7.92562857
_cell_length_b   7.92562884
_cell_length_c   7.93759229
_cell_angle_alpha   90.00000000
_cell_angle_beta   90.00000000
_cell_angle_gamma   119.99999892
_symmetry_Int_Tables_number   1
_chemical_formula_structural   Rb6C5
_chemical_formula_sum   'Rb6 C5'
_cell_volume   431.80420774
_cell_formula_units_Z   1
loop_
 _symmetry_equiv_pos_site_id
 _symmetry_equiv_pos_as_xyz
  1  'x, y, z'
loop_
 _atom_site_type_symbol
 _atom_site_label
 _atom_site_symmetry_multiplicity
 _atom_site_fract_x
 _atom_site_fract_y
 _atom_site_fract_z
 _atom_site_occupancy
  C  C0  1  0.333333  0.666667  0.758962  1
  C  C1  1  0.000000  0.000000  0.500000  1
  C  C2  1  0.666667  0.333333  0.241038  1
  C  C3  1  0.666667  0.333333  0.758962  1
  C  C4  1  0.333333  0.666667  0.241038  1
  Rb  Rb5  1  0.000000  0.617436  0.500000  1
  Rb  Rb6  1  0.382564  0.382564  0.500000  1
  Rb  Rb7  1  0.000000  0.374843  0.000000  1
  Rb  Rb8  1  0.625157  0.625157  0.000000  1
  Rb  Rb9  1  0.374843  0.000000  0.000000  1
  Rb  Rb10  1  0.617436  0.000000  0.500000  1
