# generated using pymatgen
data_ErAl4Ni
_symmetry_space_group_name_H-M   'P 1'
_cell_length_a   4.08736055
_cell_length_b   6.51524926
_cell_length_c   7.94166070
_cell_angle_alpha   90.00000000
_cell_angle_beta   104.91209168
_cell_angle_gamma   90.00000000
_symmetry_Int_Tables_number   1
_chemical_formula_structural   ErAl4Ni
_chemical_formula_sum   'Er2 Al8 Ni2'
_cell_volume   204.36526720
_cell_formula_units_Z   2
loop_
 _symmetry_equiv_pos_site_id
 _symmetry_equiv_pos_as_xyz
  1  'x, y, z'
loop_
 _atom_site_type_symbol
 _atom_site_label
 _atom_site_symmetry_multiplicity
 _atom_site_fract_x
 _atom_site_fract_y
 _atom_site_fract_z
 _atom_site_occupancy
  Er  Er0  1  0.118399  0.750000  0.236798  1
  Er  Er1  1  0.881601  0.250000  0.763202  1
  Al  Al2  1  0.925308  0.750000  0.850617  1
  Al  Al3  1  0.688303  0.448807  0.376607  1
  Al  Al4  1  0.074692  0.250000  0.149383  1
  Al  Al5  1  0.311697  0.948807  0.623393  1
  Al  Al6  1  0.500000  0.000000  -0.000000  1
  Al  Al7  1  0.688303  0.051193  0.376607  1
  Al  Al8  1  0.500000  0.500000  -0.000000  1
  Al  Al9  1  0.311697  0.551193  0.623393  1
  Ni  Ni10  1  0.224488  0.250000  0.448977  1
  Ni  Ni11  1  0.775512  0.750000  0.551023  1
