# generated using pymatgen
data_La5AgSe8
_symmetry_space_group_name_H-M   'P 1'
_cell_length_a   7.86342972
_cell_length_b   7.86343007
_cell_length_c   7.86343042
_cell_angle_alpha   109.83466266
_cell_angle_beta   109.83466089
_cell_angle_gamma   108.74675558
_symmetry_Int_Tables_number   1
_chemical_formula_structural   La5AgSe8
_chemical_formula_sum   'La5 Ag1 Se8'
_cell_volume   374.25034639
_cell_formula_units_Z   1
loop_
 _symmetry_equiv_pos_site_id
 _symmetry_equiv_pos_as_xyz
  1  'x, y, z'
loop_
 _atom_site_type_symbol
 _atom_site_label
 _atom_site_symmetry_multiplicity
 _atom_site_fract_x
 _atom_site_fract_y
 _atom_site_fract_z
 _atom_site_occupancy
  Ag  Ag0  1  0.875000  0.125000  0.750000  1
  La  La1  1  0.112536  0.745467  0.869613  1
  La  La2  1  0.254533  0.624146  0.367069  1
  La  La3  1  0.375854  0.242923  0.630387  1
  La  La4  1  0.625000  0.375000  0.250000  1
  La  La5  1  0.757077  0.887464  0.132931  1
  Se  Se6  1  0.483834  0.992554  0.854203  1
  Se  Se7  1  0.147752  0.147698  0.137306  1
  Se  Se8  1  0.370369  0.516166  0.008720  1
  Se  Se9  1  0.638351  0.629631  0.645797  1
  Se  Se10  1  0.510392  0.010446  0.362694  1
  Se  Se11  1  0.989554  0.852248  0.499945  1
  Se  Se12  1  0.852302  0.489608  1.000055  1
  Se  Se13  1  0.007446  0.361649  0.491280  1
