# generated using pymatgen
data_NdO3
_symmetry_space_group_name_H-M   'P 1'
_cell_length_a   3.40951589
_cell_length_b   8.99866420
_cell_length_c   6.57918951
_cell_angle_alpha   36.90104426
_cell_angle_beta   105.01747696
_cell_angle_gamma   112.26502628
_symmetry_Int_Tables_number   1
_chemical_formula_structural   NdO3
_chemical_formula_sum   'Nd2 O6'
_cell_volume   111.81491320
_cell_formula_units_Z   2
loop_
 _symmetry_equiv_pos_site_id
 _symmetry_equiv_pos_as_xyz
  1  'x, y, z'
loop_
 _atom_site_type_symbol
 _atom_site_label
 _atom_site_symmetry_multiplicity
 _atom_site_fract_x
 _atom_site_fract_y
 _atom_site_fract_z
 _atom_site_occupancy
  Nd  Nd0  1  0.293388  0.573946  0.438883  1
  Nd  Nd1  1  0.706612  0.926054  0.561117  1
  O  O2  1  0.348928  0.944472  0.808913  1
  O  O3  1  0.000000  0.250000  0.500000  1
  O  O4  1  0.713493  0.228971  0.969043  1
  O  O5  1  0.286507  0.271029  0.030957  1
  O  O6  1  0.000000  0.750000  0.500000  1
  O  O7  1  0.651072  0.555528  0.191087  1
