# generated using pymatgen
data_BaCd11
_symmetry_space_group_name_H-M   'P 1'
_cell_length_a   7.90120425
_cell_length_b   9.52102912
_cell_length_c   9.52102912
_cell_angle_alpha   80.08595812
_cell_angle_beta   65.48481717
_cell_angle_gamma   65.48481712
_symmetry_Int_Tables_number   1
_chemical_formula_structural   BaCd11
_chemical_formula_sum   'Ba2 Cd22'
_cell_volume   592.92800358
_cell_formula_units_Z   2
loop_
 _symmetry_equiv_pos_site_id
 _symmetry_equiv_pos_as_xyz
  1  'x, y, z'
loop_
 _atom_site_type_symbol
 _atom_site_label
 _atom_site_symmetry_multiplicity
 _atom_site_fract_x
 _atom_site_fract_y
 _atom_site_fract_z
 _atom_site_occupancy
  Cd  Cd0  1  0.869041  0.333681  0.075581  1
  Cd  Cd1  1  0.278303  0.166319  0.424419  1
  Cd  Cd2  1  0.125000  0.750000  0.250000  1
  Cd  Cd3  1  0.875000  0.250000  0.750000  1
  Cd  Cd4  1  0.000000  0.000000  0.000000  1
  Cd  Cd5  1  0.500000  0.500000  0.000000  1
  Cd  Cd6  1  0.000000  0.000000  0.500000  1
  Cd  Cd7  1  0.000000  0.500000  0.500000  1
  Cd  Cd8  1  0.278303  0.924419  0.666319  1
  Cd  Cd9  1  0.444622  0.833681  0.924419  1
  Cd  Cd10  1  0.202723  0.666319  0.575581  1
  Cd  Cd11  1  0.869041  0.575581  0.833681  1
  Cd  Cd12  1  0.797277  0.924419  0.833681  1
  Cd  Cd13  1  0.555378  0.575581  0.666319  1
  Cd  Cd14  1  0.721697  0.833681  0.575581  1
  Cd  Cd15  1  0.130959  0.666319  0.924419  1
  Cd  Cd16  1  0.721697  0.075581  0.333681  1
  Cd  Cd17  1  0.555378  0.166319  0.075581  1
  Cd  Cd18  1  0.797277  0.333681  0.424419  1
  Cd  Cd19  1  0.130959  0.424419  0.166319  1
  Cd  Cd20  1  0.202723  0.075581  0.166319  1
  Cd  Cd21  1  0.444622  0.424419  0.333681  1
  Ba  Ba22  1  0.625000  0.750000  0.250000  1
  Ba  Ba23  1  0.375000  0.250000  0.750000  1
