# generated using pymatgen
data_Er2Pd2Pb
_symmetry_space_group_name_H-M   'P 1'
_cell_length_a   3.55263918
_cell_length_b   7.93274402
_cell_length_c   7.93274402
_cell_angle_alpha   90.00000000
_cell_angle_beta   90.00000000
_cell_angle_gamma   90.00000000
_symmetry_Int_Tables_number   1
_chemical_formula_structural   Er2Pd2Pb
_chemical_formula_sum   'Er4 Pd4 Pb2'
_cell_volume   223.56199774
_cell_formula_units_Z   2
loop_
 _symmetry_equiv_pos_site_id
 _symmetry_equiv_pos_as_xyz
  1  'x, y, z'
loop_
 _atom_site_type_symbol
 _atom_site_label
 _atom_site_symmetry_multiplicity
 _atom_site_fract_x
 _atom_site_fract_y
 _atom_site_fract_z
 _atom_site_occupancy
  Pd  Pd0  1  0.000000  0.126282  0.373717  1
  Pd  Pd1  1  0.000000  0.626282  0.126282  1
  Pd  Pd2  1  0.000000  0.873718  0.626282  1
  Pd  Pd3  1  0.000000  0.373717  0.873718  1
  Er  Er4  1  0.500000  0.169114  0.669114  1
  Er  Er5  1  0.500000  0.330886  0.169114  1
  Er  Er6  1  0.500000  0.669114  0.830886  1
  Er  Er7  1  0.500000  0.830886  0.330886  1
  Pb  Pb8  1  0.000000  0.000000  0.000000  1
  Pb  Pb9  1  0.000000  0.500000  0.500000  1
