# generated using pymatgen
data_Zr3(Mn2Si3)2
_symmetry_space_group_name_H-M   'P 1'
_cell_length_a   5.09150570
_cell_length_b   17.13424812
_cell_length_c   17.13424812
_cell_angle_alpha   90.00000000
_cell_angle_beta   90.00000000
_cell_angle_gamma   90.00000000
_symmetry_Int_Tables_number   1
_chemical_formula_structural   Zr3(Mn2Si3)2
_chemical_formula_sum   'Zr24 Mn32 Si48'
_cell_volume   1494.77676157
_cell_formula_units_Z   8
loop_
 _symmetry_equiv_pos_site_id
 _symmetry_equiv_pos_as_xyz
  1  'x, y, z'
loop_
 _atom_site_type_symbol
 _atom_site_label
 _atom_site_symmetry_multiplicity
 _atom_site_fract_x
 _atom_site_fract_y
 _atom_site_fract_z
 _atom_site_occupancy
  Si  Si0  1  0.000000  0.023599  0.435111  1
  Si  Si1  1  0.500000  0.564889  0.023599  1
  Si  Si2  1  0.500000  0.435111  0.976401  1
  Si  Si3  1  0.000000  0.976401  0.564889  1
  Si  Si4  1  0.000000  0.523599  0.064889  1
  Si  Si5  1  0.000000  0.476401  0.935111  1
  Si  Si6  1  0.500000  0.935111  0.523599  1
  Si  Si7  1  0.500000  0.064889  0.476401  1
  Si  Si8  1  0.000000  0.061924  0.030998  1
  Si  Si9  1  0.500000  0.969002  0.061924  1
  Si  Si10  1  0.500000  0.030998  0.938076  1
  Si  Si11  1  0.000000  0.938076  0.969002  1
  Si  Si12  1  0.000000  0.561924  0.469002  1
  Si  Si13  1  0.000000  0.438076  0.530998  1
  Si  Si14  1  0.500000  0.530998  0.561924  1
  Si  Si15  1  0.500000  0.469002  0.438076  1
  Si  Si16  1  0.000000  0.130021  0.247781  1
  Si  Si17  1  0.500000  0.752219  0.130021  1
  Si  Si18  1  0.500000  0.247781  0.869979  1
  Si  Si19  1  0.000000  0.869979  0.752219  1
  Si  Si20  1  0.000000  0.630021  0.252219  1
  Si  Si21  1  0.000000  0.369979  0.747781  1
  Si  Si22  1  0.500000  0.747781  0.630021  1
  Si  Si23  1  0.500000  0.252219  0.369979  1
  Si  Si24  1  0.000000  0.224819  0.452095  1
  Si  Si25  1  0.500000  0.547905  0.224819  1
  Si  Si26  1  0.500000  0.452095  0.775181  1
  Si  Si27  1  0.000000  0.775181  0.547905  1
  Si  Si28  1  0.000000  0.724819  0.047905  1
  Si  Si29  1  0.000000  0.275181  0.952095  1
  Si  Si30  1  0.500000  0.952095  0.724819  1
  Si  Si31  1  0.500000  0.047905  0.275181  1
  Si  Si32  1  0.000000  0.432107  0.363824  1
  Si  Si33  1  0.500000  0.636176  0.432107  1
  Si  Si34  1  0.500000  0.363824  0.567893  1
  Si  Si35  1  0.000000  0.567893  0.636176  1
  Si  Si36  1  0.000000  0.932107  0.136176  1
  Si  Si37  1  0.000000  0.067893  0.863824  1
  Si  Si38  1  0.500000  0.863824  0.932107  1
  Si  Si39  1  0.500000  0.136176  0.067893  1
  Si  Si40  1  0.250000  0.161666  0.661666  1
  Si  Si41  1  0.750000  0.338334  0.161666  1
  Si  Si42  1  0.750000  0.661666  0.838334  1
  Si  Si43  1  0.250000  0.838334  0.338334  1
  Si  Si44  1  0.750000  0.838334  0.338334  1
  Si  Si45  1  0.250000  0.661666  0.838334  1
  Si  Si46  1  0.250000  0.338334  0.161666  1
  Si  Si47  1  0.750000  0.161666  0.661666  1
  Mn  Mn48  1  0.251128  0.051931  0.154031  1
  Mn  Mn49  1  0.751128  0.845969  0.051931  1
  Mn  Mn50  1  0.751128  0.154031  0.948069  1
  Mn  Mn51  1  0.251128  0.948069  0.845969  1
  Mn  Mn52  1  0.748872  0.551931  0.345969  1
  Mn  Mn53  1  0.748872  0.448069  0.654031  1
  Mn  Mn54  1  0.248872  0.654031  0.551931  1
  Mn  Mn55  1  0.248872  0.345969  0.448069  1
  Mn  Mn56  1  0.748872  0.948069  0.845969  1
  Mn  Mn57  1  0.248872  0.154031  0.948069  1
  Mn  Mn58  1  0.248872  0.845969  0.051931  1
  Mn  Mn59  1  0.748872  0.051931  0.154031  1
  Mn  Mn60  1  0.251128  0.448069  0.654031  1
  Mn  Mn61  1  0.251128  0.551931  0.345969  1
  Mn  Mn62  1  0.751128  0.345969  0.448069  1
  Mn  Mn63  1  0.751128  0.654031  0.551931  1
  Mn  Mn64  1  0.000000  0.385027  0.044083  1
  Mn  Mn65  1  0.500000  0.955917  0.385027  1
  Mn  Mn66  1  0.500000  0.044083  0.614973  1
  Mn  Mn67  1  0.000000  0.614973  0.955917  1
  Mn  Mn68  1  0.000000  0.885027  0.455917  1
  Mn  Mn69  1  0.000000  0.114973  0.544083  1
  Mn  Mn70  1  0.500000  0.544083  0.885027  1
  Mn  Mn71  1  0.500000  0.455917  0.114973  1
  Mn  Mn72  1  0.250000  0.626225  0.126225  1
  Mn  Mn73  1  0.750000  0.873775  0.626225  1
  Mn  Mn74  1  0.750000  0.126225  0.373775  1
  Mn  Mn75  1  0.250000  0.373775  0.873775  1
  Mn  Mn76  1  0.750000  0.373775  0.873775  1
  Mn  Mn77  1  0.250000  0.126225  0.373775  1
  Mn  Mn78  1  0.250000  0.873775  0.626225  1
  Mn  Mn79  1  0.750000  0.626225  0.126225  1
  Zr  Zr80  1  0.000000  0.204168  0.101877  1
  Zr  Zr81  1  0.500000  0.898123  0.204168  1
  Zr  Zr82  1  0.500000  0.101877  0.795832  1
  Zr  Zr83  1  0.000000  0.795832  0.898123  1
  Zr  Zr84  1  0.000000  0.704168  0.398123  1
  Zr  Zr85  1  0.000000  0.295832  0.601877  1
  Zr  Zr86  1  0.500000  0.601877  0.704168  1
  Zr  Zr87  1  0.500000  0.398123  0.295832  1
  Zr  Zr88  1  0.000000  0.282455  0.298868  1
  Zr  Zr89  1  0.500000  0.701132  0.282455  1
  Zr  Zr90  1  0.500000  0.298868  0.717545  1
  Zr  Zr91  1  0.000000  0.717545  0.701132  1
  Zr  Zr92  1  0.000000  0.782455  0.201132  1
  Zr  Zr93  1  0.000000  0.217545  0.798868  1
  Zr  Zr94  1  0.500000  0.798868  0.782455  1
  Zr  Zr95  1  0.500000  0.201132  0.217545  1
  Zr  Zr96  1  0.000000  0.473988  0.209818  1
  Zr  Zr97  1  0.500000  0.790182  0.473988  1
  Zr  Zr98  1  0.500000  0.209818  0.526012  1
  Zr  Zr99  1  0.000000  0.526012  0.790182  1
  Zr  Zr100  1  0.000000  0.973988  0.290182  1
  Zr  Zr101  1  0.000000  0.026012  0.709818  1
  Zr  Zr102  1  0.500000  0.709818  0.973988  1
  Zr  Zr103  1  0.500000  0.290182  0.026012  1
