# generated using pymatgen
data_Ce(Ni2Sn)2
_symmetry_space_group_name_H-M   'P 1'
_cell_length_a   6.29175705
_cell_length_b   6.29175705
_cell_length_c   6.29175705
_cell_angle_alpha   106.17905720
_cell_angle_beta   111.14196056
_cell_angle_gamma   111.14196056
_symmetry_Int_Tables_number   1
_chemical_formula_structural   Ce(Ni2Sn)2
_chemical_formula_sum   'Ce2 Ni8 Sn4'
_cell_volume   191.26044109
_cell_formula_units_Z   2
loop_
 _symmetry_equiv_pos_site_id
 _symmetry_equiv_pos_as_xyz
  1  'x, y, z'
loop_
 _atom_site_type_symbol
 _atom_site_label
 _atom_site_symmetry_multiplicity
 _atom_site_fract_x
 _atom_site_fract_y
 _atom_site_fract_z
 _atom_site_occupancy
  Ni  Ni0  1  0.283060  0.551187  0.565128  1
  Ni  Ni1  1  0.013941  0.731873  0.448813  1
  Ni  Ni2  1  0.283060  0.231873  0.217932  1
  Ni  Ni3  1  0.013941  0.782068  0.065128  1
  Ni  Ni4  1  0.986059  0.051187  0.768127  1
  Ni  Ni5  1  0.986059  0.434872  0.717932  1
  Ni  Ni6  1  0.716940  0.282068  0.268127  1
  Ni  Ni7  1  0.716940  0.934872  0.948813  1
  Sn  Sn8  1  0.000000  0.407265  0.092735  1
  Sn  Sn9  1  1.000000  0.092735  0.407265  1
  Sn  Sn10  1  0.685470  0.592735  0.592735  1
  Sn  Sn11  1  0.314530  0.907265  0.907265  1
  Ce  Ce12  1  0.500000  0.000000  0.500000  1
  Ce  Ce13  1  0.500000  0.500000  0.000000  1
