# generated using pymatgen
data_Na2CaPO4F
_symmetry_space_group_name_H-M   'P 1'
_cell_length_a   14.19755021
_cell_length_b   14.29540886
_cell_length_c   14.19755061
_cell_angle_alpha   29.05932173
_cell_angle_beta   28.85437896
_cell_angle_gamma   29.05932216
_symmetry_Int_Tables_number   1
_chemical_formula_structural   Na2CaPO4F
_chemical_formula_sum   'Na10 Ca5 P5 O20 F5'
_cell_volume   598.67711821
_cell_formula_units_Z   5
loop_
 _symmetry_equiv_pos_site_id
 _symmetry_equiv_pos_as_xyz
  1  'x, y, z'
loop_
 _atom_site_type_symbol
 _atom_site_label
 _atom_site_symmetry_multiplicity
 _atom_site_fract_x
 _atom_site_fract_y
 _atom_site_fract_z
 _atom_site_occupancy
  Ca  Ca0  1  0.581890  0.042089  0.581890  1
  Ca  Ca1  1  0.308531  0.786573  0.308531  1
  Ca  Ca2  1  0.685564  0.237382  0.685564  1
  Ca  Ca3  1  0.450115  0.908895  0.450115  1
  Ca  Ca4  1  0.825536  0.357869  0.825536  1
  F  F5  1  0.427523  0.426974  0.427523  1
  F  F6  1  0.496864  0.507811  0.496864  1
  F  F7  1  0.572087  0.567125  0.572087  1
  F  F8  1  0.636559  0.638545  0.636559  1
  F  F9  1  0.702919  0.701992  0.702919  1
  Na  Na10  1  0.047184  0.576086  0.581396  1
  Na  Na11  1  0.581396  0.576086  0.047184  1
  Na  Na12  1  0.289828  0.314784  0.801375  1
  Na  Na13  1  0.801375  0.314784  0.289828  1
  Na  Na14  1  0.212394  0.694057  0.705961  1
  Na  Na15  1  0.705961  0.694057  0.212394  1
  Na  Na16  1  0.433012  0.447667  0.928860  1
  Na  Na17  1  0.928860  0.447667  0.433012  1
  Na  Na18  1  0.345006  0.818852  0.842711  1
  Na  Na19  1  0.842711  0.818852  0.345006  1
  O  O20  1  0.027725  0.031543  0.027725  1
  O  O21  1  0.173008  0.136852  0.173008  1
  O  O22  1  0.305078  0.272795  0.305078  1
  O  O23  1  0.109949  0.452504  0.470825  1
  O  O24  1  0.470203  0.100209  0.470203  1
  O  O25  1  0.470825  0.452504  0.109949  1
  O  O26  1  0.052852  0.706677  0.688212  1
  O  O27  1  0.692617  0.062382  0.692617  1
  O  O28  1  0.688212  0.706677  0.052852  1
  O  O29  1  0.333536  0.324128  0.974216  1
  O  O30  1  0.335290  0.972313  0.335290  1
  O  O31  1  0.974216  0.324128  0.333536  1
  O  O32  1  0.181498  0.831914  0.821276  1
  O  O33  1  0.821276  0.831914  0.181498  1
  O  O34  1  0.827373  0.189805  0.827373  1
  O  O35  1  0.317237  0.964908  0.962113  1
  O  O36  1  0.962113  0.964908  0.317237  1
  O  O37  1  0.959386  0.318766  0.959386  1
  O  O38  1  0.764231  0.771177  0.764231  1
  O  O39  1  0.880848  0.923747  0.880848  1
  P  P40  1  0.065138  0.071769  0.065138  1
  P  P41  1  0.204248  0.189631  0.204248  1
  P  P42  1  0.338642  0.320519  0.338642  1
  P  P43  1  0.799505  0.813270  0.799505  1
  P  P44  1  0.927680  0.944812  0.927680  1
