# generated using pymatgen
data_Cs3BS3
_symmetry_space_group_name_H-M   'P 1'
_cell_length_a   6.74323857
_cell_length_b   10.86465492
_cell_length_c   13.84288799
_cell_angle_alpha   102.86503621
_cell_angle_beta   90.00000000
_cell_angle_gamma   90.00000000
_symmetry_Int_Tables_number   1
_chemical_formula_structural   Cs3BS3
_chemical_formula_sum   'Cs12 B4 S12'
_cell_volume   988.71246808
_cell_formula_units_Z   4
loop_
 _symmetry_equiv_pos_site_id
 _symmetry_equiv_pos_as_xyz
  1  'x, y, z'
loop_
 _atom_site_type_symbol
 _atom_site_label
 _atom_site_symmetry_multiplicity
 _atom_site_fract_x
 _atom_site_fract_y
 _atom_site_fract_z
 _atom_site_occupancy
  B  B0  1  0.126986  0.764933  0.373797  1
  B  B1  1  0.626986  0.235067  0.126203  1
  B  B2  1  0.873014  0.235067  0.626203  1
  B  B3  1  0.373014  0.764933  0.873797  1
  S  S4  1  0.943435  0.720569  0.272921  1
  S  S5  1  0.443435  0.279431  0.227079  1
  S  S6  1  0.056565  0.279431  0.727079  1
  S  S7  1  0.556565  0.720569  0.772921  1
  S  S8  1  0.286541  0.904455  0.381467  1
  S  S9  1  0.786541  0.095545  0.118533  1
  S  S10  1  0.713459  0.095545  0.618533  1
  S  S11  1  0.213459  0.904455  0.881467  1
  S  S12  1  0.345371  0.666184  0.964970  1
  S  S13  1  0.845371  0.333816  0.535030  1
  S  S14  1  0.654629  0.333816  0.035030  1
  S  S15  1  0.154629  0.666184  0.464970  1
  Cs  Cs16  1  0.648447  0.746087  0.508739  1
  Cs  Cs17  1  0.148447  0.253913  0.991261  1
  Cs  Cs18  1  0.351553  0.253913  0.491261  1
  Cs  Cs19  1  0.851553  0.746087  0.008739  1
  Cs  Cs20  1  0.286044  0.968074  0.142285  1
  Cs  Cs21  1  0.786044  0.031926  0.357715  1
  Cs  Cs22  1  0.713956  0.031926  0.857715  1
  Cs  Cs23  1  0.213956  0.968074  0.642285  1
  Cs  Cs24  1  0.447710  0.596514  0.197615  1
  Cs  Cs25  1  0.947710  0.403486  0.302385  1
  Cs  Cs26  1  0.552290  0.403486  0.802385  1
  Cs  Cs27  1  0.052290  0.596514  0.697615  1
