# generated using pymatgen
data_Rb4SnS4
_symmetry_space_group_name_H-M   'P 1'
_cell_length_a   13.67538555
_cell_length_b   13.67538555
_cell_length_c   13.67538555
_cell_angle_alpha   90.00000000
_cell_angle_beta   90.00000000
_cell_angle_gamma   90.00000000
_symmetry_Int_Tables_number   1
_chemical_formula_structural   Rb4SnS4
_chemical_formula_sum   'Rb32 Sn8 S32'
_cell_volume   2557.51822803
_cell_formula_units_Z   8
loop_
 _symmetry_equiv_pos_site_id
 _symmetry_equiv_pos_as_xyz
  1  'x, y, z'
loop_
 _atom_site_type_symbol
 _atom_site_label
 _atom_site_symmetry_multiplicity
 _atom_site_fract_x
 _atom_site_fract_y
 _atom_site_fract_z
 _atom_site_occupancy
  S  S0  1  0.653467  0.901875  0.611747  1
  S  S1  1  0.653467  0.098125  0.388253  1
  S  S2  1  0.901875  0.611747  0.653467  1
  S  S3  1  0.098125  0.611747  0.346533  1
  S  S4  1  0.611747  0.653467  0.901875  1
  S  S5  1  0.388253  0.346533  0.901875  1
  S  S6  1  0.846533  0.888253  0.401875  1
  S  S7  1  0.846533  0.111747  0.598125  1
  S  S8  1  0.153467  0.888253  0.598125  1
  S  S9  1  0.111747  0.598125  0.846533  1
  S  S10  1  0.598125  0.153467  0.888253  1
  S  S11  1  0.598125  0.846533  0.111747  1
  S  S12  1  0.888253  0.401875  0.846533  1
  S  S13  1  0.401875  0.846533  0.888253  1
  S  S14  1  0.888253  0.598125  0.153467  1
  S  S15  1  0.111747  0.401875  0.153467  1
  S  S16  1  0.401875  0.153467  0.111747  1
  S  S17  1  0.388253  0.653467  0.098125  1
  S  S18  1  0.611747  0.346533  0.098125  1
  S  S19  1  0.901875  0.388253  0.346533  1
  S  S20  1  0.098125  0.388253  0.653467  1
  S  S21  1  0.346533  0.098125  0.611747  1
  S  S22  1  0.346533  0.901875  0.388253  1
  S  S23  1  0.153467  0.111747  0.401875  1
  S  S24  1  0.897867  0.897867  0.897867  1
  S  S25  1  0.602133  0.397867  0.602133  1
  S  S26  1  0.397867  0.602133  0.602133  1
  S  S27  1  0.602133  0.602133  0.397867  1
  S  S28  1  0.897867  0.102133  0.102133  1
  S  S29  1  0.102133  0.102133  0.897867  1
  S  S30  1  0.102133  0.897867  0.102133  1
  S  S31  1  0.397867  0.397867  0.397867  1
  Rb  Rb32  1  0.915924  0.863424  0.652607  1
  Rb  Rb33  1  0.915924  0.136576  0.347393  1
  Rb  Rb34  1  0.863424  0.652607  0.915924  1
  Rb  Rb35  1  0.136576  0.652607  0.084076  1
  Rb  Rb36  1  0.652607  0.915924  0.863424  1
  Rb  Rb37  1  0.347393  0.084076  0.863424  1
  Rb  Rb38  1  0.584076  0.847393  0.363424  1
  Rb  Rb39  1  0.584076  0.152607  0.636576  1
  Rb  Rb40  1  0.415924  0.847393  0.636576  1
  Rb  Rb41  1  0.152607  0.636576  0.584076  1
  Rb  Rb42  1  0.636576  0.415924  0.847393  1
  Rb  Rb43  1  0.636576  0.584076  0.152607  1
  Rb  Rb44  1  0.847393  0.363424  0.584076  1
  Rb  Rb45  1  0.363424  0.584076  0.847393  1
  Rb  Rb46  1  0.847393  0.636576  0.415924  1
  Rb  Rb47  1  0.152607  0.363424  0.415924  1
  Rb  Rb48  1  0.363424  0.415924  0.152607  1
  Rb  Rb49  1  0.347393  0.915924  0.136576  1
  Rb  Rb50  1  0.652607  0.084076  0.136576  1
  Rb  Rb51  1  0.863424  0.347393  0.084076  1
  Rb  Rb52  1  0.136576  0.347393  0.915924  1
  Rb  Rb53  1  0.084076  0.136576  0.652607  1
  Rb  Rb54  1  0.084076  0.863424  0.347393  1
  Rb  Rb55  1  0.415924  0.152607  0.363424  1
  Rb  Rb56  1  0.154048  0.154048  0.154048  1
  Rb  Rb57  1  0.345952  0.654048  0.345952  1
  Rb  Rb58  1  0.654048  0.345952  0.345952  1
  Rb  Rb59  1  0.345952  0.345952  0.654048  1
  Rb  Rb60  1  0.154048  0.845952  0.845952  1
  Rb  Rb61  1  0.845952  0.845952  0.154048  1
  Rb  Rb62  1  0.845952  0.154048  0.845952  1
  Rb  Rb63  1  0.654048  0.654048  0.654048  1
  Sn  Sn64  1  0.750000  0.000000  0.500000  1
  Sn  Sn65  1  0.500000  0.750000  0.000000  1
  Sn  Sn66  1  0.500000  0.250000  0.000000  1
  Sn  Sn67  1  0.000000  0.500000  0.250000  1
  Sn  Sn68  1  0.000000  0.500000  0.750000  1
  Sn  Sn69  1  0.250000  0.000000  0.500000  1
  Sn  Sn70  1  0.500000  0.500000  0.500000  1
  Sn  Sn71  1  0.000000  0.000000  0.000000  1
