# generated using pymatgen
data_Na7Zr6F31
_symmetry_space_group_name_H-M   'P 1'
_cell_length_a   8.70102765
_cell_length_b   8.70102770
_cell_length_c   8.70102761
_cell_angle_alpha   107.27714725
_cell_angle_beta   107.27714821
_cell_angle_gamma   107.27714800
_symmetry_Int_Tables_number   1
_chemical_formula_structural   Na7Zr6F31
_chemical_formula_sum   'Na7 Zr6 F31'
_cell_volume   544.40112386
_cell_formula_units_Z   1
loop_
 _symmetry_equiv_pos_site_id
 _symmetry_equiv_pos_as_xyz
  1  'x, y, z'
loop_
 _atom_site_type_symbol
 _atom_site_label
 _atom_site_symmetry_multiplicity
 _atom_site_fract_x
 _atom_site_fract_y
 _atom_site_fract_z
 _atom_site_occupancy
  F  F0  1  0.210538  0.949009  0.845788  1
  F  F1  1  0.055348  0.702854  0.523857  1
  F  F2  1  0.046213  0.157722  0.791416  1
  F  F3  1  0.023011  0.557262  0.153954  1
  F  F4  1  0.307489  0.480124  0.947937  1
  F  F5  1  0.452171  0.848657  0.984569  1
  F  F6  1  0.157722  0.791416  0.046213  1
  F  F7  1  0.095076  0.303007  0.249499  1
  F  F8  1  0.153954  0.023011  0.557262  1
  F  F9  1  0.269966  0.341598  0.577568  1
  F  F10  1  0.420204  0.735781  0.662635  1
  F  F11  1  0.341598  0.577568  0.269966  1
  F  F12  1  0.480124  0.947937  0.307489  1
  F  F13  1  0.249499  0.095076  0.303007  1
  F  F14  1  0.660705  0.720137  0.890821  1
  F  F15  1  0.303007  0.249499  0.095076  1
  F  F16  1  0.720137  0.890821  0.660705  1
  F  F17  1  0.523857  0.055348  0.702854  1
  F  F18  1  0.662635  0.420204  0.735781  1
  F  F19  1  0.940285  0.940285  0.940285  1
  F  F20  1  0.577568  0.269966  0.341598  1
  F  F21  1  0.735781  0.662635  0.420204  1
  F  F22  1  0.848657  0.984569  0.452171  1
  F  F23  1  0.890821  0.660705  0.720137  1
  F  F24  1  0.845788  0.210538  0.949009  1
  F  F25  1  0.557262  0.153954  0.023011  1
  F  F26  1  0.702854  0.523857  0.055348  1
  F  F27  1  0.984569  0.452171  0.848657  1
  F  F28  1  0.949009  0.845788  0.210538  1
  F  F29  1  0.947937  0.307489  0.480124  1
  F  F30  1  0.791416  0.046213  0.157722  1
  Na  Na31  1  0.191966  0.575972  0.718651  1
  Na  Na32  1  0.285196  0.812807  0.436547  1
  Na  Na33  1  0.436547  0.285196  0.812807  1
  Na  Na34  1  0.502640  0.502640  0.502640  1
  Na  Na35  1  0.575972  0.718651  0.191966  1
  Na  Na36  1  0.718651  0.191966  0.575972  1
  Na  Na37  1  0.812807  0.436547  0.285196  1
  Zr  Zr38  1  0.041339  0.128370  0.376332  1
  Zr  Zr39  1  0.128370  0.376332  0.041339  1
  Zr  Zr40  1  0.641677  0.957117  0.873584  1
  Zr  Zr41  1  0.376332  0.041339  0.128370  1
  Zr  Zr42  1  0.873584  0.641677  0.957117  1
  Zr  Zr43  1  0.957117  0.873584  0.641677  1
