# generated using pymatgen
data_Bi4O7
_symmetry_space_group_name_H-M   'P 1'
_cell_length_a   6.82618036
_cell_length_b   7.00339079
_cell_length_c   7.90972306
_cell_angle_alpha   73.04996978
_cell_angle_beta   89.18062368
_cell_angle_gamma   78.01678307
_symmetry_Int_Tables_number   1
_chemical_formula_structural   Bi4O7
_chemical_formula_sum   'Bi8 O14'
_cell_volume   353.39471151
_cell_formula_units_Z   2
loop_
 _symmetry_equiv_pos_site_id
 _symmetry_equiv_pos_as_xyz
  1  'x, y, z'
loop_
 _atom_site_type_symbol
 _atom_site_label
 _atom_site_symmetry_multiplicity
 _atom_site_fract_x
 _atom_site_fract_y
 _atom_site_fract_z
 _atom_site_occupancy
  O  O0  1  0.531501  0.629572  0.815291  1
  O  O1  1  0.468499  0.370428  0.184709  1
  O  O2  1  0.710298  0.942639  0.058813  1
  O  O3  1  0.289702  0.057361  0.941187  1
  O  O4  1  0.713018  0.924431  0.482064  1
  O  O5  1  0.286982  0.075569  0.517936  1
  O  O6  1  0.468469  0.345440  0.637329  1
  O  O7  1  0.531531  0.654560  0.362671  1
  O  O8  1  0.097140  0.677660  0.037843  1
  O  O9  1  0.902860  0.322340  0.962157  1
  O  O10  1  0.896306  0.322015  0.373386  1
  O  O11  1  0.103694  0.677985  0.626614  1
  O  O12  1  0.116346  0.910501  0.273030  1
  O  O13  1  0.883654  0.089499  0.726970  1
  Bi  Bi14  1  0.000000  0.000000  0.500000  1
  Bi  Bi15  1  0.521892  0.996684  0.742524  1
  Bi  Bi16  1  0.478108  0.003316  0.257476  1
  Bi  Bi17  1  0.000000  0.000000  0.000000  1
  Bi  Bi18  1  0.735772  0.515358  0.119791  1
  Bi  Bi19  1  0.264228  0.484642  0.880209  1
  Bi  Bi20  1  0.272118  0.510101  0.376719  1
  Bi  Bi21  1  0.727882  0.489899  0.623281  1
