# generated using pymatgen
data_Ba6Zn7F26
_symmetry_space_group_name_H-M   'P 1'
_cell_length_a   6.02539135
_cell_length_b   10.34675024
_cell_length_c   10.46612451
_cell_angle_alpha   73.68406088
_cell_angle_beta   73.27059341
_cell_angle_gamma   73.07179724
_symmetry_Int_Tables_number   1
_chemical_formula_structural   Ba6Zn7F26
_chemical_formula_sum   'Ba6 Zn7 F26'
_cell_volume   583.79921322
_cell_formula_units_Z   1
loop_
 _symmetry_equiv_pos_site_id
 _symmetry_equiv_pos_as_xyz
  1  'x, y, z'
loop_
 _atom_site_type_symbol
 _atom_site_label
 _atom_site_symmetry_multiplicity
 _atom_site_fract_x
 _atom_site_fract_y
 _atom_site_fract_z
 _atom_site_occupancy
  F  F0  1  0.626209  0.910297  0.837285  1
  F  F1  1  0.373791  0.089703  0.162715  1
  F  F2  1  0.910745  0.596347  0.582162  1
  F  F3  1  0.089255  0.403653  0.417838  1
  F  F4  1  0.858242  0.368190  0.915326  1
  F  F5  1  0.141758  0.631810  0.084674  1
  F  F6  1  0.111842  0.100989  0.675328  1
  F  F7  1  0.888158  0.899011  0.324672  1
  F  F8  1  0.408637  0.602149  0.580577  1
  F  F9  1  0.591363  0.397851  0.419423  1
  F  F10  1  0.772682  0.866009  0.087024  1
  F  F11  1  0.725715  0.133991  0.912976  1
  F  F12  1  0.227318  0.133991  0.912976  1
  F  F13  1  0.479086  0.135069  0.380993  1
  F  F14  1  0.995148  0.864931  0.619007  1
  F  F15  1  0.520914  0.864931  0.619007  1
  F  F16  1  0.004852  0.135069  0.380993  1
  F  F17  1  0.476749  0.358673  0.146733  1
  F  F18  1  0.982155  0.641327  0.853267  1
  F  F19  1  0.523251  0.641327  0.853267  1
  F  F20  1  0.017845  0.358673  0.146733  1
  F  F21  1  0.277101  0.655466  0.326010  1
  F  F22  1  0.258577  0.344534  0.673990  1
  F  F23  1  0.722899  0.344534  0.673990  1
  F  F24  1  0.741423  0.655466  0.326010  1
  F  F25  1  0.274285  0.866009  0.087024  1
  Zn  Zn26  1  0.744200  0.500000  0.500000  1
  Zn  Zn27  1  0.255800  0.500000  0.500000  1
  Zn  Zn28  1  0.985781  0.248422  0.780015  1
  Zn  Zn29  1  0.014219  0.751578  0.219985  1
  Zn  Zn30  1  0.778070  0.731719  0.712140  1
  Zn  Zn31  1  0.221930  0.268281  0.287860  1
  Zn  Zn32  1  0.500000  0.000000  0.000000  1
  Ba  Ba33  1  0.344042  0.418270  0.893646  1
  Ba  Ba34  1  0.655958  0.581730  0.106354  1
  Ba  Ba35  1  0.643411  0.118521  0.594657  1
  Ba  Ba36  1  0.356589  0.881479  0.405343  1
  Ba  Ba37  1  0.146524  0.857872  0.849080  1
  Ba  Ba38  1  0.853476  0.142128  0.150920  1
