# generated using pymatgen
data_AlO3
_symmetry_space_group_name_H-M   'P 1'
_cell_length_a   5.31507011
_cell_length_b   5.31507010
_cell_length_c   5.31507016
_cell_angle_alpha   58.05498567
_cell_angle_beta   58.05498570
_cell_angle_gamma   58.05498378
_symmetry_Int_Tables_number   1
_chemical_formula_structural   AlO3
_chemical_formula_sum   'Al2 O6'
_cell_volume   101.43685914
_cell_formula_units_Z   2
loop_
 _symmetry_equiv_pos_site_id
 _symmetry_equiv_pos_as_xyz
  1  'x, y, z'
loop_
 _atom_site_type_symbol
 _atom_site_label
 _atom_site_symmetry_multiplicity
 _atom_site_fract_x
 _atom_site_fract_y
 _atom_site_fract_z
 _atom_site_occupancy
  Al  Al0  1  0.161889  0.161889  0.161889  1
  Al  Al1  1  0.661889  0.661889  0.661889  1
  O  O2  1  0.412031  0.940139  0.883641  1
  O  O3  1  0.883641  0.412031  0.940139  1
  O  O4  1  0.940139  0.883641  0.412031  1
  O  O5  1  0.912031  0.383641  0.440139  1
  O  O6  1  0.383641  0.440139  0.912031  1
  O  O7  1  0.440139  0.912031  0.383641  1
