# generated using pymatgen
data_Pr2EuS4
_symmetry_space_group_name_H-M   'P 1'
_cell_length_a   7.51560979
_cell_length_b   7.51560906
_cell_length_c   7.51560979
_cell_angle_alpha   109.43673983
_cell_angle_beta   109.43674541
_cell_angle_gamma   109.54020336
_symmetry_Int_Tables_number   1
_chemical_formula_structural   Pr2EuS4
_chemical_formula_sum   'Pr4 Eu2 S8'
_cell_volume   326.79111524
_cell_formula_units_Z   2
loop_
 _symmetry_equiv_pos_site_id
 _symmetry_equiv_pos_as_xyz
  1  'x, y, z'
loop_
 _atom_site_type_symbol
 _atom_site_label
 _atom_site_symmetry_multiplicity
 _atom_site_fract_x
 _atom_site_fract_y
 _atom_site_fract_z
 _atom_site_occupancy
  Eu  Eu0  1  0.625000  0.375000  0.250000  1
  Eu  Eu1  1  0.875000  0.125000  0.750000  1
  Pr  Pr2  1  0.122430  0.750000  0.872430  1
  Pr  Pr3  1  0.250000  0.622430  0.372430  1
  Pr  Pr4  1  0.377570  0.250000  0.627570  1
  Pr  Pr5  1  0.750000  0.877570  0.127570  1
  S  S6  1  0.004347  0.854197  0.500232  1
  S  S7  1  0.004116  0.353965  0.499768  1
  S  S8  1  0.145803  0.146035  0.150151  1
  S  S9  1  0.354197  0.504347  1.000232  1
  S  S10  1  0.646035  0.645803  0.650151  1
  S  S11  1  0.495653  0.995884  0.849849  1
  S  S12  1  0.495884  0.995653  0.349849  1
  S  S13  1  0.853965  0.504116  -0.000232  1
