# generated using pymatgen
data_EuPO4
_symmetry_space_group_name_H-M   'P 1'
_cell_length_a   6.48673886
_cell_length_b   6.82421078
_cell_length_c   7.03202697
_cell_angle_alpha   90.00000000
_cell_angle_beta   90.00000000
_cell_angle_gamma   103.98926108
_symmetry_Int_Tables_number   1
_chemical_formula_structural   EuPO4
_chemical_formula_sum   'Eu4 P4 O16'
_cell_volume   302.05343573
_cell_formula_units_Z   4
loop_
 _symmetry_equiv_pos_site_id
 _symmetry_equiv_pos_as_xyz
  1  'x, y, z'
loop_
 _atom_site_type_symbol
 _atom_site_label
 _atom_site_symmetry_multiplicity
 _atom_site_fract_x
 _atom_site_fract_y
 _atom_site_fract_z
 _atom_site_occupancy
  O  O0  1  0.208931  0.624947  0.289525  1
  O  O1  1  0.291069  0.875053  0.789525  1
  O  O2  1  0.791069  0.375053  0.710475  1
  O  O3  1  0.708931  0.124947  0.210475  1
  O  O4  1  0.308510  0.971576  0.398392  1
  O  O5  1  0.191490  0.528424  0.898392  1
  O  O6  1  0.691490  0.028424  0.601608  1
  O  O7  1  0.808510  0.471576  0.101608  1
  O  O8  1  0.438671  0.250934  0.005081  1
  O  O9  1  0.061329  0.249066  0.505081  1
  O  O10  1  0.561329  0.749066  0.994919  1
  O  O11  1  0.938671  0.750934  0.494919  1
  O  O12  1  0.502077  0.382929  0.332916  1
  O  O13  1  0.997923  0.117071  0.832916  1
  O  O14  1  0.497923  0.617071  0.667084  1
  O  O15  1  0.002077  0.882929  0.167084  1
  P  P16  1  0.111326  0.804529  0.338428  1
  P  P17  1  0.388674  0.695471  0.838428  1
  P  P18  1  0.888674  0.195471  0.661572  1
  P  P19  1  0.611326  0.304529  0.161572  1
  Eu  Eu20  1  0.597676  0.782691  0.343049  1
  Eu  Eu21  1  0.902324  0.717309  0.843049  1
  Eu  Eu22  1  0.402324  0.217309  0.656951  1
  Eu  Eu23  1  0.097676  0.282691  0.156951  1
