# generated using pymatgen
data_Na2TiCr(PO4)3
_symmetry_space_group_name_H-M   'P 1'
_cell_length_a   9.90835550
_cell_length_b   9.90835550
_cell_length_c   9.90835550
_cell_angle_alpha   90.00000000
_cell_angle_beta   90.00000000
_cell_angle_gamma   90.00000000
_symmetry_Int_Tables_number   1
_chemical_formula_structural   Na2TiCr(PO4)3
_chemical_formula_sum   'Na8 Ti4 Cr4 P12 O48'
_cell_volume   972.75784174
_cell_formula_units_Z   4
loop_
 _symmetry_equiv_pos_site_id
 _symmetry_equiv_pos_as_xyz
  1  'x, y, z'
loop_
 _atom_site_type_symbol
 _atom_site_label
 _atom_site_symmetry_multiplicity
 _atom_site_fract_x
 _atom_site_fract_y
 _atom_site_fract_z
 _atom_site_occupancy
  O  O0  1  0.941715  0.266014  0.006974  1
  O  O1  1  0.441715  0.233986  0.993026  1
  O  O2  1  0.058286  0.766014  0.493025  1
  O  O3  1  0.233986  0.993026  0.441715  1
  O  O4  1  0.493025  0.058286  0.766014  1
  O  O5  1  0.993026  0.441715  0.233986  1
  O  O6  1  0.266014  0.006974  0.941715  1
  O  O7  1  0.006974  0.941715  0.266014  1
  O  O8  1  0.766014  0.493025  0.058286  1
  O  O9  1  0.733986  0.506975  0.558285  1
  O  O10  1  0.506975  0.558285  0.733986  1
  O  O11  1  0.558285  0.733986  0.506975  1
  O  O12  1  0.017018  0.440322  0.827710  1
  O  O13  1  0.517018  0.059679  0.172290  1
  O  O14  1  0.982982  0.940321  0.672290  1
  O  O15  1  0.059679  0.172290  0.517018  1
  O  O16  1  0.672290  0.982982  0.940321  1
  O  O17  1  0.172290  0.517018  0.059679  1
  O  O18  1  0.766642  0.956286  0.203171  1
  O  O19  1  0.827710  0.017018  0.440322  1
  O  O20  1  0.940321  0.672290  0.982982  1
  O  O21  1  0.559678  0.327710  0.482981  1
  O  O22  1  0.327710  0.482981  0.559678  1
  O  O23  1  0.482981  0.559678  0.327710  1
  O  O24  1  0.043713  0.703171  0.733357  1
  O  O25  1  0.543713  0.796829  0.266643  1
  O  O26  1  0.956286  0.203171  0.766642  1
  O  O27  1  0.796829  0.266643  0.543713  1
  O  O28  1  0.593604  0.830474  0.749879  1
  O  O29  1  0.749879  0.593604  0.830474  1
  O  O30  1  0.830474  0.749879  0.593604  1
  O  O31  1  0.669526  0.250121  0.093604  1
  O  O32  1  0.249879  0.906396  0.169526  1
  O  O33  1  0.169526  0.249879  0.906396  1
  O  O34  1  0.750121  0.406396  0.330474  1
  O  O35  1  0.250121  0.093604  0.669526  1
  O  O36  1  0.330474  0.750121  0.406396  1
  O  O37  1  0.093604  0.669526  0.250121  1
  O  O38  1  0.406396  0.330474  0.750121  1
  O  O39  1  0.906396  0.169526  0.249879  1
  O  O40  1  0.456287  0.296829  0.233357  1
  O  O41  1  0.233357  0.456287  0.296829  1
  O  O42  1  0.296829  0.233357  0.456287  1
  O  O43  1  0.203171  0.766642  0.956286  1
  O  O44  1  0.733357  0.043713  0.703171  1
  O  O45  1  0.703171  0.733357  0.043713  1
  O  O46  1  0.266643  0.543713  0.796829  1
  O  O47  1  0.440322  0.827710  0.017018  1
  Na  Na48  1  0.928503  0.928503  0.928503  1
  Na  Na49  1  0.353398  0.853398  0.646602  1
  Na  Na50  1  0.146602  0.146602  0.146602  1
  Na  Na51  1  0.071496  0.428503  0.571497  1
  Na  Na52  1  0.853398  0.646602  0.353398  1
  Na  Na53  1  0.428503  0.571497  0.071496  1
  Na  Na54  1  0.571497  0.071496  0.428503  1
  Na  Na55  1  0.646602  0.353398  0.853398  1
  P  P56  1  0.791610  0.621331  0.976435  1
  P  P57  1  0.878668  0.023565  0.291609  1
  P  P58  1  0.378669  0.476434  0.708391  1
  P  P59  1  0.476434  0.708391  0.378669  1
  P  P60  1  0.291609  0.878668  0.023565  1
  P  P61  1  0.121331  0.523566  0.208390  1
  P  P62  1  0.621331  0.976435  0.791610  1
  P  P63  1  0.208390  0.121331  0.523566  1
  P  P64  1  0.976435  0.791610  0.621331  1
  P  P65  1  0.523566  0.208390  0.121331  1
  P  P66  1  0.708391  0.378669  0.476434  1
  P  P67  1  0.023565  0.291609  0.878668  1
  Ti  Ti68  1  0.110210  0.610210  0.889790  1
  Ti  Ti69  1  0.610210  0.889790  0.110210  1
  Ti  Ti70  1  0.889790  0.110210  0.610210  1
  Ti  Ti71  1  0.389789  0.389789  0.389789  1
  Cr  Cr72  1  0.336653  0.163347  0.836653  1
  Cr  Cr73  1  0.163347  0.836653  0.336653  1
  Cr  Cr74  1  0.836653  0.336653  0.163347  1
  Cr  Cr75  1  0.663347  0.663347  0.663347  1
