# generated using pymatgen
data_SrTe3O8
_symmetry_space_group_name_H-M   'P 1'
_cell_length_a   6.85824051
_cell_length_b   6.96432173
_cell_length_c   6.96432173
_cell_angle_alpha   90.00000000
_cell_angle_beta   90.00000000
_cell_angle_gamma   90.00000000
_symmetry_Int_Tables_number   1
_chemical_formula_structural   SrTe3O8
_chemical_formula_sum   'Sr2 Te6 O16'
_cell_volume   332.63685292
_cell_formula_units_Z   2
loop_
 _symmetry_equiv_pos_site_id
 _symmetry_equiv_pos_as_xyz
  1  'x, y, z'
loop_
 _atom_site_type_symbol
 _atom_site_label
 _atom_site_symmetry_multiplicity
 _atom_site_fract_x
 _atom_site_fract_y
 _atom_site_fract_z
 _atom_site_occupancy
  O  O0  1  0.000000  0.322380  0.953765  1
  O  O1  1  0.500000  0.046235  0.322380  1
  O  O2  1  0.500000  0.953765  0.677620  1
  O  O3  1  0.000000  0.677620  0.046235  1
  O  O4  1  0.000000  0.882883  0.756917  1
  O  O5  1  0.500000  0.243083  0.882883  1
  O  O6  1  0.500000  0.756917  0.117117  1
  O  O7  1  0.000000  0.117117  0.243083  1
  O  O8  1  0.306022  0.412171  0.187958  1
  O  O9  1  0.806022  0.812042  0.412171  1
  O  O10  1  0.806022  0.187958  0.587829  1
  O  O11  1  0.306022  0.587829  0.812042  1
  O  O12  1  0.693978  0.587829  0.812042  1
  O  O13  1  0.193978  0.187958  0.587829  1
  O  O14  1  0.193978  0.812042  0.412171  1
  O  O15  1  0.693978  0.412171  0.187958  1
  Sr  Sr16  1  0.250000  0.000000  0.000000  1
  Sr  Sr17  1  0.750000  0.000000  0.000000  1
  Te  Te18  1  0.000000  0.565720  0.784799  1
  Te  Te19  1  0.500000  0.215201  0.565720  1
  Te  Te20  1  0.500000  0.784799  0.434280  1
  Te  Te21  1  0.000000  0.434280  0.215201  1
  Te  Te22  1  0.000000  0.000000  0.500000  1
  Te  Te23  1  0.500000  0.500000  0.000000  1
