# generated using pymatgen
data_Sr4Re2NiO12
_symmetry_space_group_name_H-M   'P 1'
_cell_length_a   9.60535985
_cell_length_b   9.60535986
_cell_length_c   9.60535986
_cell_angle_alpha   33.85252056
_cell_angle_beta   33.85252054
_cell_angle_gamma   33.85252054
_symmetry_Int_Tables_number   1
_chemical_formula_structural   Sr4Re2NiO12
_chemical_formula_sum   'Sr4 Re2 Ni1 O12'
_cell_volume   245.07272342
_cell_formula_units_Z   1
loop_
 _symmetry_equiv_pos_site_id
 _symmetry_equiv_pos_as_xyz
  1  'x, y, z'
loop_
 _atom_site_type_symbol
 _atom_site_label
 _atom_site_symmetry_multiplicity
 _atom_site_fract_x
 _atom_site_fract_y
 _atom_site_fract_z
 _atom_site_occupancy
  O  O0  1  0.381320  0.381320  0.868711  1
  O  O1  1  0.381321  0.868710  0.381321  1
  O  O2  1  0.868711  0.381320  0.381321  1
  O  O3  1  0.131290  0.618680  0.618679  1
  O  O4  1  0.618679  0.618680  0.131290  1
  O  O5  1  0.618680  0.131290  0.618679  1
  O  O6  1  0.217032  0.217032  0.695811  1
  O  O7  1  0.782967  0.304191  0.782968  1
  O  O8  1  0.782966  0.782968  0.304191  1
  O  O9  1  0.217032  0.695809  0.217034  1
  O  O10  1  0.695810  0.217032  0.217033  1
  O  O11  1  0.304191  0.782968  0.782967  1
  Ni  Ni12  1  0.000000  0.000000  0.000000  1
  Sr  Sr13  1  0.867480  0.867478  0.867479  1
  Sr  Sr14  1  0.291787  0.291787  0.291787  1
  Sr  Sr15  1  0.708214  0.708213  0.708213  1
  Sr  Sr16  1  0.132521  0.132522  0.132521  1
  Re  Re17  1  0.579886  0.579886  0.579885  1
  Re  Re18  1  0.420115  0.420114  0.420114  1
