# generated using pymatgen
data_Sr(PrSe2)2
_symmetry_space_group_name_H-M   'P 1'
_cell_length_a   7.88669924
_cell_length_b   7.88669968
_cell_length_c   7.88669914
_cell_angle_alpha   109.44519593
_cell_angle_beta   109.52328042
_cell_angle_gamma   109.44519606
_symmetry_Int_Tables_number   1
_chemical_formula_structural   Sr(PrSe2)2
_chemical_formula_sum   'Sr2 Pr4 Se8'
_cell_volume   377.62758195
_cell_formula_units_Z   2
loop_
 _symmetry_equiv_pos_site_id
 _symmetry_equiv_pos_as_xyz
  1  'x, y, z'
loop_
 _atom_site_type_symbol
 _atom_site_label
 _atom_site_symmetry_multiplicity
 _atom_site_fract_x
 _atom_site_fract_y
 _atom_site_fract_z
 _atom_site_occupancy
  Pr  Pr0  1  0.250000  0.626729  0.376729  1
  Pr  Pr1  1  0.623271  0.373271  0.250000  1
  Pr  Pr2  1  0.750000  0.873271  0.123271  1
  Pr  Pr3  1  0.876729  0.126729  0.750000  1
  Se  Se4  1  0.145226  0.153127  0.145842  1
  Se  Se5  1  0.507285  0.999384  0.354158  1
  Se  Se6  1  0.354774  0.500616  0.007901  1
  Se  Se7  1  0.507901  0.000616  0.854774  1
  Se  Se8  1  0.645842  0.653127  0.645226  1
  Se  Se9  1  0.992099  0.846873  0.492715  1
  Se  Se10  1  0.854158  0.499384  0.007285  1
  Se  Se11  1  0.992715  0.346873  0.492099  1
  Sr  Sr12  1  0.125000  0.750000  0.875000  1
  Sr  Sr13  1  0.375000  0.250000  0.625000  1
