# generated using pymatgen
data_ScFeSi2
_symmetry_space_group_name_H-M   'P 1'
_cell_length_a   5.06379858
_cell_length_b   9.76790067
_cell_length_c   14.22760258
_cell_angle_alpha   90.00000000
_cell_angle_beta   90.00000000
_cell_angle_gamma   105.02295926
_symmetry_Int_Tables_number   1
_chemical_formula_structural   ScFeSi2
_chemical_formula_sum   'Sc12 Fe12 Si24'
_cell_volume   679.68313301
_cell_formula_units_Z   12
loop_
 _symmetry_equiv_pos_site_id
 _symmetry_equiv_pos_as_xyz
  1  'x, y, z'
loop_
 _atom_site_type_symbol
 _atom_site_label
 _atom_site_symmetry_multiplicity
 _atom_site_fract_x
 _atom_site_fract_y
 _atom_site_fract_z
 _atom_site_occupancy
  Si  Si0  1  0.640084  0.280169  0.492440  1
  Si  Si1  1  0.359916  0.719831  0.507560  1
  Si  Si2  1  0.859916  0.719831  0.992440  1
  Si  Si3  1  0.140084  0.280169  0.007560  1
  Si  Si4  1  0.735599  0.471197  0.643292  1
  Si  Si5  1  0.264401  0.528803  0.356708  1
  Si  Si6  1  0.764401  0.528803  0.143292  1
  Si  Si7  1  0.235599  0.471197  0.856708  1
  Si  Si8  1  0.587036  0.174073  0.643589  1
  Si  Si9  1  0.412964  0.825927  0.356411  1
  Si  Si10  1  0.912964  0.825927  0.143589  1
  Si  Si11  1  0.087036  0.174073  0.856411  1
  Si  Si12  1  0.667140  0.334280  0.899333  1
  Si  Si13  1  0.332860  0.665720  0.100667  1
  Si  Si14  1  0.832860  0.665720  0.399333  1
  Si  Si15  1  0.167140  0.334280  0.600667  1
  Si  Si16  1  0.664192  0.828385  0.750000  1
  Si  Si17  1  0.746657  0.000000  0.000000  1
  Si  Si18  1  0.335808  0.171615  0.250000  1
  Si  Si19  1  0.164192  0.828385  0.750000  1
  Si  Si20  1  0.246657  0.000000  0.500000  1
  Si  Si21  1  0.253343  0.000000  0.000000  1
  Si  Si22  1  0.753343  0.000000  0.500000  1
  Si  Si23  1  0.835808  0.171615  0.250000  1
  Sc  Sc24  1  0.877045  0.754091  0.584572  1
  Sc  Sc25  1  0.703872  0.407743  0.318876  1
  Sc  Sc26  1  0.203872  0.407743  0.181124  1
  Sc  Sc27  1  0.796128  0.592257  0.818876  1
  Sc  Sc28  1  0.032865  0.065730  0.676933  1
  Sc  Sc29  1  0.967135  0.934270  0.323067  1
  Sc  Sc30  1  0.467135  0.934270  0.176933  1
  Sc  Sc31  1  0.532865  0.065730  0.823067  1
  Sc  Sc32  1  0.377045  0.754091  0.915428  1
  Sc  Sc33  1  0.622955  0.245909  0.084572  1
  Sc  Sc34  1  0.122955  0.245909  0.415428  1
  Sc  Sc35  1  0.296128  0.592257  0.681124  1
  Fe  Fe36  1  0.000000  0.500000  0.000000  1
  Fe  Fe37  1  0.500000  0.500000  0.000000  1
  Fe  Fe38  1  0.500000  0.500000  0.500000  1
  Fe  Fe39  1  0.000000  0.500000  0.500000  1
  Fe  Fe40  1  0.911201  0.322402  0.750000  1
  Fe  Fe41  1  0.588799  0.677598  0.250000  1
  Fe  Fe42  1  0.088799  0.677598  0.250000  1
  Fe  Fe43  1  0.411201  0.322402  0.750000  1
  Fe  Fe44  1  0.459052  0.918105  0.623238  1
  Fe  Fe45  1  0.540948  0.081895  0.376762  1
  Fe  Fe46  1  0.040948  0.081895  0.123238  1
  Fe  Fe47  1  0.959052  0.918105  0.876762  1
