# generated using pymatgen
data_Li3NbO4
_symmetry_space_group_name_H-M   'P 1'
_cell_length_a   7.38568933
_cell_length_b   7.38568954
_cell_length_c   7.38568996
_cell_angle_alpha   109.47121888
_cell_angle_beta   109.47121953
_cell_angle_gamma   109.47122523
_symmetry_Int_Tables_number   1
_chemical_formula_structural   Li3NbO4
_chemical_formula_sum   'Li12 Nb4 O16'
_cell_volume   310.13533977
_cell_formula_units_Z   4
loop_
 _symmetry_equiv_pos_site_id
 _symmetry_equiv_pos_as_xyz
  1  'x, y, z'
loop_
 _atom_site_type_symbol
 _atom_site_label
 _atom_site_symmetry_multiplicity
 _atom_site_fract_x
 _atom_site_fract_y
 _atom_site_fract_z
 _atom_site_occupancy
  Li  Li0  1  0.728485  0.243464  0.728485  1
  Li  Li1  1  0.271515  0.000000  0.514979  1
  Li  Li2  1  0.485021  0.485021  0.756536  1
  Li  Li3  1  0.271515  0.514979  0.000000  1
  Li  Li4  1  0.000000  0.271515  0.514979  1
  Li  Li5  1  0.728485  0.728485  0.243464  1
  Li  Li6  1  0.243464  0.728485  0.728485  1
  Li  Li7  1  1.000000  0.514979  0.271515  1
  Li  Li8  1  0.514979  1.000000  0.271515  1
  Li  Li9  1  0.756536  0.485021  0.485021  1
  Li  Li10  1  0.485021  0.756536  0.485021  1
  Li  Li11  1  0.514979  0.271515  0.000000  1
  Nb  Nb12  1  0.280620  0.280620  0.280620  1
  Nb  Nb13  1  0.719380  1.000000  1.000000  1
  Nb  Nb14  1  0.000000  0.000000  0.719380  1
  Nb  Nb15  1  1.000000  0.719380  1.000000  1
  O  O16  1  0.245812  0.485537  0.485537  1
  O  O17  1  0.514463  1.000000  0.760275  1
  O  O18  1  0.227141  1.000000  1.000000  1
  O  O19  1  0.754188  0.239725  0.239725  1
  O  O20  1  0.485537  0.245812  0.485537  1
  O  O21  1  0.239725  0.754188  0.239725  1
  O  O22  1  0.514463  0.760275  0.000000  1
  O  O23  1  0.772859  0.772859  0.772859  1
  O  O24  1  0.000000  0.760275  0.514463  1
  O  O25  1  0.000000  0.000000  0.227141  1
  O  O26  1  0.760275  0.000000  0.514463  1
  O  O27  1  0.760275  0.514463  0.000000  1
  O  O28  1  1.000000  0.514463  0.760275  1
  O  O29  1  0.239725  0.239725  0.754188  1
  O  O30  1  0.485537  0.485537  0.245812  1
  O  O31  1  1.000000  0.227141  1.000000  1
