# generated using pymatgen
data_HoGa4Ni
_symmetry_space_group_name_H-M   'P 1'
_cell_length_a   4.07830161
_cell_length_b   6.62220812
_cell_length_c   7.88702910
_cell_angle_alpha   90.00000000
_cell_angle_beta   104.98373434
_cell_angle_gamma   90.00000000
_symmetry_Int_Tables_number   1
_chemical_formula_structural   HoGa4Ni
_chemical_formula_sum   'Ho2 Ga8 Ni2'
_cell_volume   205.76542675
_cell_formula_units_Z   2
loop_
 _symmetry_equiv_pos_site_id
 _symmetry_equiv_pos_as_xyz
  1  'x, y, z'
loop_
 _atom_site_type_symbol
 _atom_site_label
 _atom_site_symmetry_multiplicity
 _atom_site_fract_x
 _atom_site_fract_y
 _atom_site_fract_z
 _atom_site_occupancy
  Ga  Ga0  1  0.500000  0.000000  0.000000  1
  Ga  Ga1  1  0.500000  0.500000  0.000000  1
  Ga  Ga2  1  0.071081  0.250000  0.142162  1
  Ga  Ga3  1  0.928919  0.750000  0.857838  1
  Ho  Ho4  1  0.881173  0.250000  0.762345  1
  Ho  Ho5  1  0.118827  0.750000  0.237655  1
  Ni  Ni6  1  0.225623  0.250000  0.451246  1
  Ni  Ni7  1  0.774377  0.750000  0.548754  1
  Ga  Ga8  1  0.684813  0.051047  0.369625  1
  Ga  Ga9  1  0.315188  0.948953  0.630375  1
  Ga  Ga10  1  0.315188  0.551047  0.630375  1
  Ga  Ga11  1  0.684813  0.448953  0.369625  1
