# generated using pymatgen
data_Sr(GdS2)2
_symmetry_space_group_name_H-M   'P 1'
_cell_length_a   7.43067498
_cell_length_b   7.43067493
_cell_length_c   7.43067505
_cell_angle_alpha   109.32772583
_cell_angle_beta   109.75859188
_cell_angle_gamma   109.32772643
_symmetry_Int_Tables_number   1
_chemical_formula_structural   Sr(GdS2)2
_chemical_formula_sum   'Sr2 Gd4 S8'
_cell_volume   315.83096761
_cell_formula_units_Z   2
loop_
 _symmetry_equiv_pos_site_id
 _symmetry_equiv_pos_as_xyz
  1  'x, y, z'
loop_
 _atom_site_type_symbol
 _atom_site_label
 _atom_site_symmetry_multiplicity
 _atom_site_fract_x
 _atom_site_fract_y
 _atom_site_fract_z
 _atom_site_occupancy
  Gd  Gd0  1  0.250000  0.624308  0.374308  1
  Gd  Gd1  1  0.750000  0.875692  0.125692  1
  Gd  Gd2  1  0.625692  0.375692  0.250000  1
  Gd  Gd3  1  0.874308  0.124308  0.750000  1
  S  S4  1  0.984556  0.847464  0.487626  1
  S  S5  1  0.987626  0.347464  0.484556  1
  S  S6  1  0.137092  0.152536  0.140162  1
  S  S7  1  0.362908  0.503070  0.015444  1
  S  S8  1  0.640162  0.652536  0.637092  1
  S  S9  1  0.515444  0.003070  0.862908  1
  S  S10  1  0.512374  0.996930  0.359838  1
  S  S11  1  0.859838  0.496930  0.012374  1
  Sr  Sr12  1  0.125000  0.750000  0.875000  1
  Sr  Sr13  1  0.375000  0.250000  0.625000  1
