# generated using pymatgen
data_Cd(GaO2)2
_symmetry_space_group_name_H-M   'P 1'
_cell_length_a   6.18629500
_cell_length_b   6.18629500
_cell_length_c   6.18629500
_cell_angle_alpha   60.00000001
_cell_angle_beta   59.99999998
_cell_angle_gamma   60.00000002
_symmetry_Int_Tables_number   1
_chemical_formula_structural   Cd(GaO2)2
_chemical_formula_sum   'Cd2 Ga4 O8'
_cell_volume   167.40825902
_cell_formula_units_Z   2
loop_
 _symmetry_equiv_pos_site_id
 _symmetry_equiv_pos_as_xyz
  1  'x, y, z'
loop_
 _atom_site_type_symbol
 _atom_site_label
 _atom_site_symmetry_multiplicity
 _atom_site_fract_x
 _atom_site_fract_y
 _atom_site_fract_z
 _atom_site_occupancy
  O  O0  1  0.731892  0.731892  0.731892  1
  O  O1  1  0.268108  0.268108  0.695677  1
  O  O2  1  0.268108  0.695677  0.268108  1
  O  O3  1  0.695677  0.268108  0.268108  1
  O  O4  1  0.731892  0.304323  0.731892  1
  O  O5  1  0.304323  0.731892  0.731892  1
  O  O6  1  0.268108  0.268108  0.268108  1
  O  O7  1  0.731892  0.731892  0.304323  1
  Ga  Ga8  1  0.500000  0.000000  0.500000  1
  Ga  Ga9  1  0.000000  0.500000  0.500000  1
  Ga  Ga10  1  0.500000  0.500000  0.000000  1
  Ga  Ga11  1  0.500000  0.500000  0.500000  1
  Cd  Cd12  1  0.875000  0.875000  0.875000  1
  Cd  Cd13  1  0.125000  0.125000  0.125000  1
