# generated using pymatgen
data_Li6NCl3
_symmetry_space_group_name_H-M   'P 1'
_cell_length_a   3.73818154
_cell_length_b   3.74088079
_cell_length_c   15.97350552
_cell_angle_alpha   61.34359907
_cell_angle_beta   61.63565244
_cell_angle_gamma   60.06309982
_symmetry_Int_Tables_number   1
_chemical_formula_structural   Li6NCl3
_chemical_formula_sum   'Li6 N1 Cl3'
_cell_volume   161.49137109
_cell_formula_units_Z   1
loop_
 _symmetry_equiv_pos_site_id
 _symmetry_equiv_pos_as_xyz
  1  'x, y, z'
loop_
 _atom_site_type_symbol
 _atom_site_label
 _atom_site_symmetry_multiplicity
 _atom_site_fract_x
 _atom_site_fract_y
 _atom_site_fract_z
 _atom_site_occupancy
  Cl  Cl0  1  0.033714  0.003911  0.243203  1
  Cl  Cl1  1  0.034347  0.031263  0.493883  1
  Cl  Cl2  1  0.028100  0.024317  0.747729  1
  Li  Li3  1  0.316265  0.292390  0.032424  1
  Li  Li4  1  0.810377  0.781199  0.161573  1
  Li  Li5  1  0.201907  0.181819  0.871474  1
  Li  Li6  1  0.807876  0.806306  0.414928  1
  Li  Li7  1  0.806138  0.804230  0.665318  1
  Li  Li8  1  0.690663  0.667100  0.002389  1
  N  N9  1  0.010614  0.987465  0.012078  1
