# generated using pymatgen
data_Na3CoO2
_symmetry_space_group_name_H-M   'P 1'
_cell_length_a   4.68067651
_cell_length_b   9.44898819
_cell_length_c   9.44898819
_cell_angle_alpha   90.00000000
_cell_angle_beta   90.00000000
_cell_angle_gamma   90.00000000
_symmetry_Int_Tables_number   1
_chemical_formula_structural   Na3CoO2
_chemical_formula_sum   'Na12 Co4 O8'
_cell_volume   417.90660927
_cell_formula_units_Z   4
loop_
 _symmetry_equiv_pos_site_id
 _symmetry_equiv_pos_as_xyz
  1  'x, y, z'
loop_
 _atom_site_type_symbol
 _atom_site_label
 _atom_site_symmetry_multiplicity
 _atom_site_fract_x
 _atom_site_fract_y
 _atom_site_fract_z
 _atom_site_occupancy
  O  O0  1  0.000000  0.540410  0.805066  1
  O  O1  1  0.000000  0.459590  0.194934  1
  O  O2  1  0.500000  0.305066  0.959590  1
  O  O3  1  0.500000  0.694934  0.040410  1
  O  O4  1  0.500000  0.040410  0.694934  1
  O  O5  1  0.000000  0.194934  0.459590  1
  O  O6  1  0.000000  0.805066  0.540410  1
  O  O7  1  0.500000  0.959590  0.305066  1
  Na  Na8  1  0.000000  0.639712  0.360288  1
  Na  Na9  1  0.000000  0.027055  0.657894  1
  Na  Na10  1  0.500000  0.157894  0.472945  1
  Na  Na11  1  0.000000  0.972945  0.342106  1
  Na  Na12  1  0.500000  0.527055  0.842106  1
  Na  Na13  1  0.500000  0.472945  0.157894  1
  Na  Na14  1  0.000000  0.657894  0.027055  1
  Na  Na15  1  0.000000  0.342106  0.972945  1
  Na  Na16  1  0.500000  0.860288  0.860288  1
  Na  Na17  1  0.000000  0.360288  0.639712  1
  Na  Na18  1  0.500000  0.842106  0.527055  1
  Na  Na19  1  0.500000  0.139712  0.139712  1
  Co  Co20  1  0.000000  0.677262  0.677262  1
  Co  Co21  1  0.500000  0.822738  0.177262  1
  Co  Co22  1  0.500000  0.177262  0.822738  1
  Co  Co23  1  0.000000  0.322738  0.322738  1
