# generated using pymatgen
data_GdTiCdSbO7
_symmetry_space_group_name_H-M   'P 1'
_cell_length_a   7.32377490
_cell_length_b   14.67220707
_cell_length_c   12.71357776
_cell_angle_alpha   29.94443116
_cell_angle_beta   54.82615625
_cell_angle_gamma   60.05543952
_symmetry_Int_Tables_number   1
_chemical_formula_structural   GdTiCdSbO7
_chemical_formula_sum   'Gd4 Ti4 Cd4 Sb4 O28'
_cell_volume   557.41252254
_cell_formula_units_Z   4
loop_
 _symmetry_equiv_pos_site_id
 _symmetry_equiv_pos_as_xyz
  1  'x, y, z'
loop_
 _atom_site_type_symbol
 _atom_site_label
 _atom_site_symmetry_multiplicity
 _atom_site_fract_x
 _atom_site_fract_y
 _atom_site_fract_z
 _atom_site_occupancy
  Cd  Cd0  1  0.499997  0.992076  0.007932  1
  Cd  Cd1  1  0.007931  0.749996  0.499998  1
  Cd  Cd2  1  0.000015  0.507913  0.992079  1
  Cd  Cd3  1  0.992062  0.750002  0.000002  1
  Gd  Gd4  1  0.000010  0.985609  0.014387  1
  Gd  Gd5  1  0.499996  0.514375  0.985629  1
  Gd  Gd6  1  0.014412  0.250010  -0.000013  1
  Gd  Gd7  1  0.985591  0.249994  0.500003  1
  O  O8  1  0.127870  0.997129  0.127877  1
  O  O9  1  0.183238  0.196391  0.171792  1
  O  O10  1  0.588613  0.000735  0.175788  1
  O  O11  1  0.122128  0.502875  0.122121  1
  O  O12  1  0.576868  0.201872  0.173135  1
  O  O13  1  0.173138  0.298136  0.576862  1
  O  O14  1  0.171801  0.698568  0.183236  1
  O  O15  1  0.423129  0.201869  0.423130  1
  O  O16  1  0.175796  0.484881  0.588595  1
  O  O17  1  0.558357  0.499262  0.177248  1
  O  O18  1  0.822740  0.015120  0.411396  1
  O  O19  1  0.816756  0.196394  0.435415  1
  O  O20  1  0.580378  0.303605  0.564583  1
  O  O21  1  0.575477  0.700491  0.174510  1
  O  O22  1  0.174509  0.799513  0.575491  1
  O  O23  1  0.419623  0.303606  0.828209  1
  O  O24  1  0.424524  0.700486  0.424522  1
  O  O25  1  0.177253  0.015126  0.558350  1
  O  O26  1  0.441642  0.499264  0.824224  1
  O  O27  1  0.872131  0.997124  0.877871  1
  O  O28  1  0.824226  0.484861  0.441652  1
  O  O29  1  0.564595  0.801430  0.580389  1
  O  O30  1  0.826880  0.298130  0.826871  1
  O  O31  1  0.828197  0.698569  0.419621  1
  O  O32  1  0.435403  0.801429  0.816754  1
  O  O33  1  0.411388  0.000732  0.822748  1
  O  O34  1  0.877865  0.502881  0.872128  1
  O  O35  1  0.825487  0.799514  0.825482  1
  Sb  Sb36  1  0.494425  0.749997  -0.000017  1
  Sb  Sb37  1  0.999980  0.005619  0.494376  1
  Sb  Sb38  1  0.500014  0.494390  0.505613  1
  Sb  Sb39  1  0.505569  0.750010  0.500014  1
  Ti  Ti40  1  0.512444  0.249998  0.000000  1
  Ti  Ti41  1  0.499981  0.012442  0.487562  1
  Ti  Ti42  1  0.487553  0.249998  0.500008  1
  Ti  Ti43  1  1.000007  0.487579  0.512424  1
