# generated using pymatgen
data_K4P21I
_symmetry_space_group_name_H-M   'P 1'
_cell_length_a   9.88348171
_cell_length_b   12.85822198
_cell_length_c   12.85822198
_cell_angle_alpha   117.25610686
_cell_angle_beta   90.00000000
_cell_angle_gamma   90.00000000
_symmetry_Int_Tables_number   1
_chemical_formula_structural   K4P21I
_chemical_formula_sum   'K8 P42 I2'
_cell_volume   1452.64031231
_cell_formula_units_Z   2
loop_
 _symmetry_equiv_pos_site_id
 _symmetry_equiv_pos_as_xyz
  1  'x, y, z'
loop_
 _atom_site_type_symbol
 _atom_site_label
 _atom_site_symmetry_multiplicity
 _atom_site_fract_x
 _atom_site_fract_y
 _atom_site_fract_z
 _atom_site_occupancy
  P  P0  1  0.750000  0.039621  0.039621  1
  P  P1  1  0.250000  0.960379  0.960379  1
  P  P2  1  0.750000  0.337053  0.791168  1
  P  P3  1  0.250000  0.662947  0.208832  1
  P  P4  1  0.750000  0.791168  0.337053  1
  P  P5  1  0.250000  0.208832  0.662947  1
  P  P6  1  0.075719  0.689518  0.991986  1
  P  P7  1  0.575719  0.310482  0.008014  1
  P  P8  1  0.424281  0.991986  0.689518  1
  P  P9  1  0.924281  0.008014  0.310482  1
  P  P10  1  0.084304  0.940797  0.498727  1
  P  P11  1  0.584304  0.059203  0.501273  1
  P  P12  1  0.415696  0.498727  0.940797  1
  P  P13  1  0.915696  0.501273  0.059203  1
  P  P14  1  0.915696  0.059203  0.501273  1
  P  P15  1  0.415696  0.940797  0.498727  1
  P  P16  1  0.584304  0.501273  0.059203  1
  P  P17  1  0.084304  0.498727  0.940797  1
  P  P18  1  0.086443  0.854230  0.854230  1
  P  P19  1  0.586443  0.145770  0.145770  1
  P  P20  1  0.413557  0.854230  0.854230  1
  P  P21  1  0.913557  0.145770  0.145770  1
  P  P22  1  0.250000  0.056426  0.494153  1
  P  P23  1  0.750000  0.943574  0.505847  1
  P  P24  1  0.250000  0.494153  0.056426  1
  P  P25  1  0.750000  0.505847  0.943574  1
  P  P26  1  0.250000  0.117957  0.768011  1
  P  P27  1  0.750000  0.882043  0.231989  1
  P  P28  1  0.250000  0.768011  0.117957  1
  P  P29  1  0.750000  0.231989  0.882043  1
  P  P30  1  0.135107  0.819557  0.671221  1
  P  P31  1  0.635107  0.180443  0.328779  1
  P  P32  1  0.364893  0.671221  0.819557  1
  P  P33  1  0.864893  0.328779  0.180443  1
  P  P34  1  0.864893  0.180443  0.328779  1
  P  P35  1  0.364893  0.819557  0.671221  1
  P  P36  1  0.635107  0.328779  0.180443  1
  P  P37  1  0.135107  0.671221  0.819557  1
  P  P38  1  0.075719  0.991986  0.689518  1
  P  P39  1  0.575719  0.008014  0.310482  1
  P  P40  1  0.424281  0.689518  0.991986  1
  P  P41  1  0.924281  0.310482  0.008014  1
  K  K42  1  0.750000  0.753821  0.931607  1
  K  K43  1  0.250000  0.246179  0.068393  1
  K  K44  1  0.750000  0.931607  0.753821  1
  K  K45  1  0.250000  0.068393  0.246179  1
  K  K46  1  0.500000  0.620896  0.379104  1
  K  K47  1  0.000000  0.379104  0.620896  1
  K  K48  1  0.500000  0.379104  0.620896  1
  K  K49  1  0.000000  0.620896  0.379104  1
  I  I50  1  0.750000  0.600879  0.600879  1
  I  I51  1  0.250000  0.399121  0.399121  1
