# generated using pymatgen
data_Sr3UO6
_symmetry_space_group_name_H-M   'P 1'
_cell_length_a   6.05300563
_cell_length_b   6.28418781
_cell_length_c   8.71357677
_cell_angle_alpha   90.00000000
_cell_angle_beta   90.33300517
_cell_angle_gamma   90.00000000
_symmetry_Int_Tables_number   1
_chemical_formula_structural   Sr3UO6
_chemical_formula_sum   'Sr6 U2 O12'
_cell_volume   331.44338851
_cell_formula_units_Z   2
loop_
 _symmetry_equiv_pos_site_id
 _symmetry_equiv_pos_as_xyz
  1  'x, y, z'
loop_
 _atom_site_type_symbol
 _atom_site_label
 _atom_site_symmetry_multiplicity
 _atom_site_fract_x
 _atom_site_fract_y
 _atom_site_fract_z
 _atom_site_occupancy
  O  O0  1  0.423437  0.745353  0.173305  1
  O  O1  1  0.576563  0.245353  0.826695  1
  O  O2  1  0.968095  0.841781  0.299808  1
  O  O3  1  0.031905  0.341781  0.700192  1
  O  O4  1  0.867863  0.580664  0.974105  1
  O  O5  1  0.132137  0.080664  0.025895  1
  O  O6  1  0.923795  0.790767  0.673054  1
  O  O7  1  0.076205  0.290767  0.326946  1
  O  O8  1  0.632174  0.455745  0.525868  1
  O  O9  1  0.367826  0.955745  0.474132  1
  O  O10  1  0.531667  0.194702  0.200129  1
  O  O11  1  0.468333  0.694702  0.799871  1
  Sr  Sr12  1  0.250021  0.018179  0.750010  1
  Sr  Sr13  1  0.749979  0.518179  0.249990  1
  Sr  Sr14  1  0.235495  0.566998  0.507165  1
  Sr  Sr15  1  0.764505  0.066998  0.492835  1
  Sr  Sr16  1  0.735490  0.969435  0.007289  1
  Sr  Sr17  1  0.264510  0.469435  0.992711  1
  U  U18  1  0.249930  0.018176  0.250030  1
  U  U19  1  0.750070  0.518176  0.749970  1
