# generated using pymatgen
data_Na2BeF4
_symmetry_space_group_name_H-M   'P 1'
_cell_length_a   5.62974327
_cell_length_b   8.02258635
_cell_length_c   8.10679719
_cell_angle_alpha   90.00000000
_cell_angle_beta   90.00000000
_cell_angle_gamma   99.85076624
_symmetry_Int_Tables_number   1
_chemical_formula_structural   Na2BeF4
_chemical_formula_sum   'Na8 Be4 F16'
_cell_volume   360.74614224
_cell_formula_units_Z   4
loop_
 _symmetry_equiv_pos_site_id
 _symmetry_equiv_pos_as_xyz
  1  'x, y, z'
loop_
 _atom_site_type_symbol
 _atom_site_label
 _atom_site_symmetry_multiplicity
 _atom_site_fract_x
 _atom_site_fract_y
 _atom_site_fract_z
 _atom_site_occupancy
  Be  Be0  1  0.707897  0.461856  0.697075  1
  Be  Be1  1  0.292103  0.538144  0.302925  1
  Be  Be2  1  0.207897  0.961856  0.802925  1
  Be  Be3  1  0.792103  0.038144  0.197075  1
  F  F4  1  0.083935  0.568079  0.181546  1
  F  F5  1  0.416065  0.931921  0.681546  1
  F  F6  1  0.916065  0.431921  0.818454  1
  F  F7  1  0.583935  0.068079  0.318454  1
  F  F8  1  0.686219  0.898504  0.070072  1
  F  F9  1  0.186219  0.398504  0.429928  1
  F  F10  1  0.813781  0.601496  0.570072  1
  F  F11  1  0.313781  0.101496  0.929928  1
  F  F12  1  0.883568  0.206886  0.106961  1
  F  F13  1  0.616432  0.293114  0.606961  1
  F  F14  1  0.116432  0.793114  0.893039  1
  F  F15  1  0.383568  0.706886  0.393039  1
  F  F16  1  0.995421  0.979656  0.304922  1
  F  F17  1  0.504579  0.520344  0.804922  1
  F  F18  1  0.004579  0.020344  0.695078  1
  F  F19  1  0.495421  0.479656  0.195078  1
  Na  Na20  1  0.214026  0.625289  0.657016  1
  Na  Na21  1  0.285974  0.874711  0.157016  1
  Na  Na22  1  0.785974  0.374711  0.342984  1
  Na  Na23  1  0.714026  0.125289  0.842984  1
  Na  Na24  1  0.718895  0.863267  0.513500  1
  Na  Na25  1  0.781105  0.636733  0.013500  1
  Na  Na26  1  0.281105  0.136733  0.486500  1
  Na  Na27  1  0.218895  0.363267  0.986500  1
