# generated using pymatgen
data_Na3(CoO2)4
_symmetry_space_group_name_H-M   'P 1'
_cell_length_a   12.06723133
_cell_length_b   7.87766627
_cell_length_c   9.05031133
_cell_angle_alpha   41.08528381
_cell_angle_beta   26.90893166
_cell_angle_gamma   26.51281030
_symmetry_Int_Tables_number   1
_chemical_formula_structural   Na3(CoO2)4
_chemical_formula_sum   'Na3 Co4 O8'
_cell_volume   169.59830662
_cell_formula_units_Z   1
loop_
 _symmetry_equiv_pos_site_id
 _symmetry_equiv_pos_as_xyz
  1  'x, y, z'
loop_
 _atom_site_type_symbol
 _atom_site_label
 _atom_site_symmetry_multiplicity
 _atom_site_fract_x
 _atom_site_fract_y
 _atom_site_fract_z
 _atom_site_occupancy
  Co  Co0  1  0.806115  0.236569  0.054442  1
  Co  Co1  1  0.250000  0.000000  0.000000  1
  Co  Co2  1  0.693885  0.763431  0.945558  1
  Co  Co3  1  0.750000  0.000000  0.000000  1
  Na  Na4  1  0.024588  0.550338  0.382269  1
  Na  Na5  1  0.475412  0.449662  0.617731  1
  Na  Na6  1  0.750000  0.500000  0.500000  1
  O  O7  1  0.041762  0.958498  0.133112  1
  O  O8  1  0.112760  0.289923  0.666455  1
  O  O9  1  0.387240  0.710077  0.333545  1
  O  O10  1  0.458238  0.041502  0.866888  1
  O  O11  1  0.845166  0.571032  0.094728  1
  O  O12  1  0.635640  0.143415  0.847719  1
  O  O13  1  0.864360  0.856585  0.152281  1
  O  O14  1  0.654834  0.428968  0.905272  1
