# generated using pymatgen
data_SrPrO3
_symmetry_space_group_name_H-M   'P 1'
_cell_length_a   6.32414918
_cell_length_b   6.51206754
_cell_length_c   8.50395452
_cell_angle_alpha   90.00000000
_cell_angle_beta   90.00000000
_cell_angle_gamma   90.00000000
_symmetry_Int_Tables_number   1
_chemical_formula_structural   SrPrO3
_chemical_formula_sum   'Sr4 Pr4 O12'
_cell_volume   350.22079617
_cell_formula_units_Z   4
loop_
 _symmetry_equiv_pos_site_id
 _symmetry_equiv_pos_as_xyz
  1  'x, y, z'
loop_
 _atom_site_type_symbol
 _atom_site_label
 _atom_site_symmetry_multiplicity
 _atom_site_fract_x
 _atom_site_fract_y
 _atom_site_fract_z
 _atom_site_occupancy
  O  O0  1  0.789787  0.787722  0.082555  1
  O  O1  1  0.289787  0.712278  0.917445  1
  O  O2  1  0.289787  0.712278  0.582555  1
  O  O3  1  0.789787  0.787722  0.417445  1
  O  O4  1  0.852129  0.582372  0.750000  1
  O  O5  1  0.147871  0.417628  0.250000  1
  O  O6  1  0.210213  0.212278  0.582555  1
  O  O7  1  0.352129  0.917628  0.250000  1
  O  O8  1  0.647871  0.082372  0.750000  1
  O  O9  1  0.710213  0.287722  0.417445  1
  O  O10  1  0.710213  0.287722  0.082555  1
  O  O11  1  0.210213  0.212278  0.917445  1
  Pr  Pr12  1  0.000000  0.500000  0.500000  1
  Pr  Pr13  1  0.000000  0.500000  0.000000  1
  Pr  Pr14  1  0.500000  0.000000  0.000000  1
  Pr  Pr15  1  0.500000  0.000000  0.500000  1
  Sr  Sr16  1  0.020405  0.948444  0.750000  1
  Sr  Sr17  1  0.479595  0.448444  0.750000  1
  Sr  Sr18  1  0.520405  0.551556  0.250000  1
  Sr  Sr19  1  0.979595  0.051556  0.250000  1
