# generated using pymatgen
data_LiNb3O8
_symmetry_space_group_name_H-M   'P 1'
_cell_length_a   5.13745398
_cell_length_b   7.62373283
_cell_length_c   15.18713637
_cell_angle_alpha   101.46604099
_cell_angle_beta   90.00000000
_cell_angle_gamma   90.00000000
_symmetry_Int_Tables_number   1
_chemical_formula_structural   LiNb3O8
_chemical_formula_sum   'Li4 Nb12 O32'
_cell_volume   582.95697423
_cell_formula_units_Z   4
loop_
 _symmetry_equiv_pos_site_id
 _symmetry_equiv_pos_as_xyz
  1  'x, y, z'
loop_
 _atom_site_type_symbol
 _atom_site_label
 _atom_site_symmetry_multiplicity
 _atom_site_fract_x
 _atom_site_fract_y
 _atom_site_fract_z
 _atom_site_occupancy
  Li  Li0  1  0.741722  0.840187  0.579353  1
  Li  Li1  1  0.758280  0.340187  0.079353  1
  Li  Li2  1  0.258279  0.159812  0.420648  1
  Li  Li3  1  0.241721  0.659812  0.920648  1
  O  O4  1  0.066774  0.698370  0.781964  1
  O  O5  1  0.579445  0.061918  0.100994  1
  O  O6  1  0.920556  0.561918  0.600994  1
  O  O7  1  0.420556  0.938083  0.899005  1
  O  O8  1  0.934316  0.803250  0.451317  1
  O  O9  1  0.434315  0.696750  0.048683  1
  O  O10  1  0.065683  0.196749  0.548683  1
  O  O11  1  0.565684  0.303250  0.951317  1
  O  O12  1  0.585269  0.567425  0.345480  1
  O  O13  1  0.914732  0.067425  0.845480  1
  O  O14  1  0.414731  0.432575  0.654520  1
  O  O15  1  0.085269  0.932575  0.154520  1
  O  O16  1  0.566774  0.801630  0.718035  1
  O  O17  1  0.079445  0.438083  0.399005  1
  O  O18  1  0.433227  0.198370  0.281964  1
  O  O19  1  0.933227  0.301630  0.218036  1
  O  O20  1  0.598119  0.580528  0.845290  1
  O  O21  1  0.098118  0.919472  0.654710  1
  O  O22  1  0.401882  0.419472  0.154710  1
  O  O23  1  0.901882  0.080528  0.345290  1
  O  O24  1  0.438010  0.902364  0.401328  1
  O  O25  1  0.912024  0.300991  0.715717  1
  O  O26  1  0.587975  0.800991  0.215717  1
  O  O27  1  0.087975  0.699008  0.284283  1
  O  O28  1  0.894339  0.813243  0.960642  1
  O  O29  1  0.394339  0.686757  0.539359  1
  O  O30  1  0.105662  0.186757  0.039359  1
  O  O31  1  0.605660  0.313243  0.460641  1
  O  O32  1  0.061990  0.402364  0.901327  1
  O  O33  1  0.561991  0.097636  0.598673  1
  O  O34  1  0.938011  0.597636  0.098673  1
  O  O35  1  0.412026  0.199008  0.784283  1
  Nb  Nb36  1  0.760335  0.850331  0.335972  1
  Nb  Nb37  1  0.260337  0.649670  0.164028  1
  Nb  Nb38  1  0.239664  0.149670  0.664028  1
  Nb  Nb39  1  0.739664  0.350331  0.835972  1
  Nb  Nb40  1  0.256552  0.672996  0.423687  1
  Nb  Nb41  1  0.756553  0.827004  0.076314  1
  Nb  Nb42  1  0.743446  0.327004  0.576314  1
  Nb  Nb43  1  0.243448  0.172996  0.923687  1
  Nb  Nb44  1  0.765458  0.336092  0.332497  1
  Nb  Nb45  1  0.265460  0.163909  0.167503  1
  Nb  Nb46  1  0.234541  0.663907  0.667503  1
  Nb  Nb47  1  0.734541  0.836092  0.832497  1
