# generated using pymatgen
data_Sr(SmSe2)2
_symmetry_space_group_name_H-M   'P 1'
_cell_length_a   7.79343774
_cell_length_b   7.79343778
_cell_length_c   7.79343779
_cell_angle_alpha   109.40481405
_cell_angle_beta   109.60410539
_cell_angle_gamma   109.40482298
_symmetry_Int_Tables_number   1
_chemical_formula_structural   Sr(SmSe2)2
_chemical_formula_sum   'Sr2 Sm4 Se8'
_cell_volume   364.38759126
_cell_formula_units_Z   2
loop_
 _symmetry_equiv_pos_site_id
 _symmetry_equiv_pos_as_xyz
  1  'x, y, z'
loop_
 _atom_site_type_symbol
 _atom_site_label
 _atom_site_symmetry_multiplicity
 _atom_site_fract_x
 _atom_site_fract_y
 _atom_site_fract_z
 _atom_site_occupancy
  Se  Se0  1  0.987739  0.846075  0.489489  1
  Se  Se1  1  0.989489  0.346075  0.487739  1
  Se  Se2  1  0.510511  0.998251  0.356587  1
  Se  Se3  1  0.141664  0.153925  0.143413  1
  Se  Se4  1  0.358336  0.501749  0.012261  1
  Se  Se5  1  0.643413  0.653925  0.641664  1
  Se  Se6  1  0.512261  0.001749  0.858336  1
  Se  Se7  1  0.856587  0.498251  0.010511  1
  Sm  Sm8  1  0.250000  0.625589  0.375589  1
  Sm  Sm9  1  0.624411  0.374411  0.250000  1
  Sm  Sm10  1  0.750000  0.874411  0.124411  1
  Sm  Sm11  1  0.875589  0.125589  0.750000  1
  Sr  Sr12  1  0.125000  0.750000  0.875000  1
  Sr  Sr13  1  0.375000  0.250000  0.625000  1
