# generated using pymatgen
data_TiZn2O4
_symmetry_space_group_name_H-M   'P 1'
_cell_length_a   6.09154016
_cell_length_b   6.09154070
_cell_length_c   6.02337742
_cell_angle_alpha   60.36946339
_cell_angle_beta   60.36946558
_cell_angle_gamma   58.72777898
_symmetry_Int_Tables_number   1
_chemical_formula_structural   TiZn2O4
_chemical_formula_sum   'Ti2 Zn4 O8'
_cell_volume   157.32112524
_cell_formula_units_Z   2
loop_
 _symmetry_equiv_pos_site_id
 _symmetry_equiv_pos_as_xyz
  1  'x, y, z'
loop_
 _atom_site_type_symbol
 _atom_site_label
 _atom_site_symmetry_multiplicity
 _atom_site_fract_x
 _atom_site_fract_y
 _atom_site_fract_z
 _atom_site_occupancy
  O  O0  1  0.275287  0.275287  0.238882  1
  O  O1  1  0.275287  0.275287  0.710545  1
  O  O2  1  0.281802  0.727622  0.245288  1
  O  O3  1  0.727622  0.281802  0.245288  1
  O  O4  1  0.272378  0.718198  0.754712  1
  O  O5  1  0.718198  0.272378  0.754712  1
  O  O6  1  0.724713  0.724713  0.289455  1
  O  O7  1  0.724713  0.724713  0.761118  1
  Ti  Ti8  1  0.500000  0.500000  0.000000  1
  Ti  Ti9  1  0.500000  0.500000  0.500000  1
  Zn  Zn10  1  0.139323  0.139323  0.110677  1
  Zn  Zn11  1  0.000000  0.500000  0.500000  1
  Zn  Zn12  1  0.500000  0.000000  0.500000  1
  Zn  Zn13  1  0.860677  0.860677  0.889323  1
