# generated using pymatgen
data_Ta2TlO6
_symmetry_space_group_name_H-M   'P 1'
_cell_length_a   7.54396607
_cell_length_b   7.54396564
_cell_length_c   7.53478770
_cell_angle_alpha   60.04024147
_cell_angle_beta   60.04024337
_cell_angle_gamma   60.03389028
_symmetry_Int_Tables_number   1
_chemical_formula_structural   Ta2TlO6
_chemical_formula_sum   'Ta4 Tl2 O12'
_cell_volume   303.48036246
_cell_formula_units_Z   2
loop_
 _symmetry_equiv_pos_site_id
 _symmetry_equiv_pos_as_xyz
  1  'x, y, z'
loop_
 _atom_site_type_symbol
 _atom_site_label
 _atom_site_symmetry_multiplicity
 _atom_site_fract_x
 _atom_site_fract_y
 _atom_site_fract_z
 _atom_site_occupancy
  Ta  Ta0  1  -0.000000  0.000000  0.000000  1
  Ta  Ta1  1  -0.000000  0.500000  0.000000  1
  Ta  Ta2  1  0.500000  0.000000  0.000000  1
  Ta  Ta3  1  -0.000000  0.000000  0.500000  1
  Tl  Tl4  1  0.500000  0.500000  0.500000  1
  Tl  Tl5  1  0.500000  0.500000  0.000000  1
  O  O6  1  0.057267  0.057267  0.692733  1
  O  O7  1  0.065911  0.687430  0.058123  1
  O  O8  1  0.687430  0.065911  0.058123  1
  O  O9  1  0.065911  0.687430  0.688535  1
  O  O10  1  0.313803  0.313803  0.936197  1
  O  O11  1  0.312570  0.934089  0.311465  1
  O  O12  1  0.687430  0.065911  0.688535  1
  O  O13  1  0.686197  0.686197  0.063803  1
  O  O14  1  0.934089  0.312570  0.311465  1
  O  O15  1  0.312570  0.934089  0.941877  1
  O  O16  1  0.942733  0.942733  0.307267  1
  O  O17  1  0.934089  0.312570  0.941877  1
