# generated using pymatgen
data_Pr6Fe13Ag
_symmetry_space_group_name_H-M   'P 1'
_cell_length_a   8.07537346
_cell_length_b   8.07537345
_cell_length_c   13.04773127
_cell_angle_alpha   108.02639418
_cell_angle_beta   108.02639414
_cell_angle_gamma   89.99999999
_symmetry_Int_Tables_number   1
_chemical_formula_structural   Pr6Fe13Ag
_chemical_formula_sum   'Pr12 Fe26 Ag2'
_cell_volume   765.05659182
_cell_formula_units_Z   2
loop_
 _symmetry_equiv_pos_site_id
 _symmetry_equiv_pos_as_xyz
  1  'x, y, z'
loop_
 _atom_site_type_symbol
 _atom_site_label
 _atom_site_symmetry_multiplicity
 _atom_site_fract_x
 _atom_site_fract_y
 _atom_site_fract_z
 _atom_site_occupancy
  Fe  Fe0  1  0.433479  0.709993  0.000000  1
  Fe  Fe1  1  0.120471  0.620471  0.883629  1
  Fe  Fe2  1  0.979640  0.707008  0.186648  1
  Fe  Fe3  1  0.020360  0.292992  0.813352  1
  Fe  Fe4  1  0.792992  0.520360  0.813352  1
  Fe  Fe5  1  0.292992  0.792992  0.813352  1
  Fe  Fe6  1  0.520360  0.020360  0.813352  1
  Fe  Fe7  1  0.479640  0.979640  0.186648  1
  Fe  Fe8  1  0.707008  0.207008  0.186648  1
  Fe  Fe9  1  0.207008  0.479640  0.186648  1
  Fe  Fe10  1  0.736842  0.879529  0.116371  1
  Fe  Fe11  1  0.263158  0.120471  0.883629  1
  Fe  Fe12  1  0.500000  0.000000  0.000000  1
  Fe  Fe13  1  0.763158  0.263158  0.883629  1
  Fe  Fe14  1  0.790007  0.066521  0.000000  1
  Fe  Fe15  1  0.933479  0.790007  0.000000  1
  Fe  Fe16  1  0.066521  0.209993  0.000000  1
  Fe  Fe17  1  0.290007  0.433479  0.000000  1
  Fe  Fe18  1  0.709993  0.566521  0.000000  1
  Fe  Fe19  1  0.566521  0.290007  0.000000  1
  Fe  Fe20  1  0.000000  0.500000  0.000000  1
  Fe  Fe21  1  0.209993  0.933479  0.000000  1
  Fe  Fe22  1  0.379529  0.236842  0.116371  1
  Fe  Fe23  1  0.879529  0.379529  0.116371  1
  Fe  Fe24  1  0.236842  0.736842  0.116371  1
  Fe  Fe25  1  0.620471  0.763158  0.883629  1
  Ag  Ag26  1  0.250000  0.250000  0.500000  1
  Ag  Ag27  1  0.750000  0.750000  0.500000  1
  Pr  Pr28  1  0.347219  0.847219  0.368915  1
  Pr  Pr29  1  0.152781  0.978305  0.631085  1
  Pr  Pr30  1  0.478305  0.652781  0.631085  1
  Pr  Pr31  1  0.978305  0.478305  0.631085  1
  Pr  Pr32  1  0.652781  0.152781  0.631085  1
  Pr  Pr33  1  0.847219  0.021695  0.368915  1
  Pr  Pr34  1  0.021695  0.521695  0.368915  1
  Pr  Pr35  1  0.521695  0.347219  0.368915  1
  Pr  Pr36  1  0.605130  0.605130  0.210260  1
  Pr  Pr37  1  0.894870  0.894870  0.789740  1
  Pr  Pr38  1  0.394870  0.394870  0.789740  1
  Pr  Pr39  1  0.105130  0.105130  0.210260  1
