# generated using pymatgen
data_Ca(Nd2Se3)4
_symmetry_space_group_name_H-M   'P 1'
_cell_length_a   23.24396731
_cell_length_b   8.95632242
_cell_length_c   8.95632801
_cell_angle_alpha   90.03643117
_cell_angle_beta   54.73322633
_cell_angle_gamma   54.73323845
_symmetry_Int_Tables_number   1
_chemical_formula_structural   Ca(Nd2Se3)4
_chemical_formula_sum   'Ca2 Nd16 Se24'
_cell_volume   1075.67647492
_cell_formula_units_Z   2
loop_
 _symmetry_equiv_pos_site_id
 _symmetry_equiv_pos_as_xyz
  1  'x, y, z'
loop_
 _atom_site_type_symbol
 _atom_site_label
 _atom_site_symmetry_multiplicity
 _atom_site_fract_x
 _atom_site_fract_y
 _atom_site_fract_z
 _atom_site_occupancy
  Ca  Ca0  1  0.166725  0.250103  0.624877  1
  Ca  Ca1  1  0.666725  0.124877  0.750103  1
  Nd  Nd2  1  0.082917  0.624716  0.376722  1
  Nd  Nd3  1  0.333265  0.378158  0.250275  1
  Nd  Nd4  1  0.249995  0.874466  0.127659  1
  Nd  Nd5  1  0.332714  0.126029  0.748969  1
  Nd  Nd6  1  0.166642  0.750150  0.872270  1
  Nd  Nd7  1  0.416588  0.625783  0.374968  1
  Nd  Nd8  1  0.500978  0.248270  0.622176  1
  Nd  Nd9  1  0.666642  0.372271  0.250150  1
  Nd  Nd10  1  0.582917  0.876722  0.124715  1
  Nd  Nd11  1  0.499774  0.748373  0.877171  1
  Nd  Nd12  1  0.749995  0.627659  0.374466  1
  Nd  Nd13  1  0.832714  0.248969  0.626029  1
  Nd  Nd14  1  0.999774  0.377171  0.248372  1
  Nd  Nd15  1  0.916589  0.874968  0.125782  1
  Nd  Nd16  1  0.000978  0.122176  0.748270  1
  Nd  Nd17  1  0.833265  0.750274  0.878158  1
  Se  Se18  1  0.049480  0.999380  0.351382  1
  Se  Se19  1  0.117292  0.500919  0.003059  1
  Se  Se20  1  0.048486  0.352423  0.498031  1
  Se  Se21  1  0.285166  0.147145  0.143126  1
  Se  Se22  1  0.283644  0.500828  0.000093  1
  Se  Se23  1  0.216554  0.997717  0.854628  1
  Se  Se24  1  0.117037  0.647248  0.650839  1
  Se  Se25  1  0.382221  0.000870  0.351086  1
  Se  Se26  1  0.215867  0.853226  0.502634  1
  Se  Se27  1  0.450388  0.498039  0.999759  1
  Se  Se28  1  0.383576  0.349935  0.499934  1
  Se  Se29  1  0.617037  0.150839  0.147249  1
  Se  Se30  1  0.617292  0.503059  0.000919  1
  Se  Se31  1  0.450691  0.648412  0.648151  1
  Se  Se32  1  0.548485  0.998031  0.852423  1
  Se  Se33  1  0.715867  0.002634  0.353226  1
  Se  Se34  1  0.549480  0.851382  0.499380  1
  Se  Se35  1  0.783644  0.500093  0.000827  1
  Se  Se36  1  0.716554  0.354628  0.497717  1
  Se  Se37  1  0.950691  0.148152  0.148412  1
  Se  Se38  1  0.950388  0.499759  0.998040  1
  Se  Se39  1  0.883576  -0.000067  0.849935  1
  Se  Se40  1  0.785166  0.643126  0.647145  1
  Se  Se41  1  0.882220  0.851087  0.500872  1
