# generated using pymatgen
data_Co2NiO4
_symmetry_space_group_name_H-M   'P 1'
_cell_length_a   5.82591644
_cell_length_b   5.76673251
_cell_length_c   5.82591606
_cell_angle_alpha   60.33548281
_cell_angle_beta   59.63220492
_cell_angle_gamma   60.33548542
_symmetry_Int_Tables_number   1
_chemical_formula_structural   Co2NiO4
_chemical_formula_sum   'Co4 Ni2 O8'
_cell_volume   138.70537552
_cell_formula_units_Z   2
loop_
 _symmetry_equiv_pos_site_id
 _symmetry_equiv_pos_as_xyz
  1  'x, y, z'
loop_
 _atom_site_type_symbol
 _atom_site_label
 _atom_site_symmetry_multiplicity
 _atom_site_fract_x
 _atom_site_fract_y
 _atom_site_fract_z
 _atom_site_occupancy
  Co  Co0  1  0.129523  0.120477  0.129523  1
  Co  Co1  1  0.500000  0.000000  0.500000  1
  Co  Co2  1  0.500000  0.500000  0.500000  1
  Co  Co3  1  0.870477  0.879523  0.870477  1
  Ni  Ni4  1  0.000000  0.500000  0.500000  1
  Ni  Ni5  1  0.500000  0.500000  0.000000  1
  O  O6  1  0.270015  0.248716  0.270015  1
  O  O7  1  0.276282  0.252088  0.719542  1
  O  O8  1  0.270015  0.711253  0.270015  1
  O  O9  1  0.719542  0.252088  0.276282  1
  O  O10  1  0.280458  0.747912  0.723718  1
  O  O11  1  0.729985  0.288747  0.729985  1
  O  O12  1  0.723718  0.747912  0.280458  1
  O  O13  1  0.729985  0.751284  0.729985  1
