# generated using pymatgen
data_LiMo2(PO4)3
_symmetry_space_group_name_H-M   'P 1'
_cell_length_a   4.90010524
_cell_length_b   4.90010603
_cell_length_c   20.31813940
_cell_angle_alpha   87.68856114
_cell_angle_beta   87.68856074
_cell_angle_gamma   66.52893477
_symmetry_Int_Tables_number   1
_chemical_formula_structural   LiMo2(PO4)3
_chemical_formula_sum   'Li2 Mo4 P6 O24'
_cell_volume   446.97384024
_cell_formula_units_Z   2
loop_
 _symmetry_equiv_pos_site_id
 _symmetry_equiv_pos_as_xyz
  1  'x, y, z'
loop_
 _atom_site_type_symbol
 _atom_site_label
 _atom_site_symmetry_multiplicity
 _atom_site_fract_x
 _atom_site_fract_y
 _atom_site_fract_z
 _atom_site_occupancy
  Li  Li0  1  -0.000086  -0.000086  0.828788  1
  Li  Li1  1  0.000086  0.000086  0.504545  1
  Mo  Mo2  1  0.000000  0.000000  0.166667  1
  Mo  Mo3  1  0.988008  0.988008  0.335075  1
  Mo  Mo4  1  0.000000  0.000000  0.666667  1
  Mo  Mo5  1  0.011992  0.011992  0.998258  1
  P  P6  1  0.340235  0.340235  0.745317  1
  P  P7  1  0.329412  0.329412  0.412490  1
  P  P8  1  0.645283  0.645283  0.249314  1
  P  P9  1  0.659765  0.659765  0.588016  1
  P  P10  1  0.670589  0.670589  0.920843  1
  P  P11  1  0.354717  0.354717  0.084019  1
  O  O12  1  0.309574  0.781633  0.596746  1
  O  O13  1  0.323341  0.789868  0.929794  1
  O  O14  1  0.777220  0.777220  0.984836  1
  O  O15  1  0.789868  0.323341  0.929794  1
  O  O16  1  0.769673  0.769673  0.857829  1
  O  O17  1  0.227660  0.707075  0.082503  1
  O  O18  1  0.690426  0.218367  0.736587  1
  O  O19  1  0.232368  0.232368  0.682456  1
  O  O20  1  0.238969  0.238969  0.807850  1
  O  O21  1  0.254418  0.254418  0.022192  1
  O  O22  1  0.210132  0.676659  0.403539  1
  O  O23  1  0.745066  0.745066  0.184438  1
  O  O24  1  0.230327  0.230327  0.475504  1
  O  O25  1  0.761031  0.761031  0.525484  1
  O  O26  1  0.745582  0.745582  0.311141  1
  O  O27  1  0.254934  0.254934  0.148896  1
  O  O28  1  0.772340  0.292925  0.250831  1
  O  O29  1  0.222780  0.222780  0.348497  1
  O  O30  1  0.676659  0.210132  0.403539  1
  O  O31  1  0.707075  0.227660  0.082503  1
  O  O32  1  0.292925  0.772340  0.250831  1
  O  O33  1  0.767632  0.767632  0.650877  1
  O  O34  1  0.218367  0.690426  0.736587  1
  O  O35  1  0.781633  0.309574  0.596746  1
