# generated using pymatgen
data_Li3Mo2(PO4)3
_symmetry_space_group_name_H-M   'P 1'
_cell_length_a   8.64754220
_cell_length_b   9.27189469
_cell_length_c   8.64770565
_cell_angle_alpha   89.99820005
_cell_angle_beta   59.99956282
_cell_angle_gamma   117.79620653
_symmetry_Int_Tables_number   1
_chemical_formula_structural   Li3Mo2(PO4)3
_chemical_formula_sum   'Li6 Mo4 P6 O24'
_cell_volume   505.97465629
_cell_formula_units_Z   2
loop_
 _symmetry_equiv_pos_site_id
 _symmetry_equiv_pos_as_xyz
  1  'x, y, z'
loop_
 _atom_site_type_symbol
 _atom_site_label
 _atom_site_symmetry_multiplicity
 _atom_site_fract_x
 _atom_site_fract_y
 _atom_site_fract_z
 _atom_site_occupancy
  Li  Li0  1  0.931101  0.856871  0.335076  1
  Li  Li1  1  0.191998  0.856909  0.733795  1
  Li  Li2  1  0.590714  0.856879  0.074216  1
  Li  Li3  1  0.409287  0.143123  0.925784  1
  Li  Li4  1  0.808002  0.143092  0.266205  1
  Li  Li5  1  0.068900  0.143130  0.664923  1
  O  O6  1  0.809117  0.408093  0.001798  1
  O  O7  1  0.117208  0.263170  0.135726  1
  O  O8  1  0.035047  0.191998  0.462996  1
  O  O9  1  0.646703  0.092283  0.146580  1
  O  O10  1  0.761035  0.907645  0.793326  1
  O  O11  1  0.882793  0.736831  0.864273  1
  O  O12  1  0.964951  0.808002  0.537005  1
  O  O13  1  0.353296  0.907717  0.853421  1
  O  O14  1  0.238964  0.092354  0.206675  1
  O  O15  1  0.700968  0.907694  0.445637  1
  O  O16  1  0.590122  0.591825  0.810939  1
  O  O17  1  0.989767  0.736814  0.145946  1
  O  O18  1  0.344986  0.807971  0.498020  1
  O  O19  1  0.601199  0.736874  0.252920  1
  O  O20  1  0.190883  0.591906  0.998201  1
  O  O21  1  0.402802  0.591860  0.598929  1
  O  O22  1  0.597199  0.408139  0.401070  1
  O  O23  1  0.306011  0.807970  0.156985  1
  O  O24  1  0.398801  0.263126  0.747079  1
  O  O25  1  0.655014  0.192028  0.501980  1
  O  O26  1  0.010232  0.263185  0.854055  1
  O  O27  1  0.409877  0.408174  0.189063  1
  O  O28  1  0.299032  0.092307  0.554363  1
  O  O29  1  0.693988  0.192029  0.843016  1
  P  P30  1  0.204393  0.245792  0.249478  1
  P  P31  1  0.208105  0.754238  0.041384  1
  P  P32  1  0.495242  0.245758  0.546143  1
  P  P33  1  0.504758  0.754242  0.453857  1
  P  P34  1  0.795607  0.754207  0.750523  1
  P  P35  1  0.791894  0.245761  0.958617  1
  Mo  Mo36  1  0.304801  0.957210  0.347585  1
  Mo  Mo37  1  0.290583  0.435866  0.854699  1
  Mo  Mo38  1  0.709417  0.564134  0.145301  1
  Mo  Mo39  1  0.695197  0.042789  0.652415  1
