# generated using pymatgen
data_Tb3(CuSi)4
_symmetry_space_group_name_H-M   'P 1'
_cell_length_a   4.15047756
_cell_length_b   6.56025680
_cell_length_c   7.89103493
_cell_angle_alpha   114.56492968
_cell_angle_beta   105.25283419
_cell_angle_gamma   89.99622712
_symmetry_Int_Tables_number   1
_chemical_formula_structural   Tb3(CuSi)4
_chemical_formula_sum   'Tb3 Si4 Cu4'
_cell_volume   187.06001730
_cell_formula_units_Z   1
loop_
 _symmetry_equiv_pos_site_id
 _symmetry_equiv_pos_as_xyz
  1  'x, y, z'
loop_
 _atom_site_type_symbol
 _atom_site_label
 _atom_site_symmetry_multiplicity
 _atom_site_fract_x
 _atom_site_fract_y
 _atom_site_fract_z
 _atom_site_occupancy
  Si  Si0  1  0.500014  0.815861  0.000013  1
  Si  Si1  1  0.499986  0.184139  0.999987  1
  Si  Si2  1  0.783933  0.284017  0.567943  1
  Si  Si3  1  0.216067  0.715983  0.432057  1
  Cu  Cu4  1  0.331749  0.522077  0.663739  1
  Cu  Cu5  1  0.668267  0.858230  0.336283  1
  Cu  Cu6  1  0.331733  0.141770  0.663717  1
  Cu  Cu7  1  0.668251  0.477923  0.336261  1
  Tb  Tb8  1  0.869682  0.869715  0.739415  1
  Tb  Tb9  1  0.130318  0.130285  0.260585  1
  Tb  Tb10  1  0.000000  0.500000  0.000000  1
