# generated using pymatgen
data_Pr2CdS4
_symmetry_space_group_name_H-M   'P 1'
_cell_length_a   7.49654690
_cell_length_b   7.49654663
_cell_length_c   7.49654711
_cell_angle_alpha   110.79182528
_cell_angle_beta   110.79183176
_cell_angle_gamma   106.86111364
_symmetry_Int_Tables_number   1
_chemical_formula_structural   Pr2CdS4
_chemical_formula_sum   'Pr4 Cd2 S8'
_cell_volume   323.80927995
_cell_formula_units_Z   2
loop_
 _symmetry_equiv_pos_site_id
 _symmetry_equiv_pos_as_xyz
  1  'x, y, z'
loop_
 _atom_site_type_symbol
 _atom_site_label
 _atom_site_symmetry_multiplicity
 _atom_site_fract_x
 _atom_site_fract_y
 _atom_site_fract_z
 _atom_site_occupancy
  Cd  Cd0  1  0.625000  0.375000  0.250000  1
  Cd  Cd1  1  0.875000  0.125000  0.750000  1
  Pr  Pr2  1  0.111557  0.750000  0.861557  1
  Pr  Pr3  1  0.250000  0.611557  0.361557  1
  Pr  Pr4  1  0.388443  0.250000  0.638443  1
  Pr  Pr5  1  0.750000  0.888443  0.138443  1
  S  S6  1  0.991899  0.366970  0.484731  1
  S  S7  1  0.508101  0.992832  0.375071  1
  S  S8  1  0.117762  0.133030  0.124929  1
  S  S9  1  0.382238  0.507168  0.015269  1
  S  S10  1  0.492832  0.008101  0.875071  1
  S  S11  1  0.633030  0.617762  0.624929  1
  S  S12  1  0.007168  0.882238  0.515269  1
  S  S13  1  0.866970  0.491899  0.984731  1
