# generated using pymatgen
data_Tb4H9
_symmetry_space_group_name_H-M   'P 1'
_cell_length_a   7.37548744
_cell_length_b   9.76999456
_cell_length_c   6.41138811
_cell_angle_alpha   29.17433259
_cell_angle_beta   54.89469449
_cell_angle_gamma   41.01905119
_symmetry_Int_Tables_number   1
_chemical_formula_structural   Tb4H9
_chemical_formula_sum   'Tb4 H9'
_cell_volume   142.65879425
_cell_formula_units_Z   1
loop_
 _symmetry_equiv_pos_site_id
 _symmetry_equiv_pos_as_xyz
  1  'x, y, z'
loop_
 _atom_site_type_symbol
 _atom_site_label
 _atom_site_symmetry_multiplicity
 _atom_site_fract_x
 _atom_site_fract_y
 _atom_site_fract_z
 _atom_site_occupancy
  H  H0  1  0.115382  0.013821  0.241420  1
  H  H1  1  0.629370  0.986220  0.269060  1
  H  H2  1  0.370630  0.013780  0.730940  1
  H  H3  1  0.370633  0.500240  0.244474  1
  H  H4  1  0.115379  0.500174  0.755073  1
  H  H5  1  0.500000  0.500000  0.500000  1
  H  H6  1  0.884618  0.986179  0.758580  1
  H  H7  1  0.884621  0.499826  0.244927  1
  H  H8  1  0.629367  0.499760  0.755526  1
  Tb  Tb9  1  0.000000  0.000000  0.000000  1
  Tb  Tb10  1  0.500000  0.000000  0.000000  1
  Tb  Tb11  1  0.252286  0.500004  0.995417  1
  Tb  Tb12  1  0.747714  0.499996  0.004583  1
