# generated using pymatgen
data_Sc2H5
_symmetry_space_group_name_H-M   'P 1'
_cell_length_a   3.36049071
_cell_length_b   6.68102113
_cell_length_c   6.05017890
_cell_angle_alpha   90.00000000
_cell_angle_beta   90.00000000
_cell_angle_gamma   120.19805337
_symmetry_Int_Tables_number   1
_chemical_formula_structural   Sc2H5
_chemical_formula_sum   'Sc4 H10'
_cell_volume   117.40164975
_cell_formula_units_Z   2
loop_
 _symmetry_equiv_pos_site_id
 _symmetry_equiv_pos_as_xyz
  1  'x, y, z'
loop_
 _atom_site_type_symbol
 _atom_site_label
 _atom_site_symmetry_multiplicity
 _atom_site_fract_x
 _atom_site_fract_y
 _atom_site_fract_z
 _atom_site_occupancy
  Sc  Sc0  1  0.339237  0.839237  0.250000  1
  Sc  Sc1  1  0.326774  0.326774  0.250000  1
  Sc  Sc2  1  0.660763  0.660763  0.750000  1
  Sc  Sc3  1  0.673226  0.173226  0.750000  1
  H  H4  1  0.005529  0.505529  0.750000  1
  H  H5  1  0.355807  0.855807  0.909843  1
  H  H6  1  0.355807  0.855807  0.590157  1
  H  H7  1  0.644193  0.644193  0.090157  1
  H  H8  1  0.644193  0.644193  0.409843  1
  H  H9  1  0.310968  0.310968  0.908095  1
  H  H10  1  0.310968  0.310968  0.591905  1
  H  H11  1  0.994471  0.994471  0.250000  1
  H  H12  1  0.689032  0.189032  0.091905  1
  H  H13  1  0.689032  0.189032  0.408095  1
