# generated using pymatgen
data_Sm2Te4O11
_symmetry_space_group_name_H-M   'P 1'
_cell_length_a   5.25687916
_cell_length_b   6.85557518
_cell_length_c   16.37757381
_cell_angle_alpha   79.54541520
_cell_angle_beta   80.76465154
_cell_angle_gamma   67.45544473
_symmetry_Int_Tables_number   1
_chemical_formula_structural   Sm2Te4O11
_chemical_formula_sum   'Sm4 Te8 O22'
_cell_volume   533.38348684
_cell_formula_units_Z   2
loop_
 _symmetry_equiv_pos_site_id
 _symmetry_equiv_pos_as_xyz
  1  'x, y, z'
loop_
 _atom_site_type_symbol
 _atom_site_label
 _atom_site_symmetry_multiplicity
 _atom_site_fract_x
 _atom_site_fract_y
 _atom_site_fract_z
 _atom_site_occupancy
  O  O0  1  0.349937  0.250000  0.750000  1
  O  O1  1  0.650063  0.750000  0.250000  1
  O  O2  1  0.683773  0.312546  0.545968  1
  O  O3  1  0.542288  0.187454  0.954032  1
  O  O4  1  0.316227  0.687454  0.454032  1
  O  O5  1  0.457712  0.812546  0.045968  1
  O  O6  1  0.698316  0.872964  0.831604  1
  O  O7  1  0.402885  0.627036  0.668396  1
  O  O8  1  0.301684  0.127036  0.168396  1
  O  O9  1  0.597115  0.372964  0.331604  1
  O  O10  1  0.818582  0.866001  0.626508  1
  O  O11  1  0.311091  0.633999  0.873492  1
  O  O12  1  0.893867  0.949022  0.098458  1
  O  O13  1  0.941346  0.550978  0.401542  1
  O  O14  1  0.106133  0.050978  0.901542  1
  O  O15  1  0.058653  0.449022  0.598458  1
  O  O16  1  0.750629  0.969995  0.446700  1
  O  O17  1  0.167324  0.530005  0.053300  1
  O  O18  1  0.249371  0.030005  0.553300  1
  O  O19  1  0.832676  0.469995  0.946700  1
  O  O20  1  0.688909  0.366001  0.126508  1
  O  O21  1  0.181418  0.133999  0.373492  1
  Te  Te22  1  0.913454  0.111608  0.624859  1
  Te  Te23  1  0.649921  0.388392  0.875141  1
  Te  Te24  1  0.086546  0.888392  0.375141  1
  Te  Te25  1  0.350079  0.611608  0.124859  1
  Te  Te26  1  0.101229  0.540135  0.698310  1
  Te  Te27  1  0.339674  0.959865  0.801690  1
  Te  Te28  1  0.898771  0.459865  0.301690  1
  Te  Te29  1  0.660326  0.040135  0.198310  1
  Sm  Sm30  1  0.131312  0.198981  0.037630  1
  Sm  Sm31  1  0.367923  0.301019  0.462370  1
  Sm  Sm32  1  0.868688  0.801019  0.962370  1
  Sm  Sm33  1  0.632077  0.698981  0.537630  1
