# generated using pymatgen
data_Ce4Ga5Br2
_symmetry_space_group_name_H-M   'P 1'
_cell_length_a   4.23407955
_cell_length_b   11.47938802
_cell_length_c   11.47938802
_cell_angle_alpha   93.79802042
_cell_angle_beta   90.00000000
_cell_angle_gamma   90.00000000
_symmetry_Int_Tables_number   1
_chemical_formula_structural   Ce4Ga5Br2
_chemical_formula_sum   'Ce8 Ga10 Br4'
_cell_volume   556.72614876
_cell_formula_units_Z   2
loop_
 _symmetry_equiv_pos_site_id
 _symmetry_equiv_pos_as_xyz
  1  'x, y, z'
loop_
 _atom_site_type_symbol
 _atom_site_label
 _atom_site_symmetry_multiplicity
 _atom_site_fract_x
 _atom_site_fract_y
 _atom_site_fract_z
 _atom_site_occupancy
  Ga  Ga0  1  0.500000  0.579128  0.579128  1
  Ga  Ga1  1  0.500000  0.420872  0.420872  1
  Ga  Ga2  1  0.000000  0.899198  0.536311  1
  Ga  Ga3  1  0.000000  0.100802  0.463689  1
  Ga  Ga4  1  0.000000  0.536311  0.899198  1
  Ga  Ga5  1  0.000000  0.463689  0.100802  1
  Ga  Ga6  1  0.500000  0.782282  0.513236  1
  Ga  Ga7  1  0.500000  0.217718  0.486764  1
  Ga  Ga8  1  0.500000  0.486764  0.217718  1
  Ga  Ga9  1  0.500000  0.513236  0.782282  1
  Br  Br10  1  0.500000  0.124686  0.124686  1
  Br  Br11  1  0.500000  0.875314  0.875314  1
  Br  Br12  1  0.000000  0.176520  0.823480  1
  Br  Br13  1  0.000000  0.823480  0.176520  1
  Ce  Ce14  1  0.500000  0.040984  0.675204  1
  Ce  Ce15  1  0.500000  0.959016  0.324796  1
  Ce  Ce16  1  0.500000  0.675204  0.040984  1
  Ce  Ce17  1  0.500000  0.324796  0.959016  1
  Ce  Ce18  1  0.000000  0.730183  0.730183  1
  Ce  Ce19  1  0.000000  0.269817  0.269817  1
  Ce  Ce20  1  0.000000  0.631381  0.368619  1
  Ce  Ce21  1  0.000000  0.368619  0.631381  1
