# generated using pymatgen
data_Sr(CeS2)2
_symmetry_space_group_name_H-M   'P 1'
_cell_length_a   7.52307878
_cell_length_b   7.52307913
_cell_length_c   7.52307955
_cell_angle_alpha   109.50319008
_cell_angle_beta   109.40730306
_cell_angle_gamma   109.50319083
_symmetry_Int_Tables_number   1
_chemical_formula_structural   Sr(CeS2)2
_chemical_formula_sum   'Sr2 Ce4 S8'
_cell_volume   327.76651289
_cell_formula_units_Z   2
loop_
 _symmetry_equiv_pos_site_id
 _symmetry_equiv_pos_as_xyz
  1  'x, y, z'
loop_
 _atom_site_type_symbol
 _atom_site_label
 _atom_site_symmetry_multiplicity
 _atom_site_fract_x
 _atom_site_fract_y
 _atom_site_fract_z
 _atom_site_occupancy
  Ce  Ce0  1  0.250000  0.626244  0.376244  1
  Ce  Ce1  1  0.623756  0.373756  0.250000  1
  Ce  Ce2  1  0.750000  0.873756  0.123756  1
  Ce  Ce3  1  0.876244  0.126244  0.750000  1
  S  S4  1  0.989618  0.846767  0.490744  1
  S  S5  1  0.990744  0.346767  0.489618  1
  S  S6  1  0.509256  0.998875  0.356024  1
  S  S7  1  0.142851  0.153233  0.143976  1
  S  S8  1  0.357149  0.501125  0.010382  1
  S  S9  1  0.510382  0.001125  0.857149  1
  S  S10  1  0.643976  0.653233  0.642851  1
  S  S11  1  0.856024  0.498875  0.009256  1
  Sr  Sr12  1  0.125000  0.750000  0.875000  1
  Sr  Sr13  1  0.375000  0.250000  0.625000  1
