# generated using pymatgen
data_NdTiCdSbO7
_symmetry_space_group_name_H-M   'P 1'
_cell_length_a   7.36408736
_cell_length_b   14.76540430
_cell_length_c   12.79776748
_cell_angle_alpha   29.91711273
_cell_angle_beta   54.87467820
_cell_angle_gamma   60.08631777
_symmetry_Int_Tables_number   1
_chemical_formula_structural   NdTiCdSbO7
_chemical_formula_sum   'Nd4 Ti4 Cd4 Sb4 O28'
_cell_volume   567.64432070
_cell_formula_units_Z   4
loop_
 _symmetry_equiv_pos_site_id
 _symmetry_equiv_pos_as_xyz
  1  'x, y, z'
loop_
 _atom_site_type_symbol
 _atom_site_label
 _atom_site_symmetry_multiplicity
 _atom_site_fract_x
 _atom_site_fract_y
 _atom_site_fract_z
 _atom_site_occupancy
  Cd  Cd0  1  0.500010  0.985777  0.014218  1
  Cd  Cd1  1  1.000011  0.514239  0.985750  1
  Cd  Cd2  1  0.985705  0.750011  -0.000005  1
  Cd  Cd3  1  0.014287  0.749996  0.499997  1
  Nd  Nd4  1  0.999980  0.986165  0.013820  1
  Nd  Nd5  1  0.013713  0.249953  0.000066  1
  Nd  Nd6  1  0.500012  0.513824  0.986192  1
  Nd  Nd7  1  0.986288  0.250073  0.499922  1
  O  O8  1  0.135704  0.989291  0.135695  1
  O  O9  1  0.185824  0.195643  0.173757  1
  O  O10  1  0.114329  0.510729  0.114260  1
  O  O11  1  0.577592  0.202606  0.172406  1
  O  O12  1  0.173735  0.694760  0.185851  1
  O  O13  1  0.172405  0.297403  0.577590  1
  O  O14  1  0.422390  0.202615  0.422382  1
  O  O15  1  0.177880  0.485967  0.585750  1
  O  O16  1  0.557655  0.499591  0.178715  1
  O  O17  1  0.821303  0.014026  0.414257  1
  O  O18  1  0.573482  0.698520  0.176506  1
  O  O19  1  0.575354  0.304346  0.565066  1
  O  O20  1  0.814187  0.195649  0.434953  1
  O  O21  1  0.176503  0.801478  0.573515  1
  O  O22  1  0.424641  0.304349  0.826259  1
  O  O23  1  0.426534  0.698520  0.426462  1
  O  O24  1  0.178686  0.014022  0.557694  1
  O  O25  1  0.864330  0.989328  0.885658  1
  O  O26  1  0.442363  0.499604  0.822082  1
  O  O27  1  0.585764  0.000409  0.177866  1
  O  O28  1  0.822120  0.485966  0.442313  1
  O  O29  1  0.565058  0.805240  0.575362  1
  O  O30  1  0.826258  0.694759  0.424619  1
  O  O31  1  0.827617  0.297382  0.827626  1
  O  O32  1  0.434933  0.805234  0.814170  1
  O  O33  1  0.885672  0.510692  0.864305  1
  O  O34  1  0.414237  0.000397  0.821323  1
  O  O35  1  0.823477  0.801486  0.823513  1
  Sb  Sb36  1  0.494069  0.749984  0.000035  1
  Sb  Sb37  1  0.999995  0.005880  0.494107  1
  Sb  Sb38  1  0.499986  0.494102  0.505919  1
  Sb  Sb39  1  0.505933  0.750018  0.499962  1
  Ti  Ti40  1  0.511635  0.250017  -0.000006  1
  Ti  Ti41  1  0.499957  0.011618  0.488398  1
  Ti  Ti42  1  0.488380  0.249983  0.500020  1
  Ti  Ti43  1  0.000005  0.488350  0.511653  1
