# generated using pymatgen
data_Ca5P3ClO12
_symmetry_space_group_name_H-M   'P 1'
_cell_length_a   9.81430008
_cell_length_b   9.81429984
_cell_length_c   6.77967312
_cell_angle_alpha   90.00000000
_cell_angle_beta   90.00000000
_cell_angle_gamma   120.00000083
_symmetry_Int_Tables_number   1
_chemical_formula_structural   Ca5P3ClO12
_chemical_formula_sum   'Ca10 P6 Cl2 O24'
_cell_volume   565.53311188
_cell_formula_units_Z   2
loop_
 _symmetry_equiv_pos_site_id
 _symmetry_equiv_pos_as_xyz
  1  'x, y, z'
loop_
 _atom_site_type_symbol
 _atom_site_label
 _atom_site_symmetry_multiplicity
 _atom_site_fract_x
 _atom_site_fract_y
 _atom_site_fract_z
 _atom_site_occupancy
  Ca  Ca0  1  1.014532  0.749116  0.747628  1
  Ca  Ca1  1  0.333333  0.666667  0.003078  1
  Ca  Ca2  1  0.333333  0.666667  0.495103  1
  Ca  Ca3  1  0.250884  0.265416  0.747628  1
  Ca  Ca4  1  0.734584  -0.014532  0.747628  1
  Ca  Ca5  1  0.265416  1.014532  0.247628  1
  Ca  Ca6  1  0.749116  0.734584  0.247628  1
  Ca  Ca7  1  0.666667  0.333333  0.503078  1
  Ca  Ca8  1  0.666667  0.333333  0.995103  1
  Ca  Ca9  1  -0.014532  0.250884  0.247628  1
  Cl  Cl10  1  0.000000  0.000000  0.423482  1
  Cl  Cl11  1  0.000000  0.000000  0.923482  1
  O  O12  1  0.264742  0.918508  0.570179  1
  O  O13  1  0.270715  0.910597  0.938725  1
  O  O14  1  0.146369  0.650883  0.253630  1
  O  O15  1  0.129859  0.593223  0.744377  1
  O  O16  1  0.081492  0.346235  0.570179  1
  O  O17  1  0.089403  0.360118  0.938725  1
  O  O18  1  0.463364  0.870141  0.744377  1
  O  O19  1  0.504515  0.853631  0.253630  1
  O  O20  1  0.349117  0.495485  0.253630  1
  O  O21  1  0.406777  0.536636  0.744377  1
  O  O22  1  0.360118  0.270715  0.438725  1
  O  O23  1  0.346235  0.264742  0.070179  1
  O  O24  1  0.639882  0.729285  0.938725  1
  O  O25  1  0.653765  0.735258  0.570179  1
  O  O26  1  0.593223  0.463364  0.244377  1
  O  O27  1  0.650883  0.504515  0.753630  1
  O  O28  1  0.495485  0.146369  0.753630  1
  O  O29  1  0.536636  0.129859  0.244377  1
  O  O30  1  0.918508  0.653765  0.070179  1
  O  O31  1  0.910597  0.639882  0.438725  1
  O  O32  1  0.870141  0.406777  0.244377  1
  O  O33  1  0.853631  0.349117  0.753630  1
  O  O34  1  0.735258  0.081492  0.070179  1
  O  O35  1  0.729285  0.089403  0.438725  1
  P  P36  1  0.032324  0.408735  0.751748  1
  P  P37  1  0.376411  0.967676  0.751748  1
  P  P38  1  0.408735  0.376411  0.251748  1
  P  P39  1  0.591265  0.623589  0.751748  1
  P  P40  1  0.623589  0.032324  0.251748  1
  P  P41  1  0.967676  0.591265  0.251748  1
