# generated using pymatgen
data_Na2TbO3
_symmetry_space_group_name_H-M   'P 1'
_cell_length_a   6.73726093
_cell_length_b   10.37785051
_cell_length_c   6.03394693
_cell_angle_alpha   29.29191994
_cell_angle_beta   54.86543177
_cell_angle_gamma   59.87325777
_symmetry_Int_Tables_number   1
_chemical_formula_structural   Na2TbO3
_chemical_formula_sum   'Na4 Tb2 O6'
_cell_volume   168.80294315
_cell_formula_units_Z   2
loop_
 _symmetry_equiv_pos_site_id
 _symmetry_equiv_pos_as_xyz
  1  'x, y, z'
loop_
 _atom_site_type_symbol
 _atom_site_label
 _atom_site_symmetry_multiplicity
 _atom_site_fract_x
 _atom_site_fract_y
 _atom_site_fract_z
 _atom_site_occupancy
  Na  Na0  1  1.000000  0.005794  0.991309  1
  Na  Na1  1  1.000000  0.658128  0.012809  1
  Na  Na2  1  0.500000  0.327539  0.008691  1
  Na  Na3  1  0.500000  0.675206  0.987191  1
  O  O4  1  0.257769  0.026409  0.417514  1
  O  O5  1  0.242231  0.306924  0.582486  1
  O  O6  1  0.742231  0.026409  0.503259  1
  O  O7  1  0.250000  0.666667  0.500000  1
  O  O8  1  0.757769  0.306924  0.496741  1
  O  O9  1  0.750000  0.666667  0.500000  1
  Tb  Tb10  1  0.000000  0.355682  0.966476  1
  Tb  Tb11  1  0.500000  0.977651  0.033524  1
