# generated using pymatgen
data_Er3Al5O12
_symmetry_space_group_name_H-M   'P 1'
_cell_length_a   10.43577613
_cell_length_b   10.43577613
_cell_length_c   10.43577613
_cell_angle_alpha   109.47122062
_cell_angle_beta   109.47122062
_cell_angle_gamma   109.47122062
_symmetry_Int_Tables_number   1
_chemical_formula_structural   Er3Al5O12
_chemical_formula_sum   'Er12 Al20 O48'
_cell_volume   874.88782144
_cell_formula_units_Z   4
loop_
 _symmetry_equiv_pos_site_id
 _symmetry_equiv_pos_as_xyz
  1  'x, y, z'
loop_
 _atom_site_type_symbol
 _atom_site_label
 _atom_site_symmetry_multiplicity
 _atom_site_fract_x
 _atom_site_fract_y
 _atom_site_fract_z
 _atom_site_occupancy
  O  O0  1  0.700819  0.679199  0.081212  1
  O  O1  1  0.820801  0.521620  0.402013  1
  O  O2  1  0.418788  0.097987  0.619608  1
  O  O3  1  0.799181  0.880392  0.978380  1
  O  O4  1  0.799181  0.418788  0.820801  1
  O  O5  1  0.880392  0.978380  0.799181  1
  O  O6  1  0.097987  0.978380  0.679199  1
  O  O7  1  0.978380  0.799181  0.880392  1
  O  O8  1  0.402013  0.081212  0.880392  1
  O  O9  1  0.521620  0.619608  0.700819  1
  O  O10  1  0.619608  0.700819  0.521620  1
  O  O11  1  0.820801  0.799181  0.418788  1
  O  O12  1  0.978380  0.679199  0.097987  1
  O  O13  1  0.880392  0.402013  0.081212  1
  O  O14  1  0.418788  0.820801  0.799181  1
  O  O15  1  0.679199  0.097987  0.978380  1
  O  O16  1  0.081212  0.880392  0.402013  1
  O  O17  1  0.402013  0.820801  0.521620  1
  O  O18  1  0.097987  0.619608  0.418788  1
  O  O19  1  0.597987  0.918788  0.119608  1
  O  O20  1  0.619608  0.418788  0.097987  1
  O  O21  1  0.081212  0.700819  0.679199  1
  O  O22  1  0.521620  0.402013  0.820801  1
  O  O23  1  0.700819  0.521620  0.619608  1
  O  O24  1  0.299181  0.320801  0.918788  1
  O  O25  1  0.179199  0.478380  0.597987  1
  O  O26  1  0.581212  0.902013  0.380392  1
  O  O27  1  0.200819  0.119608  0.021620  1
  O  O28  1  0.200819  0.581212  0.179199  1
  O  O29  1  0.119608  0.021620  0.200819  1
  O  O30  1  0.902013  0.021620  0.320801  1
  O  O31  1  0.021620  0.200819  0.119608  1
  O  O32  1  0.299181  0.478380  0.380392  1
  O  O33  1  0.478380  0.597987  0.179199  1
  O  O34  1  0.918788  0.299181  0.320801  1
  O  O35  1  0.320801  0.918788  0.299181  1
  O  O36  1  0.380392  0.581212  0.902013  1
  O  O37  1  0.902013  0.380392  0.581212  1
  O  O38  1  0.597987  0.179199  0.478380  1
  O  O39  1  0.918788  0.119608  0.597987  1
  O  O40  1  0.320801  0.902013  0.021620  1
  O  O41  1  0.581212  0.179199  0.200819  1
  O  O42  1  0.119608  0.597987  0.918788  1
  O  O43  1  0.021620  0.320801  0.902013  1
  O  O44  1  0.179199  0.200819  0.581212  1
  O  O45  1  0.380392  0.299181  0.478380  1
  O  O46  1  0.478380  0.380392  0.299181  1
  O  O47  1  0.679199  0.081212  0.700819  1
  Al  Al48  1  0.250000  0.125000  0.875000  1
  Al  Al49  1  0.750000  0.875000  0.125000  1
  Al  Al50  1  0.375000  0.250000  0.625000  1
  Al  Al51  1  0.625000  0.375000  0.250000  1
  Al  Al52  1  0.125000  0.750000  0.875000  1
  Al  Al53  1  0.875000  0.125000  0.750000  1
  Al  Al54  1  0.750000  0.375000  0.625000  1
  Al  Al55  1  0.375000  0.625000  0.750000  1
  Al  Al56  1  0.125000  0.875000  0.250000  1
  Al  Al57  1  0.875000  0.250000  0.125000  1
  Al  Al58  1  0.625000  0.750000  0.375000  1
  Al  Al59  1  0.250000  0.625000  0.375000  1
  Al  Al60  1  0.500000  0.500000  0.500000  1
  Al  Al61  1  0.500000  0.500000  0.000000  1
  Al  Al62  1  0.500000  0.000000  0.500000  1
  Al  Al63  1  0.000000  0.500000  0.500000  1
  Al  Al64  1  0.500000  0.000000  0.000000  1
  Al  Al65  1  0.000000  0.000000  0.500000  1
  Al  Al66  1  0.000000  0.500000  0.000000  1
  Al  Al67  1  0.000000  0.000000  0.000000  1
  Er  Er68  1  0.250000  0.875000  0.625000  1
  Er  Er69  1  0.875000  0.625000  0.250000  1
  Er  Er70  1  0.625000  0.875000  0.750000  1
  Er  Er71  1  0.875000  0.750000  0.625000  1
  Er  Er72  1  0.625000  0.250000  0.875000  1
  Er  Er73  1  0.750000  0.625000  0.875000  1
  Er  Er74  1  0.750000  0.125000  0.375000  1
  Er  Er75  1  0.125000  0.375000  0.750000  1
  Er  Er76  1  0.375000  0.125000  0.250000  1
  Er  Er77  1  0.125000  0.250000  0.375000  1
  Er  Er78  1  0.375000  0.750000  0.125000  1
  Er  Er79  1  0.250000  0.375000  0.125000  1
