# generated using pymatgen
data_Ca5Hg3
_symmetry_space_group_name_H-M   'P 1'
_cell_length_a   8.24806902
_cell_length_b   8.24806481
_cell_length_c   9.43296068
_cell_angle_alpha   115.92271714
_cell_angle_beta   115.92498862
_cell_angle_gamma   89.99999999
_symmetry_Int_Tables_number   1
_chemical_formula_structural   Ca5Hg3
_chemical_formula_sum   'Ca10 Hg6'
_cell_volume   504.38261464
_cell_formula_units_Z   2
loop_
 _symmetry_equiv_pos_site_id
 _symmetry_equiv_pos_as_xyz
  1  'x, y, z'
loop_
 _atom_site_type_symbol
 _atom_site_label
 _atom_site_symmetry_multiplicity
 _atom_site_fract_x
 _atom_site_fract_y
 _atom_site_fract_z
 _atom_site_occupancy
  Ca  Ca0  1  0.000000  0.000000  0.000000  1
  Ca  Ca1  1  0.500000  0.500000  0.000000  1
  Ca  Ca2  1  0.312034  0.812027  0.295197  1
  Ca  Ca3  1  0.483163  0.312027  0.295197  1
  Ca  Ca4  1  0.812033  0.983160  0.295200  1
  Ca  Ca5  1  0.516837  0.687973  0.704803  1
  Ca  Ca6  1  0.187967  0.016840  0.704800  1
  Ca  Ca7  1  0.016833  0.516840  0.704800  1
  Ca  Ca8  1  0.687966  0.187973  0.704803  1
  Ca  Ca9  1  0.983167  0.483160  0.295200  1
  Hg  Hg10  1  0.250000  0.250000  0.500000  1
  Hg  Hg11  1  0.750000  0.750000  0.500000  1
  Hg  Hg12  1  0.365357  0.865357  0.000000  1
  Hg  Hg13  1  0.134644  0.365357  0.000000  1
  Hg  Hg14  1  0.865356  0.634643  1.000000  1
  Hg  Hg15  1  0.634643  0.134643  1.000000  1
