# generated using pymatgen
data_Ca2As3
_symmetry_space_group_name_H-M   'P 1'
_cell_length_a   5.85844833
_cell_length_b   12.03680703
_cell_length_c   13.79933109
_cell_angle_alpha   90.80943022
_cell_angle_beta   90.00000000
_cell_angle_gamma   90.00000000
_symmetry_Int_Tables_number   1
_chemical_formula_structural   Ca2As3
_chemical_formula_sum   'Ca16 As24'
_cell_volume   972.99049502
_cell_formula_units_Z   8
loop_
 _symmetry_equiv_pos_site_id
 _symmetry_equiv_pos_as_xyz
  1  'x, y, z'
loop_
 _atom_site_type_symbol
 _atom_site_label
 _atom_site_symmetry_multiplicity
 _atom_site_fract_x
 _atom_site_fract_y
 _atom_site_fract_z
 _atom_site_occupancy
  Ca  Ca0  1  0.754420  0.625356  0.000796  1
  Ca  Ca1  1  0.754420  0.874644  0.499204  1
  Ca  Ca2  1  0.245580  0.374644  0.999204  1
  Ca  Ca3  1  0.245580  0.125356  0.500796  1
  Ca  Ca4  1  0.740055  0.375635  0.509120  1
  Ca  Ca5  1  0.740055  0.124365  0.990880  1
  Ca  Ca6  1  0.259945  0.624365  0.490880  1
  Ca  Ca7  1  0.259945  0.875635  0.009120  1
  Ca  Ca8  1  0.451992  0.991960  0.751052  1
  Ca  Ca9  1  0.451992  0.508040  0.748948  1
  Ca  Ca10  1  0.548008  0.008040  0.248948  1
  Ca  Ca11  1  0.548008  0.491960  0.251052  1
  Ca  Ca12  1  0.039884  0.750000  0.750000  1
  Ca  Ca13  1  0.960116  0.250000  0.250000  1
  Ca  Ca14  1  0.091469  0.250000  0.750000  1
  Ca  Ca15  1  0.908531  0.750000  0.250000  1
  As  As16  1  0.453251  0.233051  0.158130  1
  As  As17  1  0.453251  0.266949  0.341870  1
  As  As18  1  0.546749  0.766949  0.841870  1
  As  As19  1  0.546749  0.733051  0.658130  1
  As  As20  1  0.268336  0.863770  0.577499  1
  As  As21  1  0.268336  0.636230  0.922501  1
  As  As22  1  0.731664  0.136230  0.422501  1
  As  As23  1  0.731664  0.363770  0.077499  1
  As  As24  1  0.603050  0.287332  0.835488  1
  As  As25  1  0.603050  0.212668  0.664512  1
  As  As26  1  0.396950  0.712668  0.164512  1
  As  As27  1  0.396950  0.787332  0.335488  1
  As  As28  1  0.950170  0.513843  0.670971  1
  As  As29  1  0.950170  0.986157  0.829029  1
  As  As30  1  0.049830  0.486157  0.329029  1
  As  As31  1  0.049830  0.013843  0.170971  1
  As  As32  1  0.774185  0.889418  0.077698  1
  As  As33  1  0.774185  0.610582  0.422302  1
  As  As34  1  0.225815  0.110582  0.922302  1
  As  As35  1  0.225815  0.389418  0.577698  1
  As  As36  1  0.903239  0.450933  0.845039  1
  As  As37  1  0.903239  0.049067  0.654961  1
  As  As38  1  0.096761  0.549067  0.154961  1
  As  As39  1  0.096761  0.950933  0.345039  1
