# generated using pymatgen
data_Tb4Se3N2
_symmetry_space_group_name_H-M   'P 1'
_cell_length_a   3.95288908
_cell_length_b   6.98603996
_cell_length_c   8.21473502
_cell_angle_alpha   85.63439027
_cell_angle_beta   76.07819318
_cell_angle_gamma   73.56583534
_symmetry_Int_Tables_number   1
_chemical_formula_structural   Tb4Se3N2
_chemical_formula_sum   'Tb4 Se3 N2'
_cell_volume   211.18299354
_cell_formula_units_Z   1
loop_
 _symmetry_equiv_pos_site_id
 _symmetry_equiv_pos_as_xyz
  1  'x, y, z'
loop_
 _atom_site_type_symbol
 _atom_site_label
 _atom_site_symmetry_multiplicity
 _atom_site_fract_x
 _atom_site_fract_y
 _atom_site_fract_z
 _atom_site_occupancy
  N  N0  1  0.351153  0.935461  0.362233  1
  N  N1  1  0.648847  0.064539  0.637768  1
  Se  Se2  1  0.834773  0.558591  0.771862  1
  Se  Se3  1  0.000000  0.000000  0.000000  1
  Se  Se4  1  0.165227  0.441409  0.228138  1
  Tb  Tb5  1  0.442253  0.266512  0.848983  1
  Tb  Tb6  1  0.557747  0.733488  0.151017  1
  Tb  Tb7  1  0.755949  0.127473  0.360630  1
  Tb  Tb8  1  0.244051  0.872527  0.639370  1
