# generated using pymatgen
data_Pr(PO3)3
_symmetry_space_group_name_H-M   'P 1'
_cell_length_a   7.14768967
_cell_length_b   7.14768967
_cell_length_c   7.43230589
_cell_angle_alpha   90.00000000
_cell_angle_beta   90.00000000
_cell_angle_gamma   105.30706693
_symmetry_Int_Tables_number   1
_chemical_formula_structural   Pr(PO3)3
_chemical_formula_sum   'Pr2 P6 O18'
_cell_volume   366.24219740
_cell_formula_units_Z   2
loop_
 _symmetry_equiv_pos_site_id
 _symmetry_equiv_pos_as_xyz
  1  'x, y, z'
loop_
 _atom_site_type_symbol
 _atom_site_label
 _atom_site_symmetry_multiplicity
 _atom_site_fract_x
 _atom_site_fract_y
 _atom_site_fract_z
 _atom_site_occupancy
  O  O0  1  0.248110  0.030385  0.290935  1
  O  O1  1  0.751890  0.969615  0.790935  1
  O  O2  1  0.030385  0.248110  0.209065  1
  O  O3  1  0.969615  0.751890  0.709065  1
  O  O4  1  0.327964  0.364546  0.417139  1
  O  O5  1  0.672036  0.635454  0.917139  1
  O  O6  1  0.364546  0.327964  0.082861  1
  O  O7  1  0.635454  0.672036  0.582861  1
  O  O8  1  0.281296  0.672978  0.787223  1
  O  O9  1  0.718704  0.327022  0.287223  1
  O  O10  1  0.672978  0.281296  0.712777  1
  O  O11  1  0.327022  0.718704  0.212777  1
  O  O12  1  0.279501  0.024954  0.714390  1
  O  O13  1  0.720499  0.975046  0.214390  1
  O  O14  1  0.024954  0.279501  0.785610  1
  O  O15  1  0.975046  0.720499  0.285610  1
  O  O16  1  0.126721  0.873279  0.000000  1
  O  O17  1  0.873279  0.126721  0.500000  1
  P  P18  1  0.166997  0.816188  0.203039  1
  P  P19  1  0.833003  0.183812  0.703039  1
  P  P20  1  0.816188  0.166997  0.296961  1
  P  P21  1  0.183812  0.833003  0.796961  1
  P  P22  1  0.248751  0.248751  0.250000  1
  P  P23  1  0.751249  0.751249  0.750000  1
  Pr  Pr24  1  0.626614  0.626614  0.250000  1
  Pr  Pr25  1  0.373386  0.373386  0.750000  1
