# generated using pymatgen
data_Li3Cr2P5O16
_symmetry_space_group_name_H-M   'P 1'
_cell_length_a   17.91337800
_cell_length_b   7.12321698
_cell_length_c   5.13774171
_cell_angle_alpha   90.00000000
_cell_angle_beta   92.10445081
_cell_angle_gamma   90.00000000
_symmetry_Int_Tables_number   1
_chemical_formula_structural   Li3Cr2P5O16
_chemical_formula_sum   'Li6 Cr4 P10 O32'
_cell_volume   655.13819470
_cell_formula_units_Z   2
loop_
 _symmetry_equiv_pos_site_id
 _symmetry_equiv_pos_as_xyz
  1  'x, y, z'
loop_
 _atom_site_type_symbol
 _atom_site_label
 _atom_site_symmetry_multiplicity
 _atom_site_fract_x
 _atom_site_fract_y
 _atom_site_fract_z
 _atom_site_occupancy
  Li  Li0  1  0.036946  0.327527  0.264076  1
  Li  Li1  1  0.963054  0.672473  0.735926  1
  Li  Li2  1  0.750000  0.023085  0.499999  1
  Li  Li3  1  0.536946  0.672473  0.264074  1
  Li  Li4  1  0.463054  0.327527  0.735925  1
  Li  Li5  1  0.250000  0.976915  0.500000  1
  O  O6  1  0.295013  0.617544  0.192982  1
  O  O7  1  0.926548  0.906216  0.937925  1
  O  O8  1  0.935466  0.390805  0.099329  1
  O  O9  1  0.978105  0.803740  0.383592  1
  O  O10  1  0.021895  0.196260  0.616407  1
  O  O11  1  0.064535  0.609195  0.900671  1
  O  O12  1  0.073452  0.093784  0.062075  1
  O  O13  1  0.109359  0.556713  0.438661  1
  O  O14  1  0.139263  0.988906  0.641854  1
  O  O15  1  0.145522  0.320538  0.793275  1
  O  O16  1  0.199822  0.862720  0.174435  1
  O  O17  1  0.204987  0.617544  0.807017  1
  O  O18  1  0.521895  0.803740  0.616408  1
  O  O19  1  0.300178  0.862720  0.825564  1
  O  O20  1  0.354478  0.320538  0.206726  1
  O  O21  1  0.360738  0.988906  0.358146  1
  O  O22  1  0.390641  0.556713  0.561337  1
  O  O23  1  0.860738  0.011095  0.358145  1
  O  O24  1  0.435466  0.609195  0.099330  1
  O  O25  1  0.478105  0.196260  0.383592  1
  O  O26  1  0.890641  0.443287  0.561338  1
  O  O27  1  0.564534  0.390805  0.900672  1
  O  O28  1  0.573452  0.906216  0.062076  1
  O  O29  1  0.609359  0.443287  0.438662  1
  O  O30  1  0.639262  0.011095  0.641853  1
  O  O31  1  0.645522  0.679462  0.793273  1
  O  O32  1  0.699822  0.137280  0.174436  1
  O  O33  1  0.704987  0.382456  0.807017  1
  O  O34  1  0.795013  0.382456  0.192983  1
  O  O35  1  0.800178  0.137280  0.825564  1
  O  O36  1  0.854478  0.679462  0.206727  1
  O  O37  1  0.426548  0.093784  0.937926  1
  P  P38  1  0.591911  0.867394  0.777589  1
  P  P39  1  0.624031  0.466880  0.729826  1
  P  P40  1  0.750000  0.245789  0.000000  1
  P  P41  1  0.875969  0.466880  0.270174  1
  P  P42  1  0.091911  0.132606  0.777589  1
  P  P43  1  0.124031  0.533120  0.729826  1
  P  P44  1  0.250000  0.754211  0.999999  1
  P  P45  1  0.375969  0.533120  0.270173  1
  P  P46  1  0.408089  0.132606  0.222410  1
  P  P47  1  0.908089  0.867394  0.222411  1
  Cr  Cr48  1  0.912754  0.168099  0.738061  1
  Cr  Cr49  1  0.587246  0.168099  0.261939  1
  Cr  Cr50  1  0.412754  0.831901  0.738060  1
  Cr  Cr51  1  0.087247  0.831901  0.261939  1
