# generated using pymatgen
data_Ba4Nd3F17
_symmetry_space_group_name_H-M   'P 1'
_cell_length_a   9.59189239
_cell_length_b   9.65578428
_cell_length_c   9.57483358
_cell_angle_alpha   72.87304345
_cell_angle_beta   73.07709036
_cell_angle_gamma   73.01971263
_symmetry_Int_Tables_number   1
_chemical_formula_structural   Ba4Nd3F17
_chemical_formula_sum   'Ba8 Nd6 F34'
_cell_volume   789.85738515
_cell_formula_units_Z   2
loop_
 _symmetry_equiv_pos_site_id
 _symmetry_equiv_pos_as_xyz
  1  'x, y, z'
loop_
 _atom_site_type_symbol
 _atom_site_label
 _atom_site_symmetry_multiplicity
 _atom_site_fract_x
 _atom_site_fract_y
 _atom_site_fract_z
 _atom_site_occupancy
  Ba  Ba0  1  0.046222  0.312023  0.891782  1
  Ba  Ba1  1  0.261939  0.265955  0.267949  1
  Ba  Ba2  1  0.310470  0.893169  0.049508  1
  Ba  Ba3  1  0.102857  0.956502  0.692250  1
  Ba  Ba4  1  0.892392  0.050983  0.309735  1
  Ba  Ba5  1  0.688414  0.112520  0.947671  1
  Ba  Ba6  1  0.731719  0.733856  0.738038  1
  Ba  Ba7  1  0.944404  0.686703  0.110355  1
  F  F8  1  0.001132  0.006053  0.993556  1
  F  F9  1  0.018188  0.177843  0.452360  1
  F  F10  1  0.139640  0.137238  0.137125  1
  F  F11  1  0.041151  0.490878  0.358896  1
  F  F12  1  0.176043  0.452641  0.020106  1
  F  F13  1  0.081482  0.788852  0.257721  1
  F  F14  1  0.261252  0.089719  0.784352  1
  F  F15  1  0.354840  0.042565  0.493478  1
  F  F16  1  0.450349  0.020391  0.177417  1
  F  F17  1  0.260753  0.350231  0.543794  1
  F  F18  1  0.205678  0.582021  0.703616  1
  F  F19  1  0.345200  0.544863  0.262364  1
  F  F20  1  0.488713  0.358701  0.048956  1
  F  F21  1  0.298180  0.793974  0.411781  1
  F  F22  1  0.210655  0.741926  0.916588  1
  F  F23  1  0.547822  0.237825  0.338825  1
  F  F24  1  0.419762  0.296441  0.799113  1
  F  F25  1  0.591459  0.707898  0.199184  1
  F  F26  1  0.571794  0.447357  0.462259  1
  F  F27  1  0.457083  0.736086  0.651677  1
  F  F28  1  0.785545  0.260546  0.084845  1
  F  F29  1  0.719940  0.175561  0.593065  1
  F  F30  1  0.507713  0.642303  0.963838  1
  F  F31  1  0.650467  0.454400  0.744828  1
  F  F32  1  0.834407  0.406504  0.271072  1
  F  F33  1  0.745808  0.658144  0.448629  1
  F  F34  1  0.545449  0.981706  0.822964  1
  F  F35  1  0.642148  0.954629  0.511214  1
  F  F36  1  0.741243  0.918996  0.209884  1
  F  F37  1  0.912200  0.219160  0.737225  1
  F  F38  1  0.818202  0.548760  0.981438  1
  F  F39  1  0.951197  0.511122  0.642925  1
  F  F40  1  0.860019  0.862219  0.863612  1
  F  F41  1  0.980161  0.822774  0.549451  1
  Nd  Nd42  1  0.156572  0.611275  0.469047  1
  Nd  Nd43  1  0.473006  0.169675  0.606259  1
  Nd  Nd44  1  0.389043  0.532224  0.843751  1
  Nd  Nd45  1  0.610948  0.463854  0.182292  1
  Nd  Nd46  1  0.532143  0.840468  0.388553  1
  Nd  Nd47  1  0.821197  0.391470  0.525650  1
