# generated using pymatgen
data_LiFe2(PO4)3
_symmetry_space_group_name_H-M   'P 1'
_cell_length_a   8.69841959
_cell_length_b   8.69841959
_cell_length_c   8.69841959
_cell_angle_alpha   59.77954602
_cell_angle_beta   59.77954606
_cell_angle_gamma   59.77954594
_symmetry_Int_Tables_number   1
_chemical_formula_structural   LiFe2(PO4)3
_chemical_formula_sum   'Li2 Fe4 P6 O24'
_cell_volume   463.04895002
_cell_formula_units_Z   2
loop_
 _symmetry_equiv_pos_site_id
 _symmetry_equiv_pos_as_xyz
  1  'x, y, z'
loop_
 _atom_site_type_symbol
 _atom_site_label
 _atom_site_symmetry_multiplicity
 _atom_site_fract_x
 _atom_site_fract_y
 _atom_site_fract_z
 _atom_site_occupancy
  Li  Li0  1  0.000000  0.000000  0.000000  1
  Li  Li1  1  0.500000  0.500000  0.500000  1
  O  O2  1  0.561568  0.764851  0.412943  1
  O  O3  1  0.912943  0.264852  0.061567  1
  O  O4  1  0.587057  0.438432  0.235149  1
  O  O5  1  0.938433  0.087056  0.735149  1
  O  O6  1  0.061568  0.912944  0.264851  1
  O  O7  1  0.006257  0.803582  0.618866  1
  O  O8  1  0.087058  0.735148  0.938432  1
  O  O9  1  0.381135  0.993742  0.196417  1
  O  O10  1  0.493743  0.881135  0.696417  1
  O  O11  1  0.235149  0.587057  0.438432  1
  O  O12  1  0.993742  0.196418  0.381134  1
  O  O13  1  0.735148  0.938433  0.087057  1
  O  O14  1  0.303583  0.506258  0.118865  1
  O  O15  1  0.506258  0.118865  0.303583  1
  O  O16  1  0.118865  0.303583  0.506258  1
  O  O17  1  0.412944  0.561568  0.764851  1
  O  O18  1  0.618866  0.006258  0.803582  1
  O  O19  1  0.881134  0.696417  0.493742  1
  O  O20  1  0.803583  0.618865  0.006258  1
  O  O21  1  0.696417  0.493742  0.881134  1
  O  O22  1  0.264851  0.061567  0.912944  1
  O  O23  1  0.438432  0.235149  0.587057  1
  O  O24  1  0.764851  0.412943  0.561567  1
  O  O25  1  0.196418  0.381135  0.993742  1
  P  P26  1  0.542270  0.957730  0.250000  1
  P  P27  1  0.250000  0.542271  0.957729  1
  P  P28  1  0.750000  0.457729  0.042272  1
  P  P29  1  0.457729  0.042270  0.750001  1
  P  P30  1  0.042271  0.750000  0.457729  1
  P  P31  1  0.957728  0.250000  0.542272  1
  Fe  Fe32  1  0.856406  0.856405  0.856406  1
  Fe  Fe33  1  0.643594  0.643595  0.643595  1
  Fe  Fe34  1  0.356405  0.356405  0.356406  1
  Fe  Fe35  1  0.143595  0.143595  0.143595  1
