# generated using pymatgen
data_HfBrN
_symmetry_space_group_name_H-M   'P 1'
_cell_length_a   10.66673631
_cell_length_b   10.66673631
_cell_length_c   10.66673630
_cell_angle_alpha   19.58220324
_cell_angle_beta   19.58220324
_cell_angle_gamma   19.58220324
_symmetry_Int_Tables_number   1
_chemical_formula_structural   HfBrN
_chemical_formula_sum   'Hf2 Br2 N2'
_cell_volume   119.21554530
_cell_formula_units_Z   2
loop_
 _symmetry_equiv_pos_site_id
 _symmetry_equiv_pos_as_xyz
  1  'x, y, z'
loop_
 _atom_site_type_symbol
 _atom_site_label
 _atom_site_symmetry_multiplicity
 _atom_site_fract_x
 _atom_site_fract_y
 _atom_site_fract_z
 _atom_site_occupancy
  N  N0  1  0.860916  0.860916  0.860916  1
  N  N1  1  0.139084  0.139084  0.139084  1
  Br  Br2  1  0.395509  0.395509  0.395509  1
  Br  Br3  1  0.604491  0.604491  0.604491  1
  Hf  Hf4  1  0.792224  0.792224  0.792224  1
  Hf  Hf5  1  0.207776  0.207776  0.207776  1
