# generated using pymatgen
data_Ba4Y3F17
_symmetry_space_group_name_H-M   'P 1'
_cell_length_a   9.48029395
_cell_length_b   9.42853956
_cell_length_c   9.42530169
_cell_angle_alpha   73.00219057
_cell_angle_beta   72.98952145
_cell_angle_gamma   72.79899024
_symmetry_Int_Tables_number   1
_chemical_formula_structural   Ba4Y3F17
_chemical_formula_sum   'Ba8 Y6 F34'
_cell_volume   749.80346370
_cell_formula_units_Z   2
loop_
 _symmetry_equiv_pos_site_id
 _symmetry_equiv_pos_as_xyz
  1  'x, y, z'
loop_
 _atom_site_type_symbol
 _atom_site_label
 _atom_site_symmetry_multiplicity
 _atom_site_fract_x
 _atom_site_fract_y
 _atom_site_fract_z
 _atom_site_occupancy
  Ba  Ba0  1  0.046861  0.311538  0.891696  1
  Ba  Ba1  1  0.266675  0.264191  0.269047  1
  Ba  Ba2  1  0.314510  0.885351  0.057685  1
  Ba  Ba3  1  0.111272  0.947844  0.687127  1
  Ba  Ba4  1  0.883635  0.055150  0.314251  1
  Ba  Ba5  1  0.685513  0.113692  0.950285  1
  Ba  Ba6  1  0.732083  0.730928  0.737699  1
  Ba  Ba7  1  0.945383  0.687854  0.112476  1
  F  F8  1  -0.004630  0.005192  0.998704  1
  F  F9  1  0.011895  0.182678  0.455886  1
  F  F10  1  0.137693  0.136579  0.139732  1
  F  F11  1  0.042496  0.488796  0.363584  1
  F  F12  1  0.182794  0.452612  0.012044  1
  F  F13  1  0.083831  0.782589  0.264645  1
  F  F14  1  0.451717  0.011559  0.188041  1
  F  F15  1  0.362521  0.035386  0.491936  1
  F  F16  1  0.263699  0.086702  0.782395  1
  F  F17  1  0.266078  0.349692  0.543293  1
  F  F18  1  0.213785  0.589074  0.694465  1
  F  F19  1  0.344853  0.548311  0.259812  1
  F  F20  1  0.485149  0.360437  0.043219  1
  F  F21  1  0.300115  0.791943  0.407236  1
  F  F22  1  0.218050  0.736268  0.914932  1
  F  F23  1  0.545309  0.256804  0.351235  1
  F  F24  1  0.415768  0.304138  0.786014  1
  F  F25  1  0.554171  0.524632  0.433333  1
  F  F26  1  0.596430  0.720043  0.176623  1
  F  F27  1  0.456476  0.733978  0.651650  1
  F  F28  1  0.773360  0.268639  0.090883  1
  F  F29  1  0.698214  0.206175  0.583278  1
  F  F30  1  0.508955  0.635329  0.962110  1
  F  F31  1  0.648505  0.456768  0.736071  1
  F  F32  1  0.821505  0.403872  0.285431  1
  F  F33  1  0.755092  0.658173  0.451750  1
  F  F34  1  0.733356  0.913984  0.221595  1
  F  F35  1  0.636928  0.955032  0.513867  1
  F  F36  1  0.545615  0.987549  0.818111  1
  F  F37  1  0.907598  0.223550  0.733296  1
  F  F38  1  0.816156  0.546457  0.988729  1
  F  F39  1  0.959778  0.509786  0.640222  1
  F  F40  1  0.862225  0.863301  0.860468  1
  F  F41  1  0.986894  0.815579  0.548493  1
  Y  Y42  1  0.162387  0.608753  0.468475  1
  Y  Y43  1  0.467907  0.160575  0.609239  1
  Y  Y44  1  0.390962  0.530704  0.839919  1
  Y  Y45  1  0.607398  0.473199  0.186602  1
  Y  Y46  1  0.535144  0.816830  0.391089  1
  Y  Y47  1  0.825388  0.395086  0.527028  1
