# generated using pymatgen
data_Zr(TeCl)6
_symmetry_space_group_name_H-M   'P 1'
_cell_length_a   11.44097134
_cell_length_b   11.38149093
_cell_length_c   13.14108182
_cell_angle_alpha   90.00000000
_cell_angle_beta   90.00000000
_cell_angle_gamma   90.00000000
_symmetry_Int_Tables_number   1
_chemical_formula_structural   Zr(TeCl)6
_chemical_formula_sum   'Zr4 Te24 Cl24'
_cell_volume   1711.17006312
_cell_formula_units_Z   4
loop_
 _symmetry_equiv_pos_site_id
 _symmetry_equiv_pos_as_xyz
  1  'x, y, z'
loop_
 _atom_site_type_symbol
 _atom_site_label
 _atom_site_symmetry_multiplicity
 _atom_site_fract_x
 _atom_site_fract_y
 _atom_site_fract_z
 _atom_site_occupancy
  Cl  Cl0  1  0.909575  0.156441  0.885008  1
  Cl  Cl1  1  0.409575  0.843559  0.614992  1
  Cl  Cl2  1  0.590425  0.156441  0.114992  1
  Cl  Cl3  1  0.090425  0.843559  0.385008  1
  Cl  Cl4  1  0.090425  0.843559  0.114992  1
  Cl  Cl5  1  0.590425  0.156441  0.385008  1
  Cl  Cl6  1  0.409575  0.843559  0.885008  1
  Cl  Cl7  1  0.909575  0.156441  0.614992  1
  Cl  Cl8  1  0.671739  0.364352  0.618343  1
  Cl  Cl9  1  0.171739  0.635648  0.881657  1
  Cl  Cl10  1  0.828261  0.364352  0.381657  1
  Cl  Cl11  1  0.328261  0.635648  0.118343  1
  Cl  Cl12  1  0.328261  0.635648  0.381657  1
  Cl  Cl13  1  0.828261  0.364352  0.118343  1
  Cl  Cl14  1  0.171739  0.635648  0.618343  1
  Cl  Cl15  1  0.671739  0.364352  0.881657  1
  Cl  Cl16  1  0.345285  0.901516  0.250000  1
  Cl  Cl17  1  0.845285  0.098484  0.250000  1
  Cl  Cl18  1  0.154715  0.901516  0.750000  1
  Cl  Cl19  1  0.654715  0.098484  0.750000  1
  Cl  Cl20  1  0.057088  0.580487  0.250000  1
  Cl  Cl21  1  0.557088  0.419513  0.250000  1
  Cl  Cl22  1  0.442912  0.580487  0.750000  1
  Cl  Cl23  1  0.942912  0.419513  0.750000  1
  Zr  Zr24  1  0.792547  0.263152  0.750000  1
  Zr  Zr25  1  0.292547  0.736848  0.750000  1
  Zr  Zr26  1  0.707453  0.263152  0.250000  1
  Zr  Zr27  1  0.207453  0.736848  0.250000  1
  Te  Te28  1  0.241853  0.274011  0.750000  1
  Te  Te29  1  0.741853  0.725989  0.750000  1
  Te  Te30  1  0.258147  0.274011  0.250000  1
  Te  Te31  1  0.758147  0.725989  0.250000  1
  Te  Te32  1  0.750000  0.976293  0.500000  1
  Te  Te33  1  0.250000  0.023707  0.000000  1
  Te  Te34  1  0.250000  0.023707  0.500000  1
  Te  Te35  1  0.750000  0.976293  0.000000  1
  Te  Te36  1  0.635403  0.614138  0.531463  1
  Te  Te37  1  0.135403  0.385862  0.968537  1
  Te  Te38  1  0.864597  0.614138  0.468537  1
  Te  Te39  1  0.364597  0.385862  0.031463  1
  Te  Te40  1  0.364597  0.385862  0.468537  1
  Te  Te41  1  0.864597  0.614138  0.031463  1
  Te  Te42  1  0.135403  0.385862  0.531463  1
  Te  Te43  1  0.635403  0.614138  0.968537  1
  Te  Te44  1  0.600916  0.815237  0.403653  1
  Te  Te45  1  0.100916  0.184763  0.096347  1
  Te  Te46  1  0.899084  0.815237  0.596347  1
  Te  Te47  1  0.399084  0.184763  0.903653  1
  Te  Te48  1  0.399084  0.184763  0.596347  1
  Te  Te49  1  0.899084  0.815237  0.903653  1
  Te  Te50  1  0.100916  0.184763  0.403653  1
  Te  Te51  1  0.600916  0.815237  0.096347  1
