# generated using pymatgen
data_Ca2B2O5
_symmetry_space_group_name_H-M   'P 1'
_cell_length_a   5.21980597
_cell_length_b   7.27516429
_cell_length_c   11.64361347
_cell_angle_alpha   92.48237103
_cell_angle_beta   90.00000000
_cell_angle_gamma   90.00000000
_symmetry_Int_Tables_number   1
_chemical_formula_structural   Ca2B2O5
_chemical_formula_sum   'Ca8 B8 O20'
_cell_volume   441.75066242
_cell_formula_units_Z   4
loop_
 _symmetry_equiv_pos_site_id
 _symmetry_equiv_pos_as_xyz
  1  'x, y, z'
loop_
 _atom_site_type_symbol
 _atom_site_label
 _atom_site_symmetry_multiplicity
 _atom_site_fract_x
 _atom_site_fract_y
 _atom_site_fract_z
 _atom_site_occupancy
  B  B0  1  0.437138  0.335500  0.911208  1
  B  B1  1  0.937138  0.664500  0.588792  1
  B  B2  1  0.562862  0.664500  0.088792  1
  B  B3  1  0.062862  0.335500  0.411208  1
  B  B4  1  0.577719  0.155589  0.095983  1
  B  B5  1  0.077719  0.844411  0.404017  1
  B  B6  1  0.422281  0.844411  0.904017  1
  B  B7  1  0.922281  0.155589  0.595983  1
  O  O8  1  0.907289  0.225576  0.484200  1
  O  O9  1  0.407289  0.774424  0.015800  1
  O  O10  1  0.092711  0.774424  0.515800  1
  O  O11  1  0.592711  0.225576  0.984200  1
  O  O12  1  0.179282  0.355808  0.929090  1
  O  O13  1  0.679282  0.644192  0.570910  1
  O  O14  1  0.820718  0.644192  0.070910  1
  O  O15  1  0.320718  0.355808  0.429090  1
  O  O16  1  0.580103  0.406494  0.825061  1
  O  O17  1  0.080103  0.593506  0.674939  1
  O  O18  1  0.419897  0.593506  0.174939  1
  O  O19  1  0.919897  0.406494  0.325061  1
  O  O20  1  0.192521  0.890140  0.856872  1
  O  O21  1  0.692521  0.109860  0.643128  1
  O  O22  1  0.807479  0.109860  0.143128  1
  O  O23  1  0.307479  0.890140  0.356872  1
  O  O24  1  0.144022  0.146865  0.657205  1
  O  O25  1  0.644022  0.853135  0.842795  1
  O  O26  1  0.855978  0.853135  0.342795  1
  O  O27  1  0.355978  0.146865  0.157205  1
  Ca  Ca28  1  0.566681  0.617337  0.366283  1
  Ca  Ca29  1  0.066681  0.382663  0.133717  1
  Ca  Ca30  1  0.433319  0.382663  0.633717  1
  Ca  Ca31  1  0.933319  0.617337  0.866283  1
  Ca  Ca32  1  0.600893  0.122523  0.334800  1
  Ca  Ca33  1  0.100893  0.877477  0.165200  1
  Ca  Ca34  1  0.399107  0.877477  0.665200  1
  Ca  Ca35  1  0.899107  0.122523  0.834800  1
