# generated using pymatgen
data_As2Kr3F16
_symmetry_space_group_name_H-M   'P 1'
_cell_length_a   6.43383747
_cell_length_b   9.13013402
_cell_length_c   25.49037257
_cell_angle_alpha   90.00000000
_cell_angle_beta   90.00000000
_cell_angle_gamma   91.01249604
_symmetry_Int_Tables_number   1
_chemical_formula_structural   As2Kr3F16
_chemical_formula_sum   'As8 Kr12 F64'
_cell_volume   1497.11653698
_cell_formula_units_Z   4
loop_
 _symmetry_equiv_pos_site_id
 _symmetry_equiv_pos_as_xyz
  1  'x, y, z'
loop_
 _atom_site_type_symbol
 _atom_site_label
 _atom_site_symmetry_multiplicity
 _atom_site_fract_x
 _atom_site_fract_y
 _atom_site_fract_z
 _atom_site_occupancy
  F  F0  1  0.248968  0.016186  0.249259  1
  F  F1  1  0.751032  0.483814  0.749259  1
  F  F2  1  0.751032  0.983814  0.750741  1
  F  F3  1  0.248968  0.516186  0.250741  1
  F  F4  1  0.043186  0.477465  0.111102  1
  F  F5  1  0.956814  0.022535  0.611102  1
  F  F6  1  0.956814  0.522535  0.888898  1
  F  F7  1  0.043186  0.977465  0.388898  1
  F  F8  1  0.002134  0.293835  0.988232  1
  F  F9  1  0.997866  0.206165  0.488232  1
  F  F10  1  0.997866  0.706165  0.011768  1
  F  F11  1  0.002134  0.793835  0.511768  1
  F  F12  1  0.271111  0.206019  0.178744  1
  F  F13  1  0.728889  0.293981  0.678744  1
  F  F14  1  0.728889  0.793981  0.821256  1
  F  F15  1  0.271111  0.706019  0.321256  1
  F  F16  1  0.290128  0.744321  0.885022  1
  F  F17  1  0.709872  0.755679  0.385022  1
  F  F18  1  0.709872  0.255679  0.114978  1
  F  F19  1  0.290128  0.244321  0.614978  1
  F  F20  1  0.223362  0.564102  0.512915  1
  F  F21  1  0.776638  0.935898  0.012915  1
  F  F22  1  0.776638  0.435898  0.487085  1
  F  F23  1  0.223362  0.064102  0.987085  1
  F  F24  1  0.198303  0.319136  0.318570  1
  F  F25  1  0.801697  0.180864  0.818570  1
  F  F26  1  0.801697  0.680864  0.681430  1
  F  F27  1  0.198303  0.819136  0.181430  1
  F  F28  1  0.191733  0.730942  0.592925  1
  F  F29  1  0.808267  0.769058  0.092925  1
  F  F30  1  0.808267  0.269058  0.407075  1
  F  F31  1  0.191733  0.230942  0.907075  1
  F  F32  1  0.796500  0.330992  0.227323  1
  F  F33  1  0.203500  0.169008  0.727323  1
  F  F34  1  0.203500  0.669008  0.772677  1
  F  F35  1  0.796500  0.830992  0.272677  1
  F  F36  1  0.330469  0.788712  0.461936  1
  F  F37  1  0.669531  0.711288  0.961936  1
  F  F38  1  0.669531  0.211288  0.538064  1
  F  F39  1  0.330469  0.288712  0.038064  1
  F  F40  1  0.507074  0.489762  0.323365  1
  F  F41  1  0.492926  0.010238  0.823365  1
  F  F42  1  0.492926  0.510239  0.676635  1
  F  F43  1  0.507074  0.989761  0.176635  1
  F  F44  1  0.959934  0.533927  0.316616  1
  F  F45  1  0.040066  0.966073  0.816616  1
  F  F46  1  0.040066  0.466073  0.683384  1
  F  F47  1  0.959934  0.033927  0.183384  1
  F  F48  1  0.219724  0.510846  0.389800  1
  F  F49  1  0.780276  0.989154  0.889800  1
  F  F50  1  0.780276  0.489154  0.610200  1
  F  F51  1  0.219724  0.010846  0.110200  1
  F  F52  1  0.521650  0.731828  0.543328  1
  F  F53  1  0.478350  0.768172  0.043328  1
  F  F54  1  0.478350  0.268172  0.456672  1
  F  F55  1  0.521650  0.231828  0.956672  1
  F  F56  1  0.304060  0.963089  0.541489  1
  F  F57  1  0.695940  0.536911  0.041489  1
  F  F58  1  0.695940  0.036911  0.458511  1
  F  F59  1  0.304060  0.463089  0.958511  1
  F  F60  1  0.612591  0.055282  0.337518  1
  F  F61  1  0.387409  0.444718  0.837518  1
  F  F62  1  0.387409  0.944718  0.662482  1
  F  F63  1  0.612591  0.555282  0.162482  1
  As  As64  1  0.264176  0.778025  0.528642  1
  As  As65  1  0.735824  0.721975  0.028642  1
  As  As66  1  0.735824  0.221975  0.471358  1
  As  As67  1  0.264176  0.278025  0.971358  1
  As  As68  1  0.232980  0.513176  0.320520  1
  As  As69  1  0.767020  0.986824  0.820520  1
  As  As70  1  0.767020  0.486824  0.679480  1
  As  As71  1  0.232980  0.013176  0.179480  1
  Kr  Kr72  1  0.703042  0.703220  0.221258  1
  Kr  Kr73  1  0.296958  0.796780  0.721258  1
  Kr  Kr74  1  0.296958  0.296780  0.778742  1
  Kr  Kr75  1  0.703042  0.203220  0.278742  1
  Kr  Kr76  1  0.260088  0.399599  0.568906  1
  Kr  Kr77  1  0.739912  0.100401  0.068906  1
  Kr  Kr78  1  0.739912  0.600401  0.431094  1
  Kr  Kr79  1  0.260088  0.899599  0.931094  1
  Kr  Kr80  1  0.308408  0.017696  0.364212  1
  Kr  Kr81  1  0.691592  0.482304  0.864212  1
  Kr  Kr82  1  0.691592  0.982304  0.635788  1
  Kr  Kr83  1  0.308408  0.517696  0.135788  1
