# generated using pymatgen
data_Zr3Ti2Ga3
_symmetry_space_group_name_H-M   'P 1'
_cell_length_a   7.96150792
_cell_length_b   7.96150792
_cell_length_c   5.49760245
_cell_angle_alpha   90.00000000
_cell_angle_beta   90.00000000
_cell_angle_gamma   120.00000000
_symmetry_Int_Tables_number   1
_chemical_formula_structural   Zr3Ti2Ga3
_chemical_formula_sum   'Zr6 Ti4 Ga6'
_cell_volume   301.78289883
_cell_formula_units_Z   2
loop_
 _symmetry_equiv_pos_site_id
 _symmetry_equiv_pos_as_xyz
  1  'x, y, z'
loop_
 _atom_site_type_symbol
 _atom_site_label
 _atom_site_symmetry_multiplicity
 _atom_site_fract_x
 _atom_site_fract_y
 _atom_site_fract_z
 _atom_site_occupancy
  Ti  Ti0  1  0.666667  0.333333  0.000000  1
  Ti  Ti1  1  0.333333  0.666667  0.500000  1
  Ti  Ti2  1  0.666667  0.333333  0.500000  1
  Ti  Ti3  1  0.333333  0.666667  0.000000  1
  Ga  Ga4  1  0.598499  0.000000  0.250000  1
  Ga  Ga5  1  0.401501  0.000000  0.750000  1
  Ga  Ga6  1  0.000000  0.598499  0.250000  1
  Ga  Ga7  1  0.000000  0.401501  0.750000  1
  Ga  Ga8  1  0.598499  0.598499  0.750000  1
  Ga  Ga9  1  0.401501  0.401501  0.250000  1
  Zr  Zr10  1  0.242821  0.000000  0.250000  1
  Zr  Zr11  1  0.242821  0.242821  0.750000  1
  Zr  Zr12  1  0.000000  0.757179  0.750000  1
  Zr  Zr13  1  0.000000  0.242821  0.250000  1
  Zr  Zr14  1  0.757179  0.757179  0.250000  1
  Zr  Zr15  1  0.757179  0.000000  0.750000  1
