# generated using pymatgen
data_Pd13Pb9
_symmetry_space_group_name_H-M   'P 1'
_cell_length_a   9.22652284
_cell_length_b   9.22652285
_cell_length_c   12.64327859
_cell_angle_alpha   100.43342014
_cell_angle_beta   100.68357650
_cell_angle_gamma   119.85512285
_symmetry_Int_Tables_number   1
_chemical_formula_structural   Pd13Pb9
_chemical_formula_sum   'Pd26 Pb18'
_cell_volume   868.81290029
_cell_formula_units_Z   2
loop_
 _symmetry_equiv_pos_site_id
 _symmetry_equiv_pos_as_xyz
  1  'x, y, z'
loop_
 _atom_site_type_symbol
 _atom_site_label
 _atom_site_symmetry_multiplicity
 _atom_site_fract_x
 _atom_site_fract_y
 _atom_site_fract_z
 _atom_site_occupancy
  Pd  Pd0  1  0.491895  0.401082  0.624494  1
  Pd  Pd1  1  0.776588  0.367401  0.875506  1
  Pd  Pd2  1  0.508105  0.598918  0.375506  1
  Pd  Pd3  1  0.223412  0.632599  0.124494  1
  Pd  Pd4  1  0.874088  0.124532  0.751339  1
  Pd  Pd5  1  0.373193  0.622748  0.748661  1
  Pd  Pd6  1  0.125912  0.875468  0.248661  1
  Pd  Pd7  1  0.626807  0.377252  0.251339  1
  Pd  Pd8  1  0.773450  0.842885  0.870153  1
  Pd  Pd9  1  0.972732  0.403297  0.629847  1
  Pd  Pd10  1  0.226550  0.157115  0.129847  1
  Pd  Pd11  1  0.027268  0.596703  0.370153  1
  Pd  Pd12  1  0.982538  0.894374  0.640475  1
  Pd  Pd13  1  0.253899  0.842063  0.859525  1
  Pd  Pd14  1  0.017462  0.105626  0.359525  1
  Pd  Pd15  1  0.746101  0.157937  0.140475  1
  Pd  Pd16  1  0.764383  0.999817  0.500614  1
  Pd  Pd17  1  0.499203  0.763769  0.999386  1
  Pd  Pd18  1  0.625328  0.875328  0.250000  1
  Pd  Pd19  1  0.374672  0.124672  0.750000  1
  Pd  Pd20  1  0.761510  0.519454  0.505677  1
  Pd  Pd21  1  0.013777  0.755833  0.994323  1
  Pd  Pd22  1  0.238490  0.480546  0.494323  1
  Pd  Pd23  1  0.986223  0.244167  0.005677  1
  Pd  Pd24  1  0.500797  0.236231  0.000614  1
  Pd  Pd25  1  0.235617  0.000183  0.499386  1
  Pb  Pb26  1  0.610271  0.751196  0.618144  1
  Pb  Pb27  1  0.133052  0.492127  0.881856  1
  Pb  Pb28  1  0.389729  0.248804  0.381856  1
  Pb  Pb29  1  0.866948  0.507873  0.118144  1
  Pb  Pb30  1  0.143049  0.228047  0.617467  1
  Pb  Pb31  1  0.610580  0.025582  0.882533  1
  Pb  Pb32  1  0.856951  0.771953  0.382533  1
  Pb  Pb33  1  0.389420  0.974418  0.117467  1
  Pb  Pb34  1  0.615749  0.170030  0.624691  1
  Pb  Pb35  1  0.545339  0.491058  0.875309  1
  Pb  Pb36  1  0.384251  0.829970  0.375309  1
  Pb  Pb37  1  0.454661  0.508942  0.124691  1
  Pb  Pb38  1  0.195463  0.747764  0.613563  1
  Pb  Pb39  1  0.134200  0.081900  0.886437  1
  Pb  Pb40  1  0.804537  0.252236  0.386437  1
  Pb  Pb41  1  0.865800  0.918100  0.113563  1
  Pb  Pb42  1  0.872431  0.622431  0.750000  1
  Pb  Pb43  1  0.127569  0.377569  0.250000  1
