# generated using pymatgen
data_Al2CoO4
_symmetry_space_group_name_H-M   'P 1'
_cell_length_a   5.77770997
_cell_length_b   5.77770961
_cell_length_c   5.77770925
_cell_angle_alpha   60.00000201
_cell_angle_beta   60.00000409
_cell_angle_gamma   60.00000405
_symmetry_Int_Tables_number   1
_chemical_formula_structural   Al2CoO4
_chemical_formula_sum   'Al4 Co2 O8'
_cell_volume   136.38046491
_cell_formula_units_Z   2
loop_
 _symmetry_equiv_pos_site_id
 _symmetry_equiv_pos_as_xyz
  1  'x, y, z'
loop_
 _atom_site_type_symbol
 _atom_site_label
 _atom_site_symmetry_multiplicity
 _atom_site_fract_x
 _atom_site_fract_y
 _atom_site_fract_z
 _atom_site_occupancy
  Al  Al0  1  0.125000  0.625000  0.625000  1
  Al  Al1  1  0.625000  0.625000  0.125000  1
  Al  Al2  1  0.625000  0.125000  0.625000  1
  Al  Al3  1  0.625000  0.625000  0.625000  1
  Co  Co4  1  0.000000  0.000000  0.000000  1
  Co  Co5  1  0.250000  0.250000  0.250000  1
  O  O6  1  0.831610  0.389463  0.389463  1
  O  O7  1  0.860537  0.860537  0.860537  1
  O  O8  1  0.389463  0.831610  0.389463  1
  O  O9  1  0.389463  0.389463  0.831610  1
  O  O10  1  0.860537  0.860537  0.418390  1
  O  O11  1  0.860537  0.418390  0.860537  1
  O  O12  1  0.389463  0.389463  0.389463  1
  O  O13  1  0.418390  0.860537  0.860537  1
