# generated using pymatgen
data_LiNdSe2
_symmetry_space_group_name_H-M   'P 1'
_cell_length_a   8.31662832
_cell_length_b   11.01759674
_cell_length_c   7.22606588
_cell_angle_alpha   29.15838550
_cell_angle_beta   54.86812516
_cell_angle_gamma   40.98777146
_symmetry_Int_Tables_number   1
_chemical_formula_structural   LiNdSe2
_chemical_formula_sum   'Li2 Nd2 Se4'
_cell_volume   204.20131272
_cell_formula_units_Z   2
loop_
 _symmetry_equiv_pos_site_id
 _symmetry_equiv_pos_as_xyz
  1  'x, y, z'
loop_
 _atom_site_type_symbol
 _atom_site_label
 _atom_site_symmetry_multiplicity
 _atom_site_fract_x
 _atom_site_fract_y
 _atom_site_fract_z
 _atom_site_occupancy
  Li  Li0  1  0.500003  0.000000  0.000000  1
  Li  Li1  1  0.249997  0.500000  0.000000  1
  Nd  Nd2  1  -0.000002  0.000000  0.000000  1
  Nd  Nd3  1  0.750002  0.500000  0.000000  1
  Se  Se4  1  0.249968  0.999998  0.500071  1
  Se  Se5  1  -0.000034  0.499998  0.500071  1
  Se  Se6  1  0.750034  0.000002  0.499929  1
  Se  Se7  1  0.500032  0.500002  0.499929  1
