# generated using pymatgen
data_Ta2Mn3O8
_symmetry_space_group_name_H-M   'P 1'
_cell_length_a   9.47998360
_cell_length_b   9.47998360
_cell_length_c   9.47998360
_cell_angle_alpha   106.00174695
_cell_angle_beta   106.00174695
_cell_angle_gamma   116.65817105
_symmetry_Int_Tables_number   1
_chemical_formula_structural   Ta2Mn3O8
_chemical_formula_sum   'Ta8 Mn12 O32'
_cell_volume   648.01245433
_cell_formula_units_Z   4
loop_
 _symmetry_equiv_pos_site_id
 _symmetry_equiv_pos_as_xyz
  1  'x, y, z'
loop_
 _atom_site_type_symbol
 _atom_site_label
 _atom_site_symmetry_multiplicity
 _atom_site_fract_x
 _atom_site_fract_y
 _atom_site_fract_z
 _atom_site_occupancy
  O  O0  1  0.211813  0.080382  0.785302  1
  O  O1  1  0.580382  0.295080  0.868569  1
  O  O2  1  0.926511  0.711814  0.631431  1
  O  O3  1  0.795081  0.426511  0.714698  1
  O  O4  1  0.788187  0.919618  0.214698  1
  O  O5  1  0.419617  0.704919  0.131431  1
  O  O6  1  0.073489  0.288187  0.368569  1
  O  O7  1  0.204919  0.573489  0.285303  1
  O  O8  1  0.818963  0.201814  0.009946  1
  O  O9  1  0.701813  0.191866  0.382850  1
  O  O10  1  0.309017  0.318964  0.117151  1
  O  O11  1  0.691867  0.809016  0.490053  1
  O  O12  1  0.181037  0.798187  0.990053  1
  O  O13  1  0.298187  0.808134  0.617151  1
  O  O14  1  0.690983  0.681036  0.882850  1
  O  O15  1  0.308134  0.190983  0.509947  1
  O  O16  1  0.378350  0.442928  0.858952  1
  O  O17  1  0.942929  0.583977  0.064578  1
  O  O18  1  0.019399  0.878350  0.435422  1
  O  O19  1  0.083977  0.519399  0.641048  1
  O  O20  1  0.415912  0.589522  0.568364  1
  O  O21  1  0.089521  0.021157  0.173610  1
  O  O22  1  0.347548  0.915912  0.326390  1
  O  O23  1  0.521158  0.847548  0.931637  1
  O  O24  1  0.584089  0.410479  0.431636  1
  O  O25  1  0.910478  0.978841  0.826390  1
  O  O26  1  0.621650  0.557072  0.141049  1
  O  O27  1  0.478842  0.152452  0.068364  1
  O  O28  1  0.916023  0.480602  0.358951  1
  O  O29  1  0.980602  0.121650  0.564579  1
  O  O30  1  0.057071  0.416023  0.935421  1
  O  O31  1  0.652452  0.084089  0.673611  1
  Mn  Mn32  1  0.125001  0.375000  0.750001  1
  Mn  Mn33  1  0.874999  0.625000  0.250000  1
  Mn  Mn34  1  0.625000  0.875000  0.750000  1
  Mn  Mn35  1  0.375000  0.125000  0.250000  1
  Mn  Mn36  1  0.950319  0.794041  0.932388  1
  Mn  Mn37  1  0.294040  0.861653  0.843721  1
  Mn  Mn38  1  0.517932  0.450320  0.656279  1
  Mn  Mn39  1  0.361654  0.017932  0.567613  1
  Mn  Mn40  1  0.049681  0.205959  0.067613  1
  Mn  Mn41  1  0.705960  0.138347  0.156279  1
  Mn  Mn42  1  0.638346  0.982068  0.432387  1
  Mn  Mn43  1  0.482068  0.549681  0.343722  1
  Ta  Ta44  1  0.423935  0.294733  0.978011  1
  Ta  Ta45  1  0.794732  0.316722  0.870797  1
  Ta  Ta46  1  0.945926  0.923936  0.629203  1
  Ta  Ta47  1  0.816721  0.445924  0.521990  1
  Ta  Ta48  1  0.576065  0.705268  0.021990  1
  Ta  Ta49  1  0.205268  0.683278  0.129203  1
  Ta  Ta50  1  0.054075  0.076064  0.370798  1
  Ta  Ta51  1  0.183279  0.554076  0.478011  1
