# generated using pymatgen
data_Ga5Pd13
_symmetry_space_group_name_H-M   'P 1'
_cell_length_a   4.10205962
_cell_length_b   5.54357868
_cell_length_c   12.47683231
_cell_angle_alpha   102.39290873
_cell_angle_beta   99.46162954
_cell_angle_gamma   89.99999996
_symmetry_Int_Tables_number   1
_chemical_formula_structural   Ga5Pd13
_chemical_formula_sum   'Ga5 Pd13'
_cell_volume   273.15997906
_cell_formula_units_Z   1
loop_
 _symmetry_equiv_pos_site_id
 _symmetry_equiv_pos_as_xyz
  1  'x, y, z'
loop_
 _atom_site_type_symbol
 _atom_site_label
 _atom_site_symmetry_multiplicity
 _atom_site_fract_x
 _atom_site_fract_y
 _atom_site_fract_z
 _atom_site_occupancy
  Ga  Ga0  1  0.000000  0.000000  0.000000  1
  Ga  Ga1  1  0.894094  0.355444  0.788187  1
  Ga  Ga2  1  0.105906  0.644556  0.211813  1
  Ga  Ga3  1  0.676840  0.312469  0.353680  1
  Ga  Ga4  1  0.323160  0.687531  0.646320  1
  Pd  Pd5  1  0.000000  0.500000  0.000000  1
  Pd  Pd6  1  0.887264  0.875777  0.774528  1
  Pd  Pd7  1  0.112736  0.124223  0.225472  1
  Pd  Pd8  1  0.787494  0.407128  0.574988  1
  Pd  Pd9  1  0.212506  0.592872  0.425012  1
  Pd  Pd10  1  0.775498  0.890699  0.550996  1
  Pd  Pd11  1  0.224502  0.109301  0.449004  1
  Pd  Pd12  1  0.660135  0.829200  0.320270  1
  Pd  Pd13  1  0.339865  0.170800  0.679730  1
  Pd  Pd14  1  0.570453  0.373263  0.140906  1
  Pd  Pd15  1  0.429547  0.626737  0.859094  1
  Pd  Pd16  1  0.545044  0.848205  0.090088  1
  Pd  Pd17  1  0.454956  0.151795  0.909912  1
