# generated using pymatgen
data_SbIF10
_symmetry_space_group_name_H-M   'P 1'
_cell_length_a   8.38622250
_cell_length_b   8.45057978
_cell_length_c   12.22101037
_cell_angle_alpha   110.22696353
_cell_angle_beta   110.06626803
_cell_angle_gamma   90.00000001
_symmetry_Int_Tables_number   1
_chemical_formula_structural   SbIF10
_chemical_formula_sum   'Sb4 I4 F40'
_cell_volume   756.39518154
_cell_formula_units_Z   4
loop_
 _symmetry_equiv_pos_site_id
 _symmetry_equiv_pos_as_xyz
  1  'x, y, z'
loop_
 _atom_site_type_symbol
 _atom_site_label
 _atom_site_symmetry_multiplicity
 _atom_site_fract_x
 _atom_site_fract_y
 _atom_site_fract_z
 _atom_site_occupancy
  F  F0  1  0.128574  0.110100  0.170046  1
  F  F1  1  0.458528  0.389900  0.829954  1
  F  F2  1  0.371426  0.940054  0.829954  1
  F  F3  1  0.041472  0.559946  0.170046  1
  F  F4  1  0.871426  0.889900  0.829954  1
  F  F5  1  0.541472  0.610100  0.170046  1
  F  F6  1  0.628574  0.059946  0.170046  1
  F  F7  1  0.958528  0.440054  0.829954  1
  F  F8  1  0.173914  0.663390  0.590686  1
  F  F9  1  0.083228  0.836610  0.409314  1
  F  F10  1  0.326086  0.072705  0.409314  1
  F  F11  1  0.416772  0.427295  0.590686  1
  F  F12  1  0.826086  0.336610  0.409314  1
  F  F13  1  0.916772  0.163390  0.590686  1
  F  F14  1  0.673914  0.927296  0.590686  1
  F  F15  1  0.583228  0.572704  0.409314  1
  F  F16  1  0.174492  0.422431  0.654947  1
  F  F17  1  0.019544  0.077569  0.345053  1
  F  F18  1  0.325508  0.767483  0.345053  1
  F  F19  1  0.480456  0.732517  0.654947  1
  F  F20  1  0.825508  0.577569  0.345053  1
  F  F21  1  0.980456  0.922431  0.654947  1
  F  F22  1  0.674492  0.232517  0.654947  1
  F  F23  1  0.519544  0.267483  0.345053  1
  F  F24  1  0.003020  0.753020  0.006040  1
  F  F25  1  0.496980  0.746980  0.993960  1
  F  F26  1  0.996980  0.246980  0.993960  1
  F  F27  1  0.503020  0.253020  0.006040  1
  F  F28  1  0.825148  0.575148  0.650295  1
  F  F29  1  0.674852  0.924852  0.349705  1
  F  F30  1  0.174852  0.424852  0.349705  1
  F  F31  1  0.325148  0.075148  0.650295  1
  F  F32  1  0.141716  0.707556  0.829236  1
  F  F33  1  0.812480  0.792444  0.170764  1
  F  F34  1  0.358284  0.878320  0.170764  1
  F  F35  1  0.687520  0.621680  0.829236  1
  F  F36  1  0.858284  0.292444  0.170764  1
  F  F37  1  0.187520  0.207556  0.829236  1
  F  F38  1  0.641716  0.121680  0.829236  1
  F  F39  1  0.312480  0.378320  0.170764  1
  Sb  Sb40  1  0.413998  0.163998  0.827996  1
  Sb  Sb41  1  0.086002  0.336002  0.172004  1
  Sb  Sb42  1  0.586002  0.836002  0.172004  1
  Sb  Sb43  1  0.913998  0.663998  0.827996  1
  I  I44  1  0.850473  0.100473  0.700946  1
  I  I45  1  0.649527  0.399527  0.299054  1
  I  I46  1  0.149527  0.899527  0.299054  1
  I  I47  1  0.350473  0.600473  0.700946  1
