# generated using pymatgen
data_Pr5Cl12
_symmetry_space_group_name_H-M   'P 1'
_cell_length_a   8.18542343
_cell_length_b   8.18542298
_cell_length_c   23.35209325
_cell_angle_alpha   90.00000000
_cell_angle_beta   90.00000000
_cell_angle_gamma   120.00000176
_symmetry_Int_Tables_number   1
_chemical_formula_structural   Pr5Cl12
_chemical_formula_sum   'Pr15 Cl36'
_cell_volume   1354.99819647
_cell_formula_units_Z   3
loop_
 _symmetry_equiv_pos_site_id
 _symmetry_equiv_pos_as_xyz
  1  'x, y, z'
loop_
 _atom_site_type_symbol
 _atom_site_label
 _atom_site_symmetry_multiplicity
 _atom_site_fract_x
 _atom_site_fract_y
 _atom_site_fract_z
 _atom_site_occupancy
  Cl  Cl0  1  0.302742  0.902012  0.121722  1
  Cl  Cl1  1  0.303076  0.898504  0.292453  1
  Cl  Cl2  1  0.313620  0.911173  0.463277  1
  Cl  Cl3  1  0.306512  0.920567  0.627665  1
  Cl  Cl4  1  0.303785  0.925288  0.790517  1
  Cl  Cl5  1  0.286857  0.917107  0.952395  1
  Cl  Cl6  1  0.097988  0.400730  0.121722  1
  Cl  Cl7  1  0.101496  0.404572  0.292453  1
  Cl  Cl8  1  0.088827  0.402448  0.463277  1
  Cl  Cl9  1  0.079433  0.385945  0.627665  1
  Cl  Cl10  1  0.074712  0.378497  0.790517  1
  Cl  Cl11  1  0.082893  0.369750  0.952395  1
  Cl  Cl12  1  0.402448  0.313620  0.036723  1
  Cl  Cl13  1  0.404572  0.303076  0.207547  1
  Cl  Cl14  1  0.400730  0.302742  0.378278  1
  Cl  Cl15  1  0.369750  0.286857  0.547605  1
  Cl  Cl16  1  0.378497  0.303785  0.709483  1
  Cl  Cl17  1  0.385945  0.306512  0.872335  1
  Cl  Cl18  1  0.599270  0.697258  0.121722  1
  Cl  Cl19  1  0.595428  0.696924  0.292453  1
  Cl  Cl20  1  0.597552  0.686380  0.463277  1
  Cl  Cl21  1  0.614055  0.693488  0.627665  1
  Cl  Cl22  1  0.621503  0.696215  0.790517  1
  Cl  Cl23  1  0.630250  0.713143  0.952395  1
  Cl  Cl24  1  0.911173  0.597552  0.036723  1
  Cl  Cl25  1  0.898504  0.595428  0.207547  1
  Cl  Cl26  1  0.902012  0.599270  0.378278  1
  Cl  Cl27  1  0.917107  0.630250  0.547605  1
  Cl  Cl28  1  0.925288  0.621503  0.709483  1
  Cl  Cl29  1  0.920567  0.614055  0.872335  1
  Cl  Cl30  1  0.686380  0.088827  0.036723  1
  Cl  Cl31  1  0.696924  0.101496  0.207547  1
  Cl  Cl32  1  0.697258  0.097988  0.378278  1
  Cl  Cl33  1  0.713143  0.082893  0.547605  1
  Cl  Cl34  1  0.696215  0.074712  0.709483  1
  Cl  Cl35  1  0.693488  0.079433  0.872335  1
  Pr  Pr36  1  0.333333  0.666667  0.037376  1
  Pr  Pr37  1  0.333333  0.666667  0.206296  1
  Pr  Pr38  1  0.333333  0.666667  0.377237  1
  Pr  Pr39  1  0.333333  0.666667  0.544957  1
  Pr  Pr40  1  0.333333  0.666667  0.711964  1
  Pr  Pr41  1  0.000000  0.000000  0.601510  1
  Pr  Pr42  1  0.333333  0.666667  0.872895  1
  Pr  Pr43  1  0.000000  0.000000  0.750000  1
  Pr  Pr44  1  0.000000  0.000000  0.898490  1
  Pr  Pr45  1  0.666667  0.333333  0.122763  1
  Pr  Pr46  1  0.666667  0.333333  0.293704  1
  Pr  Pr47  1  0.666667  0.333333  0.462624  1
  Pr  Pr48  1  0.666667  0.333333  0.627105  1
  Pr  Pr49  1  0.666667  0.333333  0.788036  1
  Pr  Pr50  1  0.666667  0.333333  0.955043  1
