# generated using pymatgen
data_LiMn2(PO4)3
_symmetry_space_group_name_H-M   'P 1'
_cell_length_a   8.77168005
_cell_length_b   8.26420742
_cell_length_c   8.26508972
_cell_angle_alpha   59.40223848
_cell_angle_beta   61.85339824
_cell_angle_gamma   61.76959329
_symmetry_Int_Tables_number   1
_chemical_formula_structural   LiMn2(PO4)3
_chemical_formula_sum   'Li2 Mn4 P6 O24'
_cell_volume   432.79335326
_cell_formula_units_Z   2
loop_
 _symmetry_equiv_pos_site_id
 _symmetry_equiv_pos_as_xyz
  1  'x, y, z'
loop_
 _atom_site_type_symbol
 _atom_site_label
 _atom_site_symmetry_multiplicity
 _atom_site_fract_x
 _atom_site_fract_y
 _atom_site_fract_z
 _atom_site_occupancy
  Li  Li0  1  0.133298  0.690288  0.248569  1
  Li  Li1  1  0.866702  0.309712  0.751431  1
  O  O2  1  0.261470  0.884728  0.113019  1
  O  O3  1  0.898729  0.482044  0.829535  1
  O  O4  1  0.914171  0.779817  0.466138  1
  O  O5  1  0.793867  0.531858  0.499122  1
  O  O6  1  0.098936  0.172118  0.214282  1
  O  O7  1  0.101271  0.517956  0.170465  1
  O  O8  1  0.085829  0.220183  0.533862  1
  O  O9  1  0.206133  0.468142  0.500878  1
  O  O10  1  0.267444  0.111981  0.741444  1
  O  O11  1  0.427620  0.198531  0.373776  1
  O  O12  1  0.901064  0.827882  0.785718  1
  O  O13  1  0.204533  0.820988  0.465450  1
  O  O14  1  0.203009  0.512508  0.821225  1
  O  O15  1  0.564405  0.623196  0.016525  1
  O  O16  1  0.735766  0.258738  0.105985  1
  O  O17  1  0.565146  0.012920  0.803311  1
  O  O18  1  0.732556  0.888019  0.258556  1
  O  O19  1  0.264234  0.741262  0.894015  1
  O  O20  1  0.435595  0.376804  0.983475  1
  O  O21  1  0.796991  0.487492  0.178775  1
  O  O22  1  0.795467  0.179012  0.534549  1
  O  O23  1  0.738530  0.115272  0.886981  1
  O  O24  1  0.572380  0.801469  0.626224  1
  O  O25  1  0.434854  0.987080  0.196689  1
  P  P26  1  0.749025  0.750317  0.466724  1
  P  P27  1  0.751116  0.031076  0.748484  1
  P  P28  1  0.748373  0.466197  0.036787  1
  P  P29  1  0.251625  0.533803  0.963213  1
  P  P30  1  0.250975  0.249683  0.533276  1
  P  P31  1  0.248884  0.968924  0.251516  1
  Mn  Mn32  1  0.052273  0.650905  0.650784  1
  Mn  Mn33  1  0.570593  0.140430  0.142126  1
  Mn  Mn34  1  0.429407  0.859570  0.857874  1
  Mn  Mn35  1  0.947727  0.349095  0.349216  1
