# generated using pymatgen
data_KTaS5
_symmetry_space_group_name_H-M   'P 1'
_cell_length_a   6.49719027
_cell_length_b   15.59276376
_cell_length_c   15.68418515
_cell_angle_alpha   118.75202770
_cell_angle_beta   90.00000000
_cell_angle_gamma   90.00000000
_symmetry_Int_Tables_number   1
_chemical_formula_structural   KTaS5
_chemical_formula_sum   'K8 Ta8 S40'
_cell_volume   1393.04925640
_cell_formula_units_Z   8
loop_
 _symmetry_equiv_pos_site_id
 _symmetry_equiv_pos_as_xyz
  1  'x, y, z'
loop_
 _atom_site_type_symbol
 _atom_site_label
 _atom_site_symmetry_multiplicity
 _atom_site_fract_x
 _atom_site_fract_y
 _atom_site_fract_z
 _atom_site_occupancy
  S  S0  1  0.797010  0.393107  0.690713  1
  S  S1  1  0.297010  0.106893  0.809287  1
  S  S2  1  0.202990  0.606893  0.309287  1
  S  S3  1  0.702990  0.893107  0.190713  1
  S  S4  1  0.917452  0.390405  0.441384  1
  S  S5  1  0.417452  0.109595  0.058616  1
  S  S6  1  0.082548  0.609595  0.558616  1
  S  S7  1  0.582548  0.890405  0.941384  1
  S  S8  1  0.107138  0.442707  0.891040  1
  S  S9  1  0.607138  0.057293  0.608960  1
  S  S10  1  0.892862  0.557293  0.108960  1
  S  S11  1  0.392862  0.942707  0.391040  1
  S  S12  1  0.237045  0.191198  0.392198  1
  S  S13  1  0.737045  0.308802  0.107802  1
  S  S14  1  0.762955  0.808802  0.607802  1
  S  S15  1  0.262955  0.691198  0.892198  1
  S  S16  1  0.753444  0.762763  0.871482  1
  S  S17  1  0.253444  0.737237  0.628518  1
  S  S18  1  0.246556  0.237237  0.128518  1
  S  S19  1  0.746556  0.262763  0.371482  1
  S  S20  1  0.134273  0.876419  0.835473  1
  S  S21  1  0.634273  0.623581  0.664527  1
  S  S22  1  0.865727  0.123581  0.164527  1
  S  S23  1  0.365727  0.376419  0.335473  1
  S  S24  1  0.336447  0.665753  0.124183  1
  S  S25  1  0.836447  0.834247  0.375818  1
  S  S26  1  0.663553  0.334247  0.875818  1
  S  S27  1  0.163553  0.165753  0.624182  1
  S  S28  1  0.717742  0.627046  0.234731  1
  S  S29  1  0.217742  0.872954  0.265269  1
  S  S30  1  0.282258  0.372954  0.765269  1
  S  S31  1  0.782258  0.127046  0.734731  1
  S  S32  1  0.646721  0.872819  0.749296  1
  S  S33  1  0.146721  0.627181  0.750704  1
  S  S34  1  0.353279  0.127181  0.250704  1
  S  S35  1  0.853279  0.372819  0.249296  1
  S  S36  1  0.825541  0.751553  0.128205  1
  S  S37  1  0.325541  0.748447  0.371795  1
  S  S38  1  0.174459  0.248447  0.871795  1
  S  S39  1  0.674459  0.251553  0.628205  1
  K  K40  1  0.357987  0.415545  0.567427  1
  K  K41  1  0.857987  0.084455  0.932573  1
  K  K42  1  0.642013  0.584455  0.432573  1
  K  K43  1  0.142013  0.915545  0.067427  1
  K  K44  1  0.854083  0.064368  0.414481  1
  K  K45  1  0.354083  0.435632  0.085519  1
  K  K46  1  0.145917  0.935632  0.585519  1
  K  K47  1  0.645917  0.564368  0.914481  1
  Ta  Ta48  1  0.946125  0.291264  0.755928  1
  Ta  Ta49  1  0.446125  0.208736  0.744072  1
  Ta  Ta50  1  0.053875  0.708736  0.244072  1
  Ta  Ta51  1  0.553875  0.791264  0.255928  1
  Ta  Ta52  1  0.081838  0.256238  0.290617  1
  Ta  Ta53  1  0.581838  0.243762  0.209383  1
  Ta  Ta54  1  0.918162  0.743762  0.709383  1
  Ta  Ta55  1  0.418162  0.756238  0.790617  1
