# generated using pymatgen
data_Yb3Sn13Rh4
_symmetry_space_group_name_H-M   'P 1'
_cell_length_a   9.79575921
_cell_length_b   9.79575921
_cell_length_c   9.79575921
_cell_angle_alpha   90.00000000
_cell_angle_beta   90.00000000
_cell_angle_gamma   90.00000000
_symmetry_Int_Tables_number   1
_chemical_formula_structural   Yb3Sn13Rh4
_chemical_formula_sum   'Yb6 Sn26 Rh8'
_cell_volume   939.97067225
_cell_formula_units_Z   2
loop_
 _symmetry_equiv_pos_site_id
 _symmetry_equiv_pos_as_xyz
  1  'x, y, z'
loop_
 _atom_site_type_symbol
 _atom_site_label
 _atom_site_symmetry_multiplicity
 _atom_site_fract_x
 _atom_site_fract_y
 _atom_site_fract_z
 _atom_site_occupancy
  Rh  Rh0  1  0.250000  0.250000  0.250000  1
  Rh  Rh1  1  0.750000  0.250000  0.750000  1
  Rh  Rh2  1  0.750000  0.750000  0.250000  1
  Rh  Rh3  1  0.250000  0.750000  0.750000  1
  Rh  Rh4  1  0.750000  0.750000  0.750000  1
  Rh  Rh5  1  0.250000  0.750000  0.250000  1
  Rh  Rh6  1  0.250000  0.250000  0.750000  1
  Rh  Rh7  1  0.750000  0.250000  0.250000  1
  Sn  Sn8  1  0.000000  0.000000  0.000000  1
  Sn  Sn9  1  0.500000  0.500000  0.500000  1
  Sn  Sn10  1  0.000000  0.306201  0.153094  1
  Sn  Sn11  1  0.500000  0.346906  0.806201  1
  Sn  Sn12  1  0.500000  0.653094  0.193799  1
  Sn  Sn13  1  0.653094  0.806201  0.500000  1
  Sn  Sn14  1  0.346906  0.806201  0.500000  1
  Sn  Sn15  1  0.193799  0.500000  0.653094  1
  Sn  Sn16  1  0.806201  0.500000  0.653094  1
  Sn  Sn17  1  0.153094  0.000000  0.306201  1
  Sn  Sn18  1  0.306201  0.153094  0.000000  1
  Sn  Sn19  1  0.693799  0.846906  0.000000  1
  Sn  Sn20  1  0.153094  0.000000  0.693799  1
  Sn  Sn21  1  0.693799  0.153094  0.000000  1
  Sn  Sn22  1  0.846906  0.000000  0.306201  1
  Sn  Sn23  1  0.846906  0.000000  0.693799  1
  Sn  Sn24  1  0.306201  0.846906  0.000000  1
  Sn  Sn25  1  0.000000  0.693799  0.846906  1
  Sn  Sn26  1  0.000000  0.306201  0.846906  1
  Sn  Sn27  1  0.000000  0.693799  0.153094  1
  Sn  Sn28  1  0.806201  0.500000  0.346906  1
  Sn  Sn29  1  0.193799  0.500000  0.346906  1
  Sn  Sn30  1  0.653094  0.193799  0.500000  1
  Sn  Sn31  1  0.346906  0.193799  0.500000  1
  Sn  Sn32  1  0.500000  0.653094  0.806201  1
  Sn  Sn33  1  0.500000  0.346906  0.193799  1
  Yb  Yb34  1  0.250000  0.500000  0.000000  1
  Yb  Yb35  1  0.750000  0.500000  0.000000  1
  Yb  Yb36  1  0.500000  0.000000  0.250000  1
  Yb  Yb37  1  0.500000  0.000000  0.750000  1
  Yb  Yb38  1  0.000000  0.750000  0.500000  1
  Yb  Yb39  1  0.000000  0.250000  0.500000  1
