# generated using pymatgen
data_Tl(WO3)6
_symmetry_space_group_name_H-M   'P 1'
_cell_length_a   7.52153627
_cell_length_b   7.52153672
_cell_length_c   7.72627951
_cell_angle_alpha   90.00000000
_cell_angle_beta   90.00000000
_cell_angle_gamma   119.99999797
_symmetry_Int_Tables_number   1
_chemical_formula_structural   Tl(WO3)6
_chemical_formula_sum   'Tl1 W6 O18'
_cell_volume   378.54210271
_cell_formula_units_Z   1
loop_
 _symmetry_equiv_pos_site_id
 _symmetry_equiv_pos_as_xyz
  1  'x, y, z'
loop_
 _atom_site_type_symbol
 _atom_site_label
 _atom_site_symmetry_multiplicity
 _atom_site_fract_x
 _atom_site_fract_y
 _atom_site_fract_z
 _atom_site_occupancy
  Tl  Tl0  1  0.000000  0.000000  0.499798  1
  W  W1  1  1.000000  0.505203  0.750193  1
  W  W2  1  0.494797  0.494797  0.750193  1
  W  W3  1  0.504732  0.504732  0.249286  1
  W  W4  1  0.495268  0.000000  0.249286  1
  W  W5  1  0.505203  0.000000  0.750193  1
  W  W6  1  0.000000  0.495268  0.249286  1
  O  O7  1  0.210883  0.787143  0.251203  1
  O  O8  1  0.213011  0.789334  0.747552  1
  O  O9  1  0.210666  0.423677  0.747552  1
  O  O10  1  0.212857  0.423740  0.251203  1
  O  O11  1  0.576260  0.789117  0.251203  1
  O  O12  1  0.576323  0.786989  0.747552  1
  O  O13  1  0.500536  0.500536  0.499542  1
  O  O14  1  0.499063  0.499063  0.999535  1
  O  O15  1  0.423740  0.212857  0.251203  1
  O  O16  1  0.423677  0.210666  0.747552  1
  O  O17  1  0.500937  0.000000  0.999535  1
  O  O18  1  0.786989  0.576323  0.747552  1
  O  O19  1  0.789117  0.576260  0.251203  1
  O  O20  1  0.499464  0.000000  0.499542  1
  O  O21  1  0.787143  0.210883  0.251203  1
  O  O22  1  0.789334  0.213011  0.747552  1
  O  O23  1  1.000000  0.499464  0.499542  1
  O  O24  1  0.000000  0.500937  0.999535  1
