# generated using pymatgen
data_Sm5CuSe8
_symmetry_space_group_name_H-M   'P 1'
_cell_length_a   7.63009410
_cell_length_b   7.63009372
_cell_length_c   7.63009307
_cell_angle_alpha   110.26834211
_cell_angle_beta   110.26834765
_cell_angle_gamma   107.88847242
_symmetry_Int_Tables_number   1
_chemical_formula_structural   Sm5CuSe8
_chemical_formula_sum   'Sm5 Cu1 Se8'
_cell_volume   341.75897097
_cell_formula_units_Z   1
loop_
 _symmetry_equiv_pos_site_id
 _symmetry_equiv_pos_as_xyz
  1  'x, y, z'
loop_
 _atom_site_type_symbol
 _atom_site_label
 _atom_site_symmetry_multiplicity
 _atom_site_fract_x
 _atom_site_fract_y
 _atom_site_fract_z
 _atom_site_occupancy
  Cu  Cu0  1  0.875000  0.125000  0.750000  1
  Se  Se1  1  0.523302  0.013527  0.378833  1
  Se  Se2  1  0.134694  0.144469  0.121167  1
  Se  Se3  1  0.374465  0.517470  0.008569  1
  Se  Se4  1  0.634104  0.625535  0.643004  1
  Se  Se5  1  0.482530  0.991100  0.856996  1
  Se  Se6  1  0.986473  0.865306  0.509775  1
  Se  Se7  1  0.855531  0.476698  0.990225  1
  Se  Se8  1  0.008900  0.365896  0.491431  1
  Sm  Sm9  1  0.113972  0.746448  0.872232  1
  Sm  Sm10  1  0.253552  0.625784  0.367524  1
  Sm  Sm11  1  0.374216  0.241740  0.627768  1
  Sm  Sm12  1  0.625000  0.375000  0.250000  1
  Sm  Sm13  1  0.758260  0.886028  0.132476  1
