# generated using pymatgen
data_Be4N6O19
_symmetry_space_group_name_H-M   'P 1'
_cell_length_a   13.99016592
_cell_length_b   13.99016592
_cell_length_c   6.73346065
_cell_angle_alpha   90.00000000
_cell_angle_beta   90.00000000
_cell_angle_gamma   120.00000001
_symmetry_Int_Tables_number   1
_chemical_formula_structural   Be4N6O19
_chemical_formula_sum   'Be12 N18 O57'
_cell_volume   1141.33908131
_cell_formula_units_Z   3
loop_
 _symmetry_equiv_pos_site_id
 _symmetry_equiv_pos_as_xyz
  1  'x, y, z'
loop_
 _atom_site_type_symbol
 _atom_site_label
 _atom_site_symmetry_multiplicity
 _atom_site_fract_x
 _atom_site_fract_y
 _atom_site_fract_z
 _atom_site_occupancy
  Be  Be0  1  0.666667  0.333333  0.010753  1
  Be  Be1  1  0.762175  0.307732  0.329876  1
  Be  Be2  1  0.692268  0.454443  0.329876  1
  Be  Be3  1  0.545557  0.237825  0.329876  1
  Be  Be4  1  0.333333  0.666667  0.184528  1
  Be  Be5  1  0.380509  0.587587  0.504193  1
  Be  Be6  1  0.412413  0.792922  0.504193  1
  Be  Be7  1  0.207078  0.619491  0.504193  1
  Be  Be8  1  0.000000  0.000000  0.847161  1
  Be  Be9  1  0.121029  0.096570  0.528029  1
  Be  Be10  1  0.903430  0.024459  0.528029  1
  Be  Be11  1  0.975541  0.878971  0.528029  1
  N  N12  1  0.696934  0.529929  0.976677  1
  N  N13  1  0.470071  0.167005  0.976677  1
  N  N14  1  0.832995  0.303066  0.976677  1
  N  N15  1  0.623403  0.129415  0.519802  1
  N  N16  1  0.870585  0.493988  0.519802  1
  N  N17  1  0.506012  0.376597  0.519802  1
  N  N18  1  0.423009  0.545682  0.151740  1
  N  N19  1  0.454318  0.877327  0.151740  1
  N  N20  1  0.122673  0.576991  0.151740  1
  N  N21  1  0.547393  0.747143  0.686875  1
  N  N22  1  0.252857  0.800250  0.686875  1
  N  N23  1  0.199750  0.452607  0.686875  1
  N  N24  1  0.194268  0.170101  0.881316  1
  N  N25  1  0.829899  0.024167  0.881316  1
  N  N26  1  0.975833  0.805732  0.881316  1
  N  N27  1  0.040925  0.206335  0.345592  1
  N  N28  1  0.793665  0.834590  0.345592  1
  N  N29  1  0.165410  0.959075  0.345592  1
  O  O30  1  0.666667  0.333333  0.252906  1
  O  O31  1  0.333333  0.666667  0.426172  1
  O  O32  1  0.000000  0.000000  0.603924  1
  O  O33  1  0.643906  0.427711  0.914042  1
  O  O34  1  0.572289  0.216195  0.914042  1
  O  O35  1  0.783805  0.356094  0.914042  1
  O  O36  1  0.740134  0.548393  0.153319  1
  O  O37  1  0.451607  0.191741  0.153319  1
  O  O38  1  0.808259  0.259866  0.153319  1
  O  O39  1  0.705479  0.604137  0.873052  1
  O  O40  1  0.395863  0.101342  0.873052  1
  O  O41  1  0.898658  0.294521  0.873052  1
  O  O42  1  0.544249  0.127223  0.414914  1
  O  O43  1  0.872777  0.417026  0.414914  1
  O  O44  1  0.582974  0.455751  0.414914  1
  O  O45  1  0.721245  0.216576  0.508952  1
  O  O46  1  0.783424  0.504669  0.508952  1
  O  O47  1  0.495331  0.278755  0.508952  1
  O  O48  1  0.606909  0.052742  0.624979  1
  O  O49  1  0.947258  0.554168  0.624979  1
  O  O50  1  0.445832  0.393091  0.624979  1
  O  O51  1  0.419981  0.632454  0.088209  1
  O  O52  1  0.367546  0.787527  0.088209  1
  O  O53  1  0.212473  0.580019  0.088209  1
  O  O54  1  0.493055  0.874436  0.325737  1
  O  O55  1  0.125564  0.618619  0.325737  1
  O  O56  1  0.381381  0.506945  0.325737  1
  O  O57  1  0.462610  0.502933  0.050921  1
  O  O58  1  0.497067  0.959676  0.050921  1
  O  O59  1  0.040324  0.537390  0.050921  1
  O  O60  1  0.508654  0.657308  0.582529  1
  O  O61  1  0.342692  0.851345  0.582529  1
  O  O62  1  0.148655  0.491346  0.582529  1
  O  O63  1  0.493934  0.801172  0.686140  1
  O  O64  1  0.198828  0.692762  0.686140  1
  O  O65  1  0.307238  0.506066  0.686140  1
  O  O66  1  0.631073  0.779892  0.783073  1
  O  O67  1  0.220108  0.851181  0.783073  1
  O  O68  1  0.148819  0.368927  0.783073  1
  O  O69  1  0.091776  0.118599  0.943385  1
  O  O70  1  0.881401  0.973177  0.943385  1
  O  O71  1  0.026823  0.908224  0.943385  1
  O  O72  1  0.214129  0.144995  0.706171  1
  O  O73  1  0.855005  0.069134  0.706171  1
  O  O74  1  0.930866  0.785871  0.706171  1
  O  O75  1  0.267158  0.237796  0.984501  1
  O  O76  1  0.762204  0.029363  0.984501  1
  O  O77  1  0.970637  0.732842  0.984501  1
  O  O78  1  0.121518  0.206806  0.442734  1
  O  O79  1  0.793194  0.914713  0.442734  1
  O  O80  1  0.085287  0.878482  0.442734  1
  O  O81  1  0.944063  0.117877  0.351729  1
  O  O82  1  0.882123  0.826187  0.351729  1
  O  O83  1  0.173813  0.055937  0.351729  1
  O  O84  1  0.056017  0.286342  0.251531  1
  O  O85  1  0.713658  0.769675  0.251531  1
  O  O86  1  0.230325  0.943983  0.251531  1
