# generated using pymatgen
data_CeSbTe
_symmetry_space_group_name_H-M   'P 1'
_cell_length_a   4.38105274
_cell_length_b   4.38258329
_cell_length_c   18.57467804
_cell_angle_alpha   90.00000000
_cell_angle_beta   90.00000000
_cell_angle_gamma   90.00000000
_symmetry_Int_Tables_number   1
_chemical_formula_structural   CeSbTe
_chemical_formula_sum   'Ce4 Sb4 Te4'
_cell_volume   356.63992072
_cell_formula_units_Z   4
loop_
 _symmetry_equiv_pos_site_id
 _symmetry_equiv_pos_as_xyz
  1  'x, y, z'
loop_
 _atom_site_type_symbol
 _atom_site_label
 _atom_site_symmetry_multiplicity
 _atom_site_fract_x
 _atom_site_fract_y
 _atom_site_fract_z
 _atom_site_occupancy
  Sb  Sb0  1  0.750000  0.250217  -0.000029  1
  Sb  Sb1  1  0.250000  0.749783  1.000029  1
  Sb  Sb2  1  0.250000  0.750217  0.500029  1
  Sb  Sb3  1  0.750000  0.249783  0.499971  1
  Te  Te4  1  0.250000  0.253645  0.184161  1
  Te  Te5  1  0.750000  0.746355  0.815839  1
  Te  Te6  1  0.750000  0.753645  0.315839  1
  Te  Te7  1  0.250000  0.246355  0.684161  1
  Ce  Ce8  1  0.250000  0.247106  0.863329  1
  Ce  Ce9  1  0.750000  0.752894  0.136671  1
  Ce  Ce10  1  0.750000  0.747106  0.636671  1
  Ce  Ce11  1  0.250000  0.252894  0.363329  1
