# generated using pymatgen
data_EuTl2Pd
_symmetry_space_group_name_H-M   'P 1'
_cell_length_a   4.35165780
_cell_length_b   5.96874411
_cell_length_c   8.56056180
_cell_angle_alpha   90.00000000
_cell_angle_beta   90.00000000
_cell_angle_gamma   111.37910023
_symmetry_Int_Tables_number   1
_chemical_formula_structural   EuTl2Pd
_chemical_formula_sum   'Eu2 Tl4 Pd2'
_cell_volume   207.05118986
_cell_formula_units_Z   2
loop_
 _symmetry_equiv_pos_site_id
 _symmetry_equiv_pos_as_xyz
  1  'x, y, z'
loop_
 _atom_site_type_symbol
 _atom_site_label
 _atom_site_symmetry_multiplicity
 _atom_site_fract_x
 _atom_site_fract_y
 _atom_site_fract_z
 _atom_site_occupancy
  Pd  Pd0  1  0.722166  0.444332  0.250000  1
  Pd  Pd1  1  0.277834  0.555668  0.750000  1
  Eu  Eu2  1  0.434307  0.868614  0.250000  1
  Eu  Eu3  1  0.565693  0.131386  0.750000  1
  Tl  Tl4  1  0.856785  0.713571  0.548920  1
  Tl  Tl5  1  0.143215  0.286429  0.048920  1
  Tl  Tl6  1  0.143215  0.286429  0.451080  1
  Tl  Tl7  1  0.856785  0.713571  0.951080  1
