# generated using pymatgen
data_Er5BiPt2
_symmetry_space_group_name_H-M   'P 1'
_cell_length_a   7.78365359
_cell_length_b   7.78365359
_cell_length_c   8.74986749
_cell_angle_alpha   116.40970815
_cell_angle_beta   116.40970816
_cell_angle_gamma   89.99999998
_symmetry_Int_Tables_number   1
_chemical_formula_structural   Er5BiPt2
_chemical_formula_sum   'Er10 Bi2 Pt4'
_cell_volume   412.10249882
_cell_formula_units_Z   2
loop_
 _symmetry_equiv_pos_site_id
 _symmetry_equiv_pos_as_xyz
  1  'x, y, z'
loop_
 _atom_site_type_symbol
 _atom_site_label
 _atom_site_symmetry_multiplicity
 _atom_site_fract_x
 _atom_site_fract_y
 _atom_site_fract_z
 _atom_site_occupancy
  Er  Er0  1  0.000000  0.000000  0.000000  1
  Er  Er1  1  0.500000  0.500000  0.000000  1
  Er  Er2  1  0.291453  0.791453  0.271583  1
  Er  Er3  1  0.480130  0.291453  0.271583  1
  Er  Er4  1  0.791453  0.980130  0.271583  1
  Er  Er5  1  0.519870  0.708547  0.728417  1
  Er  Er6  1  0.208547  0.019870  0.728417  1
  Er  Er7  1  0.019870  0.519870  0.728417  1
  Er  Er8  1  0.708547  0.208547  0.728417  1
  Er  Er9  1  0.980130  0.480130  0.271583  1
  Pt  Pt10  1  0.360803  0.860803  0.000000  1
  Pt  Pt11  1  0.139197  0.360803  0.000000  1
  Pt  Pt12  1  0.860803  0.639197  0.000000  1
  Pt  Pt13  1  0.639197  0.139197  0.000000  1
  Bi  Bi14  1  0.250000  0.250000  0.500000  1
  Bi  Bi15  1  0.750000  0.750000  0.500000  1
