# generated using pymatgen
data_Ta4MnS8
_symmetry_space_group_name_H-M   'P 1'
_cell_length_a   6.68725256
_cell_length_b   6.68725255
_cell_length_c   12.49730106
_cell_angle_alpha   90.00000000
_cell_angle_beta   90.00000000
_cell_angle_gamma   120.00000004
_symmetry_Int_Tables_number   1
_chemical_formula_structural   Ta4MnS8
_chemical_formula_sum   'Ta8 Mn2 S16'
_cell_volume   483.99660413
_cell_formula_units_Z   2
loop_
 _symmetry_equiv_pos_site_id
 _symmetry_equiv_pos_as_xyz
  1  'x, y, z'
loop_
 _atom_site_type_symbol
 _atom_site_label
 _atom_site_symmetry_multiplicity
 _atom_site_fract_x
 _atom_site_fract_y
 _atom_site_fract_z
 _atom_site_occupancy
  S  S0  1  0.831599  0.168401  0.374544  1
  S  S1  1  0.831599  0.663198  0.374544  1
  S  S2  1  0.336802  0.168401  0.374544  1
  S  S3  1  0.663198  0.831599  0.874544  1
  S  S4  1  0.168401  0.336802  0.625456  1
  S  S5  1  0.168401  0.831599  0.874544  1
  S  S6  1  0.168401  0.336802  0.874544  1
  S  S7  1  0.831599  0.168401  0.125456  1
  S  S8  1  0.336802  0.168401  0.125456  1
  S  S9  1  0.663198  0.831599  0.625456  1
  S  S10  1  0.333333  0.666667  0.121535  1
  S  S11  1  0.666667  0.333333  0.621535  1
  S  S12  1  0.666667  0.333333  0.878465  1
  S  S13  1  0.333333  0.666667  0.378465  1
  S  S14  1  0.831599  0.663198  0.125456  1
  S  S15  1  0.168401  0.831599  0.625456  1
  Mn  Mn16  1  0.000000  0.000000  0.500000  1
  Mn  Mn17  1  0.000000  0.000000  0.000000  1
  Ta  Ta18  1  0.505900  0.494100  0.750000  1
  Ta  Ta19  1  0.011799  0.505900  0.250000  1
  Ta  Ta20  1  0.494100  0.988201  0.250000  1
  Ta  Ta21  1  0.505900  0.011799  0.750000  1
  Ta  Ta22  1  0.988201  0.494100  0.750000  1
  Ta  Ta23  1  0.494100  0.505900  0.250000  1
  Ta  Ta24  1  0.000000  0.000000  0.750000  1
  Ta  Ta25  1  0.000000  0.000000  0.250000  1
