# generated using pymatgen
data_Al2O3
_symmetry_space_group_name_H-M   'P 1'
_cell_length_a   5.63864587
_cell_length_b   5.67673251
_cell_length_c   33.90357791
_cell_angle_alpha   59.84687572
_cell_angle_beta   59.40219103
_cell_angle_gamma   59.77630666
_symmetry_Int_Tables_number   1
_chemical_formula_structural   Al2O3
_chemical_formula_sum   'Al32 O48'
_cell_volume   761.67780746
_cell_formula_units_Z   16
loop_
 _symmetry_equiv_pos_site_id
 _symmetry_equiv_pos_as_xyz
  1  'x, y, z'
loop_
 _atom_site_type_symbol
 _atom_site_label
 _atom_site_symmetry_multiplicity
 _atom_site_fract_x
 _atom_site_fract_y
 _atom_site_fract_z
 _atom_site_occupancy
  Al  Al0  1  0.004233  0.497987  0.083299  1
  Al  Al1  1  0.486768  0.486862  0.006585  1
  Al  Al2  1  0.128006  0.113921  0.190692  1
  Al  Al3  1  0.494911  0.498259  0.082770  1
  Al  Al4  1  0.463184  0.505496  0.170971  1
  Al  Al5  1  0.142356  0.118197  0.353542  1
  Al  Al6  1  0.494911  0.010210  0.082770  1
  Al  Al7  1  0.500419  0.498342  0.250397  1
  Al  Al8  1  0.990597  0.496047  0.419552  1
  Al  Al9  1  0.533204  0.492239  0.330386  1
  Al  Al10  1  0.500419  -0.001143  0.250397  1
  Al  Al11  1  0.858881  0.881929  0.146210  1
  Al  Al12  1  0.122435  0.119282  0.523167  1
  Al  Al13  1  0.499516  0.496551  0.419720  1
  Al  Al14  1  0.010733  0.505560  0.579691  1
  Al  Al15  1  0.499516  0.985615  0.419720  1
  Al  Al16  1  0.870036  0.880363  0.311540  1
  Al  Al17  1  0.135423  0.120380  0.687303  1
  Al  Al18  1  0.502495  0.505283  0.579392  1
  Al  Al19  1  0.469417  0.509524  0.668589  1
  Al  Al20  1  0.505297  0.003102  0.748129  1
  Al  Al21  1  0.502495  0.015867  0.579392  1
  Al  Al22  1  0.148283  0.127531  0.849443  1
  Al  Al23  1  0.880230  0.883031  0.475618  1
  Al  Al24  1  0.505297  0.502825  0.748129  1
  Al  Al25  1  0.536287  0.496574  0.828427  1
  Al  Al26  1  0.859952  0.883350  0.645558  1
  Al  Al27  1  0.495511  0.494910  0.917978  1
  Al  Al28  1  0.495511  0.001714  0.917978  1
  Al  Al29  1  0.871892  0.881975  0.810693  1
  Al  Al30  1  0.006677  0.494527  0.917378  1
  Al  Al31  1  0.865668  0.871479  0.981896  1
  O  O32  1  0.256701  0.259439  0.045971  1
  O  O33  1  0.244755  0.252041  0.125194  1
  O  O34  1  0.256701  0.708031  0.045971  1
  O  O35  1  0.708721  0.258424  0.045738  1
  O  O36  1  0.276077  0.239142  0.208428  1
  O  O37  1  0.263242  0.744056  0.124774  1
  O  O38  1  0.734273  0.281639  0.123843  1
  O  O39  1  0.276077  0.734214  0.208428  1
  O  O40  1  0.277383  0.240407  0.290301  1
  O  O41  1  0.737101  0.742696  0.046251  1
  O  O42  1  0.728596  0.256007  0.209898  1
  O  O43  1  0.734273  0.741030  0.123843  1
  O  O44  1  0.262612  0.256604  0.377768  1
  O  O45  1  0.268807  0.738637  0.292320  1
  O  O46  1  0.720817  0.259017  0.293978  1
  O  O47  1  0.721378  0.757504  0.210602  1
  O  O48  1  0.262612  0.714180  0.377768  1
  O  O49  1  0.256593  0.252018  0.456561  1
  O  O50  1  0.733350  0.253324  0.376668  1
  O  O51  1  0.720817  0.756300  0.293978  1
  O  O52  1  0.239528  0.240606  0.547007  1
  O  O53  1  0.264234  0.758386  0.453166  1
  O  O54  1  0.746124  0.738708  0.379410  1
  O  O55  1  0.758783  0.263539  0.453264  1
  O  O56  1  0.239528  0.737819  0.547007  1
  O  O57  1  0.255166  0.261645  0.620257  1
  O  O58  1  0.737401  0.240082  0.547072  1
  O  O59  1  0.758783  0.758098  0.453264  1
  O  O60  1  0.282034  0.242447  0.705784  1
  O  O61  1  0.266241  0.746390  0.623496  1
  O  O62  1  0.743638  0.748249  0.543311  1
  O  O63  1  0.282034  0.740813  0.705784  1
  O  O64  1  0.736732  0.286055  0.622447  1
  O  O65  1  0.283814  0.248880  0.786405  1
  O  O66  1  0.736517  0.259610  0.707377  1
  O  O67  1  0.736732  0.742531  0.622447  1
  O  O68  1  0.260066  0.257683  0.875120  1
  O  O69  1  0.271258  0.741955  0.790805  1
  O  O70  1  0.725886  0.758217  0.709613  1
  O  O71  1  0.273854  0.270363  0.947570  1
  O  O72  1  0.723042  0.260908  0.792603  1
  O  O73  1  0.260066  0.731532  0.875120  1
  O  O74  1  0.745746  0.255635  0.873831  1
  O  O75  1  0.723042  0.760430  0.792603  1
  O  O76  1  0.270105  0.745434  0.956505  1
  O  O77  1  0.744596  0.272227  0.956389  1
  O  O78  1  0.744007  0.739412  0.879528  1
  O  O79  1  0.744596  0.744845  0.956389  1
