# generated using pymatgen
data_Pu2Se3
_symmetry_space_group_name_H-M   'P 1'
_cell_length_a   22.67339469
_cell_length_b   8.70331830
_cell_length_c   8.70331849
_cell_angle_alpha   90.00000173
_cell_angle_beta   54.84544737
_cell_angle_gamma   54.84544646
_symmetry_Int_Tables_number   1
_chemical_formula_structural   Pu2Se3
_chemical_formula_sum   'Pu16 Se24'
_cell_volume   996.93349668
_cell_formula_units_Z   8
loop_
 _symmetry_equiv_pos_site_id
 _symmetry_equiv_pos_as_xyz
  1  'x, y, z'
loop_
 _atom_site_type_symbol
 _atom_site_label
 _atom_site_symmetry_multiplicity
 _atom_site_fract_x
 _atom_site_fract_y
 _atom_site_fract_z
 _atom_site_occupancy
  Pu  Pu0  1  0.995968  0.387932  0.251546  1
  Pu  Pu1  1  0.995968  0.124163  0.760548  1
  Pu  Pu2  1  0.084529  0.623206  0.373206  1
  Pu  Pu3  1  0.166667  0.250000  0.629149  1
  Pu  Pu4  1  0.337365  0.375837  0.248454  1
  Pu  Pu5  1  0.248804  0.876794  0.126794  1
  Pu  Pu6  1  0.166667  0.750000  0.870851  1
  Pu  Pu7  1  0.337365  0.112068  0.739452  1
  Pu  Pu8  1  0.495968  0.260548  0.624163  1
  Pu  Pu9  1  0.666667  0.370851  0.250000  1
  Pu  Pu10  1  0.584529  0.873206  0.123206  1
  Pu  Pu11  1  0.495968  0.751546  0.887932  1
  Pu  Pu12  1  0.666667  0.129149  0.750000  1
  Pu  Pu13  1  0.748804  0.626794  0.376794  1
  Pu  Pu14  1  0.837365  0.239452  0.612068  1
  Pu  Pu15  1  0.837365  0.748454  0.875837  1
  Se  Se16  1  0.122119  0.491243  0.995186  1
  Se  Se17  1  0.050701  0.347141  0.499744  1
  Se  Se18  1  0.282632  0.152859  0.151849  1
  Se  Se19  1  0.050701  0.000753  0.348151  1
  Se  Se20  1  0.282632  0.499247  1.000256  1
  Se  Se21  1  0.122119  0.642401  0.638457  1
  Se  Se22  1  0.211214  0.857599  0.504814  1
  Se  Se23  1  0.448638  0.499061  0.999129  1
  Se  Se24  1  0.384696  0.345041  0.500939  1
  Se  Se25  1  0.211214  0.008757  0.861543  1
  Se  Se26  1  0.622119  0.138457  0.142401  1
  Se  Se27  1  0.384696  0.000871  0.344972  1
  Se  Se28  1  0.622119  0.495186  0.991243  1
  Se  Se29  1  0.448638  0.655028  0.654959  1
  Se  Se30  1  0.550701  0.848151  0.500753  1
  Se  Se31  1  0.782632  0.500256  0.999247  1
  Se  Se32  1  0.711214  0.361543  0.508757  1
  Se  Se33  1  0.550701  -0.000256  0.847141  1
  Se  Se34  1  0.711214  0.004814  0.357599  1
  Se  Se35  1  0.948638  0.154959  0.155028  1
  Se  Se36  1  0.948638  0.499129  0.999061  1
  Se  Se37  1  0.782632  0.651849  0.652859  1
  Se  Se38  1  0.884696  0.844972  0.500871  1
  Se  Se39  1  0.884696  0.000939  0.845041  1
