# generated using pymatgen
data_Pr5AgS8
_symmetry_space_group_name_H-M   'P 1'
_cell_length_a   7.48605163
_cell_length_b   7.48605108
_cell_length_c   7.48605141
_cell_angle_alpha   109.75367502
_cell_angle_beta   109.75367800
_cell_angle_gamma   108.90777357
_symmetry_Int_Tables_number   1
_chemical_formula_structural   Pr5AgS8
_chemical_formula_sum   'Pr5 Ag1 S8'
_cell_volume   322.92751925
_cell_formula_units_Z   1
loop_
 _symmetry_equiv_pos_site_id
 _symmetry_equiv_pos_as_xyz
  1  'x, y, z'
loop_
 _atom_site_type_symbol
 _atom_site_label
 _atom_site_symmetry_multiplicity
 _atom_site_fract_x
 _atom_site_fract_y
 _atom_site_fract_z
 _atom_site_occupancy
  Ag  Ag0  1  0.875000  0.125000  0.750000  1
  Pr  Pr1  1  0.110877  0.744735  0.868660  1
  Pr  Pr2  1  0.255265  0.623926  0.366143  1
  Pr  Pr3  1  0.376074  0.242217  0.631340  1
  Pr  Pr4  1  0.757783  0.889123  0.133857  1
  Pr  Pr5  1  0.625000  0.375000  0.250000  1
  S  S6  1  0.149957  0.148563  0.140624  1
  S  S7  1  0.507939  0.009333  0.359376  1
  S  S8  1  0.372582  0.517868  0.009841  1
  S  S9  1  0.637259  0.627418  0.645286  1
  S  S10  1  0.482132  0.991973  0.854714  1
  S  S11  1  0.990667  0.850043  0.498606  1
  S  S12  1  0.851437  0.492061  1.001394  1
  S  S13  1  0.008027  0.362741  0.490159  1
