# generated using pymatgen
data_Th6Mn23
_symmetry_space_group_name_H-M   'P 1'
_cell_length_a   8.59581188
_cell_length_b   8.59581188
_cell_length_c   8.59581188
_cell_angle_alpha   60.00000000
_cell_angle_beta   59.99999999
_cell_angle_gamma   60.00000000
_symmetry_Int_Tables_number   1
_chemical_formula_structural   Th6Mn23
_chemical_formula_sum   'Th6 Mn23'
_cell_volume   449.10274439
_cell_formula_units_Z   1
loop_
 _symmetry_equiv_pos_site_id
 _symmetry_equiv_pos_as_xyz
  1  'x, y, z'
loop_
 _atom_site_type_symbol
 _atom_site_label
 _atom_site_symmetry_multiplicity
 _atom_site_fract_x
 _atom_site_fract_y
 _atom_site_fract_z
 _atom_site_occupancy
  Mn  Mn0  1  0.000000  0.000000  0.000000  1
  Mn  Mn1  1  0.500000  0.000000  0.000000  1
  Mn  Mn2  1  0.000000  0.000000  0.500000  1
  Mn  Mn3  1  0.500000  0.500000  0.000000  1
  Mn  Mn4  1  0.000000  0.500000  0.500000  1
  Mn  Mn5  1  0.000000  0.500000  0.000000  1
  Mn  Mn6  1  0.500000  0.000000  0.500000  1
  Mn  Mn7  1  0.117619  0.117619  0.117619  1
  Mn  Mn8  1  0.882381  0.882381  0.352856  1
  Mn  Mn9  1  0.352856  0.882381  0.882381  1
  Mn  Mn10  1  0.882381  0.352856  0.882381  1
  Mn  Mn11  1  0.647144  0.117619  0.117619  1
  Mn  Mn12  1  0.117619  0.647144  0.117619  1
  Mn  Mn13  1  0.117619  0.117619  0.647144  1
  Mn  Mn14  1  0.882381  0.882381  0.882381  1
  Mn  Mn15  1  0.319420  0.319420  0.319420  1
  Mn  Mn16  1  0.680580  0.680580  0.958260  1
  Mn  Mn17  1  0.958260  0.680580  0.680580  1
  Mn  Mn18  1  0.680580  0.958260  0.680580  1
  Mn  Mn19  1  0.041740  0.319420  0.319420  1
  Mn  Mn20  1  0.319420  0.041740  0.319420  1
  Mn  Mn21  1  0.319420  0.319420  0.041740  1
  Mn  Mn22  1  0.680580  0.680580  0.680580  1
  Th  Th23  1  0.708476  0.291524  0.291524  1
  Th  Th24  1  0.708476  0.708476  0.291524  1
  Th  Th25  1  0.291524  0.291524  0.708476  1
  Th  Th26  1  0.708476  0.291524  0.708476  1
  Th  Th27  1  0.291524  0.708476  0.291524  1
  Th  Th28  1  0.291524  0.708476  0.708476  1
