# generated using pymatgen
data_CuI
_symmetry_space_group_name_H-M   'P 1'
_cell_length_a   14.26864795
_cell_length_b   14.26864808
_cell_length_c   14.26864819
_cell_angle_alpha   17.24992009
_cell_angle_beta   17.24992160
_cell_angle_gamma   17.24992019
_symmetry_Int_Tables_number   1
_chemical_formula_structural   CuI
_chemical_formula_sum   'Cu4 I4'
_cell_volume   222.90203460
_cell_formula_units_Z   4
loop_
 _symmetry_equiv_pos_site_id
 _symmetry_equiv_pos_as_xyz
  1  'x, y, z'
loop_
 _atom_site_type_symbol
 _atom_site_label
 _atom_site_symmetry_multiplicity
 _atom_site_fract_x
 _atom_site_fract_y
 _atom_site_fract_z
 _atom_site_occupancy
  Cu  Cu0  1  0.270332  0.270332  0.270332  1
  Cu  Cu1  1  0.437483  0.437483  0.437483  1
  Cu  Cu2  1  0.687131  0.687131  0.687131  1
  Cu  Cu3  1  0.853924  0.853924  0.853924  1
  I  I4  1  0.208227  0.208227  0.208227  1
  I  I5  1  0.375076  0.375076  0.375076  1
  I  I6  1  0.624879  0.624879  0.624879  1
  I  I7  1  0.791749  0.791749  0.791749  1
