# generated using pymatgen
data_Cs2PdCl4
_symmetry_space_group_name_H-M   'P 1'
_cell_length_a   7.60894273
_cell_length_b   7.60894273
_cell_length_c   9.49696500
_cell_angle_alpha   90.00000000
_cell_angle_beta   90.00000000
_cell_angle_gamma   90.03809433
_symmetry_Int_Tables_number   1
_chemical_formula_structural   Cs2PdCl4
_chemical_formula_sum   'Cs4 Pd2 Cl8'
_cell_volume   549.83625392
_cell_formula_units_Z   2
loop_
 _symmetry_equiv_pos_site_id
 _symmetry_equiv_pos_as_xyz
  1  'x, y, z'
loop_
 _atom_site_type_symbol
 _atom_site_label
 _atom_site_symmetry_multiplicity
 _atom_site_fract_x
 _atom_site_fract_y
 _atom_site_fract_z
 _atom_site_occupancy
  Cl  Cl0  1  0.782615  0.782615  0.993040  1
  Cl  Cl1  1  0.217385  0.217385  0.493040  1
  Cl  Cl2  1  0.782615  0.782615  0.506960  1
  Cl  Cl3  1  0.217385  0.217385  0.006960  1
  Cl  Cl4  1  0.217327  0.782673  0.500000  1
  Cl  Cl5  1  0.782673  0.217327  0.000000  1
  Cl  Cl6  1  0.217327  0.782673  0.000000  1
  Cl  Cl7  1  0.782673  0.217327  0.500000  1
  Pd  Pd8  1  0.000000  0.000000  0.500000  1
  Pd  Pd9  1  0.000000  0.000000  0.000000  1
  Cs  Cs10  1  0.006579  0.496412  0.750000  1
  Cs  Cs11  1  0.993421  0.503588  0.250000  1
  Cs  Cs12  1  0.496412  0.006579  0.750000  1
  Cs  Cs13  1  0.503588  0.993421  0.250000  1
