# generated using pymatgen
data_Sr3Te4O11
_symmetry_space_group_name_H-M   'P 1'
_cell_length_a   7.68223082
_cell_length_b   9.39369233
_cell_length_c   9.75010143
_cell_angle_alpha   98.35069554
_cell_angle_beta   110.12203145
_cell_angle_gamma   101.44994278
_symmetry_Int_Tables_number   1
_chemical_formula_structural   Sr3Te4O11
_chemical_formula_sum   'Sr6 Te8 O22'
_cell_volume   629.84579369
_cell_formula_units_Z   2
loop_
 _symmetry_equiv_pos_site_id
 _symmetry_equiv_pos_as_xyz
  1  'x, y, z'
loop_
 _atom_site_type_symbol
 _atom_site_label
 _atom_site_symmetry_multiplicity
 _atom_site_fract_x
 _atom_site_fract_y
 _atom_site_fract_z
 _atom_site_occupancy
  Sr  Sr0  1  0.887559  0.253996  0.090000  1
  Sr  Sr1  1  0.042931  0.376867  0.530169  1
  Sr  Sr2  1  0.472917  0.333869  0.325806  1
  Sr  Sr3  1  0.317321  0.215076  0.885584  1
  Sr  Sr4  1  0.870549  0.763884  0.588422  1
  Sr  Sr5  1  0.488065  0.825714  0.827334  1
  Te  Te6  1  0.162596  0.043976  0.434329  1
  Te  Te7  1  0.199260  0.546642  0.982873  1
  Te  Te8  1  0.721535  0.596553  0.164984  1
  Te  Te9  1  0.683169  0.487754  0.749592  1
  Te  Te10  1  0.678382  0.102441  0.668357  1
  Te  Te11  1  0.259028  0.657315  0.411275  1
  Te  Te12  1  0.102142  0.933375  0.004186  1
  Te  Te13  1  0.640495  0.991665  0.252404  1
  O  O14  1  0.607304  0.892843  0.599779  1
  O  O15  1  0.887448  0.435678  0.899472  1
  O  O16  1  0.752840  0.697016  0.820109  1
  O  O17  1  0.015998  0.511360  0.302389  1
  O  O18  1  0.230303  0.395865  0.090558  1
  O  O19  1  0.188014  0.740643  0.565729  1
  O  O20  1  0.622451  0.389584  0.078440  1
  O  O21  1  0.739296  0.198855  0.338585  1
  O  O22  1  0.982914  0.068592  0.905991  1
  O  O23  1  0.474830  0.153824  0.517134  1
  O  O24  1  0.378443  0.523760  0.512283  1
  O  O25  1  0.131127  0.191967  0.323016  1
  O  O26  1  0.169693  0.851566  0.846962  1
  O  O27  1  0.700630  0.989858  0.082047  1
  O  O28  1  0.214164  0.447248  0.807398  1
  O  O29  1  0.870808  0.929994  0.371084  1
  O  O30  1  0.788231  0.481583  0.600688  1
  O  O31  1  0.573338  0.109949  0.817301  1
  O  O32  1  0.490999  0.660186  0.049901  1
  O  O33  1  0.150191  0.148314  0.608597  1
  O  O34  1  0.346857  0.077363  0.112224  1
  O  O35  1  0.663071  0.596522  0.335898  1
