# generated using pymatgen
data_LiFeP2O7
_symmetry_space_group_name_H-M   'P 1'
_cell_length_a   12.52516516
_cell_length_b   5.09324705
_cell_length_c   8.61275453
_cell_angle_alpha   90.00000000
_cell_angle_beta   102.01198650
_cell_angle_gamma   90.00000000
_symmetry_Int_Tables_number   1
_chemical_formula_structural   LiFeP2O7
_chemical_formula_sum   'Li4 Fe4 P8 O28'
_cell_volume   537.40950692
_cell_formula_units_Z   4
loop_
 _symmetry_equiv_pos_site_id
 _symmetry_equiv_pos_as_xyz
  1  'x, y, z'
loop_
 _atom_site_type_symbol
 _atom_site_label
 _atom_site_symmetry_multiplicity
 _atom_site_fract_x
 _atom_site_fract_y
 _atom_site_fract_z
 _atom_site_occupancy
  Li  Li0  1  0.305070  0.238855  0.370519  1
  Li  Li1  1  0.912559  0.728944  0.411122  1
  Li  Li2  1  0.805070  0.261144  0.870519  1
  Li  Li3  1  0.412559  0.771054  0.911123  1
  O  O4  1  0.257777  0.706871  0.594506  1
  O  O5  1  0.935202  0.330523  0.418889  1
  O  O6  1  0.907916  0.452594  0.086437  1
  O  O7  1  0.944626  0.899791  0.219392  1
  O  O8  1  0.056967  0.088350  0.795457  1
  O  O9  1  0.089267  0.552635  0.893550  1
  O  O10  1  0.055680  0.724813  0.564379  1
  O  O11  1  0.133442  0.544818  0.339509  1
  O  O12  1  0.153316  0.035022  0.405468  1
  O  O13  1  0.109011  0.179147  0.094208  1
  O  O14  1  0.243132  0.216087  0.917918  1
  O  O15  1  0.633442  0.955181  0.839509  1
  O  O16  1  0.435202  0.169479  0.918889  1
  O  O17  1  0.407916  0.047406  0.586437  1
  O  O18  1  0.387858  0.633478  0.412452  1
  O  O19  1  0.873420  0.425824  0.676930  1
  O  O20  1  0.373420  0.074175  0.176931  1
  O  O21  1  0.367530  0.548495  0.074289  1
  O  O22  1  0.867530  0.951505  0.574289  1
  O  O23  1  0.653316  0.464979  0.905467  1
  O  O24  1  0.556967  0.411651  0.295458  1
  O  O25  1  0.609012  0.320852  0.594207  1
  O  O26  1  0.589267  0.947363  0.393550  1
  O  O27  1  0.555680  0.775185  0.064379  1
  O  O28  1  0.743131  0.283913  0.417919  1
  O  O29  1  0.757777  0.793129  0.094507  1
  O  O30  1  0.887858  0.866523  0.912453  1
  O  O31  1  0.444626  0.600210  0.719391  1
  P  P32  1  0.361299  0.255867  0.031348  1
  P  P33  1  0.644162  0.744380  0.969126  1
  P  P34  1  0.617243  0.236871  0.427325  1
  P  P35  1  0.861299  0.244133  0.531348  1
  P  P36  1  0.117243  0.263129  0.927326  1
  P  P37  1  0.144162  0.755618  0.469125  1
  P  P38  1  0.382580  0.752407  0.574356  1
  P  P39  1  0.882579  0.747592  0.074355  1
  Fe  Fe40  1  0.979976  0.758475  0.749415  1
  Fe  Fe41  1  0.479976  0.741526  0.249416  1
  Fe  Fe42  1  0.531096  0.252994  0.761655  1
  Fe  Fe43  1  0.031096  0.247008  0.261655  1
