# generated using pymatgen
data_Ba(NdSe2)2
_symmetry_space_group_name_H-M   'P 1'
_cell_length_a   7.98922308
_cell_length_b   7.98922286
_cell_length_c   7.98922261
_cell_angle_alpha   109.40696815
_cell_angle_beta   109.40696769
_cell_angle_gamma   109.59979815
_symmetry_Int_Tables_number   1
_chemical_formula_structural   Ba(NdSe2)2
_chemical_formula_sum   'Ba2 Nd4 Se8'
_cell_volume   392.54558645
_cell_formula_units_Z   2
loop_
 _symmetry_equiv_pos_site_id
 _symmetry_equiv_pos_as_xyz
  1  'x, y, z'
loop_
 _atom_site_type_symbol
 _atom_site_label
 _atom_site_symmetry_multiplicity
 _atom_site_fract_x
 _atom_site_fract_y
 _atom_site_fract_z
 _atom_site_occupancy
  Ba  Ba0  1  0.625000  0.375000  0.250000  1
  Ba  Ba1  1  0.875000  0.125000  0.750000  1
  Nd  Nd2  1  0.126459  0.750000  0.876459  1
  Nd  Nd3  1  0.250000  0.626459  0.376459  1
  Nd  Nd4  1  0.373541  0.250000  0.623541  1
  Nd  Nd5  1  0.750000  0.873541  0.123541  1
  Se  Se6  1  0.016992  0.856458  0.495711  1
  Se  Se7  1  0.021282  0.360747  0.504289  1
  Se  Se8  1  0.478718  0.983008  0.339466  1
  Se  Se9  1  0.143542  0.139253  0.160534  1
  Se  Se10  1  0.356458  0.516992  0.995711  1
  Se  Se11  1  0.639253  0.643542  0.660534  1
  Se  Se12  1  0.483008  0.978718  0.839466  1
  Se  Se13  1  0.860747  0.521282  0.004289  1
