# generated using pymatgen
data_Rb(TeO3)2
_symmetry_space_group_name_H-M   'P 1'
_cell_length_a   7.43585248
_cell_length_b   7.43585297
_cell_length_c   7.43585251
_cell_angle_alpha   60.00000220
_cell_angle_beta   60.00000013
_cell_angle_gamma   60.00000217
_symmetry_Int_Tables_number   1
_chemical_formula_structural   Rb(TeO3)2
_chemical_formula_sum   'Rb2 Te4 O12'
_cell_volume   290.72162853
_cell_formula_units_Z   2
loop_
 _symmetry_equiv_pos_site_id
 _symmetry_equiv_pos_as_xyz
  1  'x, y, z'
loop_
 _atom_site_type_symbol
 _atom_site_label
 _atom_site_symmetry_multiplicity
 _atom_site_fract_x
 _atom_site_fract_y
 _atom_site_fract_z
 _atom_site_occupancy
  O  O0  1  0.930201  0.319799  0.930201  1
  O  O1  1  0.930201  0.930201  0.319799  1
  O  O2  1  0.680201  0.069799  0.680201  1
  O  O3  1  0.680201  0.680201  0.069799  1
  O  O4  1  0.319799  0.930201  0.930201  1
  O  O5  1  0.930201  0.319799  0.319799  1
  O  O6  1  0.680201  0.069799  0.069799  1
  O  O7  1  0.319799  0.319799  0.930201  1
  O  O8  1  0.319799  0.930201  0.319799  1
  O  O9  1  0.069799  0.680201  0.680201  1
  O  O10  1  0.069799  0.680201  0.069799  1
  O  O11  1  0.069799  0.069799  0.680201  1
  Rb  Rb12  1  0.625000  0.625000  0.625000  1
  Rb  Rb13  1  0.375000  0.375000  0.375000  1
  Te  Te14  1  0.000000  0.000000  0.000000  1
  Te  Te15  1  0.000000  0.500000  0.000000  1
  Te  Te16  1  0.000000  0.000000  0.500000  1
  Te  Te17  1  0.500000  0.000000  0.000000  1
