# generated using pymatgen
data_Sr(LaS2)2
_symmetry_space_group_name_H-M   'P 1'
_cell_length_a   7.63110046
_cell_length_b   7.63110066
_cell_length_c   7.63110071
_cell_angle_alpha   109.38452196
_cell_angle_beta   109.64475277
_cell_angle_gamma   109.38451944
_symmetry_Int_Tables_number   1
_chemical_formula_structural   Sr(LaS2)2
_chemical_formula_sum   'Sr2 La4 S8'
_cell_volume   342.08709990
_cell_formula_units_Z   2
loop_
 _symmetry_equiv_pos_site_id
 _symmetry_equiv_pos_as_xyz
  1  'x, y, z'
loop_
 _atom_site_type_symbol
 _atom_site_label
 _atom_site_symmetry_multiplicity
 _atom_site_fract_x
 _atom_site_fract_y
 _atom_site_fract_z
 _atom_site_occupancy
  La  La0  1  0.250000  0.628510  0.378510  1
  La  La1  1  0.621490  0.371490  0.250000  1
  La  La2  1  0.750000  0.871490  0.121490  1
  La  La3  1  0.878510  0.128510  0.750000  1
  S  S4  1  0.991779  0.848249  0.492755  1
  S  S5  1  0.143530  0.151751  0.144505  1
  S  S6  1  0.356470  0.500975  0.008221  1
  S  S7  1  0.508221  0.000975  0.856470  1
  S  S8  1  0.644505  0.651751  0.643530  1
  S  S9  1  0.507245  0.999025  0.355495  1
  S  S10  1  0.855495  0.499025  0.007245  1
  S  S11  1  0.992755  0.348249  0.491779  1
  Sr  Sr12  1  0.125000  0.750000  0.875000  1
  Sr  Sr13  1  0.375000  0.250000  0.625000  1
