# generated using pymatgen
data_H18SO12
_symmetry_space_group_name_H-M   'P 1'
_cell_length_a   7.43991880
_cell_length_b   7.43991880
_cell_length_c   11.99662540
_cell_angle_alpha   108.04041802
_cell_angle_beta   108.04041800
_cell_angle_gamma   89.99015742
_symmetry_Int_Tables_number   1
_chemical_formula_structural   H18SO12
_chemical_formula_sum   'H36 S2 O24'
_cell_volume   596.98063075
_cell_formula_units_Z   2
loop_
 _symmetry_equiv_pos_site_id
 _symmetry_equiv_pos_as_xyz
  1  'x, y, z'
loop_
 _atom_site_type_symbol
 _atom_site_label
 _atom_site_symmetry_multiplicity
 _atom_site_fract_x
 _atom_site_fract_y
 _atom_site_fract_z
 _atom_site_occupancy
  H  H0  1  0.843265  0.314894  0.387267  1
  H  H1  1  0.314894  0.843265  0.887267  1
  H  H2  1  0.946826  0.158335  0.446634  1
  H  H3  1  0.158335  0.946826  0.946634  1
  H  H4  1  0.156780  0.677544  0.112579  1
  H  H5  1  0.677544  0.156780  0.612579  1
  H  H6  1  0.053094  0.461846  0.053204  1
  H  H7  1  0.461846  0.053094  0.553204  1
  H  H8  1  0.103393  0.353806  0.458082  1
  H  H9  1  0.353806  0.103393  0.958082  1
  H  H10  1  0.250240  0.537579  0.446585  1
  H  H11  1  0.537579  0.250240  0.946585  1
  H  H12  1  0.293583  0.320971  0.387939  1
  H  H13  1  0.320971  0.293583  0.887939  1
  H  H14  1  0.706725  0.683283  0.112342  1
  H  H15  1  0.683283  0.706725  0.612342  1
  H  H16  1  0.749907  0.841440  0.053670  1
  H  H17  1  0.841440  0.749907  0.553670  1
  H  H18  1  0.896429  0.646235  0.041972  1
  H  H19  1  0.646235  0.896429  0.541972  1
  H  H20  1  0.551722  0.274965  0.262440  1
  H  H21  1  0.274965  0.551722  0.762440  1
  H  H22  1  0.708203  0.235450  0.193670  1
  H  H23  1  0.235450  0.708203  0.693670  1
  H  H24  1  0.291726  0.791638  0.306329  1
  H  H25  1  0.791638  0.291726  0.806329  1
  H  H26  1  0.547631  0.665262  0.745942  1
  H  H27  1  0.665262  0.547631  0.245942  1
  H  H28  1  0.761298  0.766754  0.806861  1
  H  H29  1  0.766754  0.761298  0.306861  1
  H  H30  1  0.204548  0.233320  0.693230  1
  H  H31  1  0.233320  0.204548  0.193230  1
  H  H32  1  0.051676  0.334812  0.754095  1
  H  H33  1  0.334812  0.051676  0.254095  1
  H  H34  1  0.762530  0.448284  0.737628  1
  H  H35  1  0.448284  0.762530  0.237628  1
  O  O36  1  0.950767  0.298679  0.459048  1
  O  O37  1  0.298679  0.950767  0.959048  1
  O  O38  1  0.049307  0.589766  0.040790  1
  O  O39  1  0.589766  0.049307  0.540790  1
  O  O40  1  0.258279  0.409906  0.459384  1
  O  O41  1  0.409906  0.258279  0.959384  1
  O  O42  1  0.742025  0.700974  0.040891  1
  O  O43  1  0.700974  0.742025  0.540891  1
  O  O44  1  0.678135  0.326146  0.264745  1
  O  O45  1  0.326146  0.678135  0.764745  1
  O  O46  1  0.321854  0.811398  0.235296  1
  O  O47  1  0.811398  0.321854  0.735296  1
  O  O48  1  0.338494  0.190832  0.264531  1
  O  O49  1  0.190832  0.338494  0.764531  1
  O  O50  1  0.661631  0.676354  0.235500  1
  O  O51  1  0.676354  0.661631  0.735500  1
  O  O52  1  0.948870  0.927315  0.420771  1
  O  O53  1  0.927315  0.948870  0.920771  1
  O  O54  1  0.256667  0.050889  0.579068  1
  O  O55  1  0.050889  0.256667  0.079068  1
  O  O56  1  0.222128  0.742757  0.420915  1
  O  O57  1  0.742757  0.222128  0.920915  1
  O  O58  1  0.072169  0.777783  0.579214  1
  O  O59  1  0.777783  0.072169  0.079214  1
  S  S60  1  0.124994  0.874666  0.499979  1
  S  S61  1  0.874666  0.124994  0.999979  1
