# generated using pymatgen
data_Zn(CN)2
_symmetry_space_group_name_H-M   'P 1'
_cell_length_a   5.95130556
_cell_length_b   5.95724354
_cell_length_c   5.95724354
_cell_angle_alpha   90.00000000
_cell_angle_beta   90.00000000
_cell_angle_gamma   90.00000000
_symmetry_Int_Tables_number   1
_chemical_formula_structural   Zn(CN)2
_chemical_formula_sum   'Zn2 C4 N4'
_cell_volume   211.20439873
_cell_formula_units_Z   2
loop_
 _symmetry_equiv_pos_site_id
 _symmetry_equiv_pos_as_xyz
  1  'x, y, z'
loop_
 _atom_site_type_symbol
 _atom_site_label
 _atom_site_symmetry_multiplicity
 _atom_site_fract_x
 _atom_site_fract_y
 _atom_site_fract_z
 _atom_site_occupancy
  C  C0  1  0.441496  0.051074  0.448926  1
  C  C1  1  0.441496  0.448926  0.051074  1
  C  C2  1  0.941496  0.948926  0.948926  1
  C  C3  1  0.941496  0.551074  0.551074  1
  N  N4  1  0.054434  0.061995  0.061995  1
  N  N5  1  0.054434  0.438005  0.438005  1
  N  N6  1  0.554434  0.561995  0.938005  1
  N  N7  1  0.554434  0.938005  0.561995  1
  Zn  Zn8  1  0.258142  0.250000  0.250000  1
  Zn  Zn9  1  0.758142  0.750000  0.750000  1
