# generated using pymatgen
data_U12Ir4Se31
_symmetry_space_group_name_H-M   'P 1'
_cell_length_a   11.86193858
_cell_length_b   11.86193763
_cell_length_c   11.86193778
_cell_angle_alpha   109.55181006
_cell_angle_beta   109.55180991
_cell_angle_gamma   109.31016125
_symmetry_Int_Tables_number   1
_chemical_formula_structural   U12Ir4Se31
_chemical_formula_sum   'U12 Ir4 Se31'
_cell_volume   1284.82059146
_cell_formula_units_Z   1
loop_
 _symmetry_equiv_pos_site_id
 _symmetry_equiv_pos_as_xyz
  1  'x, y, z'
loop_
 _atom_site_type_symbol
 _atom_site_label
 _atom_site_symmetry_multiplicity
 _atom_site_fract_x
 _atom_site_fract_y
 _atom_site_fract_z
 _atom_site_occupancy
  Ir  Ir0  1  0.000000  0.500000  0.000000  1
  Ir  Ir1  1  0.500000  0.500000  0.500000  1
  Ir  Ir2  1  0.500000  0.000000  0.000000  1
  Ir  Ir3  1  0.000000  0.000000  0.500000  1
  Se  Se4  1  0.000711  0.563527  0.818178  1
  Se  Se5  1  0.999289  0.817467  0.562817  1
  Se  Se6  1  0.254651  0.817467  0.818178  1
  Se  Se7  1  0.250000  0.750000  0.500000  1
  Se  Se8  1  0.234502  0.500000  0.734502  1
  Se  Se9  1  0.188181  0.188181  0.748754  1
  Se  Se10  1  0.182533  0.745349  0.181822  1
  Se  Se11  1  0.254651  0.436473  0.437183  1
  Se  Se12  1  0.188181  0.439427  0.000000  1
  Se  Se13  1  0.182533  0.000711  0.437183  1
  Se  Se14  1  0.436473  0.999289  0.181822  1
  Se  Se15  1  0.560573  0.560573  0.748754  1
  Se  Se16  1  0.563527  0.745349  0.562817  1
  Se  Se17  1  0.500000  0.765498  0.265498  1
  Se  Se18  1  0.500000  0.234502  0.734502  1
  Se  Se19  1  0.436473  0.254651  0.437183  1
  Se  Se20  1  0.439427  0.439427  0.251246  1
  Se  Se21  1  0.563527  0.000711  0.818178  1
  Se  Se22  1  0.560573  0.811819  0.000000  1
  Se  Se23  1  0.817467  0.999289  0.562817  1
  Se  Se24  1  0.500000  0.500000  0.000000  1
  Se  Se25  1  0.745349  0.563527  0.562817  1
  Se  Se26  1  0.439427  0.188181  1.000000  1
  Se  Se27  1  0.817467  0.254651  0.818178  1
  Se  Se28  1  0.811819  0.811819  0.251246  1
  Se  Se29  1  0.765498  0.500000  0.265498  1
  Se  Se30  1  0.750000  0.250000  0.500000  1
  Se  Se31  1  0.745349  0.182533  0.181822  1
  Se  Se32  1  0.811819  0.560573  1.000000  1
  Se  Se33  1  0.000711  0.182533  0.437183  1
  Se  Se34  1  0.999289  0.436473  0.181822  1
  U  U35  1  0.999067  0.295016  0.704052  1
  U  U36  1  0.409036  0.704984  0.704052  1
  U  U37  1  0.301483  0.301483  0.602966  1
  U  U38  1  0.295016  0.590964  0.295948  1
  U  U39  1  0.295016  0.999067  0.704052  1
  U  U40  1  0.301483  0.698517  0.000000  1
  U  U41  1  0.704984  0.000933  0.295948  1
  U  U42  1  0.704984  0.409036  0.704052  1
  U  U43  1  0.698517  0.698517  0.397034  1
  U  U44  1  0.590964  0.295016  0.295948  1
  U  U45  1  0.698517  0.301483  1.000000  1
  U  U46  1  0.000933  0.704984  0.295948  1
