# generated using pymatgen
data_Ta2CrO6
_symmetry_space_group_name_H-M   'P 1'
_cell_length_a   4.81394738
_cell_length_b   4.82481049
_cell_length_c   9.39220225
_cell_angle_alpha   90.00000000
_cell_angle_beta   91.39148267
_cell_angle_gamma   90.00000000
_symmetry_Int_Tables_number   1
_chemical_formula_structural   Ta2CrO6
_chemical_formula_sum   'Ta4 Cr2 O12'
_cell_volume   218.08256498
_cell_formula_units_Z   2
loop_
 _symmetry_equiv_pos_site_id
 _symmetry_equiv_pos_as_xyz
  1  'x, y, z'
loop_
 _atom_site_type_symbol
 _atom_site_label
 _atom_site_symmetry_multiplicity
 _atom_site_fract_x
 _atom_site_fract_y
 _atom_site_fract_z
 _atom_site_occupancy
  O  O0  1  0.202722  0.811492  0.176569  1
  O  O1  1  0.710129  0.726834  0.311527  1
  O  O2  1  0.210130  0.773167  0.811528  1
  O  O3  1  0.289871  0.273165  0.688472  1
  O  O4  1  0.313207  0.313773  1.000666  1
  O  O5  1  0.186793  0.813772  0.499334  1
  O  O6  1  0.797277  0.188508  0.823431  1
  O  O7  1  0.813207  0.186227  0.500666  1
  O  O8  1  0.297278  0.311492  0.323430  1
  O  O9  1  0.789870  0.226835  0.188473  1
  O  O10  1  0.702722  0.688507  0.676569  1
  O  O11  1  0.686793  0.686227  -0.000666  1
  Cr  Cr12  1  0.000000  0.000000  0.000000  1
  Cr  Cr13  1  0.500000  0.500000  0.500000  1
  Ta  Ta14  1  0.502017  0.488799  0.832020  1
  Ta  Ta15  1  0.997983  0.988798  0.667981  1
  Ta  Ta16  1  0.497983  0.511203  0.167980  1
  Ta  Ta17  1  0.002016  0.011203  0.332020  1
