# generated using pymatgen
data_Nd5CuSe8
_symmetry_space_group_name_H-M   'P 1'
_cell_length_a   7.70051144
_cell_length_b   7.70051216
_cell_length_c   7.70051200
_cell_angle_alpha   110.31460033
_cell_angle_beta   110.31460021
_cell_angle_gamma   107.79731267
_symmetry_Int_Tables_number   1
_chemical_formula_structural   Nd5CuSe8
_chemical_formula_sum   'Nd5 Cu1 Se8'
_cell_volume   351.28517186
_cell_formula_units_Z   1
loop_
 _symmetry_equiv_pos_site_id
 _symmetry_equiv_pos_as_xyz
  1  'x, y, z'
loop_
 _atom_site_type_symbol
 _atom_site_label
 _atom_site_symmetry_multiplicity
 _atom_site_fract_x
 _atom_site_fract_y
 _atom_site_fract_z
 _atom_site_occupancy
  Cu  Cu0  1  0.875000  0.125000  0.750000  1
  Nd  Nd1  1  0.114395  0.745727  0.872604  1
  Nd  Nd2  1  0.254273  0.626877  0.368668  1
  Nd  Nd3  1  0.373123  0.241791  0.627396  1
  Nd  Nd4  1  0.625000  0.375000  0.250000  1
  Nd  Nd5  1  0.758209  0.885605  0.131332  1
  Se  Se6  1  0.984114  0.863002  0.509951  1
  Se  Se7  1  0.009515  0.363593  0.491058  1
  Se  Se8  1  0.481543  0.990485  0.854077  1
  Se  Se9  1  0.136998  0.146949  0.121112  1
  Se  Se10  1  0.372535  0.518457  0.008942  1
  Se  Se11  1  0.636407  0.627465  0.645923  1
  Se  Se12  1  0.525837  0.015886  0.378888  1
  Se  Se13  1  0.853051  0.474163  0.990049  1
