# generated using pymatgen
data_LiCaTa2O6F
_symmetry_space_group_name_H-M   'P 1'
_cell_length_a   7.39456804
_cell_length_b   7.45764912
_cell_length_c   7.39456818
_cell_angle_alpha   59.71740296
_cell_angle_beta   59.62904816
_cell_angle_gamma   59.71740608
_symmetry_Int_Tables_number   1
_chemical_formula_structural   LiCaTa2O6F
_chemical_formula_sum   'Li2 Ca2 Ta4 O12 F2'
_cell_volume   286.30066320
_cell_formula_units_Z   2
loop_
 _symmetry_equiv_pos_site_id
 _symmetry_equiv_pos_as_xyz
  1  'x, y, z'
loop_
 _atom_site_type_symbol
 _atom_site_label
 _atom_site_symmetry_multiplicity
 _atom_site_fract_x
 _atom_site_fract_y
 _atom_site_fract_z
 _atom_site_occupancy
  Ca  Ca0  1  0.500000  0.000000  0.500000  1
  Ca  Ca1  1  0.500000  0.500000  0.500000  1
  F  F2  1  0.369607  0.380393  0.369607  1
  F  F3  1  0.630393  0.619607  0.630393  1
  Li  Li4  1  0.500000  0.500000  0.000000  1
  Li  Li5  1  0.000000  0.500000  0.500000  1
  O  O6  1  0.073839  0.065285  0.678869  1
  O  O7  1  0.064944  0.685056  0.064944  1
  O  O8  1  0.678869  0.065285  0.073839  1
  O  O9  1  0.073839  0.682006  0.678869  1
  O  O10  1  0.321131  0.317993  0.926161  1
  O  O11  1  0.323837  0.926163  0.323837  1
  O  O12  1  0.678869  0.682006  0.073839  1
  O  O13  1  0.676163  0.073837  0.676163  1
  O  O14  1  0.926161  0.317993  0.321131  1
  O  O15  1  0.321131  0.934715  0.926161  1
  O  O16  1  0.926161  0.934715  0.321131  1
  O  O17  1  0.935056  0.314944  0.935056  1
  Ta  Ta18  1  0.000000  0.000000  0.000000  1
  Ta  Ta19  1  0.500000  0.000000  0.000000  1
  Ta  Ta20  1  0.000000  0.000000  0.500000  1
  Ta  Ta21  1  0.000000  0.500000  0.000000  1
