# generated using pymatgen
data_K2TaF7
_symmetry_space_group_name_H-M   'P 1'
_cell_length_a   5.95223726
_cell_length_b   8.71027729
_cell_length_c   12.90102114
_cell_angle_alpha   90.00000000
_cell_angle_beta   90.00000000
_cell_angle_gamma   90.30044150
_symmetry_Int_Tables_number   1
_chemical_formula_structural   K2TaF7
_chemical_formula_sum   'K8 Ta4 F28'
_cell_volume   668.85246362
_cell_formula_units_Z   4
loop_
 _symmetry_equiv_pos_site_id
 _symmetry_equiv_pos_as_xyz
  1  'x, y, z'
loop_
 _atom_site_type_symbol
 _atom_site_label
 _atom_site_symmetry_multiplicity
 _atom_site_fract_x
 _atom_site_fract_y
 _atom_site_fract_z
 _atom_site_occupancy
  F  F0  1  0.442861  0.366637  0.420885  1
  F  F1  1  0.557139  0.133363  0.920885  1
  F  F2  1  0.557139  0.633363  0.579115  1
  F  F3  1  0.442861  0.866637  0.079115  1
  F  F4  1  0.815243  0.493559  0.377102  1
  F  F5  1  0.184757  0.006441  0.877102  1
  F  F6  1  0.184757  0.506441  0.622898  1
  F  F7  1  0.815243  0.993559  0.122898  1
  F  F8  1  0.790856  0.285627  0.520597  1
  F  F9  1  0.209144  0.214373  0.020597  1
  F  F10  1  0.209144  0.714373  0.479403  1
  F  F11  1  0.790856  0.785627  0.979403  1
  F  F12  1  0.955345  0.798930  0.243634  1
  F  F13  1  0.044655  0.701070  0.743634  1
  F  F14  1  0.044655  0.201070  0.756366  1
  F  F15  1  0.955345  0.298930  0.256366  1
  F  F16  1  0.544321  0.786993  0.257895  1
  F  F17  1  0.455679  0.713007  0.757895  1
  F  F18  1  0.455679  0.213007  0.742105  1
  F  F19  1  0.544321  0.286993  0.242105  1
  F  F20  1  0.955702  0.611088  0.108181  1
  F  F21  1  0.044298  0.888912  0.608181  1
  F  F22  1  0.044298  0.388912  0.891819  1
  F  F23  1  0.955702  0.111088  0.391819  1
  F  F24  1  0.539528  0.589759  0.110350  1
  F  F25  1  0.460472  0.910241  0.610350  1
  F  F26  1  0.460472  0.410241  0.889650  1
  F  F27  1  0.539528  0.089759  0.389650  1
  K  K28  1  0.236365  0.054281  0.215183  1
  K  K29  1  0.763635  0.445719  0.715183  1
  K  K30  1  0.763635  0.945719  0.784817  1
  K  K31  1  0.236365  0.554281  0.284817  1
  K  K32  1  0.763345  0.319241  0.058633  1
  K  K33  1  0.236655  0.180759  0.558633  1
  K  K34  1  0.236655  0.680759  0.941367  1
  K  K35  1  0.763345  0.819241  0.441367  1
  Ta  Ta36  1  0.728722  0.276414  0.370611  1
  Ta  Ta37  1  0.271278  0.223586  0.870611  1
  Ta  Ta38  1  0.271278  0.723586  0.629389  1
  Ta  Ta39  1  0.728722  0.776414  0.129389  1
