# generated using pymatgen
data_Tb5AgS8
_symmetry_space_group_name_H-M   'P 1'
_cell_length_a   7.24185525
_cell_length_b   7.24185482
_cell_length_c   7.24185544
_cell_angle_alpha   109.63078054
_cell_angle_beta   109.63077738
_cell_angle_gamma   109.15256802
_symmetry_Int_Tables_number   1
_chemical_formula_structural   Tb5AgS8
_chemical_formula_sum   'Tb5 Ag1 S8'
_cell_volume   292.35974476
_cell_formula_units_Z   1
loop_
 _symmetry_equiv_pos_site_id
 _symmetry_equiv_pos_as_xyz
  1  'x, y, z'
loop_
 _atom_site_type_symbol
 _atom_site_label
 _atom_site_symmetry_multiplicity
 _atom_site_fract_x
 _atom_site_fract_y
 _atom_site_fract_z
 _atom_site_occupancy
  Ag  Ag0  1  0.875000  0.125000  0.750000  1
  S  S1  1  0.995259  0.853411  0.497834  1
  S  S2  1  0.006702  0.367646  0.490701  1
  S  S3  1  0.483999  0.993298  0.860944  1
  S  S4  1  0.146589  0.144423  0.141848  1
  S  S5  1  0.502575  0.004741  0.358152  1
  S  S6  1  0.376946  0.516001  0.009299  1
  S  S7  1  0.632354  0.623054  0.639056  1
  S  S8  1  0.855577  0.497425  0.002166  1
  Tb  Tb9  1  0.110342  0.746328  0.868882  1
  Tb  Tb10  1  0.253672  0.622553  0.364014  1
  Tb  Tb11  1  0.377447  0.241460  0.631118  1
  Tb  Tb12  1  0.625000  0.375000  0.250000  1
  Tb  Tb13  1  0.758540  0.889658  0.135986  1
