# generated using pymatgen
data_NdMnO3
_symmetry_space_group_name_H-M   'P 1'
_cell_length_a   5.50194896
_cell_length_b   5.71262486
_cell_length_c   7.83239218
_cell_angle_alpha   90.45359936
_cell_angle_beta   90.00000000
_cell_angle_gamma   90.00000000
_symmetry_Int_Tables_number   1
_chemical_formula_structural   NdMnO3
_chemical_formula_sum   'Nd4 Mn4 O12'
_cell_volume   246.16883939
_cell_formula_units_Z   4
loop_
 _symmetry_equiv_pos_site_id
 _symmetry_equiv_pos_as_xyz
  1  'x, y, z'
loop_
 _atom_site_type_symbol
 _atom_site_label
 _atom_site_symmetry_multiplicity
 _atom_site_fract_x
 _atom_site_fract_y
 _atom_site_fract_z
 _atom_site_occupancy
  Nd  Nd0  1  0.514163  0.442481  0.249666  1
  Nd  Nd1  1  0.985837  0.942481  0.249666  1
  Nd  Nd2  1  0.485837  0.557519  0.750334  1
  Nd  Nd3  1  0.014163  0.057519  0.750334  1
  Mn  Mn4  1  0.000000  0.500000  0.500000  1
  Mn  Mn5  1  0.500000  0.000000  0.000000  1
  Mn  Mn6  1  0.500000  0.000000  0.500000  1
  Mn  Mn7  1  0.000000  0.500000  0.000000  1
  O  O8  1  0.592203  0.973195  0.750832  1
  O  O9  1  0.288437  0.303658  0.951551  1
  O  O10  1  0.788437  0.196342  0.048449  1
  O  O11  1  0.797542  0.209988  0.450964  1
  O  O12  1  0.711563  0.696342  0.048449  1
  O  O13  1  0.211563  0.803658  0.951551  1
  O  O14  1  0.297542  0.290012  0.549036  1
  O  O15  1  0.092203  0.526805  0.249168  1
  O  O16  1  0.407797  0.026805  0.249168  1
  O  O17  1  0.702458  0.709988  0.450964  1
  O  O18  1  0.202458  0.790012  0.549036  1
  O  O19  1  0.907797  0.473195  0.750832  1
