# generated using pymatgen
data_Sr4Lu3F17
_symmetry_space_group_name_H-M   'P 1'
_cell_length_a   9.01718761
_cell_length_b   8.98430728
_cell_length_c   8.96774363
_cell_angle_alpha   73.02493232
_cell_angle_beta   73.06843415
_cell_angle_gamma   72.80858022
_symmetry_Int_Tables_number   1
_chemical_formula_structural   Sr4Lu3F17
_chemical_formula_sum   'Sr8 Lu6 F34'
_cell_volume   646.89599513
_cell_formula_units_Z   2
loop_
 _symmetry_equiv_pos_site_id
 _symmetry_equiv_pos_as_xyz
  1  'x, y, z'
loop_
 _atom_site_type_symbol
 _atom_site_label
 _atom_site_symmetry_multiplicity
 _atom_site_fract_x
 _atom_site_fract_y
 _atom_site_fract_z
 _atom_site_occupancy
  F  F0  1  -0.004150  1.005182  0.998009  1
  F  F1  1  0.018194  0.173048  0.455272  1
  F  F2  1  0.137194  0.136165  0.138064  1
  F  F3  1  0.044426  0.486467  0.357438  1
  F  F4  1  0.174367  0.452620  0.017614  1
  F  F5  1  0.080511  0.787207  0.258182  1
  F  F6  1  0.451355  0.017821  0.177611  1
  F  F7  1  0.257649  0.084280  0.786684  1
  F  F8  1  0.356187  0.037739  0.489739  1
  F  F9  1  0.262943  0.349413  0.542661  1
  F  F10  1  0.210855  0.595953  0.694507  1
  F  F11  1  0.344765  0.548406  0.256661  1
  F  F12  1  0.483919  0.355308  0.046966  1
  F  F13  1  0.300716  0.795081  0.399920  1
  F  F14  1  0.213190  0.742318  0.918222  1
  F  F15  1  0.545960  0.252275  0.350230  1
  F  F16  1  0.410018  0.303468  0.790527  1
  F  F17  1  0.553792  0.517477  0.443672  1
  F  F18  1  0.605561  0.716594  0.178011  1
  F  F19  1  0.457012  0.738676  0.653494  1
  F  F20  1  0.778551  0.262733  0.085903  1
  F  F21  1  0.699211  0.200848  0.591475  1
  F  F22  1  0.511172  0.641942  0.960730  1
  F  F23  1  0.649554  0.457283  0.741758  1
  F  F24  1  0.823684  0.396058  0.284805  1
  F  F25  1  0.759097  0.660181  0.452061  1
  F  F26  1  0.642651  0.953080  0.515488  1
  F  F27  1  0.739086  0.918796  0.216588  1
  F  F28  1  0.545511  0.981020  0.827141  1
  F  F29  1  0.910621  0.219094  0.738582  1
  F  F30  1  0.826405  0.546940  0.981107  1
  F  F31  1  0.957896  0.511273  0.646250  1
  F  F32  1  0.862288  0.864091  0.861465  1
  F  F33  1  0.981427  0.824912  0.548226  1
  Lu  Lu34  1  0.159855  0.611385  0.466607  1
  Lu  Lu35  1  0.466218  0.158976  0.611771  1
  Lu  Lu36  1  0.388559  0.532941  0.842163  1
  Lu  Lu37  1  0.609031  0.470217  0.184268  1
  Lu  Lu38  1  0.536830  0.820479  0.390107  1
  Lu  Lu39  1  0.824357  0.394088  0.528534  1
  Sr  Sr40  1  0.043639  0.308686  0.895407  1
  Sr  Sr41  1  0.263892  0.261881  0.266984  1
  Sr  Sr42  1  0.311424  0.889742  0.055063  1
  Sr  Sr43  1  0.105593  0.951831  0.690759  1
  Sr  Sr44  1  0.888339  0.053201  0.310410  1
  Sr  Sr45  1  0.688173  0.109921  0.952335  1
  Sr  Sr46  1  0.734645  0.732831  0.739280  1
  Sr  Sr47  1  0.946826  0.691074  0.108250  1
