# generated using pymatgen
data_La2PbS4
_symmetry_space_group_name_H-M   'P 1'
_cell_length_a   7.63233651
_cell_length_b   7.63233671
_cell_length_c   7.63233624
_cell_angle_alpha   109.33878440
_cell_angle_beta   109.73642336
_cell_angle_gamma   109.33878204
_symmetry_Int_Tables_number   1
_chemical_formula_structural   La2PbS4
_chemical_formula_sum   'La4 Pb2 S8'
_cell_volume   342.25014691
_cell_formula_units_Z   2
loop_
 _symmetry_equiv_pos_site_id
 _symmetry_equiv_pos_as_xyz
  1  'x, y, z'
loop_
 _atom_site_type_symbol
 _atom_site_label
 _atom_site_symmetry_multiplicity
 _atom_site_fract_x
 _atom_site_fract_y
 _atom_site_fract_z
 _atom_site_occupancy
  La  La0  1  0.250000  0.634674  0.384674  1
  La  La1  1  0.750000  0.865326  0.115326  1
  La  La2  1  0.615326  0.365326  0.250000  1
  La  La3  1  0.884674  0.134674  0.750000  1
  Pb  Pb4  1  0.125000  0.750000  0.875000  1
  Pb  Pb5  1  0.375000  0.250000  0.625000  1
  S  S6  1  0.141277  0.151818  0.143874  1
  S  S7  1  0.507944  0.997403  0.356126  1
  S  S8  1  0.358723  0.502597  0.010541  1
  S  S9  1  0.643874  0.651818  0.641277  1
  S  S10  1  0.510541  0.002597  0.858723  1
  S  S11  1  0.989459  0.848182  0.492056  1
  S  S12  1  0.856126  0.497403  0.007944  1
  S  S13  1  0.992056  0.348182  0.489459  1
