# generated using pymatgen
data_Li4Co(PO4)2
_symmetry_space_group_name_H-M   'P 1'
_cell_length_a   8.20215462
_cell_length_b   10.42871365
_cell_length_c   8.24200216
_cell_angle_alpha   90.00000000
_cell_angle_beta   104.76564705
_cell_angle_gamma   90.00000000
_symmetry_Int_Tables_number   1
_chemical_formula_structural   Li4Co(PO4)2
_chemical_formula_sum   'Li16 Co4 P8 O32'
_cell_volume   681.72195628
_cell_formula_units_Z   4
loop_
 _symmetry_equiv_pos_site_id
 _symmetry_equiv_pos_as_xyz
  1  'x, y, z'
loop_
 _atom_site_type_symbol
 _atom_site_label
 _atom_site_symmetry_multiplicity
 _atom_site_fract_x
 _atom_site_fract_y
 _atom_site_fract_z
 _atom_site_occupancy
  Li  Li0  1  0.099866  0.663812  0.602199  1
  Li  Li1  1  0.900134  0.336188  0.397800  1
  Li  Li2  1  0.842423  0.837410  0.345168  1
  Li  Li3  1  0.772497  0.572732  0.522282  1
  Li  Li4  1  0.849758  0.651718  0.850977  1
  Li  Li5  1  0.157578  0.162589  0.654832  1
  Li  Li6  1  0.227504  0.427268  0.477718  1
  Li  Li7  1  0.150243  0.348282  0.149023  1
  Li  Li8  1  0.349757  0.848282  0.850977  1
  Li  Li9  1  0.272497  0.927268  0.522283  1
  Li  Li10  1  0.342422  0.662590  0.345168  1
  Li  Li11  1  0.400133  0.163813  0.397801  1
  Li  Li12  1  0.599866  0.836188  0.602200  1
  Li  Li13  1  0.657577  0.337410  0.654832  1
  Li  Li14  1  0.727503  0.072732  0.477718  1
  Li  Li15  1  0.650243  0.151718  0.149023  1
  O  O16  1  0.021396  0.453166  0.273767  1
  O  O17  1  0.815050  0.604523  0.072041  1
  O  O18  1  0.911836  0.654774  0.383302  1
  O  O19  1  0.990205  0.947433  0.245089  1
  O  O20  1  0.009796  0.052567  0.754911  1
  O  O21  1  0.088163  0.345225  0.616699  1
  O  O22  1  0.184950  0.395476  0.927958  1
  O  O23  1  0.884427  0.329550  0.803981  1
  O  O24  1  0.129076  0.849327  0.661296  1
  O  O25  1  0.058940  0.167285  0.137703  1
  O  O26  1  0.115572  0.670450  0.196019  1
  O  O27  1  0.870925  0.150673  0.338704  1
  O  O28  1  0.313490  0.600922  0.562101  1
  O  O29  1  0.384428  0.170450  0.803981  1
  O  O30  1  0.441059  0.667285  0.862297  1
  O  O31  1  0.370925  0.349328  0.338704  1
  O  O32  1  0.478603  0.953165  0.726233  1
  O  O33  1  0.315050  0.895477  0.072042  1
  O  O34  1  0.411837  0.845226  0.383301  1
  O  O35  1  0.509795  0.447432  0.754912  1
  O  O36  1  0.490205  0.552567  0.245089  1
  O  O37  1  0.588164  0.154774  0.616698  1
  O  O38  1  0.684951  0.104524  0.927959  1
  O  O39  1  0.521396  0.046834  0.273766  1
  O  O40  1  0.629075  0.650673  0.661296  1
  O  O41  1  0.558940  0.332715  0.137703  1
  O  O42  1  0.615573  0.829550  0.196019  1
  O  O43  1  0.686511  0.399079  0.437899  1
  O  O44  1  0.813489  0.899078  0.562101  1
  O  O45  1  0.978604  0.546834  0.726234  1
  O  O46  1  0.941060  0.832715  0.862297  1
  O  O47  1  0.186511  0.100922  0.437899  1
  P  P48  1  0.534598  0.093517  0.767635  1
  P  P49  1  0.465402  0.906483  0.232364  1
  P  P50  1  0.525807  0.407881  0.289969  1
  P  P51  1  0.974193  0.907882  0.710031  1
  P  P52  1  0.034598  0.406483  0.767636  1
  P  P53  1  0.025807  0.092119  0.289969  1
  P  P54  1  0.474193  0.592118  0.710032  1
  P  P55  1  0.965402  0.593517  0.232365  1
  Co  Co56  1  0.911009  0.155993  0.906396  1
  Co  Co57  1  0.588991  0.655993  0.093604  1
  Co  Co58  1  0.411008  0.344007  0.906395  1
  Co  Co59  1  0.088991  0.844007  0.093605  1
