# generated using pymatgen
data_K4C2O3
_symmetry_space_group_name_H-M   'P 1'
_cell_length_a   5.65441080
_cell_length_b   5.45699664
_cell_length_c   7.15408451
_cell_angle_alpha   90.18820042
_cell_angle_beta   86.28335972
_cell_angle_gamma   121.66627336
_symmetry_Int_Tables_number   1
_chemical_formula_structural   K4C2O3
_chemical_formula_sum   'K4 C2 O3'
_cell_volume   187.36434979
_cell_formula_units_Z   1
loop_
 _symmetry_equiv_pos_site_id
 _symmetry_equiv_pos_as_xyz
  1  'x, y, z'
loop_
 _atom_site_type_symbol
 _atom_site_label
 _atom_site_symmetry_multiplicity
 _atom_site_fract_x
 _atom_site_fract_y
 _atom_site_fract_z
 _atom_site_occupancy
  K  K0  1  0.978223  0.001892  0.014884  1
  K  K1  1  0.005035  0.988612  0.502672  1
  K  K2  1  0.334515  0.673256  0.246300  1
  K  K3  1  0.637934  0.330251  0.753973  1
  C  C4  1  0.336320  0.635208  0.751630  1
  C  C5  1  0.691484  0.389902  0.260393  1
  O  O6  1  0.196312  0.764145  0.782353  1
  O  O7  1  0.435060  0.241509  0.209294  1
  O  O8  1  0.806117  0.239226  0.292501  1
