# generated using pymatgen
data_Sr2Nb2O7
_symmetry_space_group_name_H-M   'P 1'
_cell_length_a   4.02872202
_cell_length_b   5.80079841
_cell_length_c   13.86949227
_cell_angle_alpha   90.00000000
_cell_angle_beta   98.35099336
_cell_angle_gamma   90.00000000
_symmetry_Int_Tables_number   1
_chemical_formula_structural   Sr2Nb2O7
_chemical_formula_sum   'Sr4 Nb4 O14'
_cell_volume   320.69057239
_cell_formula_units_Z   2
loop_
 _symmetry_equiv_pos_site_id
 _symmetry_equiv_pos_as_xyz
  1  'x, y, z'
loop_
 _atom_site_type_symbol
 _atom_site_label
 _atom_site_symmetry_multiplicity
 _atom_site_fract_x
 _atom_site_fract_y
 _atom_site_fract_z
 _atom_site_occupancy
  O  O0  1  0.452223  0.946546  0.904446  1
  O  O1  1  0.547777  0.446546  0.095555  1
  O  O2  1  0.907866  0.667010  0.815733  1
  O  O3  1  0.092134  0.167010  0.184267  1
  O  O4  1  0.800813  0.763678  0.601624  1
  O  O5  1  0.199187  0.263678  0.398376  1
  O  O6  1  0.214174  0.786610  0.428347  1
  O  O7  1  0.785826  0.286610  0.571652  1
  O  O8  1  0.992202  0.228364  0.984405  1
  O  O9  1  0.007798  0.728364  0.015594  1
  O  O10  1  0.890331  0.177726  0.780660  1
  O  O11  1  0.650272  0.965982  0.300543  1
  O  O12  1  0.349728  0.465982  0.699457  1
  O  O13  1  0.109670  0.677726  0.219340  1
  Sr  Sr14  1  0.289901  0.033244  0.579801  1
  Sr  Sr15  1  0.710099  0.533244  0.420199  1
  Sr  Sr16  1  0.447989  0.470890  0.895979  1
  Sr  Sr17  1  0.552012  0.970890  0.104021  1
  Nb  Nb18  1  0.839415  0.498540  0.678832  1
  Nb  Nb19  1  0.160585  -0.001460  0.321168  1
  Nb  Nb20  1  0.056982  0.471531  0.113965  1
  Nb  Nb21  1  0.943018  0.971531  0.886034  1
