# generated using pymatgen
data_Mg2TiO4
_symmetry_space_group_name_H-M   'P 1'
_cell_length_a   6.02371042
_cell_length_b   6.01869487
_cell_length_c   6.02371020
_cell_angle_alpha   60.02754233
_cell_angle_beta   60.08545029
_cell_angle_gamma   60.02754204
_symmetry_Int_Tables_number   1
_chemical_formula_structural   Mg2TiO4
_chemical_formula_sum   'Mg4 Ti2 O8'
_cell_volume   154.58810274
_cell_formula_units_Z   2
loop_
 _symmetry_equiv_pos_site_id
 _symmetry_equiv_pos_as_xyz
  1  'x, y, z'
loop_
 _atom_site_type_symbol
 _atom_site_label
 _atom_site_symmetry_multiplicity
 _atom_site_fract_x
 _atom_site_fract_y
 _atom_site_fract_z
 _atom_site_occupancy
  Mg  Mg0  1  0.114864  0.135136  0.114864  1
  Mg  Mg1  1  0.500000  0.000000  0.500000  1
  Mg  Mg2  1  0.500000  0.500000  0.500000  1
  Mg  Mg3  1  0.885136  0.864864  0.885136  1
  O  O4  1  0.251537  0.274709  0.251537  1
  O  O5  1  0.251537  0.722217  0.251537  1
  O  O6  1  0.242920  0.272151  0.712778  1
  O  O7  1  0.712778  0.272151  0.242920  1
  O  O8  1  0.287222  0.727849  0.757080  1
  O  O9  1  0.757080  0.727849  0.287222  1
  O  O10  1  0.748463  0.277783  0.748463  1
  O  O11  1  0.748463  0.725291  0.748463  1
  Ti  Ti12  1  0.500000  0.500000  0.000000  1
  Ti  Ti13  1  0.000000  0.500000  0.500000  1
