# generated using pymatgen
data_La3TaO7
_symmetry_space_group_name_H-M   'P 1'
_cell_length_a   6.78760224
_cell_length_b   6.78760139
_cell_length_c   7.80824920
_cell_angle_alpha   90.00000000
_cell_angle_beta   90.00000000
_cell_angle_gamma   111.67464815
_symmetry_Int_Tables_number   1
_chemical_formula_structural   La3TaO7
_chemical_formula_sum   'La6 Ta2 O14'
_cell_volume   334.30316375
_cell_formula_units_Z   2
loop_
 _symmetry_equiv_pos_site_id
 _symmetry_equiv_pos_as_xyz
  1  'x, y, z'
loop_
 _atom_site_type_symbol
 _atom_site_label
 _atom_site_symmetry_multiplicity
 _atom_site_fract_x
 _atom_site_fract_y
 _atom_site_fract_z
 _atom_site_occupancy
  La  La0  1  0.000000  0.000000  0.000000  1
  La  La1  1  0.000000  0.000000  0.500000  1
  La  La2  1  0.523871  0.069730  0.250000  1
  La  La3  1  0.476129  0.930270  0.750000  1
  La  La4  1  0.069730  0.523871  0.250000  1
  La  La5  1  0.930270  0.476129  0.750000  1
  Ta  Ta6  1  0.500000  0.500000  0.000000  1
  Ta  Ta7  1  0.500000  0.500000  0.500000  1
  O  O8  1  0.435307  0.435307  0.250000  1
  O  O9  1  0.564693  0.564693  0.750000  1
  O  O10  1  0.439006  0.189440  0.966375  1
  O  O11  1  0.560994  0.810560  0.466375  1
  O  O12  1  0.189440  0.439006  0.533625  1
  O  O13  1  0.810560  0.560994  0.033625  1
  O  O14  1  0.560994  0.810560  0.033625  1
  O  O15  1  0.439006  0.189440  0.533625  1
  O  O16  1  0.810560  0.560994  0.466375  1
  O  O17  1  0.189440  0.439006  0.966375  1
  O  O18  1  0.154508  0.893813  0.250000  1
  O  O19  1  0.845492  0.106187  0.750000  1
  O  O20  1  0.893813  0.154508  0.250000  1
  O  O21  1  0.106187  0.845492  0.750000  1
