# generated using pymatgen
data_TlGaTe2
_symmetry_space_group_name_H-M   'P 1'
_cell_length_a   6.92881453
_cell_length_b   7.02849716
_cell_length_c   7.02849715
_cell_angle_alpha   75.93875287
_cell_angle_beta   60.46805925
_cell_angle_gamma   60.46805924
_symmetry_Int_Tables_number   1
_chemical_formula_structural   TlGaTe2
_chemical_formula_sum   'Tl2 Ga2 Te4'
_cell_volume   259.12141248
_cell_formula_units_Z   2
loop_
 _symmetry_equiv_pos_site_id
 _symmetry_equiv_pos_as_xyz
  1  'x, y, z'
loop_
 _atom_site_type_symbol
 _atom_site_label
 _atom_site_symmetry_multiplicity
 _atom_site_fract_x
 _atom_site_fract_y
 _atom_site_fract_z
 _atom_site_occupancy
  Ga  Ga0  1  0.250000  0.500000  0.500000  1
  Ga  Ga1  1  0.750000  0.500000  0.500000  1
  Te  Te2  1  0.167847  0.500000  0.164307  1
  Te  Te3  1  0.332153  0.835693  0.500000  1
  Te  Te4  1  0.667847  0.164307  0.500000  1
  Te  Te5  1  0.832153  0.500000  0.835693  1
  Tl  Tl6  1  0.250000  0.000000  0.000000  1
  Tl  Tl7  1  0.750000  0.000000  0.000000  1
