# generated using pymatgen
data_Sr4Ru2O9
_symmetry_space_group_name_H-M   'P 1'
_cell_length_a   9.76036525
_cell_length_b   9.76036529
_cell_length_c   8.13433231
_cell_angle_alpha   90.00000000
_cell_angle_beta   90.00000000
_cell_angle_gamma   119.99999982
_symmetry_Int_Tables_number   1
_chemical_formula_structural   Sr4Ru2O9
_chemical_formula_sum   'Sr12 Ru6 O27'
_cell_volume   671.09605378
_cell_formula_units_Z   3
loop_
 _symmetry_equiv_pos_site_id
 _symmetry_equiv_pos_as_xyz
  1  'x, y, z'
loop_
 _atom_site_type_symbol
 _atom_site_label
 _atom_site_symmetry_multiplicity
 _atom_site_fract_x
 _atom_site_fract_y
 _atom_site_fract_z
 _atom_site_occupancy
  O  O0  1  0.011145  0.836077  0.276026  1
  O  O1  1  0.151936  0.644399  0.753145  1
  O  O2  1  0.319261  0.824121  0.032293  1
  O  O3  1  0.310459  0.823640  0.475834  1
  O  O4  1  1.000000  0.166080  0.000000  1
  O  O5  1  0.175879  0.495141  0.032293  1
  O  O6  1  0.176360  0.486819  0.475834  1
  O  O7  1  0.492463  0.848064  0.753145  1
  O  O8  1  0.163923  0.175068  0.276026  1
  O  O9  1  0.175068  0.163923  0.723974  1
  O  O10  1  0.355601  0.507537  0.753145  1
  O  O11  1  0.166080  0.000000  0.000000  1
  O  O12  1  0.504859  0.680739  0.032293  1
  O  O13  1  0.513181  0.689541  0.475834  1
  O  O14  1  0.824932  0.988855  0.276026  1
  O  O15  1  0.507537  0.355601  0.246855  1
  O  O16  1  0.486819  0.176360  0.524166  1
  O  O17  1  0.495141  0.175879  0.967707  1
  O  O18  1  0.833920  0.833920  0.000000  1
  O  O19  1  0.689541  0.513181  0.524166  1
  O  O20  1  0.680739  0.504859  0.967707  1
  O  O21  1  0.644399  0.151936  0.246855  1
  O  O22  1  0.988855  0.824932  0.723974  1
  O  O23  1  0.848064  0.492463  0.246855  1
  O  O24  1  0.824121  0.319261  0.967707  1
  O  O25  1  0.823640  0.310459  0.524166  1
  O  O26  1  0.836077  0.011145  0.723974  1
  Ru  Ru27  1  0.000000  0.000000  0.844132  1
  Ru  Ru28  1  0.333333  0.666667  0.912081  1
  Ru  Ru29  1  0.333333  0.666667  0.596000  1
  Ru  Ru30  1  0.666667  0.333333  0.404000  1
  Ru  Ru31  1  0.666667  0.333333  0.087919  1
  Ru  Ru32  1  0.000000  0.000000  0.155868  1
  Sr  Sr33  1  1.000000  0.673550  0.000000  1
  Sr  Sr34  1  0.000000  0.655652  0.500000  1
  Sr  Sr35  1  0.320951  0.986129  0.752932  1
  Sr  Sr36  1  0.013871  0.334822  0.752932  1
  Sr  Sr37  1  0.344348  0.344348  0.500000  1
  Sr  Sr38  1  0.326450  0.326450  0.000000  1
  Sr  Sr39  1  0.665178  0.679049  0.752932  1
  Sr  Sr40  1  0.334822  0.013871  0.247068  1
  Sr  Sr41  1  0.679049  0.665178  0.247068  1
  Sr  Sr42  1  0.655652  0.000000  0.500000  1
  Sr  Sr43  1  0.673550  0.000000  0.000000  1
  Sr  Sr44  1  0.986129  0.320951  0.247068  1
