# generated using pymatgen
data_Mg13Au41
_symmetry_space_group_name_H-M   'P 1'
_cell_length_a   15.23408682
_cell_length_b   15.23408664
_cell_length_c   9.62160970
_cell_angle_alpha   90.00000000
_cell_angle_beta   90.00000000
_cell_angle_gamma   120.00000039
_symmetry_Int_Tables_number   1
_chemical_formula_structural   Mg13Au41
_chemical_formula_sum   'Mg26 Au82'
_cell_volume   1933.79847435
_cell_formula_units_Z   2
loop_
 _symmetry_equiv_pos_site_id
 _symmetry_equiv_pos_as_xyz
  1  'x, y, z'
loop_
 _atom_site_type_symbol
 _atom_site_label
 _atom_site_symmetry_multiplicity
 _atom_site_fract_x
 _atom_site_fract_y
 _atom_site_fract_z
 _atom_site_occupancy
  Mg  Mg0  1  0.000000  0.000000  0.000000  1
  Mg  Mg1  1  0.000000  0.000000  0.500000  1
  Mg  Mg2  1  0.445354  0.000000  0.250000  1
  Mg  Mg3  1  0.445354  0.445354  0.750000  1
  Mg  Mg4  1  0.000000  0.554646  0.750000  1
  Mg  Mg5  1  1.000000  0.445354  0.250000  1
  Mg  Mg6  1  0.554646  0.554646  0.250000  1
  Mg  Mg7  1  0.554646  0.000000  0.750000  1
  Mg  Mg8  1  0.775863  0.000000  0.250000  1
  Mg  Mg9  1  0.775863  0.775863  0.750000  1
  Mg  Mg10  1  1.000000  0.224137  0.750000  1
  Mg  Mg11  1  0.000000  0.775863  0.250000  1
  Mg  Mg12  1  0.224137  0.224137  0.250000  1
  Mg  Mg13  1  0.224137  0.000000  0.750000  1
  Mg  Mg14  1  0.223150  0.446300  0.000000  1
  Mg  Mg15  1  0.776850  0.223150  0.500000  1
  Mg  Mg16  1  0.446300  0.223150  0.500000  1
  Mg  Mg17  1  0.553700  0.776850  0.000000  1
  Mg  Mg18  1  0.223150  0.776850  0.000000  1
  Mg  Mg19  1  0.776850  0.553700  0.500000  1
  Mg  Mg20  1  0.776850  0.553700  0.000000  1
  Mg  Mg21  1  0.223150  0.776850  0.500000  1
  Mg  Mg22  1  0.553700  0.776850  0.500000  1
  Mg  Mg23  1  0.446300  0.223150  0.000000  1
  Mg  Mg24  1  0.776850  0.223150  0.000000  1
  Mg  Mg25  1  0.223150  0.446300  0.500000  1
  Au  Au26  1  0.333333  0.666667  0.000000  1
  Au  Au27  1  0.666667  0.333333  0.500000  1
  Au  Au28  1  0.666667  0.333333  0.000000  1
  Au  Au29  1  0.333333  0.666667  0.500000  1
  Au  Au30  1  0.109631  0.000000  0.250000  1
  Au  Au31  1  0.109631  0.109631  0.750000  1
  Au  Au32  1  1.000000  0.890370  0.750000  1
  Au  Au33  1  0.000000  0.109631  0.250000  1
  Au  Au34  1  0.890370  0.890370  0.250000  1
  Au  Au35  1  0.890370  0.000000  0.750000  1
  Au  Au36  1  0.110795  0.221590  0.000000  1
  Au  Au37  1  0.889205  0.110795  0.500000  1
  Au  Au38  1  0.221590  0.110795  0.500000  1
  Au  Au39  1  0.778410  0.889205  0.000000  1
  Au  Au40  1  0.110795  0.889205  0.000000  1
  Au  Au41  1  0.889205  0.778410  0.500000  1
  Au  Au42  1  0.889205  0.778410  0.000000  1
  Au  Au43  1  0.110795  0.889205  0.500000  1
  Au  Au44  1  0.778410  0.889205  0.500000  1
  Au  Au45  1  0.221590  0.110795  0.000000  1
  Au  Au46  1  0.889205  0.110795  0.000000  1
  Au  Au47  1  0.110795  0.221590  0.500000  1
  Au  Au48  1  0.444989  0.889978  0.000000  1
  Au  Au49  1  0.555011  0.444989  0.500000  1
  Au  Au50  1  0.889978  0.444989  0.500000  1
  Au  Au51  1  0.110022  0.555011  0.000000  1
  Au  Au52  1  0.444989  0.555011  0.000000  1
  Au  Au53  1  0.555011  0.110022  0.500000  1
  Au  Au54  1  0.555011  0.110022  0.000000  1
  Au  Au55  1  0.444989  0.555011  0.500000  1
  Au  Au56  1  0.110022  0.555011  0.500000  1
  Au  Au57  1  0.889978  0.444989  0.000000  1
  Au  Au58  1  0.555011  0.444989  0.000000  1
  Au  Au59  1  0.444989  0.889978  0.500000  1
  Au  Au60  1  0.220933  0.551479  0.250000  1
  Au  Au61  1  0.669454  0.220933  0.750000  1
  Au  Au62  1  0.551479  0.330546  0.750000  1
  Au  Au63  1  0.448521  0.669454  0.250000  1
  Au  Au64  1  0.330546  0.779067  0.250000  1
  Au  Au65  1  0.669454  0.448521  0.250000  1
  Au  Au66  1  0.779067  0.330546  0.250000  1
  Au  Au67  1  0.779067  0.448521  0.750000  1
  Au  Au68  1  0.551479  0.220933  0.250000  1
  Au  Au69  1  0.448521  0.779067  0.750000  1
  Au  Au70  1  0.330546  0.551479  0.750000  1
  Au  Au71  1  0.220933  0.669454  0.750000  1
  Au  Au72  1  0.110486  0.666351  0.250000  1
  Au  Au73  1  0.444135  0.110486  0.750000  1
  Au  Au74  1  0.666351  0.555865  0.750000  1
  Au  Au75  1  0.333649  0.444135  0.250000  1
  Au  Au76  1  0.555865  0.889514  0.250000  1
  Au  Au77  1  0.444135  0.333649  0.250000  1
  Au  Au78  1  0.889514  0.555865  0.250000  1
  Au  Au79  1  0.889514  0.333649  0.750000  1
  Au  Au80  1  0.666351  0.110486  0.250000  1
  Au  Au81  1  0.333649  0.889514  0.750000  1
  Au  Au82  1  0.555865  0.666351  0.750000  1
  Au  Au83  1  0.110486  0.444135  0.750000  1
  Au  Au84  1  0.111768  0.332793  0.250000  1
  Au  Au85  1  0.778974  0.111768  0.750000  1
  Au  Au86  1  0.332793  0.221026  0.750000  1
  Au  Au87  1  0.667207  0.778974  0.250000  1
  Au  Au88  1  0.221026  0.888232  0.250000  1
  Au  Au89  1  0.778974  0.667207  0.250000  1
  Au  Au90  1  0.888232  0.221026  0.250000  1
  Au  Au91  1  0.888232  0.667207  0.750000  1
  Au  Au92  1  0.332793  0.111768  0.250000  1
  Au  Au93  1  0.667207  0.888232  0.750000  1
  Au  Au94  1  0.221026  0.332793  0.750000  1
  Au  Au95  1  0.111768  0.778974  0.750000  1
  Au  Au96  1  0.331950  0.000000  0.000895  1
  Au  Au97  1  0.331950  0.331950  0.500895  1
  Au  Au98  1  0.000000  0.668050  0.500895  1
  Au  Au99  1  1.000000  0.331950  0.000895  1
  Au  Au100  1  0.668050  0.668050  0.000895  1
  Au  Au101  1  0.331950  0.000000  0.499105  1
  Au  Au102  1  0.668050  0.668050  0.499105  1
  Au  Au103  1  0.668050  0.000000  0.500895  1
  Au  Au104  1  1.000000  0.331950  0.499105  1
  Au  Au105  1  0.000000  0.668050  0.999105  1
  Au  Au106  1  0.668050  0.000000  0.999105  1
  Au  Au107  1  0.331950  0.331950  0.999105  1
