# generated using pymatgen
data_Tb10Ti6O27
_symmetry_space_group_name_H-M   'P 1'
_cell_length_a   7.45331971
_cell_length_b   7.30439212
_cell_length_c   14.57689550
_cell_angle_alpha   59.92760246
_cell_angle_beta   59.09954396
_cell_angle_gamma   60.65880125
_symmetry_Int_Tables_number   1
_chemical_formula_structural   Tb10Ti6O27
_chemical_formula_sum   'Tb10 Ti6 O27'
_cell_volume   559.61553352
_cell_formula_units_Z   1
loop_
 _symmetry_equiv_pos_site_id
 _symmetry_equiv_pos_as_xyz
  1  'x, y, z'
loop_
 _atom_site_type_symbol
 _atom_site_label
 _atom_site_symmetry_multiplicity
 _atom_site_fract_x
 _atom_site_fract_y
 _atom_site_fract_z
 _atom_site_occupancy
  O  O0  1  0.979129  0.080505  0.362179  1
  O  O1  1  0.036805  0.773558  0.958040  1
  O  O2  1  0.364719  0.377974  0.189667  1
  O  O3  1  0.663087  0.082155  0.036927  1
  O  O4  1  0.979129  0.716007  0.362179  1
  O  O5  1  0.323632  0.358619  0.443608  1
  O  O6  1  0.132592  0.156072  0.817988  1
  O  O7  1  0.311421  0.921000  0.173290  1
  O  O8  1  0.074572  0.672720  0.539994  1
  O  O9  1  0.663087  0.680905  0.036927  1
  O  O10  1  0.675448  0.116449  0.295826  1
  O  O11  1  0.938950  0.375396  0.159625  1
  O  O12  1  0.611659  0.158010  0.564704  1
  O  O13  1  0.627956  0.624695  0.311327  1
  O  O14  1  0.323632  0.930533  0.443608  1
  O  O15  1  0.132592  0.575359  0.817988  1
  O  O16  1  0.372955  0.876252  0.687270  1
  O  O17  1  0.322500  0.343023  0.976541  1
  O  O18  1  0.618541  0.098302  0.842428  1
  O  O19  1  0.611659  0.600924  0.564704  1
  O  O20  1  0.974089  0.310628  0.452328  1
  O  O21  1  0.938950  0.866404  0.159625  1
  O  O22  1  0.922690  0.337338  0.663143  1
  O  O23  1  0.640737  0.614901  0.814730  1
  O  O24  1  0.322500  0.881394  0.976541  1
  O  O25  1  0.922690  0.913685  0.663143  1
  O  O26  1  0.894331  0.302861  -0.000026  1
  Tb  Tb27  1  0.551122  0.996925  0.231047  1
  Tb  Tb28  1  0.551122  0.489860  0.231047  1
  Tb  Tb29  1  0.540297  0.983103  0.496749  1
  Tb  Tb30  1  0.462013  0.528073  0.490920  1
  Tb  Tb31  1  0.507291  0.989021  0.753649  1
  Tb  Tb32  1  0.507291  0.496390  0.753649  1
  Tb  Tb33  1  0.999553  0.482586  0.267637  1
  Tb  Tb34  1  0.533381  0.480475  0.002834  1
  Tb  Tb35  1  0.013622  0.967150  0.776039  1
  Tb  Tb36  1  0.992068  0.520885  0.733081  1
  Ti  Ti37  1  0.027856  0.997447  0.994537  1
  Ti  Ti38  1  0.027856  0.485622  0.994537  1
  Ti  Ti39  1  0.502691  0.992147  0.006507  1
  Ti  Ti40  1  0.996209  0.994432  0.257464  1
  Ti  Ti41  1  0.016287  0.001059  0.504249  1
  Ti  Ti42  1  0.016287  0.474157  0.504249  1
