# generated using pymatgen
data_K2Re3CS5N
_symmetry_space_group_name_H-M   'P 1'
_cell_length_a   9.34913771
_cell_length_b   10.33102483
_cell_length_c   11.47753026
_cell_angle_alpha   90.00000000
_cell_angle_beta   90.00000000
_cell_angle_gamma   90.00000000
_symmetry_Int_Tables_number   1
_chemical_formula_structural   K2Re3CS5N
_chemical_formula_sum   'K8 Re12 C4 S20 N4'
_cell_volume   1108.57073273
_cell_formula_units_Z   4
loop_
 _symmetry_equiv_pos_site_id
 _symmetry_equiv_pos_as_xyz
  1  'x, y, z'
loop_
 _atom_site_type_symbol
 _atom_site_label
 _atom_site_symmetry_multiplicity
 _atom_site_fract_x
 _atom_site_fract_y
 _atom_site_fract_z
 _atom_site_occupancy
  C  C0  1  0.169398  0.761196  0.500000  1
  C  C1  1  0.169398  0.738804  0.000000  1
  C  C2  1  0.830602  0.238804  0.500000  1
  C  C3  1  0.830602  0.261196  0.000000  1
  K  K4  1  0.047508  0.750000  0.250000  1
  K  K5  1  0.047508  0.750000  0.750000  1
  K  K6  1  0.221301  0.074230  0.000000  1
  K  K7  1  0.221301  0.425770  0.500000  1
  K  K8  1  0.778699  0.574230  0.500000  1
  K  K9  1  0.778699  0.925770  0.000000  1
  K  K10  1  0.952492  0.250000  0.250000  1
  K  K11  1  0.952492  0.250000  0.750000  1
  N  N12  1  0.082472  0.822291  0.000000  1
  N  N13  1  0.082472  0.677709  0.500000  1
  N  N14  1  0.917528  0.177709  0.000000  1
  N  N15  1  0.917528  0.322291  0.500000  1
  Re  Re16  1  0.337929  0.604684  0.000000  1
  Re  Re17  1  0.337929  0.895316  0.500000  1
  Re  Re18  1  0.417702  0.105856  0.385280  1
  Re  Re19  1  0.417702  0.105856  0.614720  1
  Re  Re20  1  0.417702  0.394144  0.114720  1
  Re  Re21  1  0.417702  0.394144  0.885280  1
  Re  Re22  1  0.582298  0.605856  0.114720  1
  Re  Re23  1  0.582298  0.605856  0.885280  1
  Re  Re24  1  0.582298  0.894144  0.385280  1
  Re  Re25  1  0.582298  0.894144  0.614720  1
  Re  Re26  1  0.662072  0.104684  0.500000  1
  Re  Re27  1  0.662072  0.395316  0.000000  1
  S  S28  1  0.198536  0.091548  0.500000  1
  S  S29  1  0.198536  0.408452  0.000000  1
  S  S30  1  0.287818  0.250000  0.250000  1
  S  S31  1  0.287818  0.250000  0.750000  1
  S  S32  1  0.351899  0.593229  0.788297  1
  S  S33  1  0.351899  0.906771  0.711703  1
  S  S34  1  0.351899  0.593229  0.211703  1
  S  S35  1  0.351899  0.906771  0.288297  1
  S  S36  1  0.494738  0.712256  0.500000  1
  S  S37  1  0.494738  0.787744  0.000000  1
  S  S38  1  0.505262  0.212256  0.000000  1
  S  S39  1  0.505262  0.287744  0.500000  1
  S  S40  1  0.648101  0.093229  0.288297  1
  S  S41  1  0.648101  0.093229  0.711703  1
  S  S42  1  0.648101  0.406771  0.788297  1
  S  S43  1  0.648101  0.406771  0.211703  1
  S  S44  1  0.712182  0.750000  0.250000  1
  S  S45  1  0.712182  0.750000  0.750000  1
  S  S46  1  0.801464  0.591548  0.000000  1
  S  S47  1  0.801464  0.908452  0.500000  1
