# generated using pymatgen
data_Lu6Ni2Sn
_symmetry_space_group_name_H-M   'P 1'
_cell_length_a   8.22815627
_cell_length_b   8.22815628
_cell_length_c   8.22815627
_cell_angle_alpha   105.62752501
_cell_angle_beta   110.23414485
_cell_angle_gamma   112.62884665
_symmetry_Int_Tables_number   1
_chemical_formula_structural   Lu6Ni2Sn
_chemical_formula_sum   'Lu12 Ni4 Sn2'
_cell_volume   427.19493061
_cell_formula_units_Z   2
loop_
 _symmetry_equiv_pos_site_id
 _symmetry_equiv_pos_as_xyz
  1  'x, y, z'
loop_
 _atom_site_type_symbol
 _atom_site_label
 _atom_site_symmetry_multiplicity
 _atom_site_fract_x
 _atom_site_fract_y
 _atom_site_fract_z
 _atom_site_occupancy
  Ni  Ni0  1  0.849033  0.500000  0.349033  1
  Ni  Ni1  1  0.150967  0.500000  0.650967  1
  Ni  Ni2  1  0.000000  0.124524  0.124524  1
  Ni  Ni3  1  0.000000  0.875476  0.875476  1
  Sn  Sn4  1  0.500000  0.500000  0.000000  1
  Sn  Sn5  1  0.500000  0.000000  0.500000  1
  Lu  Lu6  1  0.191719  0.517531  0.325812  1
  Lu  Lu7  1  0.191719  0.865907  0.674188  1
  Lu  Lu8  1  0.608605  0.791554  0.817051  1
  Lu  Lu9  1  0.974503  0.791554  0.182949  1
  Lu  Lu10  1  0.025497  0.208446  0.817051  1
  Lu  Lu11  1  0.391395  0.208446  0.182949  1
  Lu  Lu12  1  0.808281  0.134093  0.325812  1
  Lu  Lu13  1  0.808281  0.482469  0.674188  1
  Lu  Lu14  1  0.293430  0.734324  0.027754  1
  Lu  Lu15  1  0.706570  0.265676  0.972246  1
  Lu  Lu16  1  0.293430  0.265676  0.559107  1
  Lu  Lu17  1  0.706570  0.734324  0.440893  1
