# generated using pymatgen
data_Mn(PbO2)2
_symmetry_space_group_name_H-M   'P 1'
_cell_length_a   5.24550138
_cell_length_b   13.08537885
_cell_length_c   13.08537885
_cell_angle_alpha   90.00000000
_cell_angle_beta   90.00000000
_cell_angle_gamma   90.00000000
_symmetry_Int_Tables_number   1
_chemical_formula_structural   Mn(PbO2)2
_chemical_formula_sum   'Mn8 Pb16 O32'
_cell_volume   898.17219732
_cell_formula_units_Z   8
loop_
 _symmetry_equiv_pos_site_id
 _symmetry_equiv_pos_as_xyz
  1  'x, y, z'
loop_
 _atom_site_type_symbol
 _atom_site_label
 _atom_site_symmetry_multiplicity
 _atom_site_fract_x
 _atom_site_fract_y
 _atom_site_fract_z
 _atom_site_occupancy
  O  O0  1  0.099919  0.057937  0.773513  1
  O  O1  1  0.099919  0.942063  0.226487  1
  O  O2  1  0.900081  0.226487  0.057937  1
  O  O3  1  0.900081  0.773513  0.942063  1
  O  O4  1  0.599919  0.726487  0.442063  1
  O  O5  1  0.400081  0.442063  0.273513  1
  O  O6  1  0.400081  0.557937  0.726487  1
  O  O7  1  0.599919  0.273513  0.557937  1
  O  O8  1  0.926904  0.256513  0.823948  1
  O  O9  1  0.926904  0.743487  0.176052  1
  O  O10  1  0.073096  0.176052  0.256513  1
  O  O11  1  0.073096  0.823948  0.743487  1
  O  O12  1  0.426904  0.676052  0.243487  1
  O  O13  1  0.573096  0.243487  0.323948  1
  O  O14  1  0.573096  0.756513  0.676052  1
  O  O15  1  0.426904  0.323948  0.756513  1
  O  O16  1  0.933299  0.641267  0.779661  1
  O  O17  1  0.933299  0.358733  0.220339  1
  O  O18  1  0.066701  0.220339  0.641267  1
  O  O19  1  0.066701  0.779661  0.358733  1
  O  O20  1  0.433298  0.720339  0.858733  1
  O  O21  1  0.566701  0.858733  0.279661  1
  O  O22  1  0.566701  0.141267  0.720339  1
  O  O23  1  0.433298  0.279661  0.141267  1
  O  O24  1  0.154887  0.314855  0.412544  1
  O  O25  1  0.845113  0.412544  0.685145  1
  O  O26  1  0.845113  0.587456  0.314855  1
  O  O27  1  0.154887  0.685145  0.587456  1
  O  O28  1  0.345113  0.814855  0.087456  1
  O  O29  1  0.345113  0.185145  0.912544  1
  O  O30  1  0.654887  0.087456  0.185145  1
  O  O31  1  0.654887  0.912544  0.814855  1
  Mn  Mn32  1  0.760650  0.771036  0.806190  1
  Mn  Mn33  1  0.760650  0.228964  0.193810  1
  Mn  Mn34  1  0.239350  0.193810  0.771036  1
  Mn  Mn35  1  0.239350  0.806190  0.228964  1
  Mn  Mn36  1  0.260650  0.693810  0.728964  1
  Mn  Mn37  1  0.739350  0.728964  0.306190  1
  Mn  Mn38  1  0.739350  0.271036  0.693810  1
  Mn  Mn39  1  0.260650  0.306190  0.271036  1
  Pb  Pb40  1  0.293535  0.827385  0.505771  1
  Pb  Pb41  1  0.293535  0.172615  0.494229  1
  Pb  Pb42  1  0.706465  0.494229  0.827385  1
  Pb  Pb43  1  0.706465  0.505771  0.172615  1
  Pb  Pb44  1  0.793535  0.994229  0.672615  1
  Pb  Pb45  1  0.206465  0.672615  0.005771  1
  Pb  Pb46  1  0.206465  0.327385  0.994229  1
  Pb  Pb47  1  0.793535  0.005771  0.327385  1
  Pb  Pb48  1  0.743338  0.623382  0.579572  1
  Pb  Pb49  1  0.743338  0.376618  0.420428  1
  Pb  Pb50  1  0.256662  0.420428  0.623382  1
  Pb  Pb51  1  0.256662  0.579572  0.376618  1
  Pb  Pb52  1  0.243338  0.920428  0.876618  1
  Pb  Pb53  1  0.756662  0.876618  0.079572  1
  Pb  Pb54  1  0.756662  0.123382  0.920428  1
  Pb  Pb55  1  0.243338  0.079572  0.123382  1
