# generated using pymatgen
data_Mn3B7IO13
_symmetry_space_group_name_H-M   'P 1'
_cell_length_a   8.79945990
_cell_length_b   8.86159985
_cell_length_c   12.49764074
_cell_angle_alpha   90.00000000
_cell_angle_beta   90.00000000
_cell_angle_gamma   90.00000000
_symmetry_Int_Tables_number   1
_chemical_formula_structural   Mn3B7IO13
_chemical_formula_sum   'Mn12 B28 I4 O52'
_cell_volume   974.53218792
_cell_formula_units_Z   4
loop_
 _symmetry_equiv_pos_site_id
 _symmetry_equiv_pos_as_xyz
  1  'x, y, z'
loop_
 _atom_site_type_symbol
 _atom_site_label
 _atom_site_symmetry_multiplicity
 _atom_site_fract_x
 _atom_site_fract_y
 _atom_site_fract_z
 _atom_site_occupancy
  B  B0  1  0.503475  0.998707  0.242231  1
  B  B1  1  0.097178  0.257601  0.820330  1
  B  B2  1  0.902821  0.742400  0.320331  1
  B  B3  1  0.902821  0.757601  0.820330  1
  B  B4  1  0.097178  0.242399  0.320331  1
  B  B5  1  0.250073  0.406361  0.669439  1
  B  B6  1  0.749926  0.593638  0.169439  1
  B  B7  1  0.749926  0.906361  0.669439  1
  B  B8  1  0.250073  0.093638  0.169439  1
  B  B9  1  0.599118  0.742728  0.320943  1
  B  B10  1  0.400882  0.257272  0.820942  1
  B  B11  1  0.400882  0.242728  0.320943  1
  B  B12  1  0.599118  0.757273  0.820942  1
  B  B13  1  0.750510  0.949777  0.142198  1
  B  B14  1  0.249489  0.050224  0.642198  1
  B  B15  1  0.249489  0.449777  0.142198  1
  B  B16  1  0.503475  0.501293  0.742232  1
  B  B17  1  0.496524  0.498707  0.242231  1
  B  B18  1  0.496524  0.001293  0.742232  1
  B  B19  1  0.750510  0.550224  0.642198  1
  B  B20  1  0.753332  0.742971  0.493818  1
  B  B21  1  0.246668  0.257029  0.993818  1
  B  B22  1  0.246668  0.242971  0.493818  1
  B  B23  1  0.753332  0.757029  0.993818  1
  B  B24  1  0.002820  0.001573  0.740206  1
  B  B25  1  0.997180  0.998427  0.240207  1
  B  B26  1  0.997180  0.501573  0.740206  1
  B  B27  1  0.002820  0.498427  0.240207  1
  O  O28  1  0.055191  0.097307  0.830086  1
  O  O29  1  0.406465  0.043928  0.151674  1
  O  O30  1  0.593535  0.956071  0.651674  1
  O  O31  1  0.593535  0.543928  0.151674  1
  O  O32  1  0.406465  0.456072  0.651674  1
  O  O33  1  0.092932  0.461885  0.141174  1
  O  O34  1  0.907067  0.538115  0.641174  1
  O  O35  1  0.907067  0.961885  0.141174  1
  O  O36  1  0.092932  0.038115  0.641174  1
  O  O37  1  0.462737  0.089464  0.336777  1
  O  O38  1  0.537263  0.910536  0.836777  1
  O  O39  1  0.537263  0.589463  0.336777  1
  O  O40  1  0.462737  0.410536  0.836777  1
  O  O41  1  0.055191  0.402693  0.330085  1
  O  O42  1  0.944809  0.597306  0.830086  1
  O  O43  1  0.944809  0.902693  0.330085  1
  O  O44  1  0.750312  0.774780  0.753793  1
  O  O45  1  0.249688  0.225221  0.253794  1
  O  O46  1  0.249688  0.274779  0.753793  1
  O  O47  1  0.750312  0.725221  0.253794  1
  O  O48  1  0.666877  0.466354  0.714830  1
  O  O49  1  0.333122  0.533646  0.214830  1
  O  O50  1  0.333122  0.966354  0.714830  1
  O  O51  1  0.666877  0.033647  0.214830  1
  O  O52  1  0.677205  0.620488  0.557867  1
  O  O53  1  0.322794  0.379512  0.057867  1
  O  O54  1  0.322794  0.120488  0.557867  1
  O  O55  1  0.677205  0.879512  0.057867  1
  O  O56  1  0.841463  0.029898  0.715502  1
  O  O57  1  0.158537  0.970101  0.215502  1
  O  O58  1  0.158537  0.529898  0.715502  1
  O  O59  1  0.841463  0.470102  0.215502  1
  O  O60  1  0.637948  0.687690  0.923631  1
  O  O61  1  0.362052  0.312309  0.423632  1
  O  O62  1  0.362052  0.187691  0.923631  1
  O  O63  1  0.637948  0.812309  0.423632  1
  O  O64  1  0.023711  0.840808  0.766333  1
  O  O65  1  0.976289  0.159191  0.266333  1
  O  O66  1  0.976289  0.340809  0.766333  1
  O  O67  1  0.023711  0.659191  0.266333  1
  O  O68  1  0.816975  0.858067  0.567080  1
  O  O69  1  0.183025  0.141934  0.067080  1
  O  O70  1  0.183025  0.358067  0.567080  1
  O  O71  1  0.816975  0.641934  0.067080  1
  O  O72  1  0.874742  0.678080  0.427220  1
  O  O73  1  0.512725  0.335894  0.263874  1
  O  O74  1  0.512725  0.164106  0.763874  1
  O  O75  1  0.487275  0.835894  0.263874  1
  O  O76  1  0.874742  0.821919  0.927220  1
  O  O77  1  0.125258  0.178080  0.427220  1
  O  O78  1  0.125258  0.321920  0.927220  1
  O  O79  1  0.487275  0.664106  0.763874  1
  Mn  Mn80  1  0.747924  0.242068  0.755048  1
  Mn  Mn81  1  0.252076  0.757932  0.255048  1
  Mn  Mn82  1  0.252076  0.742068  0.755048  1
  Mn  Mn83  1  0.747924  0.257932  0.255048  1
  Mn  Mn84  1  0.979225  0.498734  0.986295  1
  Mn  Mn85  1  0.020775  0.501266  0.486295  1
  Mn  Mn86  1  0.020775  0.998734  0.986295  1
  Mn  Mn87  1  0.979225  0.001266  0.486295  1
  Mn  Mn88  1  0.479454  0.502033  0.490452  1
  Mn  Mn89  1  0.520546  0.002033  0.490452  1
  Mn  Mn90  1  0.520546  0.497968  0.990453  1
  Mn  Mn91  1  0.479454  0.997968  0.990453  1
  I  I92  1  0.749227  0.248844  0.490197  1
  I  I93  1  0.250774  0.751155  0.990197  1
  I  I94  1  0.250774  0.748844  0.490197  1
  I  I95  1  0.749227  0.251156  0.990197  1
