# generated using pymatgen
data_NaPF3
_symmetry_space_group_name_H-M   'P 1'
_cell_length_a   5.45580350
_cell_length_b   5.33990462
_cell_length_c   5.19103609
_cell_angle_alpha   64.42990990
_cell_angle_beta   58.32240683
_cell_angle_gamma   59.57196774
_symmetry_Int_Tables_number   1
_chemical_formula_structural   NaPF3
_chemical_formula_sum   'Na1 P1 F3'
_cell_volume   108.11032399
_cell_formula_units_Z   1
loop_
 _symmetry_equiv_pos_site_id
 _symmetry_equiv_pos_as_xyz
  1  'x, y, z'
loop_
 _atom_site_type_symbol
 _atom_site_label
 _atom_site_symmetry_multiplicity
 _atom_site_fract_x
 _atom_site_fract_y
 _atom_site_fract_z
 _atom_site_occupancy
  F  F0  1  0.369384  0.751416  0.181187  1
  F  F1  1  0.808752  0.261994  0.655560  1
  F  F2  1  0.687920  0.760905  0.357045  1
  Na  Na3  1  0.002914  0.035727  0.008109  1
  P  P4  1  0.581031  0.489958  0.423098  1
