# generated using pymatgen
data_Te8Ir3
_symmetry_space_group_name_H-M   'P 1'
_cell_length_a   19.56400530
_cell_length_b   9.21498718
_cell_length_c   9.14986281
_cell_angle_alpha   60.23450570
_cell_angle_beta   45.42627332
_cell_angle_gamma   44.89216475
_symmetry_Int_Tables_number   1
_chemical_formula_structural   Te8Ir3
_chemical_formula_sum   'Te24 Ir9'
_cell_volume   829.32521656
_cell_formula_units_Z   3
loop_
 _symmetry_equiv_pos_site_id
 _symmetry_equiv_pos_as_xyz
  1  'x, y, z'
loop_
 _atom_site_type_symbol
 _atom_site_label
 _atom_site_symmetry_multiplicity
 _atom_site_fract_x
 _atom_site_fract_y
 _atom_site_fract_z
 _atom_site_occupancy
  Ir  Ir0  1  0.000796  0.000673  0.995589  1
  Ir  Ir1  1  0.333333  1.000000  0.500000  1
  Ir  Ir2  1  0.333333  0.500000  0.000000  1
  Ir  Ir3  1  0.665871  0.999327  0.004411  1
  Ir  Ir4  1  0.333333  0.500000  0.500000  1
  Ir  Ir5  1  0.667566  0.999389  0.498905  1
  Ir  Ir6  1  0.667281  0.499489  0.002594  1
  Ir  Ir7  1  0.999101  0.000611  0.501095  1
  Ir  Ir8  1  0.999385  0.500511  0.997406  1
  Te  Te9  1  0.039107  0.129136  0.624698  1
  Te  Te10  1  0.125585  0.360763  0.123672  1
  Te  Te11  1  0.211928  0.365738  0.359990  1
  Te  Te12  1  0.124918  0.124422  0.872294  1
  Te  Te13  1  0.208678  0.870868  0.139839  1
  Te  Te14  1  0.125339  0.623143  0.622232  1
  Te  Te15  1  0.370932  0.130912  0.634905  1
  Te  Te16  1  0.459256  0.381060  0.121268  1
  Te  Te17  1  0.207411  0.618940  0.878732  1
  Te  Te18  1  0.295734  0.869088  0.365095  1
  Te  Te19  1  0.541328  0.376856  0.377767  1
  Te  Te20  1  0.457988  0.129132  0.860161  1
  Te  Te21  1  0.541748  0.875578  0.127706  1
  Te  Te22  1  0.454739  0.634262  0.640010  1
  Te  Te23  1  0.704867  0.129392  0.626001  1
  Te  Te24  1  0.793045  0.368501  0.130805  1
  Te  Te25  1  0.541082  0.639237  0.876328  1
  Te  Te26  1  0.627559  0.870864  0.375302  1
  Te  Te27  1  0.876205  0.373961  0.367616  1
  Te  Te28  1  0.788499  0.132083  0.871229  1
  Te  Te29  1  0.878167  0.867918  0.128771  1
  Te  Te30  1  0.790462  0.626040  0.632384  1
  Te  Te31  1  0.873622  0.631499  0.869195  1
  Te  Te32  1  0.961800  0.870608  0.373999  1
