# generated using pymatgen
data_Pr4Se3N2
_symmetry_space_group_name_H-M   'P 1'
_cell_length_a   6.55680963
_cell_length_b   8.40745897
_cell_length_c   8.40745898
_cell_angle_alpha   75.65858979
_cell_angle_beta   90.17804909
_cell_angle_gamma   90.17804907
_symmetry_Int_Tables_number   1
_chemical_formula_structural   Pr4Se3N2
_chemical_formula_sum   'Pr8 Se6 N4'
_cell_volume   449.02386729
_cell_formula_units_Z   2
loop_
 _symmetry_equiv_pos_site_id
 _symmetry_equiv_pos_as_xyz
  1  'x, y, z'
loop_
 _atom_site_type_symbol
 _atom_site_label
 _atom_site_symmetry_multiplicity
 _atom_site_fract_x
 _atom_site_fract_y
 _atom_site_fract_z
 _atom_site_occupancy
  N  N0  1  0.585215  0.829540  0.581401  1
  N  N1  1  0.085215  0.581401  0.829540  1
  N  N2  1  0.414785  0.170460  0.418599  1
  N  N3  1  0.914785  0.418599  0.170460  1
  Se  Se4  1  0.964866  0.984312  0.247063  1
  Se  Se5  1  0.750000  0.402734  0.597266  1
  Se  Se6  1  0.535134  0.752937  0.015688  1
  Se  Se7  1  0.035134  0.015688  0.752937  1
  Se  Se8  1  0.250000  0.597266  0.402734  1
  Se  Se9  1  0.464866  0.247063  0.984312  1
  Pr  Pr10  1  0.427842  0.585259  0.744308  1
  Pr  Pr11  1  0.072158  0.255692  0.414741  1
  Pr  Pr12  1  0.572158  0.414741  0.255692  1
  Pr  Pr13  1  0.927842  0.744308  0.585259  1
  Pr  Pr14  1  0.469903  0.943129  0.309861  1
  Pr  Pr15  1  0.030097  0.690139  0.056871  1
  Pr  Pr16  1  0.530097  0.056871  0.690139  1
  Pr  Pr17  1  0.969903  0.309861  0.943129  1
