# generated using pymatgen
data_K2CoO2
_symmetry_space_group_name_H-M   'P 1'
_cell_length_a   6.66130719
_cell_length_b   7.04640793
_cell_length_c   9.59295065
_cell_angle_alpha   90.00000000
_cell_angle_beta   90.00000000
_cell_angle_gamma   117.93201658
_symmetry_Int_Tables_number   1
_chemical_formula_structural   K2CoO2
_chemical_formula_sum   'K8 Co4 O8'
_cell_volume   397.82125359
_cell_formula_units_Z   4
loop_
 _symmetry_equiv_pos_site_id
 _symmetry_equiv_pos_as_xyz
  1  'x, y, z'
loop_
 _atom_site_type_symbol
 _atom_site_label
 _atom_site_symmetry_multiplicity
 _atom_site_fract_x
 _atom_site_fract_y
 _atom_site_fract_z
 _atom_site_occupancy
  O  O0  1  0.953657  0.264919  0.649269  1
  O  O1  1  0.510652  0.306045  0.982955  1
  O  O2  1  0.489347  0.193955  0.482955  1
  O  O3  1  0.953657  0.764919  0.850731  1
  O  O4  1  0.489346  0.693955  0.017045  1
  O  O5  1  0.046344  0.735080  0.350731  1
  O  O6  1  0.046343  0.235081  0.149269  1
  O  O7  1  0.510653  0.806044  0.517045  1
  K  K8  1  0.242454  0.130665  0.736108  1
  K  K9  1  0.242454  0.630664  0.763892  1
  K  K10  1  0.757547  0.869337  0.263892  1
  K  K11  1  0.217763  0.392993  0.413259  1
  K  K12  1  0.782237  0.107007  0.913259  1
  K  K13  1  0.782237  0.607007  0.586741  1
  K  K14  1  0.757546  0.369335  0.236108  1
  K  K15  1  0.217763  0.892994  0.086741  1
  Co  Co16  1  0.308446  0.400640  0.065048  1
  Co  Co17  1  0.691554  0.599361  0.934952  1
  Co  Co18  1  0.308446  0.900640  0.434952  1
  Co  Co19  1  0.691554  0.099359  0.565048  1
