# generated using pymatgen
data_P2Pb8O13
_symmetry_space_group_name_H-M   'P 1'
_cell_length_a   7.56432161
_cell_length_b   7.56432161
_cell_length_c   14.69033951
_cell_angle_alpha   84.10290785
_cell_angle_beta   84.10290785
_cell_angle_gamma   87.67349060
_symmetry_Int_Tables_number   1
_chemical_formula_structural   P2Pb8O13
_chemical_formula_sum   'P4 Pb16 O26'
_cell_volume   831.30966345
_cell_formula_units_Z   2
loop_
 _symmetry_equiv_pos_site_id
 _symmetry_equiv_pos_as_xyz
  1  'x, y, z'
loop_
 _atom_site_type_symbol
 _atom_site_label
 _atom_site_symmetry_multiplicity
 _atom_site_fract_x
 _atom_site_fract_y
 _atom_site_fract_z
 _atom_site_occupancy
  O  O0  1  0.073929  0.736945  0.563290  1
  O  O1  1  0.263055  0.926071  0.436710  1
  O  O2  1  0.926071  0.263055  0.436710  1
  O  O3  1  0.736945  0.073929  0.563290  1
  O  O4  1  0.700622  0.700622  0.139689  1
  O  O5  1  0.299378  0.299378  0.860311  1
  O  O6  1  0.976655  0.220955  0.863412  1
  O  O7  1  0.779045  0.023345  0.136588  1
  O  O8  1  0.023345  0.779045  0.136588  1
  O  O9  1  0.220955  0.976655  0.863412  1
  O  O10  1  0.853753  0.853753  0.993164  1
  O  O11  1  0.146247  0.146247  0.006836  1
  O  O12  1  0.673400  0.390564  0.792955  1
  O  O13  1  0.609436  0.326600  0.207045  1
  O  O14  1  0.326600  0.609436  0.207045  1
  O  O15  1  0.390564  0.673400  0.792955  1
  O  O16  1  0.272781  0.272781  0.336781  1
  O  O17  1  0.727219  0.727219  0.663219  1
  O  O18  1  0.732079  0.411705  0.561604  1
  O  O19  1  0.588295  0.267921  0.438396  1
  O  O20  1  0.670313  0.953487  0.804913  1
  O  O21  1  0.046513  0.329687  0.195087  1
  O  O22  1  0.329687  0.046513  0.195087  1
  O  O23  1  0.953487  0.670313  0.804913  1
  O  O24  1  0.411705  0.732079  0.561604  1
  O  O25  1  0.267921  0.588295  0.438396  1
  P  P26  1  0.747482  0.252518  0.500000  1
  P  P27  1  0.252518  0.747482  0.500000  1
  P  P28  1  0.841113  0.841113  0.099837  1
  P  P29  1  0.158887  0.158887  0.900163  1
  Pb  Pb30  1  0.925522  0.454779  0.703498  1
  Pb  Pb31  1  0.545221  0.074478  0.296502  1
  Pb  Pb32  1  0.074478  0.545221  0.296502  1
  Pb  Pb33  1  0.454779  0.925522  0.703498  1
  Pb  Pb34  1  0.845713  0.324330  0.094335  1
  Pb  Pb35  1  0.675670  0.154287  0.905665  1
  Pb  Pb36  1  0.154287  0.675670  0.905665  1
  Pb  Pb37  1  0.324330  0.845713  0.094335  1
  Pb  Pb38  1  0.567519  0.567519  0.284443  1
  Pb  Pb39  1  0.432481  0.432481  0.715557  1
  Pb  Pb40  1  0.265696  0.265696  0.487007  1
  Pb  Pb41  1  0.734304  0.734304  0.512993  1
  Pb  Pb42  1  0.667304  0.667304  0.884214  1
  Pb  Pb43  1  0.332696  0.332696  0.115786  1
  Pb  Pb44  1  0.071977  0.071977  0.305453  1
  Pb  Pb45  1  0.928023  0.928023  0.694547  1
