# generated using pymatgen
data_RbBO2
_symmetry_space_group_name_H-M   'P 1'
_cell_length_a   8.13289887
_cell_length_b   8.13289888
_cell_length_c   8.13289887
_cell_angle_alpha   109.78813553
_cell_angle_beta   109.78813558
_cell_angle_gamma   109.78813555
_symmetry_Int_Tables_number   1
_chemical_formula_structural   RbBO2
_chemical_formula_sum   'Rb6 B6 O12'
_cell_volume   409.17755052
_cell_formula_units_Z   6
loop_
 _symmetry_equiv_pos_site_id
 _symmetry_equiv_pos_as_xyz
  1  'x, y, z'
loop_
 _atom_site_type_symbol
 _atom_site_label
 _atom_site_symmetry_multiplicity
 _atom_site_fract_x
 _atom_site_fract_y
 _atom_site_fract_z
 _atom_site_occupancy
  B  B0  1  0.859510  0.750000  0.640490  1
  B  B1  1  0.750000  0.640490  0.859510  1
  B  B2  1  0.640490  0.859510  0.750000  1
  B  B3  1  0.140490  0.250000  0.359510  1
  B  B4  1  0.250000  0.359510  0.140490  1
  B  B5  1  0.359510  0.140490  0.250000  1
  O  O6  1  0.459177  0.040823  0.250000  1
  O  O7  1  0.250000  0.459177  0.040823  1
  O  O8  1  0.040823  0.250000  0.459177  1
  O  O9  1  0.540823  0.959177  0.750000  1
  O  O10  1  0.750000  0.540823  0.959177  1
  O  O11  1  0.959177  0.750000  0.540823  1
  O  O12  1  0.354717  0.250000  0.145283  1
  O  O13  1  0.145283  0.354717  0.250000  1
  O  O14  1  0.250000  0.145283  0.354717  1
  O  O15  1  0.645283  0.750000  0.854717  1
  O  O16  1  0.854717  0.645283  0.750000  1
  O  O17  1  0.750000  0.854717  0.645283  1
  Rb  Rb18  1  0.190135  0.750000  0.309865  1
  Rb  Rb19  1  0.750000  0.309865  0.190135  1
  Rb  Rb20  1  0.309865  0.190135  0.750000  1
  Rb  Rb21  1  0.809865  0.250000  0.690135  1
  Rb  Rb22  1  0.250000  0.690135  0.809865  1
  Rb  Rb23  1  0.690135  0.809865  0.250000  1
