# generated using pymatgen
data_PrSi2Ru
_symmetry_space_group_name_H-M   'P 1'
_cell_length_a   4.09836018
_cell_length_b   4.52086361
_cell_length_c   8.34511755
_cell_angle_alpha   102.09593446
_cell_angle_beta   90.00000000
_cell_angle_gamma   90.00000000
_symmetry_Int_Tables_number   1
_chemical_formula_structural   PrSi2Ru
_chemical_formula_sum   'Pr2 Si4 Ru2'
_cell_volume   151.18655774
_cell_formula_units_Z   2
loop_
 _symmetry_equiv_pos_site_id
 _symmetry_equiv_pos_as_xyz
  1  'x, y, z'
loop_
 _atom_site_type_symbol
 _atom_site_label
 _atom_site_symmetry_multiplicity
 _atom_site_fract_x
 _atom_site_fract_y
 _atom_site_fract_z
 _atom_site_occupancy
  Si  Si0  1  0.250000  0.668051  0.491709  1
  Si  Si1  1  0.750000  0.331949  0.508291  1
  Si  Si2  1  0.750000  0.964539  0.908629  1
  Si  Si3  1  0.250000  0.035461  0.091371  1
  Ru  Ru4  1  0.750000  0.879584  0.611737  1
  Ru  Ru5  1  0.250000  0.120416  0.388263  1
  Pr  Pr6  1  0.250000  0.413927  0.799810  1
  Pr  Pr7  1  0.750000  0.586073  0.200190  1
