# generated using pymatgen
data_Na10Mn4O9
_symmetry_space_group_name_H-M   'P 1'
_cell_length_a   8.90709334
_cell_length_b   8.87587460
_cell_length_c   8.87587459
_cell_angle_alpha   78.93891911
_cell_angle_beta   77.81298649
_cell_angle_gamma   77.81298997
_symmetry_Int_Tables_number   1
_chemical_formula_structural   Na10Mn4O9
_chemical_formula_sum   'Na20 Mn8 O18'
_cell_volume   662.42500346
_cell_formula_units_Z   2
loop_
 _symmetry_equiv_pos_site_id
 _symmetry_equiv_pos_as_xyz
  1  'x, y, z'
loop_
 _atom_site_type_symbol
 _atom_site_label
 _atom_site_symmetry_multiplicity
 _atom_site_fract_x
 _atom_site_fract_y
 _atom_site_fract_z
 _atom_site_occupancy
  Na  Na0  1  0.019859  0.268926  0.737550  1
  Na  Na1  1  0.111247  0.122922  0.438002  1
  Na  Na2  1  0.111247  0.438002  0.122922  1
  Na  Na3  1  0.269083  0.990943  0.730463  1
  Na  Na4  1  0.269083  0.730463  0.990943  1
  Na  Na5  1  0.186799  0.798639  0.540142  1
  Na  Na6  1  0.186799  0.540142  0.798639  1
  Na  Na7  1  0.446245  0.139033  0.139033  1
  Na  Na8  1  0.388694  0.219225  0.836610  1
  Na  Na9  1  0.388694  0.836610  0.219225  1
  Na  Na10  1  0.500559  0.499323  0.499323  1
  Na  Na11  1  0.735154  0.260744  0.995733  1
  Na  Na12  1  0.746763  0.699499  0.144941  1
  Na  Na13  1  0.746763  0.144941  0.699499  1
  Na  Na14  1  0.564292  0.883930  0.883930  1
  Na  Na15  1  0.847476  0.281799  0.281799  1
  Na  Na16  1  0.735154  0.995733  0.260744  1
  Na  Na17  1  0.864761  0.550241  0.877817  1
  Na  Na18  1  0.864761  0.877817  0.550241  1
  Na  Na19  1  0.019859  0.737550  0.268926  1
  Mn  Mn20  1  0.092474  0.087571  0.087571  1
  Mn  Mn21  1  0.174320  0.468225  0.468225  1
  Mn  Mn22  1  0.465812  0.167069  0.474215  1
  Mn  Mn23  1  0.465812  0.474215  0.167069  1
  Mn  Mn24  1  0.530738  0.828337  0.534124  1
  Mn  Mn25  1  0.530738  0.534124  0.828337  1
  Mn  Mn26  1  0.839518  0.530103  0.530103  1
  Mn  Mn27  1  0.928679  0.900445  0.900445  1
  O  O28  1  0.012577  0.692184  0.012319  1
  O  O29  1  0.012577  0.012319  0.692184  1
  O  O30  1  0.007776  0.615385  0.615385  1
  O  O31  1  0.295969  0.615006  0.302894  1
  O  O32  1  0.295969  0.302894  0.615006  1
  O  O33  1  0.377533  0.401757  0.993108  1
  O  O34  1  0.377533  0.993108  0.401757  1
  O  O35  1  0.384074  0.697100  0.697100  1
  O  O36  1  0.710544  0.001440  0.001440  1
  O  O37  1  0.306952  0.990697  0.990697  1
  O  O38  1  0.593132  0.276801  0.276801  1
  O  O39  1  0.596509  0.002839  0.624529  1
  O  O40  1  0.596509  0.624529  0.002839  1
  O  O41  1  0.720246  0.398290  0.717139  1
  O  O42  1  0.720246  0.717139  0.398290  1
  O  O43  1  0.006576  0.388338  0.388338  1
  O  O44  1  0.984749  0.299712  0.999493  1
  O  O45  1  0.984749  0.999493  0.299712  1
