# generated using pymatgen
data_Li2Mn3(P2O7)2
_symmetry_space_group_name_H-M   'P 1'
_cell_length_a   5.67597746
_cell_length_b   7.02398472
_cell_length_c   7.52944529
_cell_angle_alpha   73.95902614
_cell_angle_beta   82.19296839
_cell_angle_gamma   67.45245800
_symmetry_Int_Tables_number   1
_chemical_formula_structural   Li2Mn3(P2O7)2
_chemical_formula_sum   'Li2 Mn3 P4 O14'
_cell_volume   266.29274716
_cell_formula_units_Z   1
loop_
 _symmetry_equiv_pos_site_id
 _symmetry_equiv_pos_as_xyz
  1  'x, y, z'
loop_
 _atom_site_type_symbol
 _atom_site_label
 _atom_site_symmetry_multiplicity
 _atom_site_fract_x
 _atom_site_fract_y
 _atom_site_fract_z
 _atom_site_occupancy
  Li  Li0  1  0.647546  0.026831  0.690806  1
  Li  Li1  1  0.352453  0.973169  0.309194  1
  O  O2  1  0.333662  0.269591  0.142347  1
  O  O3  1  0.943474  0.354196  0.444214  1
  O  O4  1  0.666339  0.730409  0.857655  1
  O  O5  1  0.168613  0.239661  0.854936  1
  O  O6  1  0.056524  0.645804  0.555786  1
  O  O7  1  0.831387  0.760340  0.145064  1
  O  O8  1  0.027356  0.937009  0.715725  1
  O  O9  1  0.261371  0.565749  0.860953  1
  O  O10  1  0.556385  0.262412  0.446223  1
  O  O11  1  0.972642  0.062992  0.284275  1
  O  O12  1  0.628304  0.227132  0.854294  1
  O  O13  1  0.443615  0.737588  0.553777  1
  O  O14  1  0.738628  0.434251  0.139047  1
  O  O15  1  0.371695  0.772868  0.145707  1
  P  P16  1  0.806563  0.266123  0.341352  1
  P  P17  1  0.650538  0.688288  0.066994  1
  P  P18  1  0.349462  0.311713  0.933007  1
  P  P19  1  0.193437  0.733877  0.658648  1
  Mn  Mn20  1  0.000000  0.000000  0.000000  1
  Mn  Mn21  1  0.205354  0.510421  0.314302  1
  Mn  Mn22  1  0.794647  0.489578  0.685699  1
