# generated using pymatgen
data_Na4Ge9O20
_symmetry_space_group_name_H-M   'P 1'
_cell_length_a   7.51088248
_cell_length_b   11.41774551
_cell_length_c   11.41774551
_cell_angle_alpha   83.78938429
_cell_angle_beta   70.79720725
_cell_angle_gamma   70.79720731
_symmetry_Int_Tables_number   1
_chemical_formula_structural   Na4Ge9O20
_chemical_formula_sum   'Na8 Ge18 O40'
_cell_volume   873.22701609
_cell_formula_units_Z   2
loop_
 _symmetry_equiv_pos_site_id
 _symmetry_equiv_pos_as_xyz
  1  'x, y, z'
loop_
 _atom_site_type_symbol
 _atom_site_label
 _atom_site_symmetry_multiplicity
 _atom_site_fract_x
 _atom_site_fract_y
 _atom_site_fract_z
 _atom_site_occupancy
  O  O0  1  0.650977  0.453777  0.236031  1
  O  O1  1  0.887008  0.263969  0.453777  1
  O  O2  1  0.604754  0.236031  0.046223  1
  O  O3  1  0.340785  0.046223  0.263969  1
  O  O4  1  0.349023  0.546223  0.763969  1
  O  O5  1  0.112992  0.736031  0.546223  1
  O  O6  1  0.395246  0.763969  0.953777  1
  O  O7  1  0.659215  0.953777  0.736031  1
  O  O8  1  0.266308  0.519647  0.428923  1
  O  O9  1  0.695230  0.071077  0.519647  1
  O  O10  1  0.285954  0.428923  0.980353  1
  O  O11  1  0.214877  0.980353  0.071077  1
  O  O12  1  0.733692  0.480353  0.571077  1
  O  O13  1  0.304770  0.928923  0.480353  1
  O  O14  1  0.714046  0.571077  0.019647  1
  O  O15  1  0.785123  0.019647  0.928923  1
  O  O16  1  0.280516  0.383131  0.238336  1
  O  O17  1  0.518851  0.261664  0.383131  1
  O  O18  1  0.163647  0.238336  0.116869  1
  O  O19  1  0.901983  0.116869  0.261664  1
  O  O20  1  0.719484  0.616869  0.761664  1
  O  O21  1  0.481149  0.738336  0.616869  1
  O  O22  1  0.836353  0.761664  0.883131  1
  O  O23  1  0.098017  0.883131  0.738336  1
  O  O24  1  0.333411  0.642019  0.197170  1
  O  O25  1  0.530581  0.302830  0.642019  1
  O  O26  1  0.336393  0.118681  0.696061  1
  O  O27  1  0.032455  0.803939  0.118681  1
  O  O28  1  0.955074  0.696061  0.381319  1
  O  O29  1  0.151135  0.381319  0.803939  1
  O  O30  1  0.663607  0.881319  0.303939  1
  O  O31  1  0.967545  0.196061  0.881319  1
  O  O32  1  0.044926  0.303939  0.618681  1
  O  O33  1  0.848865  0.618681  0.196061  1
  O  O34  1  0.827400  0.142019  0.697170  1
  O  O35  1  0.524570  0.802830  0.142019  1
  O  O36  1  0.469419  0.697170  0.357981  1
  O  O37  1  0.666589  0.357981  0.802830  1
  O  O38  1  0.172600  0.857981  0.302830  1
  O  O39  1  0.475430  0.197170  0.857981  1
  Na  Na40  1  0.256344  0.968972  0.857868  1
  Na  Na41  1  0.114212  0.642132  0.968972  1
  Na  Na42  1  0.725316  0.857868  0.531028  1
  Na  Na43  1  0.083183  0.531028  0.642132  1
  Na  Na44  1  0.743656  0.031028  0.142132  1
  Na  Na45  1  0.885788  0.357868  0.031028  1
  Na  Na46  1  0.274684  0.142132  0.468972  1
  Na  Na47  1  0.916817  0.468972  0.357868  1
  Ge  Ge48  1  0.436950  0.409777  0.315808  1
  Ge  Ge49  1  0.752759  0.184192  0.409777  1
  Ge  Ge50  1  0.346727  0.315808  0.090223  1
  Ge  Ge51  1  0.162536  0.090223  0.184192  1
  Ge  Ge52  1  0.563050  0.590223  0.684191  1
  Ge  Ge53  1  0.247241  0.815809  0.590223  1
  Ge  Ge54  1  0.653273  0.684191  0.909777  1
  Ge  Ge55  1  0.837464  0.909777  0.815809  1
  Ge  Ge56  1  0.875000  0.750000  0.250000  1
  Ge  Ge57  1  0.125000  0.250000  0.750000  1
  Ge  Ge58  1  0.586087  0.123016  0.686253  1
  Ge  Ge59  1  0.272340  0.813747  0.123016  1
  Ge  Ge60  1  0.209102  0.686253  0.376984  1
  Ge  Ge61  1  0.395356  0.376984  0.813747  1
  Ge  Ge62  1  0.413913  0.876984  0.313747  1
  Ge  Ge63  1  0.727660  0.186253  0.876984  1
  Ge  Ge64  1  0.790898  0.313747  0.623016  1
  Ge  Ge65  1  0.604644  0.623016  0.186253  1
