# generated using pymatgen
data_ZrP2S7
_symmetry_space_group_name_H-M   'P 1'
_cell_length_a   8.85943772
_cell_length_b   8.85952177
_cell_length_c   15.80628446
_cell_angle_alpha   98.58086332
_cell_angle_beta   98.58063718
_cell_angle_gamma   117.87929616
_symmetry_Int_Tables_number   1
_chemical_formula_structural   ZrP2S7
_chemical_formula_sum   'Zr4 P8 S28'
_cell_volume   1049.78916769
_cell_formula_units_Z   4
loop_
 _symmetry_equiv_pos_site_id
 _symmetry_equiv_pos_as_xyz
  1  'x, y, z'
loop_
 _atom_site_type_symbol
 _atom_site_label
 _atom_site_symmetry_multiplicity
 _atom_site_fract_x
 _atom_site_fract_y
 _atom_site_fract_z
 _atom_site_occupancy
  P  P0  1  0.510037  0.879574  0.634511  1
  P  P1  1  0.124474  0.254937  0.634511  1
  P  P2  1  0.489963  0.120426  0.365489  1
  P  P3  1  0.875526  0.745063  0.365489  1
  P  P4  1  0.379576  0.010047  0.134508  1
  P  P5  1  0.754932  0.624462  0.134508  1
  P  P6  1  0.620424  0.989953  0.865492  1
  P  P7  1  0.245068  0.375538  0.865492  1
  S  S8  1  0.645333  0.854679  0.750001  1
  S  S9  1  0.620556  0.123856  0.104275  1
  S  S10  1  0.516281  0.519582  0.895725  1
  S  S11  1  0.379444  0.876144  0.895725  1
  S  S12  1  0.812732  0.876357  0.143257  1
  S  S13  1  0.330525  0.766900  0.143257  1
  S  S14  1  0.187268  0.123643  0.856743  1
  S  S15  1  0.669475  0.233100  0.856743  1
  S  S16  1  0.821998  0.506140  0.039385  1
  S  S17  1  0.483719  0.480418  0.104275  1
  S  S18  1  0.178002  0.493860  0.960615  1
  S  S19  1  0.782613  0.966755  0.960615  1
  S  S20  1  0.993875  0.677994  0.460616  1
  S  S21  1  0.466741  0.282622  0.460616  1
  S  S22  1  0.006125  0.322006  0.539384  1
  S  S23  1  0.533259  0.717378  0.539384  1
  S  S24  1  0.623673  0.687265  0.356748  1
  S  S25  1  0.733075  0.169483  0.356748  1
  S  S26  1  0.376327  0.312735  0.643252  1
  S  S27  1  0.266925  0.830517  0.643252  1
  S  S28  1  0.019588  0.016296  0.395728  1
  S  S29  1  0.376140  0.879432  0.395728  1
  S  S30  1  0.980412  0.983703  0.604272  1
  S  S31  1  0.623860  0.120568  0.604272  1
  S  S32  1  0.354667  0.145321  0.249999  1
  S  S33  1  0.895332  0.604678  0.249999  1
  S  S34  1  0.217387  0.033245  0.039385  1
  S  S35  1  0.104668  0.395322  0.750001  1
  Zr  Zr36  1  0.263187  0.013187  0.526374  1
  Zr  Zr37  1  0.736813  0.986813  0.473626  1
  Zr  Zr38  1  0.486813  0.236813  0.973626  1
  Zr  Zr39  1  0.513187  0.763187  0.026374  1
