# generated using pymatgen
data_K3ErCl6
_symmetry_space_group_name_H-M   'P 1'
_cell_length_a   7.82128624
_cell_length_b   12.79713479
_cell_length_c   13.23078262
_cell_angle_alpha   110.06407930
_cell_angle_beta   90.00000000
_cell_angle_gamma   90.00000000
_symmetry_Int_Tables_number   1
_chemical_formula_structural   K3ErCl6
_chemical_formula_sum   'K12 Er4 Cl24'
_cell_volume   1243.89918253
_cell_formula_units_Z   4
loop_
 _symmetry_equiv_pos_site_id
 _symmetry_equiv_pos_as_xyz
  1  'x, y, z'
loop_
 _atom_site_type_symbol
 _atom_site_label
 _atom_site_symmetry_multiplicity
 _atom_site_fract_x
 _atom_site_fract_y
 _atom_site_fract_z
 _atom_site_occupancy
  Cl  Cl0  1  0.832155  0.649558  0.652036  1
  Cl  Cl1  1  0.332155  0.850442  0.347964  1
  Cl  Cl2  1  0.167845  0.350442  0.347964  1
  Cl  Cl3  1  0.667845  0.149558  0.652036  1
  Cl  Cl4  1  0.289987  0.574027  0.606138  1
  Cl  Cl5  1  0.789987  0.925973  0.393862  1
  Cl  Cl6  1  0.710013  0.425973  0.393862  1
  Cl  Cl7  1  0.210013  0.074027  0.606138  1
  Cl  Cl8  1  0.967856  0.357435  0.600055  1
  Cl  Cl9  1  0.467856  0.142565  0.399945  1
  Cl  Cl10  1  0.032144  0.642565  0.399945  1
  Cl  Cl11  1  0.532144  0.857435  0.600055  1
  Cl  Cl12  1  0.296759  0.393593  0.838528  1
  Cl  Cl13  1  0.796759  0.106407  0.161472  1
  Cl  Cl14  1  0.703241  0.606407  0.161472  1
  Cl  Cl15  1  0.203241  0.893593  0.838528  1
  Cl  Cl16  1  0.128582  0.190447  0.996903  1
  Cl  Cl17  1  0.628582  0.309553  0.003097  1
  Cl  Cl18  1  0.871418  0.809553  0.003097  1
  Cl  Cl19  1  0.371418  0.690447  0.996903  1
  Cl  Cl20  1  0.228745  1.001362  0.144684  1
  Cl  Cl21  1  0.728745  0.498638  0.855316  1
  Cl  Cl22  1  0.771255  -0.001362  0.855316  1
  Cl  Cl23  1  0.271255  0.501362  0.144684  1
  K  K24  1  0.424707  0.109560  0.823716  1
  K  K25  1  0.924707  0.390440  0.176284  1
  K  K26  1  0.575293  0.890440  0.176284  1
  K  K27  1  0.075293  0.609560  0.823716  1
  K  K28  1  0.945923  0.267228  0.810939  1
  K  K29  1  0.445923  0.232772  0.189061  1
  K  K30  1  0.054077  0.732772  0.189061  1
  K  K31  1  0.554077  0.767228  0.810939  1
  K  K32  1  0.536397  0.370418  0.608684  1
  K  K33  1  0.036397  0.129582  0.391316  1
  K  K34  1  0.463603  0.629582  0.391316  1
  K  K35  1  0.963603  0.870418  0.608684  1
  Er  Er36  1  0.000000  0.500000  0.500000  1
  Er  Er37  1  0.500000  0.000000  0.500000  1
  Er  Er38  1  0.500000  0.500000  0.000000  1
  Er  Er39  1  0.000000  0.000000  0.000000  1
