# generated using pymatgen
data_TlIO4
_symmetry_space_group_name_H-M   'P 1'
_cell_length_a   5.99764240
_cell_length_b   5.99764240
_cell_length_c   7.86525039
_cell_angle_alpha   112.41266458
_cell_angle_beta   112.41266465
_cell_angle_gamma   90.00000002
_symmetry_Int_Tables_number   1
_chemical_formula_structural   TlIO4
_chemical_formula_sum   'Tl2 I2 O8'
_cell_volume   238.27373176
_cell_formula_units_Z   2
loop_
 _symmetry_equiv_pos_site_id
 _symmetry_equiv_pos_as_xyz
  1  'x, y, z'
loop_
 _atom_site_type_symbol
 _atom_site_label
 _atom_site_symmetry_multiplicity
 _atom_site_fract_x
 _atom_site_fract_y
 _atom_site_fract_z
 _atom_site_occupancy
  O  O0  1  0.918486  0.330885  0.596515  1
  O  O1  1  0.265630  0.418486  0.096515  1
  O  O2  1  0.830885  0.178029  0.096515  1
  O  O3  1  0.678029  0.765630  0.596515  1
  O  O4  1  0.321971  0.234370  0.403485  1
  O  O5  1  0.169115  0.821971  0.903485  1
  O  O6  1  0.734370  0.581514  0.903485  1
  O  O7  1  0.081514  0.669115  0.403485  1
  I  I8  1  0.875000  0.625000  0.750000  1
  I  I9  1  0.125000  0.375000  0.250000  1
  Tl  Tl10  1  0.375000  0.125000  0.750000  1
  Tl  Tl11  1  0.625000  0.875000  0.250000  1
