# generated using pymatgen
data_Sr(CeSe2)2
_symmetry_space_group_name_H-M   'P 1'
_cell_length_a   7.85390083
_cell_length_b   7.85390107
_cell_length_c   7.85390095
_cell_angle_alpha   109.45282219
_cell_angle_beta   109.50802986
_cell_angle_gamma   109.45282230
_symmetry_Int_Tables_number   1
_chemical_formula_structural   Sr(CeSe2)2
_chemical_formula_sum   'Sr2 Ce4 Se8'
_cell_volume   372.93590770
_cell_formula_units_Z   2
loop_
 _symmetry_equiv_pos_site_id
 _symmetry_equiv_pos_as_xyz
  1  'x, y, z'
loop_
 _atom_site_type_symbol
 _atom_site_label
 _atom_site_symmetry_multiplicity
 _atom_site_fract_x
 _atom_site_fract_y
 _atom_site_fract_z
 _atom_site_occupancy
  Ce  Ce0  1  0.250000  0.626769  0.376769  1
  Ce  Ce1  1  0.750000  0.873231  0.123231  1
  Ce  Ce2  1  0.623231  0.373231  0.250000  1
  Ce  Ce3  1  0.876769  0.126769  0.750000  1
  Se  Se4  1  0.990344  0.845464  0.491294  1
  Se  Se5  1  0.991294  0.345464  0.490344  1
  Se  Se6  1  0.144880  0.154536  0.145831  1
  Se  Se7  1  0.355120  0.500950  0.009656  1
  Se  Se8  1  0.645831  0.654536  0.644880  1
  Se  Se9  1  0.509656  0.000950  0.855120  1
  Se  Se10  1  0.508706  0.999050  0.354169  1
  Se  Se11  1  0.854169  0.499050  0.008706  1
  Sr  Sr12  1  0.125000  0.750000  0.875000  1
  Sr  Sr13  1  0.375000  0.250000  0.625000  1
