# generated using pymatgen
data_ThFe3
_symmetry_space_group_name_H-M   'P 1'
_cell_length_a   8.86460517
_cell_length_b   8.86460517
_cell_length_c   8.86460517
_cell_angle_alpha   33.74468310
_cell_angle_beta   33.74468308
_cell_angle_gamma   33.74468312
_symmetry_Int_Tables_number   1
_chemical_formula_structural   ThFe3
_chemical_formula_sum   'Th3 Fe9'
_cell_volume   191.51931449
_cell_formula_units_Z   3
loop_
 _symmetry_equiv_pos_site_id
 _symmetry_equiv_pos_as_xyz
  1  'x, y, z'
loop_
 _atom_site_type_symbol
 _atom_site_label
 _atom_site_symmetry_multiplicity
 _atom_site_fract_x
 _atom_site_fract_y
 _atom_site_fract_z
 _atom_site_occupancy
  Fe  Fe0  1  0.500000  0.500000  0.500000  1
  Fe  Fe1  1  0.332475  0.332475  0.332475  1
  Fe  Fe2  1  0.667525  0.667525  0.667525  1
  Fe  Fe3  1  0.580532  0.082565  0.580532  1
  Fe  Fe4  1  0.580532  0.580532  0.082565  1
  Fe  Fe5  1  0.082565  0.580532  0.580532  1
  Fe  Fe6  1  0.917435  0.419468  0.419468  1
  Fe  Fe7  1  0.419468  0.917435  0.419468  1
  Fe  Fe8  1  0.419468  0.419468  0.917435  1
  Th  Th9  1  0.000000  0.000000  0.000000  1
  Th  Th10  1  0.140801  0.140801  0.140801  1
  Th  Th11  1  0.859199  0.859199  0.859199  1
