# generated using pymatgen
data_LiCr2(PO4)3
_symmetry_space_group_name_H-M   'P 1'
_cell_length_a   8.85914691
_cell_length_b   8.33113143
_cell_length_c   8.25773515
_cell_angle_alpha   119.40977189
_cell_angle_beta   89.93377532
_cell_angle_gamma   61.50006138
_symmetry_Int_Tables_number   1
_chemical_formula_structural   LiCr2(PO4)3
_chemical_formula_sum   'Li2 Cr4 P6 O24'
_cell_volume   443.97538518
_cell_formula_units_Z   2
loop_
 _symmetry_equiv_pos_site_id
 _symmetry_equiv_pos_as_xyz
  1  'x, y, z'
loop_
 _atom_site_type_symbol
 _atom_site_label
 _atom_site_symmetry_multiplicity
 _atom_site_fract_x
 _atom_site_fract_y
 _atom_site_fract_z
 _atom_site_occupancy
  Li  Li0  1  0.137252  0.933715  0.245880  1
  Li  Li1  1  0.862747  0.066286  0.754120  1
  O  O2  1  0.272757  0.633622  0.902023  1
  O  O3  1  0.799716  0.657135  0.174792  1
  O  O4  1  0.740542  0.998218  0.883779  1
  O  O5  1  0.895719  0.606477  0.776817  1
  O  O6  1  0.104280  0.393524  0.223184  1
  O  O7  1  0.202006  0.286989  0.465585  1
  O  O8  1  0.200283  0.342866  0.825208  1
  O  O9  1  0.102163  0.685980  0.171947  1
  O  O10  1  0.079886  0.768242  0.539159  1
  O  O11  1  0.433724  0.182057  0.195878  1
  O  O12  1  0.797994  0.713012  0.534415  1
  O  O13  1  0.431755  0.358879  0.989021  1
  O  O14  1  0.206849  0.973363  0.511081  1
  O  O15  1  0.920115  0.231758  0.460841  1
  O  O16  1  0.419364  0.574305  0.374636  1
  O  O17  1  0.259457  0.001783  0.116221  1
  O  O18  1  0.897838  0.314019  0.828053  1
  O  O19  1  0.580636  0.425696  0.625365  1
  O  O20  1  0.731159  0.156137  0.259344  1
  O  O21  1  0.793150  0.026637  0.488920  1
  O  O22  1  0.568246  0.641120  0.010979  1
  O  O23  1  0.727243  0.366379  0.097978  1
  O  O24  1  0.566277  0.817943  0.804121  1
  O  O25  1  0.268841  0.843863  0.740655  1
  P  P26  1  0.250397  0.499697  0.966630  1
  P  P27  1  0.248162  0.783965  0.536376  1
  P  P28  1  0.751837  0.216035  0.463625  1
  P  P29  1  0.749602  0.500304  0.033370  1
  P  P30  1  0.250266  0.218136  0.251789  1
  P  P31  1  0.749733  0.781865  0.748212  1
  Cr  Cr32  1  0.942041  0.702169  0.351222  1
  Cr  Cr33  1  0.430024  0.719278  0.857147  1
  Cr  Cr34  1  0.569975  0.280723  0.142854  1
  Cr  Cr35  1  0.057959  0.297832  0.648778  1
