# generated using pymatgen
data_Sm2S3
_symmetry_space_group_name_H-M   'P 1'
_cell_length_a   22.04158826
_cell_length_b   8.49252824
_cell_length_c   8.49252823
_cell_angle_alpha   89.99999723
_cell_angle_beta   54.69397078
_cell_angle_gamma   54.69397082
_symmetry_Int_Tables_number   1
_chemical_formula_structural   Sm2S3
_chemical_formula_sum   'Sm16 S24'
_cell_volume   915.92833314
_cell_formula_units_Z   8
loop_
 _symmetry_equiv_pos_site_id
 _symmetry_equiv_pos_as_xyz
  1  'x, y, z'
loop_
 _atom_site_type_symbol
 _atom_site_label
 _atom_site_symmetry_multiplicity
 _atom_site_fract_x
 _atom_site_fract_y
 _atom_site_fract_z
 _atom_site_occupancy
  S  S0  1  0.126602  0.487492  0.992030  1
  S  S1  1  0.049858  0.351924  0.495562  1
  S  S2  1  0.049858  0.998503  0.354865  1
  S  S3  1  0.283475  0.148076  0.145135  1
  S  S4  1  0.283475  0.501497  0.004438  1
  S  S5  1  0.126602  0.632704  0.628166  1
  S  S6  1  0.206732  0.012508  0.871834  1
  S  S7  1  0.206732  0.867296  0.507970  1
  S  S8  1  0.449726  0.495278  0.995846  1
  S  S9  1  0.383607  0.345022  0.504722  1
  S  S10  1  0.626602  0.128166  0.132704  1
  S  S11  1  0.383607  0.004154  0.344455  1
  S  S12  1  0.626602  0.492030  0.987492  1
  S  S13  1  0.449726  0.655545  0.654978  1
  S  S14  1  0.549858  0.995562  0.851924  1
  S  S15  1  0.549858  0.854865  0.498503  1
  S  S16  1  0.783475  0.504438  0.001497  1
  S  S17  1  0.706732  0.371834  0.512508  1
  S  S18  1  0.949726  0.154978  0.155545  1
  S  S19  1  0.706732  0.007970  0.367296  1
  S  S20  1  0.949726  0.495846  0.995278  1
  S  S21  1  0.883607  0.004722  0.845022  1
  S  S22  1  0.783475  0.645135  0.648076  1
  S  S23  1  0.883607  0.844455  0.504154  1
  Sm  Sm24  1  0.995074  0.394867  0.249123  1
  Sm  Sm25  1  0.995074  0.119911  0.765655  1
  Sm  Sm26  1  0.084826  0.622760  0.372760  1
  Sm  Sm27  1  0.166667  0.250000  0.630474  1
  Sm  Sm28  1  0.338259  0.380090  0.250877  1
  Sm  Sm29  1  0.248507  0.877240  0.127240  1
  Sm  Sm30  1  0.338259  0.105133  0.734345  1
  Sm  Sm31  1  0.166667  0.750000  0.869526  1
  Sm  Sm32  1  0.495074  0.265655  0.619911  1
  Sm  Sm33  1  0.666667  0.369526  0.250000  1
  Sm  Sm34  1  0.584826  0.872760  0.122760  1
  Sm  Sm35  1  0.495074  0.749123  0.894867  1
  Sm  Sm36  1  0.666667  0.130474  0.750000  1
  Sm  Sm37  1  0.748507  0.627240  0.377240  1
  Sm  Sm38  1  0.838259  0.234345  0.605133  1
  Sm  Sm39  1  0.838259  0.750877  0.880089  1
