# generated using pymatgen
data_Y2Au5F21
_symmetry_space_group_name_H-M   'P 1'
_cell_length_a   8.12708527
_cell_length_b   9.20319144
_cell_length_c   12.14903751
_cell_angle_alpha   90.92384299
_cell_angle_beta   90.00000000
_cell_angle_gamma   90.00000000
_symmetry_Int_Tables_number   1
_chemical_formula_structural   Y2Au5F21
_chemical_formula_sum   'Y4 Au10 F42'
_cell_volume   908.57061614
_cell_formula_units_Z   2
loop_
 _symmetry_equiv_pos_site_id
 _symmetry_equiv_pos_as_xyz
  1  'x, y, z'
loop_
 _atom_site_type_symbol
 _atom_site_label
 _atom_site_symmetry_multiplicity
 _atom_site_fract_x
 _atom_site_fract_y
 _atom_site_fract_z
 _atom_site_occupancy
  F  F0  1  0.583150  0.882713  0.189371  1
  F  F1  1  0.583150  0.617287  0.310629  1
  F  F2  1  0.416850  0.117287  0.810629  1
  F  F3  1  0.416850  0.382713  0.689371  1
  F  F4  1  0.589910  0.245273  0.102549  1
  F  F5  1  0.589910  0.254727  0.397451  1
  F  F6  1  0.410090  0.754727  0.897451  1
  F  F7  1  0.410090  0.745273  0.602549  1
  F  F8  1  0.825078  0.019982  0.035130  1
  F  F9  1  0.825078  0.480018  0.464870  1
  F  F10  1  0.174922  0.980018  0.964870  1
  F  F11  1  0.174922  0.519982  0.535130  1
  F  F12  1  0.850726  0.734635  0.130850  1
  F  F13  1  0.850726  0.765365  0.369150  1
  F  F14  1  0.325907  0.402669  0.321067  1
  F  F15  1  0.325907  0.097331  0.178933  1
  F  F16  1  0.674093  0.597331  0.678933  1
  F  F17  1  0.674093  0.902669  0.821067  1
  F  F18  1  0.073307  0.209629  0.090024  1
  F  F19  1  0.073307  0.290371  0.409976  1
  F  F20  1  0.926693  0.790371  0.909976  1
  F  F21  1  0.926693  0.709629  0.590024  1
  F  F22  1  0.300239  0.404632  0.100341  1
  F  F23  1  0.300239  0.095368  0.399659  1
  F  F24  1  0.699761  0.595368  0.899659  1
  F  F25  1  0.699761  0.904632  0.600341  1
  F  F26  1  0.846212  0.415062  0.162020  1
  F  F27  1  0.846212  0.084938  0.337980  1
  F  F28  1  0.153788  0.584938  0.837980  1
  F  F29  1  0.153788  0.915062  0.662020  1
  F  F30  1  0.500000  0.000000  0.000000  1
  F  F31  1  0.500000  0.500000  0.500000  1
  F  F32  1  0.463602  0.121826  0.584498  1
  F  F33  1  0.463602  0.378174  0.915502  1
  F  F34  1  0.536398  0.878174  0.415502  1
  F  F35  1  0.536398  0.621826  0.084498  1
  F  F36  1  0.810465  0.238293  0.638990  1
  F  F37  1  0.810465  0.261707  0.861010  1
  F  F38  1  0.189535  0.761707  0.361010  1
  F  F39  1  0.189535  0.738293  0.138990  1
  F  F40  1  0.149274  0.234635  0.630850  1
  F  F41  1  0.149274  0.265365  0.869150  1
  Y  Y42  1  0.332051  0.317297  0.502038  1
  Y  Y43  1  0.332051  0.182703  0.997962  1
  Y  Y44  1  0.667949  0.682703  0.497962  1
  Y  Y45  1  0.667949  0.817297  0.002038  1
  Au  Au46  1  0.439846  0.987832  0.293634  1
  Au  Au47  1  0.439846  0.512168  0.206366  1
  Au  Au48  1  0.168195  0.776988  0.904868  1
  Au  Au49  1  0.168195  0.723012  0.595132  1
  Au  Au50  1  0.831805  0.223012  0.095132  1
  Au  Au51  1  0.831805  0.276988  0.404868  1
  Au  Au52  1  0.560154  0.487832  0.793634  1
  Au  Au53  1  0.560154  0.012168  0.706366  1
  Au  Au54  1  0.981993  0.250000  0.750000  1
  Au  Au55  1  0.018007  0.750000  0.250000  1
