# generated using pymatgen
data_LiCr(PO3)4
_symmetry_space_group_name_H-M   'P 1'
_cell_length_a   8.49124278
_cell_length_b   8.49124278
_cell_length_c   7.70646132
_cell_angle_alpha   82.39722812
_cell_angle_beta   97.60277184
_cell_angle_gamma   67.55931682
_symmetry_Int_Tables_number   1
_chemical_formula_structural   LiCr(PO3)4
_chemical_formula_sum   'Li2 Cr2 P8 O24'
_cell_volume   498.81709014
_cell_formula_units_Z   2
loop_
 _symmetry_equiv_pos_site_id
 _symmetry_equiv_pos_as_xyz
  1  'x, y, z'
loop_
 _atom_site_type_symbol
 _atom_site_label
 _atom_site_symmetry_multiplicity
 _atom_site_fract_x
 _atom_site_fract_y
 _atom_site_fract_z
 _atom_site_occupancy
  Li  Li0  1  0.512636  0.179944  0.226011  1
  Li  Li1  1  0.820056  0.487364  0.726011  1
  O  O2  1  0.375055  0.340834  0.015358  1
  O  O3  1  0.996098  0.741711  0.515202  1
  O  O4  1  0.114501  0.128971  0.262755  1
  O  O5  1  0.091996  0.362537  0.817623  1
  O  O6  1  0.258289  0.003903  0.015202  1
  O  O7  1  0.151672  0.628307  0.837572  1
  O  O8  1  0.357213  0.101084  0.697101  1
  O  O9  1  0.091149  0.854763  0.180927  1
  O  O10  1  0.145238  0.908851  0.680928  1
  O  O11  1  0.327455  0.412522  0.673946  1
  O  O12  1  0.659166  0.624945  0.515359  1
  O  O13  1  0.406203  0.266165  0.413164  1
  O  O14  1  0.620917  0.175467  0.698620  1
  O  O15  1  0.371694  0.848327  0.337571  1
  O  O16  1  0.898917  0.642787  0.197101  1
  O  O17  1  0.587478  0.672545  0.173946  1
  O  O18  1  0.871029  0.885500  0.762756  1
  O  O19  1  0.844460  0.094263  0.344053  1
  O  O20  1  0.733834  0.593798  0.913163  1
  O  O21  1  0.905738  0.155540  0.844052  1
  O  O22  1  0.637462  0.908004  0.317622  1
  O  O23  1  0.824532  0.379082  0.198621  1
  O  O24  1  0.990780  0.260599  0.516490  1
  O  O25  1  0.739401  0.009220  0.016489  1
  P  P26  1  0.577902  0.758616  0.350202  1
  P  P27  1  0.768496  0.581086  0.108140  1
  P  P28  1  0.043962  0.797002  0.684810  1
  P  P29  1  0.241384  0.422098  0.850201  1
  P  P30  1  0.418914  0.231504  0.608140  1
  P  P31  1  0.202998  0.956039  0.184809  1
  P  P32  1  0.788612  0.057953  0.842816  1
  P  P33  1  0.942047  0.211388  0.342815  1
  Cr  Cr34  1  0.874390  0.869041  0.262873  1
  Cr  Cr35  1  0.130960  0.125610  0.762873  1
