# generated using pymatgen
data_LiNiP2O7
_symmetry_space_group_name_H-M   'P 1'
_cell_length_a   6.34724071
_cell_length_b   6.34701722
_cell_length_c   13.28883296
_cell_angle_alpha   78.84432925
_cell_angle_beta   77.93444509
_cell_angle_gamma   99.05569778
_symmetry_Int_Tables_number   1
_chemical_formula_structural   LiNiP2O7
_chemical_formula_sum   'Li4 Ni4 P8 O28'
_cell_volume   502.59773703
_cell_formula_units_Z   4
loop_
 _symmetry_equiv_pos_site_id
 _symmetry_equiv_pos_as_xyz
  1  'x, y, z'
loop_
 _atom_site_type_symbol
 _atom_site_label
 _atom_site_symmetry_multiplicity
 _atom_site_fract_x
 _atom_site_fract_y
 _atom_site_fract_z
 _atom_site_occupancy
  Li  Li0  1  0.417110  1.019857  0.346222  1
  Li  Li1  1  0.133917  0.236377  0.846317  1
  Li  Li2  1  0.866083  0.763623  0.153683  1
  Li  Li3  1  0.582891  -0.019857  0.653778  1
  O  O4  1  0.297366  0.609976  0.477928  1
  O  O5  1  0.727732  0.065099  0.378211  1
  O  O6  1  0.789421  0.186455  0.871752  1
  O  O7  1  0.543008  0.100377  0.184767  1
  O  O8  1  0.056570  0.893933  0.878270  1
  O  O9  1  0.272268  0.934901  0.621789  1
  O  O10  1  0.210578  0.813545  0.128248  1
  O  O11  1  0.456992  0.899623  0.815233  1
  O  O12  1  0.174859  0.569086  0.806960  1
  O  O13  1  0.098206  0.460421  0.350882  1
  O  O14  1  0.228140  0.616794  0.980284  1
  O  O15  1  0.943430  0.106067  0.121730  1
  O  O16  1  0.587785  0.775180  0.022120  1
  O  O17  1  0.311218  0.449027  0.149175  1
  O  O18  1  0.097174  0.208463  0.519735  1
  O  O19  1  0.558197  0.661002  0.628303  1
  O  O20  1  0.876080  0.981884  0.693032  1
  O  O21  1  0.214864  0.272267  0.684797  1
  O  O22  1  0.825140  0.430914  0.193040  1
  O  O23  1  0.123920  0.018116  0.306968  1
  O  O24  1  0.441803  0.338998  0.371697  1
  O  O25  1  0.902827  0.791537  0.480265  1
  O  O26  1  0.688782  0.550974  0.850825  1
  O  O27  1  0.412214  0.224820  0.977880  1
  O  O28  1  0.702634  0.390024  0.522072  1
  O  O29  1  0.771860  0.383207  0.019716  1
  O  O30  1  0.901794  0.539579  0.649118  1
  O  O31  1  0.785136  0.727733  0.315203  1
  P  P32  1  0.771848  0.250377  0.136034  1
  P  P33  1  0.655089  0.328202  0.928443  1
  P  P34  1  0.756594  0.583452  0.571527  1
  P  P35  1  0.113598  0.092150  0.636065  1
  P  P36  1  0.228151  0.749623  0.863966  1
  P  P37  1  0.344912  0.671798  0.071557  1
  P  P38  1  0.886402  0.907850  0.363935  1
  P  P39  1  0.243406  0.416548  0.428473  1
  Ni  Ni40  1  0.227948  0.600383  0.641471  1
  Ni  Ni41  1  0.741826  0.869497  0.858519  1
  Ni  Ni42  1  0.258174  0.130503  0.141481  1
  Ni  Ni43  1  0.772052  0.399617  0.358529  1
