# generated using pymatgen
data_Y2S3
_symmetry_space_group_name_H-M   'P 1'
_cell_length_a   21.67361605
_cell_length_b   8.35316671
_cell_length_c   8.35316753
_cell_angle_alpha   90.00000206
_cell_angle_beta   54.68222888
_cell_angle_gamma   54.68222506
_symmetry_Int_Tables_number   1
_chemical_formula_structural   Y2S3
_chemical_formula_sum   'Y16 S24'
_cell_volume   870.81354768
_cell_formula_units_Z   8
loop_
 _symmetry_equiv_pos_site_id
 _symmetry_equiv_pos_as_xyz
  1  'x, y, z'
loop_
 _atom_site_type_symbol
 _atom_site_label
 _atom_site_symmetry_multiplicity
 _atom_site_fract_x
 _atom_site_fract_y
 _atom_site_fract_z
 _atom_site_occupancy
  S  S0  1  0.047946  0.997435  0.362635  1
  S  S1  1  0.129065  0.486237  0.990138  1
  S  S2  1  0.047946  0.358725  0.493524  1
  S  S3  1  0.285387  0.141275  0.137365  1
  S  S4  1  0.285387  0.502565  0.006476  1
  S  S5  1  0.129065  0.626566  0.622666  1
  S  S6  1  0.382014  0.003157  0.347778  1
  S  S7  1  0.204268  0.873434  0.509862  1
  S  S8  1  0.451320  0.493821  0.996843  1
  S  S9  1  0.382014  0.350801  0.506179  1
  S  S10  1  0.204268  0.013763  0.877334  1
  S  S11  1  0.629065  0.122666  0.126566  1
  S  S12  1  0.629065  0.490138  0.986237  1
  S  S13  1  0.451320  0.652222  0.649199  1
  S  S14  1  0.704268  0.009862  0.373434  1
  S  S15  1  0.547946  0.862635  0.497435  1
  S  S16  1  0.785387  0.506476  0.002565  1
  S  S17  1  0.704268  0.377334  0.513763  1
  S  S18  1  0.547946  0.993524  0.858725  1
  S  S19  1  0.951320  0.149199  0.152222  1
  S  S20  1  0.951320  0.496843  0.993821  1
  S  S21  1  0.785387  0.637365  0.641275  1
  S  S22  1  0.882014  0.847778  0.503157  1
  S  S23  1  0.882014  0.006179  0.850801  1
  Y  Y24  1  0.993901  0.398688  0.248851  1
  Y  Y25  1  0.993901  0.119609  0.769445  1
  Y  Y26  1  0.086890  0.619664  0.369664  1
  Y  Y27  1  0.166667  0.250000  0.631603  1
  Y  Y28  1  0.339432  0.380391  0.251149  1
  Y  Y29  1  0.246443  0.880336  0.130336  1
  Y  Y30  1  0.166667  0.750000  0.868397  1
  Y  Y31  1  0.339432  0.101312  0.730555  1
  Y  Y32  1  0.493901  0.269445  0.619609  1
  Y  Y33  1  0.586890  0.869664  0.119664  1
  Y  Y34  1  0.666667  0.368397  0.250000  1
  Y  Y35  1  0.666667  0.131603  0.750000  1
  Y  Y36  1  0.493901  0.748851  0.898688  1
  Y  Y37  1  0.746443  0.630336  0.380336  1
  Y  Y38  1  0.839432  0.230555  0.601312  1
  Y  Y39  1  0.839432  0.751149  0.880391  1
