# generated using pymatgen
data_Sr2AuN
_symmetry_space_group_name_H-M   'P 1'
_cell_length_a   3.79201019
_cell_length_b   5.30453785
_cell_length_c   9.79152056
_cell_angle_alpha   90.00000000
_cell_angle_beta   101.16513837
_cell_angle_gamma   90.00000000
_symmetry_Int_Tables_number   1
_chemical_formula_structural   Sr2AuN
_chemical_formula_sum   'Sr4 Au2 N2'
_cell_volume   193.22734239
_cell_formula_units_Z   2
loop_
 _symmetry_equiv_pos_site_id
 _symmetry_equiv_pos_as_xyz
  1  'x, y, z'
loop_
 _atom_site_type_symbol
 _atom_site_label
 _atom_site_symmetry_multiplicity
 _atom_site_fract_x
 _atom_site_fract_y
 _atom_site_fract_z
 _atom_site_occupancy
  N  N0  1  0.192924  0.250000  0.385849  1
  N  N1  1  0.807076  0.750000  0.614151  1
  Sr  Sr2  1  0.214273  0.750000  0.428546  1
  Sr  Sr3  1  0.785727  0.250000  0.571454  1
  Sr  Sr4  1  0.600964  0.250000  0.201929  1
  Sr  Sr5  1  0.399036  0.750000  0.798071  1
  Au  Au6  1  0.039858  0.750000  0.079716  1
  Au  Au7  1  0.960142  0.250000  0.920284  1
