# generated using pymatgen
data_K7LiSi8
_symmetry_space_group_name_H-M   'P 1'
_cell_length_a   12.56130900
_cell_length_b   12.56130900
_cell_length_c   12.56130900
_cell_angle_alpha   90.00000000
_cell_angle_beta   90.00000000
_cell_angle_gamma   90.00000000
_symmetry_Int_Tables_number   1
_chemical_formula_structural   K7LiSi8
_chemical_formula_sum   'K28 Li4 Si32'
_cell_volume   1982.00477895
_cell_formula_units_Z   4
loop_
 _symmetry_equiv_pos_site_id
 _symmetry_equiv_pos_as_xyz
  1  'x, y, z'
loop_
 _atom_site_type_symbol
 _atom_site_label
 _atom_site_symmetry_multiplicity
 _atom_site_fract_x
 _atom_site_fract_y
 _atom_site_fract_z
 _atom_site_occupancy
  Li  Li0  1  0.500000  0.500000  0.500000  1
  Li  Li1  1  0.000000  0.000000  0.500000  1
  Li  Li2  1  0.500000  0.000000  0.000000  1
  Li  Li3  1  0.000000  0.500000  0.000000  1
  Si  Si4  1  0.197944  0.567674  0.947546  1
  Si  Si5  1  0.947546  0.197944  0.567674  1
  Si  Si6  1  0.802056  0.067674  0.552454  1
  Si  Si7  1  0.302056  0.432326  0.447546  1
  Si  Si8  1  0.552454  0.802056  0.067674  1
  Si  Si9  1  0.432326  0.447546  0.302056  1
  Si  Si10  1  0.067674  0.552454  0.802056  1
  Si  Si11  1  0.567674  0.947546  0.197944  1
  Si  Si12  1  0.067674  0.947546  0.302056  1
  Si  Si13  1  0.302056  0.067674  0.947546  1
  Si  Si14  1  0.947546  0.302056  0.067674  1
  Si  Si15  1  0.552454  0.697944  0.567674  1
  Si  Si16  1  0.802056  0.432326  0.052454  1
  Si  Si17  1  0.447546  0.302056  0.432326  1
  Si  Si18  1  0.197944  0.932326  0.447546  1
  Si  Si19  1  0.697944  0.567674  0.552454  1
  Si  Si20  1  0.447546  0.197944  0.932326  1
  Si  Si21  1  0.567674  0.552454  0.697944  1
  Si  Si22  1  0.932326  0.447546  0.197944  1
  Si  Si23  1  0.432326  0.052454  0.802056  1
  Si  Si24  1  0.304612  0.304612  0.304612  1
  Si  Si25  1  0.195388  0.695388  0.804612  1
  Si  Si26  1  0.804612  0.195388  0.695388  1
  Si  Si27  1  0.695388  0.804612  0.195388  1
  Si  Si28  1  0.695388  0.695388  0.695388  1
  Si  Si29  1  0.804612  0.304612  0.195388  1
  Si  Si30  1  0.195388  0.804612  0.304612  1
  Si  Si31  1  0.304612  0.195388  0.804612  1
  Si  Si32  1  0.052454  0.697944  0.932326  1
  Si  Si33  1  0.697944  0.932326  0.052454  1
  Si  Si34  1  0.052454  0.802056  0.432326  1
  Si  Si35  1  0.932326  0.052454  0.697944  1
  K  K36  1  0.273088  0.810394  0.043466  1
  K  K37  1  0.043466  0.273088  0.810394  1
  K  K38  1  0.726912  0.310394  0.456534  1
  K  K39  1  0.226912  0.189606  0.543466  1
  K  K40  1  0.456534  0.726912  0.310394  1
  K  K41  1  0.189606  0.543466  0.226912  1
  K  K42  1  0.310394  0.456534  0.726912  1
  K  K43  1  0.810394  0.043466  0.273088  1
  K  K44  1  0.310394  0.043466  0.226912  1
  K  K45  1  0.226912  0.310394  0.043466  1
  K  K46  1  0.043466  0.226912  0.310394  1
  K  K47  1  0.456534  0.773088  0.810394  1
  K  K48  1  0.543466  0.226912  0.189606  1
  K  K49  1  0.956534  0.726912  0.189606  1
  K  K50  1  0.273088  0.689606  0.543466  1
  K  K51  1  0.773088  0.810394  0.456534  1
  K  K52  1  0.543466  0.273088  0.689606  1
  K  K53  1  0.810394  0.456534  0.773088  1
  K  K54  1  0.689606  0.543466  0.273088  1
  K  K55  1  0.189606  0.956534  0.726912  1
  K  K56  1  0.000000  0.000000  0.000000  1
  K  K57  1  0.500000  0.000000  0.500000  1
  K  K58  1  0.500000  0.500000  0.000000  1
  K  K59  1  0.000000  0.500000  0.500000  1
  K  K60  1  0.956534  0.773088  0.689606  1
  K  K61  1  0.773088  0.689606  0.956534  1
  K  K62  1  0.689606  0.956534  0.773088  1
  K  K63  1  0.726912  0.189606  0.956534  1
