# generated using pymatgen
data_Sm2CdS4
_symmetry_space_group_name_H-M   'P 1'
_cell_length_a   7.39012761
_cell_length_b   7.39012814
_cell_length_c   7.39012727
_cell_angle_alpha   110.61098391
_cell_angle_beta   110.61098964
_cell_angle_gamma   107.21497817
_symmetry_Int_Tables_number   1
_chemical_formula_structural   Sm2CdS4
_chemical_formula_sum   'Sm4 Cd2 S8'
_cell_volume   310.33518515
_cell_formula_units_Z   2
loop_
 _symmetry_equiv_pos_site_id
 _symmetry_equiv_pos_as_xyz
  1  'x, y, z'
loop_
 _atom_site_type_symbol
 _atom_site_label
 _atom_site_symmetry_multiplicity
 _atom_site_fract_x
 _atom_site_fract_y
 _atom_site_fract_z
 _atom_site_occupancy
  Cd  Cd0  1  0.625000  0.375000  0.250000  1
  Cd  Cd1  1  0.875000  0.125000  0.750000  1
  S  S2  1  0.008392  0.883057  0.512570  1
  S  S3  1  0.491608  0.004178  0.874665  1
  S  S4  1  0.116943  0.129513  0.125335  1
  S  S5  1  0.383057  0.508392  0.012570  1
  S  S6  1  0.629513  0.616943  0.625335  1
  S  S7  1  0.504178  0.991608  0.374665  1
  S  S8  1  0.870487  0.495822  0.987430  1
  S  S9  1  0.995822  0.370487  0.487430  1
  Sm  Sm10  1  0.111043  0.750000  0.861043  1
  Sm  Sm11  1  0.250000  0.611043  0.361043  1
  Sm  Sm12  1  0.388957  0.250000  0.638957  1
  Sm  Sm13  1  0.750000  0.888957  0.138957  1
