# generated using pymatgen
data_NdScO3
_symmetry_space_group_name_H-M   'P 1'
_cell_length_a   5.61317168
_cell_length_b   5.84854625
_cell_length_c   8.05424094
_cell_angle_alpha   90.00000000
_cell_angle_beta   90.00000000
_cell_angle_gamma   90.00000000
_symmetry_Int_Tables_number   1
_chemical_formula_structural   NdScO3
_chemical_formula_sum   'Nd4 Sc4 O12'
_cell_volume   264.41182352
_cell_formula_units_Z   4
loop_
 _symmetry_equiv_pos_site_id
 _symmetry_equiv_pos_as_xyz
  1  'x, y, z'
loop_
 _atom_site_type_symbol
 _atom_site_label
 _atom_site_symmetry_multiplicity
 _atom_site_fract_x
 _atom_site_fract_y
 _atom_site_fract_z
 _atom_site_occupancy
  Nd  Nd0  1  0.015384  0.057087  0.250000  1
  Nd  Nd1  1  0.484616  0.557087  0.250000  1
  Nd  Nd2  1  0.515384  0.442913  0.750000  1
  Nd  Nd3  1  0.984616  0.942913  0.750000  1
  O  O4  1  0.111982  0.544010  0.750000  1
  O  O5  1  0.611982  0.955990  0.250000  1
  O  O6  1  0.197917  0.801182  0.441672  1
  O  O7  1  0.197917  0.801182  0.058328  1
  O  O8  1  0.302083  0.301182  0.058328  1
  O  O9  1  0.302083  0.301182  0.441672  1
  O  O10  1  0.697917  0.698818  0.558328  1
  O  O11  1  0.697917  0.698818  0.941672  1
  O  O12  1  0.802083  0.198818  0.941672  1
  O  O13  1  0.802083  0.198818  0.558328  1
  O  O14  1  0.888018  0.455990  0.250000  1
  O  O15  1  0.388018  0.044010  0.750000  1
  Sc  Sc16  1  0.500000  0.000000  0.500000  1
  Sc  Sc17  1  0.000000  0.500000  0.500000  1
  Sc  Sc18  1  0.500000  0.000000  0.000000  1
  Sc  Sc19  1  0.000000  0.500000  0.000000  1
