# generated using pymatgen
data_NaCe5S8
_symmetry_space_group_name_H-M   'P 1'
_cell_length_a   7.40560553
_cell_length_b   7.40560589
_cell_length_c   7.40560542
_cell_angle_alpha   109.55125319
_cell_angle_beta   109.31127119
_cell_angle_gamma   109.55125365
_symmetry_Int_Tables_number   1
_chemical_formula_structural   NaCe5S8
_chemical_formula_sum   'Na1 Ce5 S8'
_cell_volume   312.64920132
_cell_formula_units_Z   1
loop_
 _symmetry_equiv_pos_site_id
 _symmetry_equiv_pos_as_xyz
  1  'x, y, z'
loop_
 _atom_site_type_symbol
 _atom_site_label
 _atom_site_symmetry_multiplicity
 _atom_site_fract_x
 _atom_site_fract_y
 _atom_site_fract_z
 _atom_site_occupancy
  Ce  Ce0  1  0.243655  0.627959  0.374134  1
  Ce  Ce1  1  0.375000  0.250000  0.625000  1
  Ce  Ce2  1  0.625866  0.369521  0.253825  1
  Ce  Ce3  1  0.746175  0.872041  0.115696  1
  Ce  Ce4  1  0.884304  0.130479  0.756345  1
  Na  Na5  1  0.125000  0.750000  0.875000  1
  S  S6  1  0.151054  0.151925  0.154854  1
  S  S7  1  0.358299  0.492697  0.005194  1
  S  S8  1  0.634398  0.646896  0.641701  1
  S  S9  1  0.500871  0.003800  0.848946  1
  S  S10  1  0.512497  0.007303  0.365602  1
  S  S11  1  0.994806  0.853104  0.487503  1
  S  S12  1  0.845146  0.496200  0.997071  1
  S  S13  1  0.002929  0.348075  0.499129  1
