# generated using pymatgen
data_Ag2O
_symmetry_space_group_name_H-M   'P 1'
_cell_length_a   4.23912429
_cell_length_b   5.17353549
_cell_length_c   10.13585108
_cell_angle_alpha   59.32100961
_cell_angle_beta   63.79923091
_cell_angle_gamma   67.67003856
_symmetry_Int_Tables_number   1
_chemical_formula_structural   Ag2O
_chemical_formula_sum   'Ag6 O3'
_cell_volume   168.05583479
_cell_formula_units_Z   3
loop_
 _symmetry_equiv_pos_site_id
 _symmetry_equiv_pos_as_xyz
  1  'x, y, z'
loop_
 _atom_site_type_symbol
 _atom_site_label
 _atom_site_symmetry_multiplicity
 _atom_site_fract_x
 _atom_site_fract_y
 _atom_site_fract_z
 _atom_site_occupancy
  Ag  Ag0  1  0.242059  0.169233  0.128324  1
  Ag  Ag1  1  0.471207  0.464560  0.274443  1
  Ag  Ag2  1  0.220905  0.238744  0.646605  1
  Ag  Ag3  1  0.479097  0.460496  0.777629  1
  Ag  Ag4  1  0.678201  0.790332  0.432933  1
  Ag  Ag5  1  0.656097  0.823794  0.907582  1
  O  O6  1  0.718158  0.273987  0.104845  1
  O  O7  1  0.205498  0.835583  0.855376  1
  O  O8  1  0.225778  0.660270  0.444762  1
