# generated using pymatgen
data_Ba3Ta2NiO9
_symmetry_space_group_name_H-M   'P 1'
_cell_length_a   5.82525911
_cell_length_b   5.82525911
_cell_length_c   7.16388280
_cell_angle_alpha   90.00000000
_cell_angle_beta   90.00000000
_cell_angle_gamma   119.99999997
_symmetry_Int_Tables_number   1
_chemical_formula_structural   Ba3Ta2NiO9
_chemical_formula_sum   'Ba3 Ta2 Ni1 O9'
_cell_volume   210.52787127
_cell_formula_units_Z   1
loop_
 _symmetry_equiv_pos_site_id
 _symmetry_equiv_pos_as_xyz
  1  'x, y, z'
loop_
 _atom_site_type_symbol
 _atom_site_label
 _atom_site_symmetry_multiplicity
 _atom_site_fract_x
 _atom_site_fract_y
 _atom_site_fract_z
 _atom_site_occupancy
  O  O0  1  0.343417  0.171709  0.675328  1
  O  O1  1  0.828291  0.171709  0.675328  1
  O  O2  1  0.828291  0.656583  0.675328  1
  O  O3  1  0.171709  0.828291  0.324672  1
  O  O4  1  0.656583  0.828291  0.324672  1
  O  O5  1  0.171709  0.343417  0.324672  1
  O  O6  1  0.500000  0.000000  0.000000  1
  O  O7  1  0.000000  0.500000  0.000000  1
  O  O8  1  0.500000  0.500000  0.000000  1
  Ni  Ni9  1  0.000000  0.000000  0.500000  1
  Ba  Ba10  1  0.666667  0.333333  0.338303  1
  Ba  Ba11  1  0.333333  0.666667  0.661697  1
  Ba  Ba12  1  0.000000  0.000000  0.000000  1
  Ta  Ta13  1  0.333333  0.666667  0.176374  1
  Ta  Ta14  1  0.666667  0.333333  0.823626  1
