# generated using pymatgen
data_Li2Ni3(P2O7)2
_symmetry_space_group_name_H-M   'P 1'
_cell_length_a   5.25390923
_cell_length_b   6.40179528
_cell_length_c   15.87594397
_cell_angle_alpha   81.49772615
_cell_angle_beta   82.01056421
_cell_angle_gamma   72.19000916
_symmetry_Int_Tables_number   1
_chemical_formula_structural   Li2Ni3(P2O7)2
_chemical_formula_sum   'Li4 Ni6 P8 O28'
_cell_volume   500.30178931
_cell_formula_units_Z   2
loop_
 _symmetry_equiv_pos_site_id
 _symmetry_equiv_pos_as_xyz
  1  'x, y, z'
loop_
 _atom_site_type_symbol
 _atom_site_label
 _atom_site_symmetry_multiplicity
 _atom_site_fract_x
 _atom_site_fract_y
 _atom_site_fract_z
 _atom_site_occupancy
  Li  Li0  1  0.074645  0.210782  0.985867  1
  Li  Li1  1  0.353352  0.686238  0.124215  1
  Li  Li2  1  0.646648  0.313762  0.875785  1
  Li  Li3  1  0.925355  0.789218  0.014133  1
  O  O4  1  0.289290  0.854861  0.008601  1
  O  O5  1  0.761491  0.686841  0.929341  1
  O  O6  1  0.798213  0.716092  0.713648  1
  O  O7  1  0.965607  0.683696  0.161482  1
  O  O8  1  0.838723  0.347063  0.661856  1
  O  O9  1  0.710710  0.145139  0.991398  1
  O  O10  1  0.007468  0.022310  0.213865  1
  O  O11  1  0.238509  0.313159  0.070660  1
  O  O12  1  0.201787  0.283908  0.286352  1
  O  O13  1  0.034392  0.316304  0.838518  1
  O  O14  1  0.161277  0.652937  0.338145  1
  O  O15  1  0.992532  0.977690  0.786135  1
  O  O16  1  0.170750  0.598148  0.552548  1
  O  O17  1  0.588447  0.025860  0.145018  1
  O  O18  1  0.360792  0.149250  0.708972  1
  O  O19  1  0.123031  0.986664  0.585707  1
  O  O20  1  0.422929  0.297171  0.412709  1
  O  O21  1  0.651605  0.412206  0.099838  1
  O  O22  1  0.601559  0.444919  0.265600  1
  O  O23  1  0.829250  0.401853  0.447452  1
  O  O24  1  0.406535  0.846047  0.449959  1
  O  O25  1  0.398441  0.555082  0.734399  1
  O  O26  1  0.348394  0.587794  0.900162  1
  O  O27  1  0.577071  0.702830  0.587291  1
  O  O28  1  0.876970  0.013336  0.414294  1
  O  O29  1  0.639210  0.850750  0.291028  1
  O  O30  1  0.411555  0.974141  0.854982  1
  O  O31  1  0.593464  0.153953  0.550042  1
  P  P32  1  0.812636  0.889122  0.207955  1
  P  P33  1  0.648256  0.576858  0.680018  1
  P  P34  1  0.456008  0.762087  0.927486  1
  P  P35  1  0.700045  0.217637  0.457412  1
  P  P36  1  0.299955  0.782364  0.542588  1
  P  P37  1  0.543993  0.237913  0.072514  1
  P  P38  1  0.187364  0.110879  0.792045  1
  P  P39  1  0.351743  0.423142  0.319982  1
  Ni  Ni40  1  0.204350  0.280067  0.593376  1
  Ni  Ni41  1  0.055282  0.640171  0.813307  1
  Ni  Ni42  1  0.225531  0.957458  0.333601  1
  Ni  Ni43  1  0.774468  0.042543  0.666399  1
  Ni  Ni44  1  0.944718  0.359830  0.186693  1
  Ni  Ni45  1  0.795650  0.719933  0.406624  1
