# generated using pymatgen
data_Sm2TmS4
_symmetry_space_group_name_H-M   'P 1'
_cell_length_a   7.28648661
_cell_length_b   7.28648709
_cell_length_c   7.28648656
_cell_angle_alpha   110.08167722
_cell_angle_beta   108.25708425
_cell_angle_gamma   110.08168209
_symmetry_Int_Tables_number   1
_chemical_formula_structural   Sm2TmS4
_chemical_formula_sum   'Sm4 Tm2 S8'
_cell_volume   297.70541021
_cell_formula_units_Z   2
loop_
 _symmetry_equiv_pos_site_id
 _symmetry_equiv_pos_as_xyz
  1  'x, y, z'
loop_
 _atom_site_type_symbol
 _atom_site_label
 _atom_site_symmetry_multiplicity
 _atom_site_fract_x
 _atom_site_fract_y
 _atom_site_fract_z
 _atom_site_occupancy
  Sm  Sm0  1  0.250000  0.617036  0.367036  1
  Sm  Sm1  1  0.750000  0.882964  0.132964  1
  Sm  Sm2  1  0.632964  0.382964  0.250000  1
  Sm  Sm3  1  0.867036  0.117036  0.750000  1
  Tm  Tm4  1  0.125000  0.750000  0.875000  1
  Tm  Tm5  1  0.375000  0.250000  0.625000  1
  S  S6  1  0.009946  0.863287  0.503329  1
  S  S7  1  0.003329  0.363287  0.509946  1
  S  S8  1  0.146659  0.136713  0.140042  1
  S  S9  1  0.353341  0.493384  0.990054  1
  S  S10  1  0.640042  0.636713  0.646659  1
  S  S11  1  0.490054  0.993384  0.853341  1
  S  S12  1  0.496671  0.006616  0.359958  1
  S  S13  1  0.859958  0.506616  0.996671  1
