# generated using pymatgen
data_HfGa2Ni
_symmetry_space_group_name_H-M   'P 1'
_cell_length_a   8.10627722
_cell_length_b   9.60076917
_cell_length_c   9.60076918
_cell_angle_alpha   79.73355853
_cell_angle_beta   65.02845455
_cell_angle_gamma   65.02845455
_symmetry_Int_Tables_number   1
_chemical_formula_structural   HfGa2Ni
_chemical_formula_sum   'Hf10 Ga20 Ni10'
_cell_volume   614.02485255
_cell_formula_units_Z   10
loop_
 _symmetry_equiv_pos_site_id
 _symmetry_equiv_pos_as_xyz
  1  'x, y, z'
loop_
 _atom_site_type_symbol
 _atom_site_label
 _atom_site_symmetry_multiplicity
 _atom_site_fract_x
 _atom_site_fract_y
 _atom_site_fract_z
 _atom_site_occupancy
  Ni  Ni0  1  0.811371  0.000000  0.324976  1
  Ni  Ni1  1  0.901303  0.500000  0.500000  1
  Ni  Ni2  1  0.401303  0.500000  0.500000  1
  Ni  Ni3  1  0.136347  0.000000  0.675024  1
  Ni  Ni4  1  0.811371  0.324976  0.000000  1
  Ni  Ni5  1  0.136347  0.675024  0.000000  1
  Ni  Ni6  1  0.268879  0.216030  0.216030  1
  Ni  Ni7  1  0.484909  0.783970  0.216030  1
  Ni  Ni8  1  0.484909  0.216030  0.783970  1
  Ni  Ni9  1  0.700940  0.783970  0.783970  1
  Ga  Ga10  1  0.795587  0.840816  0.159184  1
  Ga  Ga11  1  0.636403  0.159184  0.159184  1
  Ga  Ga12  1  0.030865  0.617516  0.617516  1
  Ga  Ga13  1  0.648382  0.382484  0.617516  1
  Ga  Ga14  1  0.419282  0.000000  0.735766  1
  Ga  Ga15  1  0.648382  0.617516  0.382484  1
  Ga  Ga16  1  0.265898  0.382484  0.382484  1
  Ga  Ga17  1  0.155047  0.000000  0.264234  1
  Ga  Ga18  1  0.419282  0.735766  0.000000  1
  Ga  Ga19  1  0.155047  0.264234  0.000000  1
  Ga  Ga20  1  0.735686  0.506523  0.790519  1
  Ga  Ga21  1  0.526205  0.209481  0.506523  1
  Ga  Ga22  1  0.242209  0.790519  0.493477  1
  Ga  Ga23  1  0.032728  0.493477  0.209481  1
  Ga  Ga24  1  0.242209  0.493477  0.790519  1
  Ga  Ga25  1  0.526205  0.506523  0.209481  1
  Ga  Ga26  1  0.735686  0.790519  0.506523  1
  Ga  Ga27  1  0.032728  0.209481  0.493477  1
  Ga  Ga28  1  0.954772  0.840816  0.840816  1
  Ga  Ga29  1  0.795587  0.159184  0.840816  1
  Hf  Hf30  1  0.509268  0.000000  0.000000  1
  Hf  Hf31  1  0.065847  0.000000  0.000000  1
  Hf  Hf32  1  0.838873  0.000000  0.593981  1
  Hf  Hf33  1  0.432854  0.406019  0.000000  1
  Hf  Hf34  1  0.838873  0.593981  0.000000  1
  Hf  Hf35  1  0.432854  0.000000  0.406019  1
  Hf  Hf36  1  0.841607  0.286467  0.286467  1
  Hf  Hf37  1  0.128074  0.713533  0.286467  1
  Hf  Hf38  1  0.128074  0.286467  0.713533  1
  Hf  Hf39  1  0.414540  0.713533  0.713533  1
