# generated using pymatgen
data_Li3Fe2(PO4)3
_symmetry_space_group_name_H-M   'P 1'
_cell_length_a   8.58436641
_cell_length_b   8.58442135
_cell_length_c   6.41500733
_cell_angle_alpha   73.43021604
_cell_angle_beta   106.56999074
_cell_angle_gamma   85.62136799
_symmetry_Int_Tables_number   1
_chemical_formula_structural   Li3Fe2(PO4)3
_chemical_formula_sum   'Li6 Fe4 P6 O24'
_cell_volume   427.84132438
_cell_formula_units_Z   2
loop_
 _symmetry_equiv_pos_site_id
 _symmetry_equiv_pos_as_xyz
  1  'x, y, z'
loop_
 _atom_site_type_symbol
 _atom_site_label
 _atom_site_symmetry_multiplicity
 _atom_site_fract_x
 _atom_site_fract_y
 _atom_site_fract_z
 _atom_site_occupancy
  Li  Li0  1  0.710019  0.710012  0.750001  1
  Li  Li1  1  0.500001  0.499996  1.000004  1
  Li  Li2  1  0.289986  0.289981  0.250002  1
  Li  Li3  1  0.037494  0.037487  0.250003  1
  Li  Li4  1  0.500002  0.499993  0.500001  1
  Li  Li5  1  0.962515  0.962510  0.750001  1
  O  O6  1  0.157447  0.846774  0.097470  1
  O  O7  1  0.606196  0.044959  0.182994  1
  O  O8  1  0.846776  0.157454  0.402527  1
  O  O9  1  0.995149  0.328049  0.104837  1
  O  O10  1  0.004852  0.671950  0.895162  1
  O  O11  1  0.153223  0.842554  0.597470  1
  O  O12  1  0.393801  0.955043  0.817006  1
  O  O13  1  0.328047  0.995149  0.395155  1
  O  O14  1  0.177286  0.269247  0.529549  1
  O  O15  1  0.044957  0.606198  0.317007  1
  O  O16  1  0.457957  0.708824  0.697009  1
  O  O17  1  0.842554  0.153222  0.902532  1
  O  O18  1  0.269243  0.177291  0.970447  1
  O  O19  1  0.291174  0.542043  0.197009  1
  O  O20  1  0.671948  0.004852  0.604850  1
  O  O21  1  0.529792  0.734671  0.262431  1
  O  O22  1  0.470211  0.265324  0.737571  1
  O  O23  1  0.822710  0.730752  0.470449  1
  O  O24  1  0.708827  0.457952  0.802994  1
  O  O25  1  0.730758  0.822706  0.029559  1
  O  O26  1  0.734665  0.529799  0.237565  1
  O  O27  1  0.542048  0.291166  0.302993  1
  O  O28  1  0.955041  0.393802  0.682991  1
  O  O29  1  0.265329  0.470206  0.762434  1
  P  P30  1  0.132394  0.661599  0.130465  1
  P  P31  1  0.292144  0.292144  0.749999  1
  P  P32  1  0.707854  0.707854  0.249999  1
  P  P33  1  0.867608  0.338403  0.869533  1
  P  P34  1  0.338396  0.867617  0.630456  1
  P  P35  1  0.661589  0.132408  0.369534  1
  Fe  Fe36  1  0.942148  0.369963  0.368676  1
  Fe  Fe37  1  0.630063  0.057854  0.868724  1
  Fe  Fe38  1  0.369941  0.942141  0.131284  1
  Fe  Fe39  1  0.057851  0.630050  0.631307  1
