# generated using pymatgen
data_Bi5NO10
_symmetry_space_group_name_H-M   'P 1'
_cell_length_a   5.68721115
_cell_length_b   8.87215385
_cell_length_c   23.50622470
_cell_angle_alpha   90.00000000
_cell_angle_beta   90.00000000
_cell_angle_gamma   109.58262515
_symmetry_Int_Tables_number   1
_chemical_formula_structural   Bi5NO10
_chemical_formula_sum   'Bi20 N4 O40'
_cell_volume   1117.46920297
_cell_formula_units_Z   4
loop_
 _symmetry_equiv_pos_site_id
 _symmetry_equiv_pos_as_xyz
  1  'x, y, z'
loop_
 _atom_site_type_symbol
 _atom_site_label
 _atom_site_symmetry_multiplicity
 _atom_site_fract_x
 _atom_site_fract_y
 _atom_site_fract_z
 _atom_site_occupancy
  N  N0  1  0.193132  0.002231  0.573460  1
  N  N1  1  0.693132  0.002231  0.926540  1
  N  N2  1  0.806868  0.997769  0.426540  1
  N  N3  1  0.306868  0.997769  0.073460  1
  O  O4  1  0.722391  0.485882  0.254610  1
  O  O5  1  0.165768  0.855789  0.085034  1
  O  O6  1  0.665768  0.855789  0.414966  1
  O  O7  1  0.834232  0.144211  0.914966  1
  O  O8  1  0.022456  0.928172  0.609051  1
  O  O9  1  0.477544  0.071828  0.109051  1
  O  O10  1  0.977544  0.071828  0.390949  1
  O  O11  1  0.522456  0.928172  0.890949  1
  O  O12  1  0.218491  0.935710  0.527854  1
  O  O13  1  0.718491  0.935710  0.972146  1
  O  O14  1  0.781509  0.064290  0.472146  1
  O  O15  1  0.281509  0.064290  0.027854  1
  O  O16  1  0.095884  0.159932  0.738170  1
  O  O17  1  0.404116  0.840068  0.238170  1
  O  O18  1  0.904116  0.840068  0.261830  1
  O  O19  1  0.595884  0.159932  0.761830  1
  O  O20  1  0.777609  0.514119  0.754610  1
  O  O21  1  0.334232  0.144211  0.585034  1
  O  O22  1  0.222391  0.485882  0.245390  1
  O  O23  1  0.277609  0.514119  0.745390  1
  O  O24  1  0.713987  0.514266  0.600812  1
  O  O25  1  0.786013  0.485734  0.100812  1
  O  O26  1  0.286013  0.485734  0.399188  1
  O  O27  1  0.213987  0.514266  0.899188  1
  O  O28  1  0.849328  0.849167  0.753847  1
  O  O29  1  0.650672  0.150833  0.253847  1
  O  O30  1  0.150672  0.150833  0.246153  1
  O  O31  1  0.349328  0.849167  0.746153  1
  O  O32  1  0.732707  0.539413  0.972973  1
  O  O33  1  0.925382  0.601939  0.354262  1
  O  O34  1  0.425382  0.601939  0.145738  1
  O  O35  1  0.074618  0.398061  0.645738  1
  O  O36  1  0.474907  0.751151  0.640170  1
  O  O37  1  0.025093  0.248849  0.140170  1
  O  O38  1  0.525093  0.248849  0.359830  1
  O  O39  1  0.974907  0.751151  0.859830  1
  O  O40  1  0.232707  0.539413  0.527027  1
  O  O41  1  0.267293  0.460587  0.027027  1
  O  O42  1  0.767293  0.460587  0.472973  1
  O  O43  1  0.574618  0.398061  0.854262  1
  Bi  Bi44  1  0.204198  -0.005071  0.798471  1
  Bi  Bi45  1  0.295802  1.005071  0.298471  1
  Bi  Bi46  1  0.795802  1.005071  0.201529  1
  Bi  Bi47  1  0.704198  -0.005071  0.701529  1
  Bi  Bi48  1  0.100892  0.646798  0.687812  1
  Bi  Bi49  1  0.399108  0.353202  0.187812  1
  Bi  Bi50  1  0.899108  0.353202  0.312188  1
  Bi  Bi51  1  0.600892  0.646798  0.812188  1
  Bi  Bi52  1  0.377773  0.345440  0.691412  1
  Bi  Bi53  1  0.122227  0.654560  0.191412  1
  Bi  Bi54  1  0.622227  0.654560  0.308588  1
  Bi  Bi55  1  0.877773  0.345440  0.808588  1
  Bi  Bi56  1  0.095290  0.694008  0.938328  1
  Bi  Bi57  1  0.404710  0.305992  0.438328  1
  Bi  Bi58  1  0.904710  0.305992  0.061672  1
  Bi  Bi59  1  0.595290  0.694008  0.561672  1
  Bi  Bi60  1  0.398394  0.365453  0.938176  1
  Bi  Bi61  1  0.101606  0.634547  0.438176  1
  Bi  Bi62  1  0.601606  0.634547  0.061824  1
  Bi  Bi63  1  0.898394  0.365453  0.561824  1
