# generated using pymatgen
data_Zn2Te3O8
_symmetry_space_group_name_H-M   'P 1'
_cell_length_a   5.30085892
_cell_length_b   6.94813554
_cell_length_c   12.05545871
_cell_angle_alpha   98.92629208
_cell_angle_beta   90.00000000
_cell_angle_gamma   112.42409137
_symmetry_Int_Tables_number   1
_chemical_formula_structural   Zn2Te3O8
_chemical_formula_sum   'Zn4 Te6 O16'
_cell_volume   404.61817265
_cell_formula_units_Z   2
loop_
 _symmetry_equiv_pos_site_id
 _symmetry_equiv_pos_as_xyz
  1  'x, y, z'
loop_
 _atom_site_type_symbol
 _atom_site_label
 _atom_site_symmetry_multiplicity
 _atom_site_fract_x
 _atom_site_fract_y
 _atom_site_fract_z
 _atom_site_occupancy
  O  O0  1  0.713583  0.466885  0.959972  1
  O  O1  1  0.246698  0.533115  0.540028  1
  O  O2  1  0.286417  0.533115  0.040028  1
  O  O3  1  0.753302  0.466885  0.459972  1
  O  O4  1  0.413642  0.609077  0.814935  1
  O  O5  1  0.804564  0.390923  0.685065  1
  O  O6  1  0.586358  0.390923  0.185065  1
  O  O7  1  0.195436  0.609077  0.314935  1
  O  O8  1  0.987140  0.771390  0.857793  1
  O  O9  1  0.215750  0.228610  0.642207  1
  O  O10  1  0.011756  0.837219  0.144322  1
  O  O11  1  0.174537  0.162781  0.355678  1
  O  O12  1  0.988244  0.162781  0.855678  1
  O  O13  1  0.825463  0.837219  0.644322  1
  O  O14  1  0.784250  0.771390  0.357793  1
  O  O15  1  0.012860  0.228610  0.142207  1
  Zn  Zn16  1  0.994007  0.545556  0.159454  1
  Zn  Zn17  1  0.448451  0.454444  0.340546  1
  Zn  Zn18  1  0.005993  0.454444  0.840546  1
  Zn  Zn19  1  0.551549  0.545556  0.659454  1
  Te  Te20  1  0.126412  0.000000  0.750000  1
  Te  Te21  1  0.873588  0.000000  0.250000  1
  Te  Te22  1  0.063202  0.723935  0.446311  1
  Te  Te23  1  0.339267  0.276065  0.053689  1
  Te  Te24  1  0.936798  0.276065  0.553689  1
  Te  Te25  1  0.660733  0.723935  0.946311  1
