# generated using pymatgen
data_PrPS4
_symmetry_space_group_name_H-M   'P 1'
_cell_length_a   11.09912097
_cell_length_b   11.09912096
_cell_length_c   12.52554340
_cell_angle_alpha   116.29925021
_cell_angle_beta   116.29925019
_cell_angle_gamma   90.00000001
_symmetry_Int_Tables_number   1
_chemical_formula_structural   PrPS4
_chemical_formula_sum   'Pr8 P8 S32'
_cell_volume   1202.56880701
_cell_formula_units_Z   8
loop_
 _symmetry_equiv_pos_site_id
 _symmetry_equiv_pos_as_xyz
  1  'x, y, z'
loop_
 _atom_site_type_symbol
 _atom_site_label
 _atom_site_symmetry_multiplicity
 _atom_site_fract_x
 _atom_site_fract_y
 _atom_site_fract_z
 _atom_site_occupancy
  P  P0  1  0.287146  0.250000  0.500000  1
  P  P1  1  0.787146  0.250000  0.500000  1
  P  P2  1  0.750000  0.787146  0.000000  1
  P  P3  1  0.250000  0.712854  0.000000  1
  P  P4  1  0.712854  0.750000  0.500000  1
  P  P5  1  0.212854  0.750000  0.500000  1
  P  P6  1  0.250000  0.212854  0.000000  1
  P  P7  1  0.750000  0.287146  0.000000  1
  S  S8  1  0.092073  0.613214  0.997415  1
  S  S9  1  0.905342  0.884201  0.997415  1
  S  S10  1  0.613214  0.905342  0.497415  1
  S  S11  1  0.884201  0.092073  0.497415  1
  S  S12  1  0.407927  0.615799  0.002585  1
  S  S13  1  0.594658  0.886786  0.002585  1
  S  S14  1  0.886786  0.407927  0.502585  1
  S  S15  1  0.615799  0.594658  0.502585  1
  S  S16  1  0.161447  0.228508  0.825630  1
  S  S17  1  0.097122  0.161447  0.325630  1
  S  S18  1  0.228508  0.664183  0.325630  1
  S  S19  1  0.835817  0.271492  0.174370  1
  S  S20  1  0.338553  0.402878  0.174370  1
  S  S21  1  0.402878  0.835817  0.674370  1
  S  S22  1  0.271492  0.338553  0.674370  1
  S  S23  1  0.664183  0.097122  0.825630  1
  S  S24  1  0.838553  0.771492  0.174370  1
  S  S25  1  0.902878  0.838553  0.674370  1
  S  S26  1  0.771492  0.335817  0.674370  1
  S  S27  1  0.164183  0.728508  0.825630  1
  S  S28  1  0.661447  0.597122  0.825630  1
  S  S29  1  0.597122  0.164183  0.325630  1
  S  S30  1  0.728508  0.661447  0.325630  1
  S  S31  1  0.335817  0.902878  0.174370  1
  S  S32  1  0.094658  0.115799  0.002585  1
  S  S33  1  0.386786  0.094658  0.502585  1
  S  S34  1  0.115799  0.907927  0.502585  1
  S  S35  1  0.592073  0.384201  0.997415  1
  S  S36  1  0.405342  0.113214  0.997415  1
  S  S37  1  0.113214  0.592073  0.497415  1
  S  S38  1  0.384201  0.405342  0.497415  1
  S  S39  1  0.907927  0.386786  0.002585  1
  Pr  Pr40  1  0.875000  0.125000  0.750000  1
  Pr  Pr41  1  0.125000  0.875000  0.250000  1
  Pr  Pr42  1  0.625000  0.375000  0.250000  1
  Pr  Pr43  1  0.375000  0.625000  0.750000  1
  Pr  Pr44  1  0.625000  0.875000  0.250000  1
  Pr  Pr45  1  0.875000  0.625000  0.750000  1
  Pr  Pr46  1  0.375000  0.125000  0.750000  1
  Pr  Pr47  1  0.125000  0.375000  0.250000  1
