# generated using pymatgen
data_Ba3Ti3O8
_symmetry_space_group_name_H-M   'P 1'
_cell_length_a   5.79512928
_cell_length_b   5.79512978
_cell_length_c   7.04239451
_cell_angle_alpha   88.51642851
_cell_angle_beta   91.48357142
_cell_angle_gamma   121.20013212
_symmetry_Int_Tables_number   1
_chemical_formula_structural   Ba3Ti3O8
_chemical_formula_sum   'Ba3 Ti3 O8'
_cell_volume   202.21123675
_cell_formula_units_Z   1
loop_
 _symmetry_equiv_pos_site_id
 _symmetry_equiv_pos_as_xyz
  1  'x, y, z'
loop_
 _atom_site_type_symbol
 _atom_site_label
 _atom_site_symmetry_multiplicity
 _atom_site_fract_x
 _atom_site_fract_y
 _atom_site_fract_z
 _atom_site_occupancy
  Ba  Ba0  1  0.001195  0.998805  0.000647  1
  Ba  Ba1  1  0.332137  0.667863  0.666025  1
  Ba  Ba2  1  0.666669  0.333331  0.333338  1
  Ti  Ti3  1  0.984353  0.015647  0.517368  1
  Ti  Ti4  1  0.348989  0.651011  0.149299  1
  Ti  Ti5  1  0.666672  0.333328  0.833339  1
  O  O6  1  0.001939  0.505780  0.006205  1
  O  O7  1  0.166657  0.333322  0.333348  1
  O  O8  1  0.494220  0.998061  0.006205  1
  O  O9  1  0.666678  0.833343  0.333348  1
  O  O10  1  0.331365  0.160882  0.660459  1
  O  O11  1  0.500223  0.499777  0.994732  1
  O  O12  1  0.839118  0.668635  0.660459  1
  O  O13  1  0.833115  0.166885  0.671928  1
