# generated using pymatgen
data_Sb2(AuF6)3
_symmetry_space_group_name_H-M   'P 1'
_cell_length_a   8.69836345
_cell_length_b   9.45132154
_cell_length_c   9.89008094
_cell_angle_alpha   115.08109078
_cell_angle_beta   90.00000000
_cell_angle_gamma   90.00000000
_symmetry_Int_Tables_number   1
_chemical_formula_structural   Sb2(AuF6)3
_chemical_formula_sum   'Sb4 Au6 F36'
_cell_volume   736.40799778
_cell_formula_units_Z   2
loop_
 _symmetry_equiv_pos_site_id
 _symmetry_equiv_pos_as_xyz
  1  'x, y, z'
loop_
 _atom_site_type_symbol
 _atom_site_label
 _atom_site_symmetry_multiplicity
 _atom_site_fract_x
 _atom_site_fract_y
 _atom_site_fract_z
 _atom_site_occupancy
  F  F0  1  0.947654  0.098992  0.161710  1
  F  F1  1  0.447654  0.401008  0.338290  1
  F  F2  1  0.052346  0.901008  0.838290  1
  F  F3  1  0.552346  0.598992  0.661710  1
  F  F4  1  0.103414  0.360760  0.339872  1
  F  F5  1  0.603414  0.139240  0.160128  1
  F  F6  1  0.791440  0.899781  0.307931  1
  F  F7  1  0.291440  0.600219  0.192069  1
  F  F8  1  0.208560  0.100219  0.692069  1
  F  F9  1  0.708560  0.399781  0.807931  1
  F  F10  1  0.486825  0.900289  0.259955  1
  F  F11  1  0.986825  0.599711  0.240045  1
  F  F12  1  0.513175  0.099711  0.740045  1
  F  F13  1  0.013175  0.400289  0.759955  1
  F  F14  1  0.854659  0.691290  0.011878  1
  F  F15  1  0.354659  0.808710  0.488122  1
  F  F16  1  0.145341  0.308710  0.988122  1
  F  F17  1  0.645341  0.191290  0.511878  1
  F  F18  1  0.896586  0.639240  0.660128  1
  F  F19  1  0.396586  0.860760  0.839872  1
  F  F20  1  0.279672  0.183180  0.433007  1
  F  F21  1  0.779672  0.316820  0.066993  1
  F  F22  1  0.529223  0.670031  0.956285  1
  F  F23  1  0.029223  0.829969  0.543715  1
  F  F24  1  0.470777  0.329969  0.043715  1
  F  F25  1  0.970777  0.170031  0.456285  1
  F  F26  1  0.235093  0.607424  0.626933  1
  F  F27  1  0.735093  0.892576  0.873067  1
  F  F28  1  0.764907  0.392576  0.373067  1
  F  F29  1  0.264907  0.107424  0.126933  1
  F  F30  1  0.371648  0.430701  0.758292  1
  F  F31  1  0.871648  0.069299  0.741708  1
  F  F32  1  0.628352  0.569299  0.241708  1
  F  F33  1  0.128352  0.930701  0.258292  1
  F  F34  1  0.220328  0.683180  0.933007  1
  F  F35  1  0.720328  0.816820  0.566993  1
  Sb  Sb36  1  0.124254  0.143428  0.284479  1
  Sb  Sb37  1  0.624254  0.356572  0.215521  1
  Sb  Sb38  1  0.875746  0.856572  0.715521  1
  Sb  Sb39  1  0.375746  0.643428  0.784479  1
  Au  Au40  1  0.500000  0.000000  0.500000  1
  Au  Au41  1  0.000000  0.500000  0.000000  1
  Au  Au42  1  0.832009  0.294061  0.632661  1
  Au  Au43  1  0.332009  0.205939  0.867339  1
  Au  Au44  1  0.167991  0.705939  0.367339  1
  Au  Au45  1  0.667991  0.794061  0.132661  1
