# generated using pymatgen
data_K6Tl2Sb3
_symmetry_space_group_name_H-M   'P 1'
_cell_length_a   10.05514666
_cell_length_b   10.05514666
_cell_length_c   20.04402133
_cell_angle_alpha   97.03368327
_cell_angle_beta   97.03368327
_cell_angle_gamma   119.49550362
_symmetry_Int_Tables_number   1
_chemical_formula_structural   K6Tl2Sb3
_chemical_formula_sum   'K24 Tl8 Sb12'
_cell_volume   1711.02009667
_cell_formula_units_Z   4
loop_
 _symmetry_equiv_pos_site_id
 _symmetry_equiv_pos_as_xyz
  1  'x, y, z'
loop_
 _atom_site_type_symbol
 _atom_site_label
 _atom_site_symmetry_multiplicity
 _atom_site_fract_x
 _atom_site_fract_y
 _atom_site_fract_z
 _atom_site_occupancy
  K  K0  1  0.663734  0.514471  0.945805  1
  K  K1  1  0.485529  0.336266  0.554195  1
  K  K2  1  0.336266  0.485529  0.054195  1
  K  K3  1  0.514471  0.663734  0.445805  1
  K  K4  1  0.327951  0.783273  0.946415  1
  K  K5  1  0.216727  0.672049  0.553585  1
  K  K6  1  0.672049  0.216727  0.053585  1
  K  K7  1  0.783273  0.327951  0.446415  1
  K  K8  1  0.924307  0.412294  0.822404  1
  K  K9  1  0.587706  0.075693  0.677596  1
  K  K10  1  0.075693  0.587706  0.177596  1
  K  K11  1  0.412294  0.924307  0.322404  1
  K  K12  1  0.586943  0.756387  0.822489  1
  K  K13  1  0.243613  0.413057  0.677511  1
  K  K14  1  0.413057  0.243613  0.177511  1
  K  K15  1  0.756387  0.586943  0.322489  1
  K  K16  1  0.061919  0.874566  0.054318  1
  K  K17  1  0.125434  0.938081  0.445682  1
  K  K18  1  0.938081  0.125434  0.945682  1
  K  K19  1  0.874566  0.061919  0.554318  1
  K  K20  1  0.976388  0.023612  0.750000  1
  K  K21  1  0.023612  0.976388  0.250000  1
  K  K22  1  0.200134  0.799866  0.750000  1
  K  K23  1  0.799866  0.200134  0.250000  1
  Sb  Sb24  1  0.272480  0.395100  0.861917  1
  Sb  Sb25  1  0.604900  0.727520  0.638083  1
  Sb  Sb26  1  0.727520  0.604900  0.138083  1
  Sb  Sb27  1  0.395100  0.272480  0.361917  1
  Sb  Sb28  1  0.210310  0.032839  0.630552  1
  Sb  Sb29  1  0.967161  0.789690  0.869448  1
  Sb  Sb30  1  0.789690  0.967161  0.369448  1
  Sb  Sb31  1  0.032839  0.210310  0.130552  1
  Sb  Sb32  1  0.571644  0.112830  0.864918  1
  Sb  Sb33  1  0.887170  0.428356  0.635082  1
  Sb  Sb34  1  0.428356  0.887170  0.135082  1
  Sb  Sb35  1  0.112830  0.571644  0.364918  1
  Tl  Tl36  1  0.294620  0.124725  0.929205  1
  Tl  Tl37  1  0.875275  0.705380  0.570795  1
  Tl  Tl38  1  0.705380  0.875275  0.070795  1
  Tl  Tl39  1  0.124725  0.294620  0.429205  1
  Tl  Tl40  1  0.438984  0.267855  0.772271  1
  Tl  Tl41  1  0.732145  0.561016  0.727729  1
  Tl  Tl42  1  0.561016  0.732145  0.227729  1
  Tl  Tl43  1  0.267855  0.438984  0.272271  1
