# generated using pymatgen
data_Y3Pb4F17
_symmetry_space_group_name_H-M   'P 1'
_cell_length_a   9.22692113
_cell_length_b   9.27612309
_cell_length_c   9.19949353
_cell_angle_alpha   72.93654925
_cell_angle_beta   73.09776124
_cell_angle_gamma   72.90485247
_symmetry_Int_Tables_number   1
_chemical_formula_structural   Y3Pb4F17
_chemical_formula_sum   'Y6 Pb8 F34'
_cell_volume   701.22090865
_cell_formula_units_Z   2
loop_
 _symmetry_equiv_pos_site_id
 _symmetry_equiv_pos_as_xyz
  1  'x, y, z'
loop_
 _atom_site_type_symbol
 _atom_site_label
 _atom_site_symmetry_multiplicity
 _atom_site_fract_x
 _atom_site_fract_y
 _atom_site_fract_z
 _atom_site_occupancy
  F  F0  1  0.997304  0.011157  0.991569  1
  F  F1  1  0.021874  0.176942  0.453723  1
  F  F2  1  0.137250  0.135663  0.138040  1
  F  F3  1  0.041671  0.490942  0.357259  1
  F  F4  1  0.175243  0.453656  0.023439  1
  F  F5  1  0.078265  0.792418  0.255224  1
  F  F6  1  0.262307  0.348598  0.543088  1
  F  F7  1  0.257006  0.085949  0.789064  1
  F  F8  1  0.353462  0.041086  0.493669  1
  F  F9  1  0.449670  0.022650  0.178540  1
  F  F10  1  0.343292  0.546887  0.260938  1
  F  F11  1  0.211562  0.583723  0.699640  1
  F  F12  1  0.488376  0.357442  0.049146  1
  F  F13  1  0.301495  0.788721  0.408838  1
  F  F14  1  0.548219  0.243033  0.342329  1
  F  F15  1  0.207804  0.745121  0.919208  1
  F  F16  1  0.419842  0.299093  0.792645  1
  F  F17  1  0.595508  0.711114  0.195076  1
  F  F18  1  0.563545  0.471845  0.456984  1
  F  F19  1  0.785940  0.259217  0.082414  1
  F  F20  1  0.456630  0.735270  0.652378  1
  F  F21  1  0.713301  0.186726  0.587625  1
  F  F22  1  0.508270  0.644186  0.962220  1
  F  F23  1  0.830413  0.403396  0.273112  1
  F  F24  1  0.650750  0.455699  0.742757  1
  F  F25  1  0.544916  0.977391  0.824836  1
  F  F26  1  0.642660  0.952888  0.512203  1
  F  F27  1  0.743458  0.922994  0.208980  1
  F  F28  1  0.748538  0.659989  0.446596  1
  F  F29  1  0.912149  0.216929  0.740464  1
  F  F30  1  0.821163  0.549763  0.977839  1
  F  F31  1  0.951806  0.510679  0.645311  1
  F  F32  1  0.860889  0.863328  0.864520  1
  F  F33  1  0.977839  0.822818  0.549713  1
  Pb  Pb34  1  0.032111  0.308697  0.899921  1
  Pb  Pb35  1  0.259421  0.262416  0.265759  1
  Pb  Pb36  1  0.311107  0.898438  0.040000  1
  Pb  Pb37  1  0.095705  0.967757  0.694358  1
  Pb  Pb38  1  0.896905  0.040919  0.311772  1
  Pb  Pb39  1  0.689981  0.106005  0.961801  1
  Pb  Pb40  1  0.735522  0.734954  0.742728  1
  Pb  Pb41  1  0.955718  0.685033  0.104954  1
  Y  Y42  1  0.159593  0.608646  0.470393  1
  Y  Y43  1  0.471653  0.167615  0.606417  1
  Y  Y44  1  0.391042  0.530961  0.841113  1
  Y  Y45  1  0.605976  0.468261  0.187209  1
  Y  Y46  1  0.531095  0.834147  0.391772  1
  Y  Y47  1  0.816756  0.396842  0.523413  1
