# generated using pymatgen
data_Na2HF4
_symmetry_space_group_name_H-M   'P 1'
_cell_length_a   4.79235728
_cell_length_b   9.59336289
_cell_length_c   8.89707275
_cell_angle_alpha   21.96391525
_cell_angle_beta   39.18026252
_cell_angle_gamma   44.03621488
_symmetry_Int_Tables_number   1
_chemical_formula_structural   Na2HF4
_chemical_formula_sum   'Na2 H1 F4'
_cell_volume   96.65375663
_cell_formula_units_Z   1
loop_
 _symmetry_equiv_pos_site_id
 _symmetry_equiv_pos_as_xyz
  1  'x, y, z'
loop_
 _atom_site_type_symbol
 _atom_site_label
 _atom_site_symmetry_multiplicity
 _atom_site_fract_x
 _atom_site_fract_y
 _atom_site_fract_z
 _atom_site_occupancy
  F  F0  1  0.419596  0.000000  0.424785  1
  F  F1  1  0.420195  0.500000  0.407763  1
  F  F2  1  0.579805  0.500000  0.592237  1
  F  F3  1  0.580404  1.000000  0.575215  1
  H  H4  1  0.500000  0.500000  0.500000  1
  Na  Na5  1  0.000000  0.000000  0.000000  1
  Na  Na6  1  0.000000  0.500000  0.000000  1
