# generated using pymatgen
data_BaUO3
_symmetry_space_group_name_H-M   'P 1'
_cell_length_a   6.26744952
_cell_length_b   6.29211041
_cell_length_c   8.81888131
_cell_angle_alpha   90.00000000
_cell_angle_beta   90.00000000
_cell_angle_gamma   90.00000000
_symmetry_Int_Tables_number   1
_chemical_formula_structural   BaUO3
_chemical_formula_sum   'Ba4 U4 O12'
_cell_volume   347.77685605
_cell_formula_units_Z   4
loop_
 _symmetry_equiv_pos_site_id
 _symmetry_equiv_pos_as_xyz
  1  'x, y, z'
loop_
 _atom_site_type_symbol
 _atom_site_label
 _atom_site_symmetry_multiplicity
 _atom_site_fract_x
 _atom_site_fract_y
 _atom_site_fract_z
 _atom_site_occupancy
  Ba  Ba0  1  0.015990  0.991904  0.250000  1
  Ba  Ba1  1  0.484011  0.491904  0.750000  1
  Ba  Ba2  1  0.515989  0.508096  0.250000  1
  Ba  Ba3  1  0.984011  0.008096  0.750000  1
  O  O4  1  0.232675  0.233637  0.958524  1
  O  O5  1  0.512171  0.924983  0.750000  1
  O  O6  1  0.732675  0.266363  0.541476  1
  O  O7  1  0.732675  0.266363  0.958524  1
  O  O8  1  0.767325  0.766363  0.458524  1
  O  O9  1  0.012171  0.575017  0.750000  1
  O  O10  1  0.232675  0.233637  0.541476  1
  O  O11  1  0.267325  0.733637  0.041476  1
  O  O12  1  0.267325  0.733637  0.458524  1
  O  O13  1  0.487829  0.075017  0.250000  1
  O  O14  1  0.767325  0.766363  0.041476  1
  O  O15  1  0.987829  0.424983  0.250000  1
  U  U16  1  0.000000  0.500000  0.000000  1
  U  U17  1  0.000000  0.500000  0.500000  1
  U  U18  1  0.500000  0.000000  0.500000  1
  U  U19  1  0.500000  0.000000  0.000000  1
