# generated using pymatgen
data_Sr(LaSe2)2
_symmetry_space_group_name_H-M   'P 1'
_cell_length_a   7.94509252
_cell_length_b   7.94509251
_cell_length_c   7.94509190
_cell_angle_alpha   109.43938941
_cell_angle_beta   109.53489907
_cell_angle_gamma   109.43939169
_symmetry_Int_Tables_number   1
_chemical_formula_structural   Sr(LaSe2)2
_chemical_formula_sum   'Sr2 La4 Se8'
_cell_volume   386.07755240
_cell_formula_units_Z   2
loop_
 _symmetry_equiv_pos_site_id
 _symmetry_equiv_pos_as_xyz
  1  'x, y, z'
loop_
 _atom_site_type_symbol
 _atom_site_label
 _atom_site_symmetry_multiplicity
 _atom_site_fract_x
 _atom_site_fract_y
 _atom_site_fract_z
 _atom_site_occupancy
  La  La0  1  0.250000  0.626256  0.376256  1
  La  La1  1  0.750000  0.873744  0.123744  1
  La  La2  1  0.623744  0.373744  0.250000  1
  La  La3  1  0.876256  0.126256  0.750000  1
  Se  Se4  1  0.506776  0.999105  0.354628  1
  Se  Se5  1  0.144478  0.152149  0.145372  1
  Se  Se6  1  0.355522  0.500895  0.007671  1
  Se  Se7  1  0.507671  0.000895  0.855522  1
  Se  Se8  1  0.645372  0.652149  0.644478  1
  Se  Se9  1  0.992329  0.847851  0.493224  1
  Se  Se10  1  0.854628  0.499105  0.006776  1
  Se  Se11  1  0.993224  0.347851  0.492329  1
  Sr  Sr12  1  0.125000  0.750000  0.875000  1
  Sr  Sr13  1  0.375000  0.250000  0.625000  1
