# generated using pymatgen
data_Co2CuS4
_symmetry_space_group_name_H-M   'P 1'
_cell_length_a   6.69987944
_cell_length_b   6.69987944
_cell_length_c   6.69987945
_cell_angle_alpha   60.00000002
_cell_angle_beta   60.00000001
_cell_angle_gamma   60.00000002
_symmetry_Int_Tables_number   1
_chemical_formula_structural   Co2CuS4
_chemical_formula_sum   'Co4 Cu2 S8'
_cell_volume   212.66007718
_cell_formula_units_Z   2
loop_
 _symmetry_equiv_pos_site_id
 _symmetry_equiv_pos_as_xyz
  1  'x, y, z'
loop_
 _atom_site_type_symbol
 _atom_site_label
 _atom_site_symmetry_multiplicity
 _atom_site_fract_x
 _atom_site_fract_y
 _atom_site_fract_z
 _atom_site_occupancy
  S  S0  1  0.737089  0.737089  0.737089  1
  S  S1  1  0.262911  0.262911  0.711267  1
  S  S2  1  0.262911  0.711267  0.262911  1
  S  S3  1  0.711267  0.262911  0.262911  1
  S  S4  1  0.737089  0.288733  0.737089  1
  S  S5  1  0.288733  0.737089  0.737089  1
  S  S6  1  0.262911  0.262911  0.262911  1
  S  S7  1  0.737089  0.737089  0.288733  1
  Co  Co8  1  0.500000  0.500000  0.500000  1
  Co  Co9  1  0.500000  0.500000  0.000000  1
  Co  Co10  1  0.500000  0.000000  0.500000  1
  Co  Co11  1  0.000000  0.500000  0.500000  1
  Cu  Cu12  1  0.875000  0.875000  0.875000  1
  Cu  Cu13  1  0.125000  0.125000  0.125000  1
