# generated using pymatgen
data_NaNbO2
_symmetry_space_group_name_H-M   'P 1'
_cell_length_a   3.01114117
_cell_length_b   3.01114117
_cell_length_c   11.70770207
_cell_angle_alpha   90.00000000
_cell_angle_beta   90.00000000
_cell_angle_gamma   120.00000006
_symmetry_Int_Tables_number   1
_chemical_formula_structural   NaNbO2
_chemical_formula_sum   'Na2 Nb2 O4'
_cell_volume   91.93153846
_cell_formula_units_Z   2
loop_
 _symmetry_equiv_pos_site_id
 _symmetry_equiv_pos_as_xyz
  1  'x, y, z'
loop_
 _atom_site_type_symbol
 _atom_site_label
 _atom_site_symmetry_multiplicity
 _atom_site_fract_x
 _atom_site_fract_y
 _atom_site_fract_z
 _atom_site_occupancy
  O  O0  1  0.333333  0.666666  0.363446  1
  O  O1  1  0.666669  0.333335  0.863446  1
  O  O2  1  0.666669  0.333335  0.636555  1
  O  O3  1  0.333333  0.666666  0.136554  1
  Na  Na4  1  0.000000  0.000000  0.500000  1
  Na  Na5  1  0.000000  0.000000  0.000000  1
  Nb  Nb6  1  0.333333  0.666666  0.750000  1
  Nb  Nb7  1  0.666669  0.333335  0.250000  1
