# generated using pymatgen
data_Sr2Bi3
_symmetry_space_group_name_H-M   'P 1'
_cell_length_a   6.69885431
_cell_length_b   6.89578030
_cell_length_c   15.72475752
_cell_angle_alpha   90.00000000
_cell_angle_beta   90.00000000
_cell_angle_gamma   90.00000000
_symmetry_Int_Tables_number   1
_chemical_formula_structural   Sr2Bi3
_chemical_formula_sum   'Sr8 Bi12'
_cell_volume   726.38673767
_cell_formula_units_Z   4
loop_
 _symmetry_equiv_pos_site_id
 _symmetry_equiv_pos_as_xyz
  1  'x, y, z'
loop_
 _atom_site_type_symbol
 _atom_site_label
 _atom_site_symmetry_multiplicity
 _atom_site_fract_x
 _atom_site_fract_y
 _atom_site_fract_z
 _atom_site_occupancy
  Bi  Bi0  1  0.750000  0.750000  0.570311  1
  Bi  Bi1  1  0.750000  0.250000  0.929689  1
  Bi  Bi2  1  0.250000  0.250000  0.429689  1
  Bi  Bi3  1  0.250000  0.750000  0.070311  1
  Bi  Bi4  1  0.421655  0.937281  0.845989  1
  Bi  Bi5  1  0.421655  0.062719  0.654011  1
  Bi  Bi6  1  0.078345  0.437281  0.654011  1
  Bi  Bi7  1  0.078345  0.562719  0.845989  1
  Bi  Bi8  1  0.578345  0.062719  0.154011  1
  Bi  Bi9  1  0.578345  0.937281  0.345989  1
  Bi  Bi10  1  0.921655  0.562719  0.345989  1
  Bi  Bi11  1  0.921655  0.437281  0.154011  1
  Sr  Sr12  1  0.941201  0.000000  0.750000  1
  Sr  Sr13  1  0.558799  0.500000  0.750000  1
  Sr  Sr14  1  0.058799  0.000000  0.250000  1
  Sr  Sr15  1  0.441201  0.500000  0.250000  1
  Sr  Sr16  1  0.750000  0.750000  0.999805  1
  Sr  Sr17  1  0.750000  0.250000  0.500195  1
  Sr  Sr18  1  0.250000  0.250000  0.000195  1
  Sr  Sr19  1  0.250000  0.750000  0.499805  1
