# generated using pymatgen
data_Ta4SnO12
_symmetry_space_group_name_H-M   'P 1'
_cell_length_a   7.93920681
_cell_length_b   7.93920682
_cell_length_c   6.87555468
_cell_angle_alpha   54.73561430
_cell_angle_beta   54.73561428
_cell_angle_gamma   90.00000559
_symmetry_Int_Tables_number   1
_chemical_formula_structural   Ta4SnO12
_chemical_formula_sum   'Ta4 Sn1 O12'
_cell_volume   250.20811247
_cell_formula_units_Z   1
loop_
 _symmetry_equiv_pos_site_id
 _symmetry_equiv_pos_as_xyz
  1  'x, y, z'
loop_
 _atom_site_type_symbol
 _atom_site_label
 _atom_site_symmetry_multiplicity
 _atom_site_fract_x
 _atom_site_fract_y
 _atom_site_fract_z
 _atom_site_occupancy
  Ta  Ta0  1  -0.000000  0.500000  0.500000  1
  Ta  Ta1  1  -0.000000  -0.000000  0.500000  1
  Ta  Ta2  1  0.500000  0.500000  0.500000  1
  Ta  Ta3  1  0.500000  -0.000000  0.500000  1
  Sn  Sn4  1  0.500000  0.500000  -0.000000  1
  O  O5  1  0.256993  0.256993  1.000000  1
  O  O6  1  0.256993  0.743007  0.000000  1
  O  O7  1  0.256993  0.500000  0.486013  1
  O  O8  1  0.256993  0.013987  0.486013  1
  O  O9  1  0.743007  0.256993  1.000000  1
  O  O10  1  0.743007  0.743007  0.000000  1
  O  O11  1  0.500000  0.256993  0.486013  1
  O  O12  1  0.500000  0.743007  0.513987  1
  O  O13  1  0.743007  0.500000  0.513987  1
  O  O14  1  0.743007  0.986013  0.513987  1
  O  O15  1  0.013987  0.256993  0.486013  1
  O  O16  1  0.986013  0.743007  0.513987  1
