# generated using pymatgen
data_Cd2PCl2
_symmetry_space_group_name_H-M   'P 1'
_cell_length_a   7.85069172
_cell_length_b   8.03486478
_cell_length_c   9.11782409
_cell_angle_alpha   90.00000000
_cell_angle_beta   90.00000000
_cell_angle_gamma   118.51877973
_symmetry_Int_Tables_number   1
_chemical_formula_structural   Cd2PCl2
_chemical_formula_sum   'Cd8 P4 Cl8'
_cell_volume   505.35770520
_cell_formula_units_Z   4
loop_
 _symmetry_equiv_pos_site_id
 _symmetry_equiv_pos_as_xyz
  1  'x, y, z'
loop_
 _atom_site_type_symbol
 _atom_site_label
 _atom_site_symmetry_multiplicity
 _atom_site_fract_x
 _atom_site_fract_y
 _atom_site_fract_z
 _atom_site_occupancy
  Cd  Cd0  1  0.323088  0.294227  0.796697  1
  Cd  Cd1  1  0.176912  0.205773  0.296697  1
  Cd  Cd2  1  0.676912  0.705773  0.203303  1
  Cd  Cd3  1  0.823088  0.794227  0.703303  1
  Cd  Cd4  1  0.797377  0.229079  0.919233  1
  Cd  Cd5  1  0.702623  0.270921  0.419233  1
  Cd  Cd6  1  0.202623  0.770921  0.080767  1
  Cd  Cd7  1  0.297377  0.729079  0.580767  1
  Cl  Cl8  1  0.996044  0.576445  0.802546  1
  Cl  Cl9  1  0.503956  0.923555  0.302546  1
  Cl  Cl10  1  0.003956  0.423555  0.197454  1
  Cl  Cl11  1  0.496044  0.076445  0.697454  1
  P  P12  1  0.990304  0.056551  0.891912  1
  P  P13  1  0.509696  0.443449  0.391912  1
  P  P14  1  0.009696  0.943449  0.108088  1
  P  P15  1  0.490304  0.556551  0.608088  1
  Cl  Cl16  1  0.452013  0.694920  0.970991  1
  Cl  Cl17  1  0.047987  0.805080  0.470991  1
  Cl  Cl18  1  0.547987  0.305080  0.029009  1
  Cl  Cl19  1  0.952013  0.194920  0.529009  1
