# generated using pymatgen
data_Ba16Nb5N19
_symmetry_space_group_name_H-M   'P 1'
_cell_length_a   11.14384268
_cell_length_b   11.60298223
_cell_length_c   14.55015306
_cell_angle_alpha   104.08997145
_cell_angle_beta   101.54228089
_cell_angle_gamma   97.78196164
_symmetry_Int_Tables_number   1
_chemical_formula_structural   Ba16Nb5N19
_chemical_formula_sum   'Ba32 Nb10 N38'
_cell_volume   1753.98207293
_cell_formula_units_Z   2
loop_
 _symmetry_equiv_pos_site_id
 _symmetry_equiv_pos_as_xyz
  1  'x, y, z'
loop_
 _atom_site_type_symbol
 _atom_site_label
 _atom_site_symmetry_multiplicity
 _atom_site_fract_x
 _atom_site_fract_y
 _atom_site_fract_z
 _atom_site_occupancy
  N  N0  1  0.280768  0.723784  0.661620  1
  N  N1  1  0.719232  0.276216  0.338380  1
  N  N2  1  0.819174  0.071496  0.192663  1
  N  N3  1  0.180826  0.928504  0.807337  1
  N  N4  1  0.964759  0.336051  0.250555  1
  N  N5  1  0.035241  0.663949  0.749445  1
  N  N6  1  0.674418  0.253276  0.105592  1
  N  N7  1  0.325582  0.746724  0.894408  1
  N  N8  1  0.351664  0.870706  0.509996  1
  N  N9  1  0.648336  0.129294  0.490004  1
  N  N10  1  0.172717  0.612431  0.417568  1
  N  N11  1  0.827283  0.387569  0.582432  1
  N  N12  1  0.473895  0.653252  0.528259  1
  N  N13  1  0.526105  0.346748  0.471741  1
  N  N14  1  0.897488  0.606513  0.961030  1
  N  N15  1  0.102512  0.393487  0.038970  1
  N  N16  1  0.653672  0.572414  0.771715  1
  N  N17  1  0.346328  0.427586  0.228285  1
  N  N18  1  0.631547  0.450213  0.942073  1
  N  N19  1  0.368453  0.549787  0.057927  1
  N  N20  1  0.679598  0.751865  0.986989  1
  N  N21  1  0.320402  0.248135  0.013011  1
  N  N22  1  0.209838  0.313946  0.530889  1
  N  N23  1  0.790162  0.686054  0.469111  1
  N  N24  1  0.863645  0.650396  0.263373  1
  N  N25  1  0.136355  0.349604  0.736627  1
  N  N26  1  0.390508  0.253743  0.712396  1
  N  N27  1  0.609492  0.746257  0.287604  1
  N  N28  1  0.124816  0.078742  0.599757  1
  N  N29  1  0.875184  0.921258  0.400243  1
  N  N30  1  0.171045  0.777096  0.210170  1
  N  N31  1  0.828955  0.222904  0.789830  1
  N  N32  1  0.595971  0.029893  0.816277  1
  N  N33  1  0.404029  0.970107  0.183723  1
  N  N34  1  0.874065  0.066855  0.936076  1
  N  N35  1  0.125935  0.933145  0.063924  1
  N  N36  1  0.189298  0.070263  0.294618  1
  N  N37  1  0.810702  0.929737  0.705382  1
  Nb  Nb38  1  0.795805  0.238570  0.220911  1
  Nb  Nb39  1  0.204195  0.761430  0.779089  1
  Nb  Nb40  1  0.315242  0.710087  0.527047  1
  Nb  Nb41  1  0.684758  0.289913  0.472953  1
  Nb  Nb42  1  0.716021  0.596630  0.915349  1
  Nb  Nb43  1  0.283979  0.403369  0.084651  1
  Nb  Nb44  1  0.215766  0.246051  0.645199  1
  Nb  Nb45  1  0.784234  0.753949  0.354801  1
  Nb  Nb46  1  0.771832  0.059599  0.806037  1
  Nb  Nb47  1  0.228168  0.940401  0.193963  1
  Ba  Ba48  1  0.846809  0.337975  0.987292  1
  Ba  Ba49  1  0.153191  0.662025  0.012708  1
  Ba  Ba50  1  0.897169  0.812038  0.138297  1
  Ba  Ba51  1  0.102831  0.187962  0.861703  1
  Ba  Ba52  1  0.013528  0.126364  0.388665  1
  Ba  Ba53  1  0.986472  0.873636  0.611335  1
  Ba  Ba54  1  0.383113  0.124065  0.461535  1
  Ba  Ba55  1  0.616887  0.875935  0.538465  1
  Ba  Ba56  1  0.507721  0.233259  0.923439  1
  Ba  Ba57  1  0.492279  0.766741  0.076561  1
  Ba  Ba58  1  0.340158  0.001234  0.691214  1
  Ba  Ba59  1  0.659842  0.998766  0.308786  1
  Ba  Ba60  1  0.114125  0.841443  0.387461  1
  Ba  Ba61  1  0.885875  0.158557  0.612539  1
  Ba  Ba62  1  0.629232  0.307936  0.720741  1
  Ba  Ba63  1  0.370768  0.692064  0.279259  1
  Ba  Ba64  1  0.219207  0.380865  0.358723  1
  Ba  Ba65  1  0.780793  0.619135  0.641277  1
  Ba  Ba66  1  0.914472  0.514236  0.395806  1
  Ba  Ba67  1  0.085528  0.485764  0.604194  1
  Ba  Ba68  1  0.370521  0.490107  0.866310  1
  Ba  Ba69  1  0.629479  0.509893  0.133690  1
  Ba  Ba70  1  0.684330  0.004314  0.009327  1
  Ba  Ba71  1  0.315670  0.995686  0.990673  1
  Ba  Ba72  1  0.046385  0.151670  0.117594  1
  Ba  Ba73  1  0.953615  0.848330  0.882406  1
  Ba  Ba74  1  0.531206  0.775009  0.784628  1
  Ba  Ba75  1  0.468794  0.224991  0.215372  1
  Ba  Ba76  1  0.438542  0.469410  0.609950  1
  Ba  Ba77  1  0.561458  0.530590  0.390050  1
  Ba  Ba78  1  0.046293  0.539915  0.201230  1
  Ba  Ba79  1  0.953707  0.460085  0.798770  1
