# generated using pymatgen
data_CuTe2Cl
_symmetry_space_group_name_H-M   'P 1'
_cell_length_a   5.16216480
_cell_length_b   8.24194137
_cell_length_c   11.40076505
_cell_angle_alpha   103.49627354
_cell_angle_beta   90.00000000
_cell_angle_gamma   90.00000000
_symmetry_Int_Tables_number   1
_chemical_formula_structural   CuTe2Cl
_chemical_formula_sum   'Cu4 Te8 Cl4'
_cell_volume   471.66502936
_cell_formula_units_Z   4
loop_
 _symmetry_equiv_pos_site_id
 _symmetry_equiv_pos_as_xyz
  1  'x, y, z'
loop_
 _atom_site_type_symbol
 _atom_site_label
 _atom_site_symmetry_multiplicity
 _atom_site_fract_x
 _atom_site_fract_y
 _atom_site_fract_z
 _atom_site_occupancy
  Cl  Cl0  1  0.888121  0.287676  0.372597  1
  Cl  Cl1  1  0.388121  0.212324  0.127403  1
  Cl  Cl2  1  0.111879  0.712324  0.627403  1
  Cl  Cl3  1  0.611879  0.787676  0.872597  1
  Cu  Cu4  1  0.138995  0.421961  0.252091  1
  Cu  Cu5  1  0.638996  0.078039  0.247909  1
  Cu  Cu6  1  0.861004  0.578039  0.747909  1
  Cu  Cu7  1  0.361005  0.921961  0.752091  1
  Te  Te8  1  0.796923  0.559768  0.144977  1
  Te  Te9  1  0.296923  0.940232  0.355023  1
  Te  Te10  1  0.203077  0.440232  0.855023  1
  Te  Te11  1  0.703077  0.059768  0.644977  1
  Te  Te12  1  0.977488  0.870244  0.140750  1
  Te  Te13  1  0.477488  0.629756  0.359250  1
  Te  Te14  1  0.022512  0.129756  0.859250  1
  Te  Te15  1  0.522512  0.370244  0.640750  1
