# generated using pymatgen
data_Li2Mn(PO3)4
_symmetry_space_group_name_H-M   'P 1'
_cell_length_a   7.59905215
_cell_length_b   9.54289786
_cell_length_c   7.73222384
_cell_angle_alpha   90.00000000
_cell_angle_beta   110.24208913
_cell_angle_gamma   90.00000000
_symmetry_Int_Tables_number   1
_chemical_formula_structural   Li2Mn(PO3)4
_chemical_formula_sum   'Li4 Mn2 P8 O24'
_cell_volume   526.08710031
_cell_formula_units_Z   2
loop_
 _symmetry_equiv_pos_site_id
 _symmetry_equiv_pos_as_xyz
  1  'x, y, z'
loop_
 _atom_site_type_symbol
 _atom_site_label
 _atom_site_symmetry_multiplicity
 _atom_site_fract_x
 _atom_site_fract_y
 _atom_site_fract_z
 _atom_site_occupancy
  Li  Li0  1  0.120661  0.637247  0.315509  1
  Li  Li1  1  0.620660  0.862754  0.815508  1
  Li  Li2  1  0.379340  0.137247  0.184491  1
  Li  Li3  1  0.879339  0.362753  0.684491  1
  O  O4  1  0.401243  0.967569  0.748729  1
  O  O5  1  0.901244  0.532431  0.248729  1
  O  O6  1  0.046477  0.730572  0.686746  1
  O  O7  1  0.098756  0.467569  0.751271  1
  O  O8  1  0.218952  0.107982  0.919619  1
  O  O9  1  0.154279  0.151360  0.585636  1
  O  O10  1  0.345721  0.651360  0.914364  1
  O  O11  1  0.281048  0.607982  0.580381  1
  O  O12  1  0.168127  0.088646  0.268036  1
  O  O13  1  0.953523  0.269429  0.313254  1
  O  O14  1  0.188256  0.816674  0.083232  1
  O  O15  1  0.311744  0.316674  0.416768  1
  O  O16  1  0.453523  0.230572  0.813254  1
  O  O17  1  0.331872  0.588647  0.231964  1
  O  O18  1  0.668128  0.411354  0.768036  1
  O  O19  1  0.781048  0.892018  0.080381  1
  O  O20  1  0.688256  0.683327  0.583232  1
  O  O21  1  0.811745  0.183326  0.916768  1
  O  O22  1  0.598755  0.032431  0.251270  1
  O  O23  1  0.831873  0.911353  0.731964  1
  O  O24  1  0.718953  0.392018  0.419620  1
  O  O25  1  0.654279  0.348640  0.085636  1
  O  O26  1  0.845722  0.848640  0.414365  1
  O  O27  1  0.546477  0.769429  0.186746  1
  P  P28  1  0.811694  0.399801  0.275529  1
  P  P29  1  0.839005  0.790449  0.608223  1
  P  P30  1  0.188306  0.600198  0.724472  1
  P  P31  1  0.160995  0.209552  0.391778  1
  P  P32  1  0.311694  0.100198  0.775529  1
  P  P33  1  0.688305  0.899801  0.224472  1
  P  P34  1  0.660995  0.290448  0.891778  1
  P  P35  1  0.339006  0.709552  0.108223  1
  Mn  Mn36  1  0.000000  0.000000  0.000000  1
  Mn  Mn37  1  0.499999  0.500000  0.500000  1
