# generated using pymatgen
data_Na2S2O5
_symmetry_space_group_name_H-M   'P 1'
_cell_length_a   5.52025024
_cell_length_b   9.31636935
_cell_length_c   22.20558300
_cell_angle_alpha   95.59537632
_cell_angle_beta   90.00000000
_cell_angle_gamma   90.00000000
_symmetry_Int_Tables_number   1
_chemical_formula_structural   Na2S2O5
_chemical_formula_sum   'Na16 S16 O40'
_cell_volume   1136.56270772
_cell_formula_units_Z   8
loop_
 _symmetry_equiv_pos_site_id
 _symmetry_equiv_pos_as_xyz
  1  'x, y, z'
loop_
 _atom_site_type_symbol
 _atom_site_label
 _atom_site_symmetry_multiplicity
 _atom_site_fract_x
 _atom_site_fract_y
 _atom_site_fract_z
 _atom_site_occupancy
  O  O0  1  0.604066  0.659256  0.024206  1
  O  O1  1  0.104066  0.840744  0.475794  1
  O  O2  1  0.395934  0.340744  0.975794  1
  O  O3  1  0.895934  0.159256  0.524206  1
  O  O4  1  0.504247  0.594948  0.154864  1
  O  O5  1  0.004247  0.905052  0.345136  1
  O  O6  1  0.495753  0.405052  0.845136  1
  O  O7  1  0.995753  0.094948  0.654864  1
  O  O8  1  0.861856  0.721541  0.201565  1
  O  O9  1  0.361856  0.778459  0.298435  1
  O  O10  1  0.138144  0.278459  0.798435  1
  O  O11  1  0.638144  0.221541  0.701565  1
  O  O12  1  0.963035  0.909935  0.774319  1
  O  O13  1  0.463035  0.590065  0.725681  1
  O  O14  1  0.036965  0.090065  0.225681  1
  O  O15  1  0.536965  0.409935  0.274319  1
  O  O16  1  0.624301  0.733707  0.884499  1
  O  O17  1  0.124301  0.766293  0.615501  1
  O  O18  1  0.375699  0.266293  0.115501  1
  O  O19  1  0.875699  0.233707  0.384499  1
  O  O20  1  0.675814  0.960527  0.948679  1
  O  O21  1  0.175814  0.539473  0.551321  1
  O  O22  1  0.324186  0.039473  0.051321  1
  O  O23  1  0.824186  0.460527  0.448679  1
  O  O24  1  0.036763  0.831374  0.905543  1
  O  O25  1  0.536763  0.668626  0.594457  1
  O  O26  1  0.963237  0.168626  0.094457  1
  O  O27  1  0.463237  0.331374  0.405543  1
  O  O28  1  0.519342  0.931946  0.786486  1
  O  O29  1  0.019342  0.568054  0.713514  1
  O  O30  1  0.480658  0.068054  0.213514  1
  O  O31  1  0.980658  0.431946  0.286486  1
  O  O32  1  0.045993  0.689494  0.040331  1
  O  O33  1  0.545993  0.810506  0.459669  1
  O  O34  1  0.954007  0.310506  0.959669  1
  O  O35  1  0.454007  0.189494  0.540331  1
  O  O36  1  0.915049  0.491668  0.139536  1
  O  O37  1  0.415049  0.008332  0.360465  1
  O  O38  1  0.084951  0.508332  0.860464  1
  O  O39  1  0.584951  0.991668  0.639536  1
  Na  Na40  1  0.268865  0.079795  0.733604  1
  Na  Na41  1  0.768865  0.420205  0.766396  1
  Na  Na42  1  0.731135  0.920205  0.266396  1
  Na  Na43  1  0.231135  0.579795  0.233604  1
  Na  Na44  1  0.233461  0.233430  0.316009  1
  Na  Na45  1  0.733461  0.266570  0.183991  1
  Na  Na46  1  0.766539  0.766570  0.683991  1
  Na  Na47  1  0.266539  0.733430  0.816009  1
  Na  Na48  1  0.225465  0.990204  0.569406  1
  Na  Na49  1  0.725465  0.509796  0.930594  1
  Na  Na50  1  0.774535  0.009796  0.430594  1
  Na  Na51  1  0.274535  0.490204  0.069406  1
  Na  Na52  1  0.182478  0.329265  0.484818  1
  Na  Na53  1  0.682478  0.170735  0.015182  1
  Na  Na54  1  0.817522  0.670735  0.515182  1
  Na  Na55  1  0.317522  0.829265  0.984818  1
  S  S56  1  0.738849  0.486540  0.310462  1
  S  S57  1  0.238849  0.013460  0.189538  1
  S  S58  1  0.261151  0.513460  0.689538  1
  S  S59  1  0.761151  0.986540  0.810462  1
  S  S60  1  0.733123  0.125793  0.649459  1
  S  S61  1  0.233123  0.374207  0.850541  1
  S  S62  1  0.266877  0.874207  0.350541  1
  S  S63  1  0.766877  0.625793  0.149459  1
  S  S64  1  0.700915  0.241082  0.561114  1
  S  S65  1  0.200915  0.258918  0.938886  1
  S  S66  1  0.299085  0.758918  0.438886  1
  S  S67  1  0.799085  0.741082  0.061114  1
  S  S68  1  0.722964  0.365440  0.397191  1
  S  S69  1  0.222964  0.134560  0.102809  1
  S  S70  1  0.277036  0.634560  0.602809  1
  S  S71  1  0.777036  0.865440  0.897191  1
