# generated using pymatgen
data_Ho6Se11
_symmetry_space_group_name_H-M   'P 1'
_cell_length_a   11.54307932
_cell_length_b   11.58570347
_cell_length_c   12.02935944
_cell_angle_alpha   89.92294181
_cell_angle_beta   90.22118658
_cell_angle_gamma   91.76037252
_symmetry_Int_Tables_number   1
_chemical_formula_structural   Ho6Se11
_chemical_formula_sum   'Ho24 Se44'
_cell_volume   1607.97026144
_cell_formula_units_Z   4
loop_
 _symmetry_equiv_pos_site_id
 _symmetry_equiv_pos_as_xyz
  1  'x, y, z'
loop_
 _atom_site_type_symbol
 _atom_site_label
 _atom_site_symmetry_multiplicity
 _atom_site_fract_x
 _atom_site_fract_y
 _atom_site_fract_z
 _atom_site_occupancy
  Ho  Ho0  1  0.007394  0.248616  0.501008  1
  Ho  Ho1  1  0.139806  0.859621  0.666734  1
  Ho  Ho2  1  0.140729  0.861254  0.336532  1
  Ho  Ho3  1  0.155419  0.843593  0.999277  1
  Ho  Ho4  1  0.240516  0.512060  0.499837  1
  Ho  Ho5  1  0.246904  0.496505  0.830184  1
  Ho  Ho6  1  0.255728  0.498698  0.170932  1
  Ho  Ho7  1  0.387931  0.118825  0.332546  1
  Ho  Ho8  1  0.385821  0.119196  0.668648  1
  Ho  Ho9  1  0.387720  0.106258  0.999213  1
  Ho  Ho10  1  0.484395  0.774908  0.504019  1
  Ho  Ho11  1  0.496186  0.758165  0.164960  1
  Ho  Ho12  1  0.502984  0.751846  0.828022  1
  Ho  Ho13  1  0.626731  0.371556  0.000999  1
  Ho  Ho14  1  0.652870  0.341184  0.328834  1
  Ho  Ho15  1  0.647865  0.354071  0.664749  1
  Ho  Ho16  1  0.750299  0.991320  0.500987  1
  Ho  Ho17  1  0.740933  0.012300  0.837130  1
  Ho  Ho18  1  0.740813  0.007638  0.163350  1
  Ho  Ho19  1  0.894966  0.608811  0.331796  1
  Ho  Ho20  1  0.880472  0.615130  0.663124  1
  Ho  Ho21  1  0.892586  0.612119  -0.000141  1
  Ho  Ho22  1  0.987290  0.261942  0.837521  1
  Ho  Ho23  1  0.991332  0.260408  0.162808  1
  Se  Se24  1  0.004959  0.992784  0.504273  1
  Se  Se25  1  0.060525  0.687738  0.500314  1
  Se  Se26  1  0.071730  0.685054  0.167031  1
  Se  Se27  1  0.067493  0.684672  0.832996  1
  Se  Se28  1  0.070269  0.431364  0.000770  1
  Se  Se29  1  0.074246  0.429717  0.332508  1
  Se  Se30  1  0.067330  0.431836  0.665868  1
  Se  Se31  1  0.067095  0.081177  0.001494  1
  Se  Se32  1  0.122323  0.113035  0.695921  1
  Se  Se33  1  0.126064  0.114745  0.308945  1
  Se  Se34  1  0.245905  0.232591  0.161911  1
  Se  Se35  1  0.238571  0.227294  0.840430  1
  Se  Se36  1  0.270101  0.261343  0.498495  1
  Se  Se37  1  0.309721  0.946652  0.501311  1
  Se  Se38  1  0.315613  0.930879  0.833661  1
  Se  Se39  1  0.313022  0.933143  0.165847  1
  Se  Se40  1  0.319255  0.682219  0.664518  1
  Se  Se41  1  0.325051  0.684186  0.337676  1
  Se  Se42  1  0.330000  0.670002  0.998911  1
  Se  Se43  1  0.370436  0.360261  0.003753  1
  Se  Se44  1  0.408680  0.399375  0.349399  1
  Se  Se45  1  0.391774  0.382641  0.651152  1
  Se  Se46  1  0.524950  0.511787  0.206227  1
  Se  Se47  1  0.506206  0.496827  0.810711  1
  Se  Se48  1  0.567541  0.932193  0.331322  1
  Se  Se49  1  0.569277  0.934192  0.668487  1
  Se  Se50  1  0.570026  0.930683  0.998669  1
  Se  Se51  1  0.561185  0.185604  0.165071  1
  Se  Se52  1  0.560588  0.188772  0.833306  1
  Se  Se53  1  0.571247  0.181394  0.499625  1
  Se  Se54  1  0.619592  0.608874  0.627180  1
  Se  Se55  1  0.635784  0.626694  0.003734  1
  Se  Se56  1  0.726838  0.719577  0.476885  1
  Se  Se57  1  0.761888  0.748258  0.170332  1
  Se  Se58  1  0.767185  0.757089  0.836890  1
  Se  Se59  1  0.815035  0.439046  0.167762  1
  Se  Se60  1  0.811647  0.441963  0.831861  1
  Se  Se61  1  0.804962  0.195537  0.000336  1
  Se  Se62  1  0.815874  0.430506  0.494530  1
  Se  Se63  1  0.828599  0.169728  0.330099  1
  Se  Se64  1  0.824139  0.175999  0.668132  1
  Se  Se65  1  0.882185  0.872773  0.689209  1
  Se  Se66  1  0.881099  0.868606  0.313967  1
  Se  Se67  1  0.914149  0.928116  0.001212  1
