# generated using pymatgen
data_Cd(Ga3Te5)2
_symmetry_space_group_name_H-M   'P 1'
_cell_length_a   21.46117630
_cell_length_b   11.52823040
_cell_length_c   7.53386779
_cell_angle_alpha   29.23072727
_cell_angle_beta   54.90159987
_cell_angle_gamma   40.49300470
_symmetry_Int_Tables_number   1
_chemical_formula_structural   Cd(Ga3Te5)2
_chemical_formula_sum   'Cd1 Ga6 Te10'
_cell_volume   567.48045714
_cell_formula_units_Z   1
loop_
 _symmetry_equiv_pos_site_id
 _symmetry_equiv_pos_as_xyz
  1  'x, y, z'
loop_
 _atom_site_type_symbol
 _atom_site_label
 _atom_site_symmetry_multiplicity
 _atom_site_fract_x
 _atom_site_fract_y
 _atom_site_fract_z
 _atom_site_occupancy
  Cd  Cd0  1  0.700016  0.499702  0.000257  1
  Ga  Ga1  1  0.001505  0.000267  0.002543  1
  Ga  Ga2  1  0.098792  0.516354  0.977218  1
  Ga  Ga3  1  0.398500  0.010526  0.986652  1
  Ga  Ga4  1  0.301191  0.503896  0.002567  1
  Ga  Ga5  1  0.599744  0.001761  0.001588  1
  Ga  Ga6  1  0.800243  0.003836  0.992809  1
  Te  Te7  1  0.154266  0.474156  0.281756  1
  Te  Te8  1  0.043944  0.017202  0.240357  1
  Te  Te9  1  0.356023  0.494495  0.248065  1
  Te  Te10  1  0.245742  0.001351  0.242751  1
  Te  Te11  1  0.536775  0.501086  0.249304  1
  Te  Te12  1  0.451216  0.974248  0.292243  1
  Te  Te13  1  0.764899  0.501502  0.240045  1
  Te  Te14  1  0.635103  0.067600  0.190833  1
  Te  Te15  1  0.948794  0.496713  0.236769  1
  Te  Te16  1  0.863248  0.935304  0.314243  1
