# generated using pymatgen
data_Rb2PdSe16
_symmetry_space_group_name_H-M   'P 1'
_cell_length_a   7.07303429
_cell_length_b   12.96650431
_cell_length_c   12.96650431
_cell_angle_alpha   90.00000000
_cell_angle_beta   90.00000000
_cell_angle_gamma   90.00000000
_symmetry_Int_Tables_number   1
_chemical_formula_structural   Rb2PdSe16
_chemical_formula_sum   'Rb4 Pd2 Se32'
_cell_volume   1189.19091042
_cell_formula_units_Z   2
loop_
 _symmetry_equiv_pos_site_id
 _symmetry_equiv_pos_as_xyz
  1  'x, y, z'
loop_
 _atom_site_type_symbol
 _atom_site_label
 _atom_site_symmetry_multiplicity
 _atom_site_fract_x
 _atom_site_fract_y
 _atom_site_fract_z
 _atom_site_occupancy
  Se  Se0  1  0.586183  0.191282  0.577105  1
  Se  Se1  1  0.586183  0.808718  0.422895  1
  Se  Se2  1  0.413817  0.577105  0.808718  1
  Se  Se3  1  0.413817  0.422895  0.191282  1
  Se  Se4  1  0.586183  0.308718  0.077105  1
  Se  Se5  1  0.413817  0.077105  0.691282  1
  Se  Se6  1  0.968090  0.812998  0.034061  1
  Se  Se7  1  0.031910  0.034061  0.187002  1
  Se  Se8  1  0.031910  0.965939  0.812998  1
  Se  Se9  1  0.968090  0.187002  0.965939  1
  Se  Se10  1  0.031910  0.534061  0.312998  1
  Se  Se11  1  0.031910  0.465939  0.687002  1
  Se  Se12  1  0.968090  0.687002  0.534061  1
  Se  Se13  1  0.968090  0.312998  0.465939  1
  Se  Se14  1  0.127036  0.789381  0.797881  1
  Se  Se15  1  0.872964  0.797881  0.210619  1
  Se  Se16  1  0.872964  0.202119  0.789381  1
  Se  Se17  1  0.127036  0.210619  0.202119  1
  Se  Se18  1  0.872964  0.297881  0.289381  1
  Se  Se19  1  0.872964  0.702119  0.710619  1
  Se  Se20  1  0.127036  0.710619  0.297881  1
  Se  Se21  1  0.127036  0.289381  0.702119  1
  Se  Se22  1  0.589763  0.919233  0.692093  1
  Se  Se23  1  0.410237  0.692093  0.080767  1
  Se  Se24  1  0.410237  0.307907  0.919233  1
  Se  Se25  1  0.589763  0.080767  0.307907  1
  Se  Se26  1  0.410237  0.192093  0.419233  1
  Se  Se27  1  0.410237  0.807907  0.580767  1
  Se  Se28  1  0.589763  0.580767  0.192093  1
  Se  Se29  1  0.589763  0.419233  0.807907  1
  Se  Se30  1  0.586183  0.691282  0.922895  1
  Se  Se31  1  0.413817  0.922895  0.308718  1
  Rb  Rb32  1  0.000000  0.500000  0.000000  1
  Rb  Rb33  1  0.000000  0.000000  0.500000  1
  Rb  Rb34  1  0.500000  0.500000  0.500000  1
  Rb  Rb35  1  0.500000  0.000000  0.000000  1
  Pd  Pd36  1  0.000000  0.000000  0.000000  1
  Pd  Pd37  1  0.000000  0.500000  0.500000  1
