# generated using pymatgen
data_La2Te3
_symmetry_space_group_name_H-M   'P 1'
_cell_length_a   25.15310826
_cell_length_b   9.67370737
_cell_length_c   9.67370719
_cell_angle_alpha   89.99999864
_cell_angle_beta   54.76794632
_cell_angle_gamma   54.76794706
_symmetry_Int_Tables_number   1
_chemical_formula_structural   La2Te3
_chemical_formula_sum   'La16 Te24'
_cell_volume   1361.15927471
_cell_formula_units_Z   8
loop_
 _symmetry_equiv_pos_site_id
 _symmetry_equiv_pos_as_xyz
  1  'x, y, z'
loop_
 _atom_site_type_symbol
 _atom_site_label
 _atom_site_symmetry_multiplicity
 _atom_site_fract_x
 _atom_site_fract_y
 _atom_site_fract_z
 _atom_site_occupancy
  La  La0  1  0.998051  0.122663  0.758656  1
  La  La1  1  0.081308  0.628038  0.378038  1
  La  La2  1  0.166667  0.250000  0.629930  1
  La  La3  1  0.335282  0.377337  0.252811  1
  La  La4  1  0.252025  0.871962  0.121962  1
  La  La5  1  0.335282  0.116818  0.741344  1
  La  La6  1  0.166667  0.750000  0.870070  1
  La  La7  1  0.498051  0.258656  0.622663  1
  La  La8  1  0.666667  0.370070  0.250000  1
  La  La9  1  0.581308  0.878038  0.128038  1
  La  La10  1  0.666667  0.129930  0.750000  1
  La  La11  1  0.498051  0.747189  0.883182  1
  La  La12  1  0.752025  0.621962  0.371962  1
  La  La13  1  0.835282  0.241344  0.616818  1
  La  La14  1  0.998051  0.383182  0.247189  1
  La  La15  1  0.835282  0.752811  0.877337  1
  Te  Te16  1  0.051578  0.999846  0.347545  1
  Te  Te17  1  0.120661  0.493834  0.996510  1
  Te  Te18  1  0.051578  0.345419  0.497720  1
  Te  Te19  1  0.281755  0.154581  0.152455  1
  Te  Te20  1  0.281755  0.500154  0.002280  1
  Te  Te21  1  0.120661  0.644184  0.641508  1
  Te  Te22  1  0.385240  0.998411  0.342095  1
  Te  Te23  1  0.212673  0.855816  0.503490  1
  Te  Te24  1  0.448093  0.497817  0.001589  1
  Te  Te25  1  0.385240  0.345867  0.502183  1
  Te  Te26  1  0.212673  0.006166  0.858492  1
  Te  Te27  1  0.620661  0.141508  0.144184  1
  Te  Te28  1  0.620661  0.496510  0.993834  1
  Te  Te29  1  0.448093  0.657905  0.654133  1
  Te  Te30  1  0.712673  0.003490  0.355816  1
  Te  Te31  1  0.551578  0.847545  0.499846  1
  Te  Te32  1  0.781755  0.502280  0.000154  1
  Te  Te33  1  0.712673  0.358492  0.506166  1
  Te  Te34  1  0.551578  0.997720  0.845419  1
  Te  Te35  1  0.948093  0.154133  0.157905  1
  Te  Te36  1  0.948093  0.501589  0.997817  1
  Te  Te37  1  0.781755  0.652455  0.654581  1
  Te  Te38  1  0.885240  0.842095  0.498411  1
  Te  Te39  1  0.885240  0.002183  0.845867  1
