# generated using pymatgen
data_LiCr2(PO4)3
_symmetry_space_group_name_H-M   'P 1'
_cell_length_a   8.52794922
_cell_length_b   12.08385247
_cell_length_c   8.62986984
_cell_angle_alpha   90.00000000
_cell_angle_beta   90.00000000
_cell_angle_gamma   89.99254882
_symmetry_Int_Tables_number   1
_chemical_formula_structural   LiCr2(PO4)3
_chemical_formula_sum   'Li4 Cr8 P12 O48'
_cell_volume   889.31222401
_cell_formula_units_Z   4
loop_
 _symmetry_equiv_pos_site_id
 _symmetry_equiv_pos_as_xyz
  1  'x, y, z'
loop_
 _atom_site_type_symbol
 _atom_site_label
 _atom_site_symmetry_multiplicity
 _atom_site_fract_x
 _atom_site_fract_y
 _atom_site_fract_z
 _atom_site_occupancy
  Li  Li0  1  0.220104  0.181979  0.781299  1
  Li  Li1  1  0.783214  0.182168  0.280975  1
  Li  Li2  1  0.720104  0.681979  0.718701  1
  Li  Li3  1  0.283214  0.682168  0.219025  1
  O  O4  1  0.327811  0.729271  0.009966  1
  O  O5  1  0.861180  0.419422  0.659370  1
  O  O6  1  0.852884  0.172005  0.775674  1
  O  O7  1  0.844791  0.031065  0.553335  1
  O  O8  1  0.855968  0.580243  0.838670  1
  O  O9  1  0.929511  0.843843  0.405221  1
  O  O10  1  0.941556  0.574740  0.142344  1
  O  O11  1  0.938039  0.428890  0.361815  1
  O  O12  1  0.059847  0.574728  0.641342  1
  O  O13  1  0.065252  0.428978  0.860867  1
  O  O14  1  0.072719  0.843838  0.905961  1
  O  O15  1  0.079951  0.155342  0.600478  1
  O  O16  1  0.140623  0.419606  0.158801  1
  O  O17  1  0.148450  0.172064  0.275852  1
  O  O18  1  0.146836  0.580288  0.338310  1
  O  O19  1  0.158182  0.031188  0.053461  1
  O  O20  1  0.165202  0.970626  0.437743  1
  O  O21  1  0.161763  0.823929  0.227219  1
  O  O22  1  0.175501  0.769673  0.511112  1
  O  O23  1  0.174702  0.229354  0.990107  1
  O  O24  1  0.326462  0.269712  0.488985  1
  O  O25  1  0.922410  0.155272  0.099697  1
  O  O26  1  0.341404  0.323753  0.773014  1
  O  O27  1  0.336632  0.470567  0.562713  1
  O  O28  1  0.344792  0.531065  0.946665  1
  O  O29  1  0.355968  0.080243  0.661330  1
  O  O30  1  0.352883  0.672005  0.724326  1
  O  O31  1  0.361180  0.919421  0.840630  1
  O  O32  1  0.422411  0.655271  0.400303  1
  O  O33  1  0.429512  0.343842  0.094779  1
  O  O34  1  0.441556  0.074741  0.357656  1
  O  O35  1  0.438040  0.928890  0.138185  1
  O  O36  1  0.559848  0.074728  0.858658  1
  O  O37  1  0.565251  0.928978  0.639133  1
  O  O38  1  0.572720  0.343839  0.594039  1
  O  O39  1  0.579952  0.655342  0.899522  1
  O  O40  1  0.640623  0.919606  0.341199  1
  O  O41  1  0.646836  0.080288  0.161690  1
  O  O42  1  0.648449  0.672064  0.224148  1
  O  O43  1  0.658182  0.531188  0.446539  1
  O  O44  1  0.665201  0.470626  0.062257  1
  O  O45  1  0.661764  0.323929  0.272781  1
  O  O46  1  0.836632  0.970568  0.937287  1
  O  O47  1  0.674701  0.729355  0.509893  1
  O  O48  1  0.827812  0.229271  0.490034  1
  O  O49  1  0.826462  0.769711  0.011015  1
  O  O50  1  0.841404  0.823752  0.726986  1
  O  O51  1  0.675501  0.269674  0.988888  1
  P  P52  1  0.397206  0.645426  0.892249  1
  P  P53  1  0.464908  0.998788  0.747952  1
  P  P54  1  0.391749  0.354847  0.605752  1
  P  P55  1  0.537412  0.998842  0.247755  1
  P  P56  1  0.605147  0.645462  0.392338  1
  P  P57  1  0.610547  0.354883  0.105739  1
  P  P58  1  0.891750  0.854847  0.894248  1
  P  P59  1  0.897206  0.145426  0.607751  1
  P  P60  1  0.037413  0.498843  0.252245  1
  P  P61  1  0.105147  0.145462  0.107662  1
  P  P62  1  0.110546  0.854883  0.394261  1
  P  P63  1  0.964908  0.498789  0.752048  1
  Cr  Cr64  1  0.752841  0.885210  0.529658  1
  Cr  Cr65  1  0.753648  0.617421  0.040687  1
  Cr  Cr66  1  0.749895  0.385236  0.470393  1
  Cr  Cr67  1  0.748310  0.117351  0.959304  1
  Cr  Cr68  1  0.249895  0.885236  0.029607  1
  Cr  Cr69  1  0.252841  0.385211  0.970342  1
  Cr  Cr70  1  0.253649  0.117421  0.459313  1
  Cr  Cr71  1  0.248311  0.617351  0.540696  1
