# generated using pymatgen
data_AlPO4
_symmetry_space_group_name_H-M   'P 1'
_cell_length_a   9.79762277
_cell_length_b   9.79762300
_cell_length_c   9.79762326
_cell_angle_alpha   60.00000144
_cell_angle_beta   60.00000170
_cell_angle_gamma   60.00000080
_symmetry_Int_Tables_number   1
_chemical_formula_structural   AlPO4
_chemical_formula_sum   'Al5 P5 O20'
_cell_volume   665.03911489
_cell_formula_units_Z   5
loop_
 _symmetry_equiv_pos_site_id
 _symmetry_equiv_pos_as_xyz
  1  'x, y, z'
loop_
 _atom_site_type_symbol
 _atom_site_label
 _atom_site_symmetry_multiplicity
 _atom_site_fract_x
 _atom_site_fract_y
 _atom_site_fract_z
 _atom_site_occupancy
  Al  Al0  1  0.250000  0.250000  0.250000  1
  Al  Al1  1  0.341821  0.886060  0.886060  1
  Al  Al2  1  0.886060  0.341821  0.886060  1
  Al  Al3  1  0.886060  0.886060  0.341821  1
  Al  Al4  1  0.886060  0.886060  0.886060  1
  O  O5  1  0.008153  0.008153  0.266043  1
  O  O6  1  0.266043  0.008153  0.008153  1
  O  O7  1  0.008153  0.717652  0.008153  1
  O  O8  1  0.177921  0.177921  0.177921  1
  O  O9  1  0.177921  0.177921  0.466238  1
  O  O10  1  0.177921  0.466238  0.177921  1
  O  O11  1  0.008153  0.717652  0.266043  1
  O  O12  1  0.466238  0.177921  0.177921  1
  O  O13  1  0.266043  0.717652  0.008153  1
  O  O14  1  0.717652  0.008153  0.008153  1
  O  O15  1  0.717652  0.008153  0.266043  1
  O  O16  1  0.717652  0.266043  0.008153  1
  O  O17  1  0.008153  0.266043  0.008153  1
  O  O18  1  0.266043  0.008153  0.717652  1
  O  O19  1  0.558647  0.813784  0.813784  1
  O  O20  1  0.008153  0.266043  0.717652  1
  O  O21  1  0.813784  0.558647  0.813784  1
  O  O22  1  0.813784  0.813784  0.558647  1
  O  O23  1  0.813784  0.813784  0.813784  1
  O  O24  1  0.008153  0.008153  0.717652  1
  P  P25  1  0.114746  0.114746  0.114746  1
  P  P26  1  0.114746  0.655762  0.114746  1
  P  P27  1  0.114746  0.114746  0.655762  1
  P  P28  1  0.655762  0.114746  0.114746  1
  P  P29  1  0.750000  0.750000  0.750000  1
