# generated using pymatgen
data_Na5CoO4
_symmetry_space_group_name_H-M   'P 1'
_cell_length_a   6.01030155
_cell_length_b   10.46042262
_cell_length_c   18.01309139
_cell_angle_alpha   90.00000000
_cell_angle_beta   90.00000000
_cell_angle_gamma   90.00000000
_symmetry_Int_Tables_number   1
_chemical_formula_structural   Na5CoO4
_chemical_formula_sum   'Na40 Co8 O32'
_cell_volume   1132.48835670
_cell_formula_units_Z   8
loop_
 _symmetry_equiv_pos_site_id
 _symmetry_equiv_pos_as_xyz
  1  'x, y, z'
loop_
 _atom_site_type_symbol
 _atom_site_label
 _atom_site_symmetry_multiplicity
 _atom_site_fract_x
 _atom_site_fract_y
 _atom_site_fract_z
 _atom_site_occupancy
  O  O0  1  0.861862  0.043070  0.120911  1
  O  O1  1  0.361863  0.956930  0.379089  1
  O  O2  1  0.638137  0.543070  0.879089  1
  O  O3  1  0.138137  0.456929  0.620911  1
  O  O4  1  0.138137  0.956930  0.879089  1
  O  O5  1  0.638137  0.043070  0.620911  1
  O  O6  1  0.361863  0.456929  0.120911  1
  O  O7  1  0.861862  0.543070  0.379089  1
  O  O8  1  0.809275  0.366081  0.046848  1
  O  O9  1  0.309275  0.633919  0.453152  1
  O  O10  1  0.690724  0.866082  0.953152  1
  O  O11  1  0.190724  0.133918  0.546848  1
  O  O12  1  0.190724  0.633919  0.953152  1
  O  O13  1  0.690724  0.366081  0.546848  1
  O  O14  1  0.309275  0.133918  0.046848  1
  O  O15  1  0.809275  0.866082  0.453152  1
  O  O16  1  0.735459  0.371453  0.710970  1
  O  O17  1  0.235458  0.628547  0.789030  1
  O  O18  1  0.764540  0.871453  0.289030  1
  O  O19  1  0.264540  0.128546  0.210970  1
  O  O20  1  0.264540  0.628547  0.289030  1
  O  O21  1  0.764540  0.371453  0.210970  1
  O  O22  1  0.235458  0.128546  0.710970  1
  O  O23  1  0.735459  0.871453  0.789030  1
  O  O24  1  0.741324  0.135445  0.875329  1
  O  O25  1  0.241323  0.864555  0.624671  1
  O  O26  1  0.758677  0.635445  0.124671  1
  O  O27  1  0.258677  0.364555  0.375329  1
  O  O28  1  0.258677  0.864555  0.124671  1
  O  O29  1  0.758677  0.135445  0.375329  1
  O  O30  1  0.241323  0.364555  0.875329  1
  O  O31  1  0.741324  0.635445  0.624671  1
  Na  Na32  1  0.099873  0.424359  0.752599  1
  Na  Na33  1  0.420830  0.300206  0.640693  1
  Na  Na34  1  0.579171  0.199793  0.140693  1
  Na  Na35  1  0.079171  0.800207  0.359307  1
  Na  Na36  1  0.079171  0.300206  0.140693  1
  Na  Na37  1  0.579171  0.699793  0.359307  1
  Na  Na38  1  0.420830  0.800207  0.859307  1
  Na  Na39  1  0.920830  0.199793  0.640693  1
  Na  Na40  1  0.898718  0.825679  0.171885  1
  Na  Na41  1  0.398718  0.174320  0.328115  1
  Na  Na42  1  0.601283  0.325680  0.828115  1
  Na  Na43  1  0.101282  0.674321  0.671885  1
  Na  Na44  1  0.101282  0.174320  0.828115  1
  Na  Na45  1  0.601283  0.825679  0.671885  1
  Na  Na46  1  0.398718  0.674321  0.171885  1
  Na  Na47  1  0.898718  0.325680  0.328115  1
  Na  Na48  1  0.914859  0.160075  0.002115  1
  Na  Na49  1  0.414859  0.839925  0.497885  1
  Na  Na50  1  0.585142  0.660074  0.997885  1
  Na  Na51  1  0.085142  0.339926  0.502115  1
  Na  Na52  1  0.085142  0.839925  0.997885  1
  Na  Na53  1  0.585142  0.160075  0.502115  1
  Na  Na54  1  0.414859  0.339926  0.002115  1
  Na  Na55  1  0.914859  0.660074  0.497885  1
  Na  Na56  1  0.921926  0.938392  0.565213  1
  Na  Na57  1  0.400128  0.924359  0.247401  1
  Na  Na58  1  0.599873  0.575640  0.747401  1
  Na  Na59  1  0.920830  0.699793  0.859307  1
  Na  Na60  1  0.099873  0.924359  0.747401  1
  Na  Na61  1  0.599873  0.075641  0.752599  1
  Na  Na62  1  0.400128  0.424359  0.252599  1
  Na  Na63  1  0.900128  0.575640  0.247401  1
  Na  Na64  1  0.921926  0.438391  0.934787  1
  Na  Na65  1  0.421926  0.561608  0.565213  1
  Na  Na66  1  0.578075  0.938392  0.065213  1
  Na  Na67  1  0.078074  0.061609  0.434787  1
  Na  Na68  1  0.078074  0.561608  0.065213  1
  Na  Na69  1  0.578075  0.438391  0.434787  1
  Na  Na70  1  0.421926  0.061609  0.934787  1
  Na  Na71  1  0.900128  0.075641  0.252599  1
  Co  Co72  1  0.826209  0.459535  0.622736  1
  Co  Co73  1  0.326209  0.540466  0.877264  1
  Co  Co74  1  0.673792  0.959534  0.377264  1
  Co  Co75  1  0.173791  0.040466  0.122736  1
  Co  Co76  1  0.173791  0.540466  0.377264  1
  Co  Co77  1  0.673792  0.459535  0.122736  1
  Co  Co78  1  0.326209  0.040466  0.622736  1
  Co  Co79  1  0.826209  0.959534  0.877264  1
