# generated using pymatgen
data_U(BO3)2
_symmetry_space_group_name_H-M   'P 1'
_cell_length_a   4.22409930
_cell_length_b   6.68110063
_cell_length_c   9.52435031
_cell_angle_alpha   82.02002745
_cell_angle_beta   77.18800622
_cell_angle_gamma   71.57137769
_symmetry_Int_Tables_number   1
_chemical_formula_structural   U(BO3)2
_chemical_formula_sum   'U2 B4 O12'
_cell_volume   247.97245134
_cell_formula_units_Z   2
loop_
 _symmetry_equiv_pos_site_id
 _symmetry_equiv_pos_as_xyz
  1  'x, y, z'
loop_
 _atom_site_type_symbol
 _atom_site_label
 _atom_site_symmetry_multiplicity
 _atom_site_fract_x
 _atom_site_fract_y
 _atom_site_fract_z
 _atom_site_occupancy
  B  B0  1  0.548578  0.351688  0.250655  1
  B  B1  1  0.849080  0.851688  0.750655  1
  B  B2  1  0.451422  0.648312  0.749345  1
  B  B3  1  0.150920  0.148312  0.249345  1
  O  O4  1  0.156330  0.231377  0.944179  1
  O  O5  1  0.331887  0.268623  0.555821  1
  O  O6  1  0.656273  0.449632  0.753400  1
  O  O7  1  0.859305  0.050368  0.746600  1
  O  O8  1  0.343727  0.550368  0.246600  1
  O  O9  1  0.140695  0.949632  0.253400  1
  O  O10  1  0.525335  0.833611  0.758548  1
  O  O11  1  0.117494  0.666389  0.741452  1
  O  O12  1  0.474665  0.166389  0.241452  1
  O  O13  1  0.882506  0.333611  0.258548  1
  O  O14  1  0.668113  0.731377  0.444179  1
  O  O15  1  0.843670  0.768623  0.055821  1
  U  U16  1  0.237452  0.250000  0.750000  1
  U  U17  1  0.762548  0.750000  0.250000  1
