# generated using pymatgen
data_Li3Mn2(PO4)3
_symmetry_space_group_name_H-M   'P 1'
_cell_length_a   8.81866216
_cell_length_b   8.87412129
_cell_length_c   8.81866179
_cell_angle_alpha   58.76898284
_cell_angle_beta   120.42503976
_cell_angle_gamma   121.23101749
_symmetry_Int_Tables_number   1
_chemical_formula_structural   Li3Mn2(PO4)3
_chemical_formula_sum   'Li6 Mn4 P6 O24'
_cell_volume   477.22018753
_cell_formula_units_Z   2
loop_
 _symmetry_equiv_pos_site_id
 _symmetry_equiv_pos_as_xyz
  1  'x, y, z'
loop_
 _atom_site_type_symbol
 _atom_site_label
 _atom_site_symmetry_multiplicity
 _atom_site_fract_x
 _atom_site_fract_y
 _atom_site_fract_z
 _atom_site_occupancy
  Li  Li0  1  0.746254  0.333772  0.109879  1
  Li  Li1  1  0.628318  0.745911  0.627067  1
  Li  Li2  1  0.361499  0.566311  0.964633  1
  Li  Li3  1  0.035367  0.066311  0.638501  1
  Li  Li4  1  0.372933  0.245911  0.371682  1
  Li  Li5  1  0.890121  0.833772  0.253746  1
  Mn  Mn6  1  0.849408  0.562266  0.640070  1
  Mn  Mn7  1  0.148615  0.443434  0.347552  1
  Mn  Mn8  1  0.359930  0.062266  0.150592  1
  Mn  Mn9  1  0.652448  0.943434  0.851385  1
  P  P10  1  0.048216  0.266565  0.048952  1
  P  P11  1  0.744281  0.231244  0.466522  1
  P  P12  1  0.242746  0.750857  0.524454  1
  P  P13  1  0.533478  0.731244  0.255719  1
  P  P14  1  0.475546  0.250856  0.757254  1
  P  P15  1  0.951048  0.766565  0.951784  1
  O  O16  1  0.487198  0.206539  0.956480  1
  O  O17  1  0.771683  0.761459  0.955859  1
  O  O18  1  0.968852  0.576752  0.098490  1
  O  O19  1  0.278918  0.240878  0.613833  1
  O  O20  1  0.729657  0.731993  0.408889  1
  O  O21  1  0.288415  0.954752  0.376331  1
  O  O22  1  0.386167  0.740878  0.721082  1
  O  O23  1  0.251881  0.615147  0.472150  1
  O  O24  1  0.929770  0.273467  0.448731  1
  O  O25  1  0.623669  0.454752  0.711585  1
  O  O26  1  0.705933  0.031253  0.618303  1
  O  O27  1  0.739311  0.373102  0.508163  1
  O  O28  1  0.527850  0.115147  0.748119  1
  O  O29  1  0.007728  0.439696  0.876322  1
  O  O30  1  0.901510  0.076752  0.031148  1
  O  O31  1  0.591111  0.231993  0.270343  1
  O  O32  1  0.123678  0.939696  0.992272  1
  O  O33  1  0.916046  0.790059  0.751047  1
  O  O34  1  0.248953  0.290059  0.083954  1
  O  O35  1  0.551269  0.773467  0.070230  1
  O  O36  1  0.381697  0.531253  0.294067  1
  O  O37  1  0.491837  0.873102  0.260689  1
  O  O38  1  0.044141  0.261459  0.228317  1
  O  O39  1  0.043520  0.706539  0.512802  1
