# generated using pymatgen
data_LiVPO5
_symmetry_space_group_name_H-M   'P 1'
_cell_length_a   6.36353997
_cell_length_b   6.36353998
_cell_length_c   4.54910889
_cell_angle_alpha   90.00000000
_cell_angle_beta   90.00000000
_cell_angle_gamma   88.30923946
_symmetry_Int_Tables_number   1
_chemical_formula_structural   LiVPO5
_chemical_formula_sum   'Li2 V2 P2 O10'
_cell_volume   184.13433017
_cell_formula_units_Z   2
loop_
 _symmetry_equiv_pos_site_id
 _symmetry_equiv_pos_as_xyz
  1  'x, y, z'
loop_
 _atom_site_type_symbol
 _atom_site_label
 _atom_site_symmetry_multiplicity
 _atom_site_fract_x
 _atom_site_fract_y
 _atom_site_fract_z
 _atom_site_occupancy
  Li  Li0  1  0.483920  0.483920  0.980944  1
  Li  Li1  1  0.983921  0.983921  0.019056  1
  O  O2  1  0.251715  0.551694  0.296059  1
  O  O3  1  0.241487  0.944528  0.299477  1
  O  O4  1  0.256850  0.256849  0.779597  1
  O  O5  1  0.051694  0.751715  0.703941  1
  O  O6  1  0.444529  0.741487  0.700521  1
  O  O7  1  0.551694  0.251714  0.296059  1
  O  O8  1  0.944529  0.241486  0.299477  1
  O  O9  1  0.751715  0.051695  0.703941  1
  O  O10  1  0.756849  0.756849  0.220403  1
  O  O11  1  0.741487  0.444530  0.700521  1
  P  P12  1  0.247390  0.747390  0.499999  1
  P  P13  1  0.747390  0.247389  0.499999  1
  V  V14  1  0.248415  0.248414  0.417886  1
  V  V15  1  0.748414  0.748416  0.582114  1
