# generated using pymatgen
data_NbO2F
_symmetry_space_group_name_H-M   'P 1'
_cell_length_a   5.62498196
_cell_length_b   11.10750687
_cell_length_c   9.64707317
_cell_angle_alpha   29.71308470
_cell_angle_beta   52.69119829
_cell_angle_gamma   58.23623830
_symmetry_Int_Tables_number   1
_chemical_formula_structural   NbO2F
_chemical_formula_sum   'Nb4 O8 F4'
_cell_volume   237.62352717
_cell_formula_units_Z   4
loop_
 _symmetry_equiv_pos_site_id
 _symmetry_equiv_pos_as_xyz
  1  'x, y, z'
loop_
 _atom_site_type_symbol
 _atom_site_label
 _atom_site_symmetry_multiplicity
 _atom_site_fract_x
 _atom_site_fract_y
 _atom_site_fract_z
 _atom_site_occupancy
  F  F0  1  0.655434  0.294801  0.254877  1
  F  F1  1  0.155434  0.705199  0.344479  1
  F  F2  1  0.844566  0.294801  0.655521  1
  F  F3  1  0.344566  0.705199  0.745123  1
  Nb  Nb4  1  0.000000  0.000000  0.000000  1
  Nb  Nb5  1  0.000000  0.500000  0.000000  1
  Nb  Nb6  1  0.500000  0.000000  0.500000  1
  Nb  Nb7  1  0.500000  0.500000  0.500000  1
  O  O8  1  0.189848  0.219601  0.310321  1
  O  O9  1  0.750000  0.067998  0.182002  1
  O  O10  1  0.310152  0.219601  0.750477  1
  O  O11  1  0.750000  0.567934  0.182066  1
  O  O12  1  0.250000  0.432066  0.817934  1
  O  O13  1  0.689848  0.780399  0.249523  1
  O  O14  1  0.250000  0.932002  0.817998  1
  O  O15  1  0.810152  0.780399  0.689679  1
