# generated using pymatgen
data_Nd4Se3N2
_symmetry_space_group_name_H-M   'P 1'
_cell_length_a   6.49998313
_cell_length_b   8.34240697
_cell_length_c   8.34240755
_cell_angle_alpha   75.62567426
_cell_angle_beta   89.82875337
_cell_angle_gamma   89.82875641
_symmetry_Int_Tables_number   1
_chemical_formula_structural   Nd4Se3N2
_chemical_formula_sum   'Nd8 Se6 N4'
_cell_volume   438.20641500
_cell_formula_units_Z   2
loop_
 _symmetry_equiv_pos_site_id
 _symmetry_equiv_pos_as_xyz
  1  'x, y, z'
loop_
 _atom_site_type_symbol
 _atom_site_label
 _atom_site_symmetry_multiplicity
 _atom_site_fract_x
 _atom_site_fract_y
 _atom_site_fract_z
 _atom_site_occupancy
  Nd  Nd0  1  0.970224  0.556938  0.189522  1
  Nd  Nd1  1  0.529776  0.810478  0.443062  1
  Nd  Nd2  1  0.029776  0.443062  0.810478  1
  Nd  Nd3  1  0.470224  0.189522  0.556938  1
  Nd  Nd4  1  0.927830  0.914476  0.755348  1
  Nd  Nd5  1  0.572170  0.244652  0.085524  1
  Nd  Nd6  1  0.072170  0.085524  0.244652  1
  Nd  Nd7  1  0.427830  0.755348  0.914476  1
  N  N8  1  0.914660  0.329301  0.081727  1
  N  N9  1  0.585340  0.918273  0.670699  1
  N  N10  1  0.085340  0.670699  0.918273  1
  N  N11  1  0.414660  0.081727  0.329301  1
  Se  Se12  1  0.750000  0.903279  0.096721  1
  Se  Se13  1  0.250000  0.096721  0.903279  1
  Se  Se14  1  0.964441  0.253828  0.516052  1
  Se  Se15  1  0.535559  0.483948  0.746172  1
  Se  Se16  1  0.035559  0.746172  0.483948  1
  Se  Se17  1  0.464441  0.516052  0.253828  1
