# generated using pymatgen
data_Al2ZnO4
_symmetry_space_group_name_H-M   'P 1'
_cell_length_a   5.79491436
_cell_length_b   5.83350142
_cell_length_c   5.79491520
_cell_angle_alpha   59.77948595
_cell_angle_beta   59.03650703
_cell_angle_gamma   59.77948156
_symmetry_Int_Tables_number   1
_chemical_formula_structural   Al2ZnO4
_chemical_formula_sum   'Al4 Zn2 O8'
_cell_volume   137.02859725
_cell_formula_units_Z   2
loop_
 _symmetry_equiv_pos_site_id
 _symmetry_equiv_pos_as_xyz
  1  'x, y, z'
loop_
 _atom_site_type_symbol
 _atom_site_label
 _atom_site_symmetry_multiplicity
 _atom_site_fract_x
 _atom_site_fract_y
 _atom_site_fract_z
 _atom_site_occupancy
  Al  Al0  1  0.135312  0.114688  0.135312  1
  Al  Al1  1  0.500000  0.500000  0.500000  1
  Al  Al2  1  0.500000  0.000000  0.500000  1
  Al  Al3  1  0.864688  0.885312  0.864688  1
  O  O4  1  0.268033  0.227421  0.268033  1
  O  O5  1  0.272424  0.242682  0.742213  1
  O  O6  1  0.268033  0.736514  0.268033  1
  O  O7  1  0.742213  0.242682  0.272424  1
  O  O8  1  0.257787  0.757318  0.727576  1
  O  O9  1  0.731967  0.263486  0.731967  1
  O  O10  1  0.727576  0.757318  0.257787  1
  O  O11  1  0.731967  0.772579  0.731967  1
  Zn  Zn12  1  0.000000  0.500000  0.500000  1
  Zn  Zn13  1  0.500000  0.500000  0.000000  1
