# generated using pymatgen
data_Zr5GaSn3
_symmetry_space_group_name_H-M   'P 1'
_cell_length_a   8.74091888
_cell_length_b   8.74391825
_cell_length_c   5.88728280
_cell_angle_alpha   90.00000000
_cell_angle_beta   90.00000000
_cell_angle_gamma   120.01135252
_symmetry_Int_Tables_number   1
_chemical_formula_structural   Zr5GaSn3
_chemical_formula_sum   'Zr10 Ga2 Sn6'
_cell_volume   389.63594542
_cell_formula_units_Z   2
loop_
 _symmetry_equiv_pos_site_id
 _symmetry_equiv_pos_as_xyz
  1  'x, y, z'
loop_
 _atom_site_type_symbol
 _atom_site_label
 _atom_site_symmetry_multiplicity
 _atom_site_fract_x
 _atom_site_fract_y
 _atom_site_fract_z
 _atom_site_occupancy
  Zr  Zr0  1  0.732942  0.732950  0.250000  1
  Zr  Zr1  1  0.267058  0.000009  0.250000  1
  Zr  Zr2  1  -0.000000  0.267012  0.249999  1
  Zr  Zr3  1  0.732942  0.999991  0.750000  1
  Zr  Zr4  1  0.333303  0.666652  0.500000  1
  Zr  Zr5  1  0.666697  0.333348  0.500000  1
  Zr  Zr6  1  0.267058  0.267050  0.750000  1
  Zr  Zr7  1  0.000000  0.732988  0.749999  1
  Zr  Zr8  1  0.333303  0.666652  1.000000  1
  Zr  Zr9  1  0.666697  0.333348  1.000000  1
  Ga  Ga10  1  -0.000000  0.000000  0.000000  1
  Ga  Ga11  1  0.000000  1.000000  0.500000  1
  Sn  Sn12  1  0.000000  0.612716  0.250000  1
  Sn  Sn13  1  -0.000000  0.387284  0.750000  1
  Sn  Sn14  1  0.387439  0.999990  0.750000  1
  Sn  Sn15  1  0.387439  0.387449  0.250000  1
  Sn  Sn16  1  0.612561  0.000010  0.250000  1
  Sn  Sn17  1  0.612561  0.612551  0.750000  1
