# generated using pymatgen
data_Ca(Ce2Se3)4
_symmetry_space_group_name_H-M   'P 1'
_cell_length_a   23.14885095
_cell_length_b   8.91255359
_cell_length_c   8.91255328
_cell_angle_alpha   89.94862718
_cell_angle_beta   54.67101015
_cell_angle_gamma   54.67101116
_symmetry_Int_Tables_number   1
_chemical_formula_structural   Ca(Ce2Se3)4
_chemical_formula_sum   'Ca2 Ce16 Se24'
_cell_volume   1059.19378596
_cell_formula_units_Z   2
loop_
 _symmetry_equiv_pos_site_id
 _symmetry_equiv_pos_as_xyz
  1  'x, y, z'
loop_
 _atom_site_type_symbol
 _atom_site_label
 _atom_site_symmetry_multiplicity
 _atom_site_fract_x
 _atom_site_fract_y
 _atom_site_fract_z
 _atom_site_occupancy
  Ca  Ca0  1  0.166741  0.249832  0.624950  1
  Ca  Ca1  1  0.666741  0.124950  0.749832  1
  Ce  Ce2  1  0.000034  0.125210  0.749950  1
  Ce  Ce3  1  0.083660  0.624262  0.374488  1
  Ce  Ce4  1  0.333316  0.374844  0.249224  1
  Ce  Ce5  1  0.249893  0.875256  0.125701  1
  Ce  Ce6  1  0.166559  0.750242  0.875356  1
  Ce  Ce7  1  0.333076  0.124909  0.750234  1
  Ce  Ce8  1  0.416628  0.625350  0.375679  1
  Ce  Ce9  1  0.500034  0.249950  0.625210  1
  Ce  Ce10  1  0.666559  0.375356  0.250242  1
  Ce  Ce11  1  0.583660  0.874488  0.124262  1
  Ce  Ce12  1  0.499886  0.749897  0.875054  1
  Ce  Ce13  1  0.749893  0.625701  0.375256  1
  Ce  Ce14  1  0.833076  0.250234  0.624909  1
  Ce  Ce15  1  0.999886  0.375054  0.249897  1
  Ce  Ce16  1  0.916628  0.875679  0.125350  1
  Ce  Ce17  1  0.833316  0.749224  0.874844  1
  Se  Se18  1  0.116605  0.501377  0.001419  1
  Se  Se19  1  0.049232  0.350361  0.499527  1
  Se  Se20  1  0.284332  0.148890  0.146622  1
  Se  Se21  1  0.050153  0.000168  0.349503  1
  Se  Se22  1  0.283226  0.500228  0.999863  1
  Se  Se23  1  0.116831  0.649642  0.650991  1
  Se  Se24  1  0.216952  0.998190  0.851133  1
  Se  Se25  1  0.216388  0.850587  0.501125  1
  Se  Se26  1  0.450111  0.499225  0.999842  1
  Se  Se27  1  0.383259  0.349880  0.500492  1
  Se  Se28  1  0.382946  0.000537  0.349748  1
  Se  Se29  1  0.616831  0.150991  0.149642  1
  Se  Se30  1  0.616605  0.501419  0.001377  1
  Se  Se31  1  0.450172  0.650075  0.650138  1
  Se  Se32  1  0.549232  0.999527  0.850361  1
  Se  Se33  1  0.550153  0.849503  0.500168  1
  Se  Se34  1  0.783226  0.499863  0.000228  1
  Se  Se35  1  0.716952  0.351133  0.498190  1
  Se  Se36  1  0.716388  0.001125  0.350587  1
  Se  Se37  1  0.950172  0.150138  0.150075  1
  Se  Se38  1  0.950111  0.499842  0.999225  1
  Se  Se39  1  0.883259  0.000492  0.849880  1
  Se  Se40  1  0.784332  0.646622  0.648890  1
  Se  Se41  1  0.882946  0.849748  0.500537  1
