# generated using pymatgen
data_Tl2TeI6
_symmetry_space_group_name_H-M   'P 1'
_cell_length_a   8.02511813
_cell_length_b   8.61807394
_cell_length_c   11.48177713
_cell_angle_alpha   90.00000000
_cell_angle_beta   90.52044542
_cell_angle_gamma   90.00000000
_symmetry_Int_Tables_number   1
_chemical_formula_structural   Tl2TeI6
_chemical_formula_sum   'Tl4 Te2 I12'
_cell_volume   794.05913352
_cell_formula_units_Z   2
loop_
 _symmetry_equiv_pos_site_id
 _symmetry_equiv_pos_as_xyz
  1  'x, y, z'
loop_
 _atom_site_type_symbol
 _atom_site_label
 _atom_site_symmetry_multiplicity
 _atom_site_fract_x
 _atom_site_fract_y
 _atom_site_fract_z
 _atom_site_occupancy
  Te  Te0  1  0.000000  0.000000  0.000000  1
  Te  Te1  1  0.500000  0.500000  0.500000  1
  I  I2  1  0.311699  0.206365  0.540502  1
  I  I3  1  0.188301  0.706365  0.959498  1
  I  I4  1  0.688301  0.793635  0.459498  1
  I  I5  1  0.811699  0.293635  0.040502  1
  I  I6  1  0.091518  0.990426  0.251751  1
  I  I7  1  0.408482  0.490426  0.248249  1
  I  I8  1  0.908482  0.009574  0.748249  1
  I  I9  1  0.591518  0.509574  0.751751  1
  I  I10  1  0.196606  0.689158  0.546892  1
  I  I11  1  0.303394  0.189158  0.953108  1
  I  I12  1  0.803394  0.310842  0.453108  1
  I  I13  1  0.696606  0.810842  0.046892  1
  Tl  Tl14  1  0.471842  0.904330  0.753292  1
  Tl  Tl15  1  0.028158  0.404330  0.746708  1
  Tl  Tl16  1  0.528158  0.095670  0.246708  1
  Tl  Tl17  1  0.971842  0.595670  0.253292  1
