# generated using pymatgen
data_HgClO3
_symmetry_space_group_name_H-M   'P 1'
_cell_length_a   6.49992344
_cell_length_b   8.74189256
_cell_length_c   13.83673547
_cell_angle_alpha   96.57572048
_cell_angle_beta   90.00000000
_cell_angle_gamma   90.00000000
_symmetry_Int_Tables_number   1
_chemical_formula_structural   HgClO3
_chemical_formula_sum   'Hg8 Cl8 O24'
_cell_volume   781.05361559
_cell_formula_units_Z   8
loop_
 _symmetry_equiv_pos_site_id
 _symmetry_equiv_pos_as_xyz
  1  'x, y, z'
loop_
 _atom_site_type_symbol
 _atom_site_label
 _atom_site_symmetry_multiplicity
 _atom_site_fract_x
 _atom_site_fract_y
 _atom_site_fract_z
 _atom_site_occupancy
  O  O0  1  0.175545  0.076788  0.627082  1
  O  O1  1  0.675545  0.423212  0.872918  1
  O  O2  1  0.824455  0.923212  0.372918  1
  O  O3  1  0.324455  0.576788  0.127082  1
  O  O4  1  0.808258  0.094289  0.662066  1
  O  O5  1  0.308258  0.405711  0.837934  1
  O  O6  1  0.191742  0.905711  0.337934  1
  O  O7  1  0.691742  0.594289  0.162066  1
  O  O8  1  0.018283  0.900776  0.730324  1
  O  O9  1  0.518283  0.599224  0.769676  1
  O  O10  1  0.981717  0.099224  0.269676  1
  O  O11  1  0.481717  0.400776  0.230324  1
  O  O12  1  0.336032  0.268659  0.435632  1
  O  O13  1  0.836032  0.231341  0.064368  1
  O  O14  1  0.663968  0.731341  0.564368  1
  O  O15  1  0.163968  0.768659  0.935632  1
  O  O16  1  0.709404  0.291689  0.454411  1
  O  O17  1  0.209404  0.208311  0.045589  1
  O  O18  1  0.290596  0.708311  0.545589  1
  O  O19  1  0.790596  0.791689  0.954411  1
  O  O20  1  0.510494  0.641812  0.405109  1
  O  O21  1  0.010494  0.858188  0.094891  1
  O  O22  1  0.489506  0.358188  0.594891  1
  O  O23  1  0.989506  0.141812  0.905109  1
  Cl  Cl24  1  0.517662  0.487689  0.137267  1
  Cl  Cl25  1  0.017662  0.012311  0.362733  1
  Cl  Cl26  1  0.482338  0.512311  0.862733  1
  Cl  Cl27  1  0.982338  0.987689  0.637267  1
  Cl  Cl28  1  0.016554  0.259108  0.003057  1
  Cl  Cl29  1  0.516554  0.240892  0.496943  1
  Cl  Cl30  1  0.983446  0.740892  0.996943  1
  Cl  Cl31  1  0.483446  0.759108  0.503057  1
  Hg  Hg32  1  0.304030  0.986657  0.810629  1
  Hg  Hg33  1  0.804030  0.513343  0.689371  1
  Hg  Hg34  1  0.695970  0.013343  0.189371  1
  Hg  Hg35  1  0.195970  0.486657  0.310629  1
  Hg  Hg36  1  0.675536  0.065555  0.861223  1
  Hg  Hg37  1  0.175536  0.434445  0.638777  1
  Hg  Hg38  1  0.324464  0.934445  0.138777  1
  Hg  Hg39  1  0.824464  0.565555  0.361223  1
