# generated using pymatgen
data_Ni15O16
_symmetry_space_group_name_H-M   'P 1'
_cell_length_a   5.91018747
_cell_length_b   12.22283742
_cell_length_c   5.91104095
_cell_angle_alpha   118.99123524
_cell_angle_beta   120.14254010
_cell_angle_gamma   89.83644889
_symmetry_Int_Tables_number   1
_chemical_formula_structural   Ni15O16
_chemical_formula_sum   'Ni15 O16'
_cell_volume   306.23233630
_cell_formula_units_Z   1
loop_
 _symmetry_equiv_pos_site_id
 _symmetry_equiv_pos_as_xyz
  1  'x, y, z'
loop_
 _atom_site_type_symbol
 _atom_site_label
 _atom_site_symmetry_multiplicity
 _atom_site_fract_x
 _atom_site_fract_y
 _atom_site_fract_z
 _atom_site_occupancy
  Ni  Ni0  1  0.999817  0.499127  0.498484  1
  Ni  Ni1  1  0.000000  0.750000  0.500000  1
  Ni  Ni2  1  0.000183  0.000873  0.501516  1
  Ni  Ni3  1  0.999870  0.000620  0.999021  1
  Ni  Ni4  1  0.000130  0.499380  0.000979  1
  Ni  Ni5  1  0.000000  0.750000  0.000000  1
  Ni  Ni6  1  0.351863  0.278782  0.705408  1
  Ni  Ni7  1  0.497894  0.499426  0.498748  1
  Ni  Ni8  1  0.500000  0.750000  0.500000  1
  Ni  Ni9  1  0.502106  0.000574  0.501252  1
  Ni  Ni10  1  0.500000  0.750000  0.000000  1
  Ni  Ni11  1  0.489009  0.983693  0.978364  1
  Ni  Ni12  1  0.510991  0.516307  0.021636  1
  Ni  Ni13  1  0.648137  0.221218  0.294592  1
  Ni  Ni14  1  0.000000  0.250000  0.000000  1
  O  O15  1  0.228791  0.092862  0.457138  1
  O  O16  1  0.255745  0.386379  0.512172  1
  O  O17  1  0.250344  0.625585  0.500853  1
  O  O18  1  0.246113  0.868224  0.492469  1
  O  O19  1  0.239411  0.113714  0.983059  1
  O  O20  1  0.256016  0.631766  0.009654  1
  O  O21  1  0.256194  0.386510  0.016859  1
  O  O22  1  0.246347  0.868424  0.990512  1
  O  O23  1  0.771209  0.407138  0.542862  1
  O  O24  1  0.749656  0.874415  0.499147  1
  O  O25  1  0.744255  0.113621  0.487828  1
  O  O26  1  0.753887  0.631776  0.507531  1
  O  O27  1  0.743806  0.113490  0.983141  1
  O  O28  1  0.760589  0.386286  0.016941  1
  O  O29  1  0.753653  0.631576  0.009488  1
  O  O30  1  0.743984  0.868234  0.990346  1
