# generated using pymatgen
data_Mg(TiS2)8
_symmetry_space_group_name_H-M   'P 1'
_cell_length_a   7.01572606
_cell_length_b   28.02891842
_cell_length_c   12.13825891
_cell_angle_alpha   29.98870315
_cell_angle_beta   54.69108919
_cell_angle_gamma   59.95988181
_symmetry_Int_Tables_number   1
_chemical_formula_structural   Mg(TiS2)8
_chemical_formula_sum   'Mg2 Ti16 S32'
_cell_volume   973.58206990
_cell_formula_units_Z   2
loop_
 _symmetry_equiv_pos_site_id
 _symmetry_equiv_pos_as_xyz
  1  'x, y, z'
loop_
 _atom_site_type_symbol
 _atom_site_label
 _atom_site_symmetry_multiplicity
 _atom_site_fract_x
 _atom_site_fract_y
 _atom_site_fract_z
 _atom_site_occupancy
  Mg  Mg0  1  0.000000  0.375000  0.500000  1
  Mg  Mg1  1  0.000000  0.875000  0.000000  1
  S  S2  1  0.253968  0.121226  0.253580  1
  S  S3  1  0.260834  0.001224  0.743792  1
  S  S4  1  0.254325  0.250870  0.250031  1
  S  S5  1  0.746020  0.122898  0.258184  1
  S  S6  1  0.253968  0.128774  0.738483  1
  S  S7  1  0.254486  0.371302  0.252909  1
  S  S8  1  0.742135  0.250870  0.250031  1
  S  S9  1  0.746686  0.001224  0.743792  1
  S  S10  1  0.260834  0.248776  0.748689  1
  S  S11  1  0.253314  0.501224  0.251311  1
  S  S12  1  0.747167  0.371113  0.260607  1
  S  S13  1  0.746020  0.127102  0.749776  1
  S  S14  1  0.253980  0.622898  0.250224  1
  S  S15  1  0.252833  0.378887  0.739393  1
  S  S16  1  0.739166  0.501224  0.251311  1
  S  S17  1  0.746686  0.248776  0.748689  1
  S  S18  1  0.257865  0.499130  0.749969  1
  S  S19  1  0.253314  0.748776  0.256208  1
  S  S20  1  0.745514  0.378698  0.747091  1
  S  S21  1  0.746032  0.621226  0.261517  1
  S  S22  1  0.253980  0.627102  0.741816  1
  S  S23  1  0.252833  0.871113  0.254941  1
  S  S24  1  0.739166  0.748776  0.256208  1
  S  S25  1  0.745675  0.499130  0.749969  1
  S  S26  1  0.257865  0.750870  0.746491  1
  S  S27  1  0.254325  0.999130  0.253509  1
  S  S28  1  0.746032  0.628774  0.746420  1
  S  S29  1  0.745514  0.871302  0.261882  1
  S  S30  1  0.254486  0.878698  0.738118  1
  S  S31  1  0.745675  0.750870  0.746491  1
  S  S32  1  0.742135  0.999130  0.253509  1
  S  S33  1  0.747167  0.878887  0.745059  1
  Ti  Ti34  1  0.512454  0.002560  0.490343  1
  Ti  Ti35  1  0.494502  0.131701  0.492096  1
  Ti  Ti36  1  0.512454  0.247440  0.500583  1
  Ti  Ti37  1  0.996621  0.002560  0.490343  1
  Ti  Ti38  1  0.494502  0.118299  0.018900  1
  Ti  Ti39  1  0.500000  0.375000  0.500000  1
  Ti  Ti40  1  0.487546  0.502560  0.499417  1
  Ti  Ti41  1  0.996621  0.247440  0.500583  1
  Ti  Ti42  1  0.003379  0.747440  0.509657  1
  Ti  Ti43  1  0.500000  0.375000  0.000000  1
  Ti  Ti44  1  0.505498  0.618299  0.507904  1
  Ti  Ti45  1  0.487546  0.747440  0.509657  1
  Ti  Ti46  1  0.003379  0.502560  0.499417  1
  Ti  Ti47  1  0.505498  0.631701  0.981100  1
  Ti  Ti48  1  0.500000  0.875000  0.500000  1
  Ti  Ti49  1  0.500000  0.875000  0.000000  1
