# generated using pymatgen
data_Ca(Pr2Se3)4
_symmetry_space_group_name_H-M   'P 1'
_cell_length_a   23.38894971
_cell_length_b   9.01322335
_cell_length_c   9.01322280
_cell_angle_alpha   90.03955475
_cell_angle_beta   54.73414620
_cell_angle_gamma   54.73418838
_symmetry_Int_Tables_number   1
_chemical_formula_structural   Ca(Pr2Se3)4
_chemical_formula_sum   'Ca2 Pr16 Se24'
_cell_volume   1096.17272226
_cell_formula_units_Z   2
loop_
 _symmetry_equiv_pos_site_id
 _symmetry_equiv_pos_as_xyz
  1  'x, y, z'
loop_
 _atom_site_type_symbol
 _atom_site_label
 _atom_site_symmetry_multiplicity
 _atom_site_fract_x
 _atom_site_fract_y
 _atom_site_fract_z
 _atom_site_occupancy
  Ca  Ca0  1  0.166727  0.250092  0.624878  1
  Ca  Ca1  1  0.666727  0.124878  0.750092  1
  Pr  Pr2  1  0.999898  0.376972  0.248111  1
  Pr  Pr3  1  0.000985  0.122353  0.748339  1
  Pr  Pr4  1  0.083010  0.624501  0.376688  1
  Pr  Pr5  1  0.249881  0.874932  0.127768  1
  Pr  Pr6  1  0.333213  0.377889  0.250356  1
  Pr  Pr7  1  0.332567  0.126130  0.749154  1
  Pr  Pr8  1  0.166706  0.750043  0.872243  1
  Pr  Pr9  1  0.416583  0.625878  0.374869  1
  Pr  Pr10  1  0.500985  0.248339  0.622353  1
  Pr  Pr11  1  0.666707  0.372242  0.250043  1
  Pr  Pr12  1  0.583010  0.876688  0.124501  1
  Pr  Pr13  1  0.499897  0.748112  0.876974  1
  Pr  Pr14  1  0.749881  0.627768  0.374933  1
  Pr  Pr15  1  0.832567  0.249154  0.626130  1
  Pr  Pr16  1  0.916583  0.874869  0.125878  1
  Pr  Pr17  1  0.833212  0.750357  0.877890  1
  Se  Se18  1  0.116919  0.500866  0.002860  1
  Se  Se19  1  0.048915  0.351481  0.498119  1
  Se  Se20  1  0.284771  0.148151  0.144497  1
  Se  Se21  1  0.049704  0.999631  0.350580  1
  Se  Se22  1  0.283328  0.500888  0.000171  1
  Se  Se23  1  0.117045  0.646677  0.651411  1
  Se  Se24  1  0.216876  0.997832  0.853237  1
  Se  Se25  1  0.215986  0.853539  0.502904  1
  Se  Se26  1  0.450733  0.496896  0.999240  1
  Se  Se27  1  0.383893  0.349029  0.499868  1
  Se  Se28  1  0.381838  0.001659  0.350967  1
  Se  Se29  1  0.617045  0.151411  0.146677  1
  Se  Se30  1  0.616919  0.502860  1.000867  1
  Se  Se31  1  0.450423  0.649237  0.649061  1
  Se  Se32  1  0.548916  0.998118  0.851481  1
  Se  Se33  1  0.549704  0.850580  0.499631  1
  Se  Se34  1  0.783328  0.500171  0.000888  1
  Se  Se35  1  0.716875  0.353237  0.497833  1
  Se  Se36  1  0.950423  0.149061  0.149237  1
  Se  Se37  1  0.715986  0.002904  0.353539  1
  Se  Se38  1  0.950733  0.499241  0.996896  1
  Se  Se39  1  0.784771  0.644497  0.648151  1
  Se  Se40  1  0.883893  -0.000132  0.849029  1
  Se  Se41  1  0.881838  0.850968  0.501659  1
