# generated using pymatgen
data_NaAlSi4
_symmetry_space_group_name_H-M   'P 1'
_cell_length_a   4.41460330
_cell_length_b   4.41460330
_cell_length_c   5.86973182
_cell_angle_alpha   90.00000000
_cell_angle_beta   90.00000000
_cell_angle_gamma   90.00000000
_symmetry_Int_Tables_number   1
_chemical_formula_structural   NaAlSi4
_chemical_formula_sum   'Na1 Al1 Si4'
_cell_volume   114.39357339
_cell_formula_units_Z   1
loop_
 _symmetry_equiv_pos_site_id
 _symmetry_equiv_pos_as_xyz
  1  'x, y, z'
loop_
 _atom_site_type_symbol
 _atom_site_label
 _atom_site_symmetry_multiplicity
 _atom_site_fract_x
 _atom_site_fract_y
 _atom_site_fract_z
 _atom_site_occupancy
  Na  Na0  1  0.000000  0.500000  0.337171  1
  Al  Al1  1  0.500000  -0.000000  0.675603  1
  Si  Si2  1  -0.000000  -0.000000  0.989449  1
  Si  Si3  1  0.000000  0.500000  0.801106  1
  Si  Si4  1  0.500000  0.500000  0.989449  1
  Si  Si5  1  0.500000  -0.000000  0.207222  1
