# generated using pymatgen
data_Nd2CdSe4
_symmetry_space_group_name_H-M   'P 1'
_cell_length_a   7.77410713
_cell_length_b   7.77410654
_cell_length_c   7.77410722
_cell_angle_alpha   110.82266365
_cell_angle_beta   110.82266667
_cell_angle_gamma   106.80087976
_symmetry_Int_Tables_number   1
_chemical_formula_structural   Nd2CdSe4
_chemical_formula_sum   'Nd4 Cd2 Se8'
_cell_volume   361.09853904
_cell_formula_units_Z   2
loop_
 _symmetry_equiv_pos_site_id
 _symmetry_equiv_pos_as_xyz
  1  'x, y, z'
loop_
 _atom_site_type_symbol
 _atom_site_label
 _atom_site_symmetry_multiplicity
 _atom_site_fract_x
 _atom_site_fract_y
 _atom_site_fract_z
 _atom_site_occupancy
  Cd  Cd0  1  0.625000  0.375000  0.250000  1
  Cd  Cd1  1  0.875000  0.125000  0.750000  1
  Nd  Nd2  1  0.115700  0.750000  0.865700  1
  Nd  Nd3  1  0.250000  0.615700  0.365700  1
  Nd  Nd4  1  0.384300  0.250000  0.634300  1
  Nd  Nd5  1  0.750000  0.884300  0.134300  1
  Se  Se6  1  0.005683  0.879300  0.512611  1
  Se  Se7  1  0.993072  0.366689  0.487389  1
  Se  Se8  1  0.494317  0.006928  0.873617  1
  Se  Se9  1  0.120700  0.133311  0.126383  1
  Se  Se10  1  0.379300  0.505683  0.012611  1
  Se  Se11  1  0.633311  0.620700  0.626383  1
  Se  Se12  1  0.506928  0.994317  0.373617  1
  Se  Se13  1  0.866689  0.493072  0.987389  1
