# generated using pymatgen
data_GdPO4
_symmetry_space_group_name_H-M   'P 1'
_cell_length_a   6.38797753
_cell_length_b   6.74849799
_cell_length_c   6.92068726
_cell_angle_alpha   90.00000000
_cell_angle_beta   90.00000000
_cell_angle_gamma   104.24936646
_symmetry_Int_Tables_number   1
_chemical_formula_structural   GdPO4
_chemical_formula_sum   'Gd4 P4 O16'
_cell_volume   289.16664893
_cell_formula_units_Z   4
loop_
 _symmetry_equiv_pos_site_id
 _symmetry_equiv_pos_as_xyz
  1  'x, y, z'
loop_
 _atom_site_type_symbol
 _atom_site_label
 _atom_site_symmetry_multiplicity
 _atom_site_fract_x
 _atom_site_fract_y
 _atom_site_fract_z
 _atom_site_occupancy
  O  O0  1  0.210570  0.620737  0.291590  1
  O  O1  1  0.289430  0.879263  0.791590  1
  O  O2  1  0.789430  0.379263  0.708410  1
  O  O3  1  0.710570  0.120737  0.208410  1
  O  O4  1  0.313663  0.969927  0.401089  1
  O  O5  1  0.186337  0.530073  0.901089  1
  O  O6  1  0.686337  0.030073  0.598911  1
  O  O7  1  0.813663  0.469927  0.098911  1
  O  O8  1  0.433837  0.251549  0.002440  1
  O  O9  1  0.066163  0.248451  0.502440  1
  O  O10  1  0.566163  0.748451  0.997560  1
  O  O11  1  0.933837  0.751549  0.497560  1
  O  O12  1  0.503531  0.383509  0.335437  1
  O  O13  1  0.996469  0.116491  0.835437  1
  O  O14  1  0.496469  0.616491  0.664563  1
  O  O15  1  0.003531  0.883509  0.164563  1
  P  P16  1  0.111482  0.801980  0.339837  1
  P  P17  1  0.388518  0.698020  0.839837  1
  P  P18  1  0.888518  0.198020  0.660163  1
  P  P19  1  0.611482  0.301980  0.160163  1
  Gd  Gd20  1  0.594157  0.784143  0.346418  1
  Gd  Gd21  1  0.905843  0.715857  0.846418  1
  Gd  Gd22  1  0.405843  0.215857  0.653582  1
  Gd  Gd23  1  0.094157  0.284143  0.153582  1
