# generated using pymatgen
data_Y2P4O13
_symmetry_space_group_name_H-M   'P 1'
_cell_length_a   7.12864299
_cell_length_b   8.65822261
_cell_length_c   9.48734272
_cell_angle_alpha   90.00000000
_cell_angle_beta   112.06710697
_cell_angle_gamma   90.00000000
_symmetry_Int_Tables_number   1
_chemical_formula_structural   Y2P4O13
_chemical_formula_sum   'Y4 P8 O26'
_cell_volume   542.67548478
_cell_formula_units_Z   2
loop_
 _symmetry_equiv_pos_site_id
 _symmetry_equiv_pos_as_xyz
  1  'x, y, z'
loop_
 _atom_site_type_symbol
 _atom_site_label
 _atom_site_symmetry_multiplicity
 _atom_site_fract_x
 _atom_site_fract_y
 _atom_site_fract_z
 _atom_site_occupancy
  O  O0  1  0.481330  0.355345  0.456786  1
  O  O1  1  0.024544  0.144655  0.543214  1
  O  O2  1  0.518670  0.855345  0.543214  1
  O  O3  1  0.975456  0.644655  0.456786  1
  O  O4  1  0.227460  0.151433  0.296491  1
  O  O5  1  0.930969  0.348567  0.703509  1
  O  O6  1  0.772540  0.651433  0.703509  1
  O  O7  1  0.069031  0.848567  0.296491  1
  O  O8  1  0.578582  0.133330  0.316277  1
  O  O9  1  0.262305  0.366670  0.683723  1
  O  O10  1  0.421418  0.633330  0.683723  1
  O  O11  1  0.737695  0.866670  0.316277  1
  O  O12  1  0.082445  0.500000  0.164890  1
  O  O13  1  0.917555  0.000000  0.835110  1
  O  O14  1  0.790169  0.643770  0.169832  1
  O  O15  1  0.620337  0.856230  0.830168  1
  O  O16  1  0.209831  0.143770  0.830168  1
  O  O17  1  0.379663  0.356230  0.169832  1
  O  O18  1  0.733153  0.454793  0.957822  1
  O  O19  1  0.775331  0.045207  0.042178  1
  O  O20  1  0.266847  0.954793  0.042178  1
  O  O21  1  0.224669  0.545207  0.957822  1
  O  O22  1  0.829520  0.353385  0.229966  1
  O  O23  1  0.599554  0.146615  0.770034  1
  O  O24  1  0.170480  0.853385  0.770034  1
  O  O25  1  0.400446  0.646615  0.229966  1
  P  P26  1  0.417823  0.250306  0.320040  1
  P  P27  1  0.097783  0.249694  0.679960  1
  P  P28  1  0.582177  0.750306  0.679960  1
  P  P29  1  0.902217  0.749694  0.320040  1
  P  P30  1  0.277612  0.522928  0.124739  1
  P  P31  1  0.152873  0.977072  0.875261  1
  P  P32  1  0.722388  0.022928  0.875261  1
  P  P33  1  0.847127  0.477072  0.124739  1
  Y  Y34  1  0.895455  0.103819  0.293026  1
  Y  Y35  1  0.602429  0.396181  0.706974  1
  Y  Y36  1  0.104545  0.603819  0.706974  1
  Y  Y37  1  0.397571  0.896181  0.293026  1
