# generated using pymatgen
data_GaBH6
_symmetry_space_group_name_H-M   'P 1'
_cell_length_a   8.40971188
_cell_length_b   8.40971188
_cell_length_c   9.53381574
_cell_angle_alpha   102.40958990
_cell_angle_beta   109.69912094
_cell_angle_gamma   111.97727025
_symmetry_Int_Tables_number   1
_chemical_formula_structural   GaBH6
_chemical_formula_sum   'Ga6 B6 H36'
_cell_volume   541.89984013
_cell_formula_units_Z   6
loop_
 _symmetry_equiv_pos_site_id
 _symmetry_equiv_pos_as_xyz
  1  'x, y, z'
loop_
 _atom_site_type_symbol
 _atom_site_label
 _atom_site_symmetry_multiplicity
 _atom_site_fract_x
 _atom_site_fract_y
 _atom_site_fract_z
 _atom_site_occupancy
  H  H0  1  0.685910  0.009990  0.843757  1
  H  H1  1  0.666233  0.842152  0.656243  1
  H  H2  1  0.314090  0.990010  0.156243  1
  H  H3  1  0.333767  0.157848  0.343757  1
  H  H4  1  0.421048  0.779939  0.662774  1
  H  H5  1  0.617165  0.758274  0.837226  1
  H  H6  1  0.578952  0.220061  0.337226  1
  H  H7  1  0.382835  0.241726  0.162774  1
  H  H8  1  0.715564  0.436653  0.127505  1
  H  H9  1  0.809148  0.588059  0.372495  1
  H  H10  1  0.284436  0.563347  0.872495  1
  H  H11  1  0.190852  0.411941  0.627505  1
  H  H12  1  0.018983  0.165407  0.136022  1
  H  H13  1  0.529385  0.882961  0.363978  1
  H  H14  1  0.981017  0.834593  0.863978  1
  H  H15  1  0.470615  0.117039  0.636022  1
  H  H16  1  0.366367  0.506122  0.374552  1
  H  H17  1  0.631570  -0.008185  0.125448  1
  H  H18  1  0.633633  0.493878  0.625448  1
  H  H19  1  0.368430  1.008185  0.874552  1
  H  H20  1  0.889980  0.344097  0.704483  1
  H  H21  1  0.139614  0.185497  0.795517  1
  H  H22  1  0.110020  0.655903  0.295517  1
  H  H23  1  0.860386  0.814503  0.204483  1
  H  H24  1  0.949671  0.146250  0.477903  1
  H  H25  1  0.168348  0.471769  0.022097  1
  H  H26  1  0.050329  0.853750  0.522097  1
  H  H27  1  0.831652  0.528231  0.977903  1
  H  H28  1  0.020397  0.356788  0.403426  1
  H  H29  1  0.453362  0.616971  0.096574  1
  H  H30  1  0.979603  0.643212  0.596574  1
  H  H31  1  0.546638  0.383029  0.903426  1
  H  H32  1  0.193587  0.231463  0.465820  1
  H  H33  1  0.265643  0.727767  0.034180  1
  H  H34  1  0.806413  0.768537  0.534180  1
  H  H35  1  0.734357  0.272233  0.965820  1
  B  B36  1  0.592011  0.842011  0.750000  1
  B  B37  1  0.407989  0.157989  0.250000  1
  B  B38  1  0.705395  0.408644  0.989303  1
  B  B39  1  0.919341  0.716092  0.510697  1
  B  B40  1  0.294605  0.591356  0.010697  1
  B  B41  1  0.080659  0.283908  0.489303  1
  Ga  Ga42  1  0.927777  0.677777  0.250000  1
  Ga  Ga43  1  0.072223  0.322223  0.750000  1
  Ga  Ga44  1  0.490067  0.080183  0.790532  1
  Ga  Ga45  1  0.789651  0.699535  0.709468  1
  Ga  Ga46  1  0.509933  0.919817  0.209468  1
  Ga  Ga47  1  0.210349  0.300465  0.290532  1
