# generated using pymatgen
data_Sr(PO3)2
_symmetry_space_group_name_H-M   'P 1'
_cell_length_a   7.31251632
_cell_length_b   8.05507652
_cell_length_c   17.71561414
_cell_angle_alpha   90.00000000
_cell_angle_beta   90.55703989
_cell_angle_gamma   90.00000000
_symmetry_Int_Tables_number   1
_chemical_formula_structural   Sr(PO3)2
_chemical_formula_sum   'Sr8 P16 O48'
_cell_volume   1043.45135200
_cell_formula_units_Z   8
loop_
 _symmetry_equiv_pos_site_id
 _symmetry_equiv_pos_as_xyz
  1  'x, y, z'
loop_
 _atom_site_type_symbol
 _atom_site_label
 _atom_site_symmetry_multiplicity
 _atom_site_fract_x
 _atom_site_fract_y
 _atom_site_fract_z
 _atom_site_occupancy
  O  O0  1  0.739009  0.659411  0.117383  1
  O  O1  1  0.260991  0.159411  0.382617  1
  O  O2  1  0.260991  0.340589  0.882617  1
  O  O3  1  0.739009  0.840589  0.617383  1
  O  O4  1  0.917072  0.433341  0.187776  1
  O  O5  1  0.082928  0.933341  0.312224  1
  O  O6  1  0.082928  0.566659  0.812224  1
  O  O7  1  0.917072  0.066659  0.687776  1
  O  O8  1  0.575536  0.436675  0.195209  1
  O  O9  1  0.424464  0.936675  0.304791  1
  O  O10  1  0.424464  0.563325  0.804791  1
  O  O11  1  0.575536  0.063325  0.695209  1
  O  O12  1  0.909684  0.662979  0.464266  1
  O  O13  1  0.090316  0.162979  0.035734  1
  O  O14  1  0.090316  0.337021  0.535734  1
  O  O15  1  0.909684  0.837021  0.964266  1
  O  O16  1  0.269804  0.088827  0.153857  1
  O  O17  1  0.677530  0.055893  0.093882  1
  O  O18  1  0.730196  0.588827  0.346143  1
  O  O19  1  0.269804  0.411173  0.653857  1
  O  O20  1  0.733956  0.366844  0.070348  1
  O  O21  1  0.266044  0.866844  0.429652  1
  O  O22  1  0.266044  0.633156  0.929652  1
  O  O23  1  0.733956  0.133156  0.570348  1
  O  O24  1  0.159623  0.831815  0.679338  1
  O  O25  1  0.840377  0.331815  0.820662  1
  O  O26  1  0.840377  0.168185  0.320662  1
  O  O27  1  0.159623  0.668185  0.179338  1
  O  O28  1  0.198174  0.089234  0.765217  1
  O  O29  1  0.801826  0.589234  0.734783  1
  O  O30  1  0.801826  0.910766  0.234783  1
  O  O31  1  0.198174  0.410766  0.265217  1
  O  O32  1  0.211196  0.104494  0.619044  1
  O  O33  1  0.788804  0.604494  0.880956  1
  O  O34  1  0.788804  0.895506  0.380956  1
  O  O35  1  0.211196  0.395506  0.119044  1
  O  O36  1  0.690241  0.318217  0.459307  1
  O  O37  1  0.309759  0.818217  0.040693  1
  O  O38  1  0.309759  0.681783  0.540693  1
  O  O39  1  0.690241  0.181783  0.959307  1
  O  O40  1  0.423602  0.258116  0.541476  1
  O  O41  1  0.576398  0.758116  0.958524  1
  O  O42  1  0.576398  0.741884  0.458524  1
  O  O43  1  0.423602  0.241884  0.041476  1
  O  O44  1  0.677530  0.444107  0.593882  1
  O  O45  1  0.322470  0.944107  0.906118  1
  O  O46  1  0.322470  0.555893  0.406118  1
  O  O47  1  0.730196  0.911173  0.846143  1
  P  P48  1  0.242662  0.209456  0.089657  1
  P  P49  1  0.757338  0.709456  0.410343  1
  P  P50  1  0.757338  0.790544  0.910343  1
  P  P51  1  0.242662  0.290544  0.589657  1
  P  P52  1  0.638458  0.197815  0.040732  1
  P  P53  1  0.361542  0.697815  0.459268  1
  P  P54  1  0.361542  0.802185  0.959268  1
  P  P55  1  0.638458  0.302185  0.540732  1
  P  P56  1  0.130442  0.485626  0.192743  1
  P  P57  1  0.869558  0.985626  0.307257  1
  P  P58  1  0.869558  0.514374  0.807257  1
  P  P59  1  0.130442  0.014374  0.692743  1
  P  P60  1  0.730279  0.482415  0.144560  1
  P  P61  1  0.269721  0.982415  0.355440  1
  P  P62  1  0.269721  0.517585  0.855440  1
  P  P63  1  0.730279  0.017585  0.644560  1
  Sr  Sr64  1  0.516574  0.344118  0.327543  1
  Sr  Sr65  1  0.483426  0.844118  0.172457  1
  Sr  Sr66  1  0.483426  0.655882  0.672457  1
  Sr  Sr67  1  0.516574  0.155882  0.827543  1
  Sr  Sr68  1  0.980811  0.882245  0.102628  1
  Sr  Sr69  1  0.019189  0.382245  0.397372  1
  Sr  Sr70  1  0.019189  0.117755  0.897372  1
  Sr  Sr71  1  0.980811  0.617755  0.602628  1
