# generated using pymatgen
data_Er3GaO6
_symmetry_space_group_name_H-M   'P 1'
_cell_length_a   5.39696294
_cell_length_b   7.07306820
_cell_length_c   7.07306819
_cell_angle_alpha   102.85626159
_cell_angle_beta   90.00000000
_cell_angle_gamma   90.00000000
_symmetry_Int_Tables_number   1
_chemical_formula_structural   Er3GaO6
_chemical_formula_sum   'Er6 Ga2 O12'
_cell_volume   263.23228602
_cell_formula_units_Z   2
loop_
 _symmetry_equiv_pos_site_id
 _symmetry_equiv_pos_as_xyz
  1  'x, y, z'
loop_
 _atom_site_type_symbol
 _atom_site_label
 _atom_site_symmetry_multiplicity
 _atom_site_fract_x
 _atom_site_fract_y
 _atom_site_fract_z
 _atom_site_occupancy
  O  O0  1  0.831492  0.784623  0.215377  1
  O  O1  1  0.331492  0.215377  0.784623  1
  O  O2  1  0.342933  0.961298  0.038702  1
  O  O3  1  0.842933  0.038702  0.961298  1
  O  O4  1  0.295675  0.322167  0.356942  1
  O  O5  1  0.795675  0.677833  0.643058  1
  O  O6  1  0.295675  0.643058  0.677833  1
  O  O7  1  0.795675  0.356942  0.322167  1
  O  O8  1  0.809715  0.424251  0.894014  1
  O  O9  1  0.309715  0.575749  0.105986  1
  O  O10  1  0.809715  0.105986  0.575749  1
  O  O11  1  0.309715  0.894014  0.424251  1
  Ga  Ga12  1  0.491252  0.806387  0.193613  1
  Ga  Ga13  1  0.991252  0.193613  0.806387  1
  Er  Er14  1  0.070679  0.601395  0.398605  1
  Er  Er15  1  0.570679  0.398605  0.601395  1
  Er  Er16  1  0.021542  0.088292  0.298510  1
  Er  Er17  1  0.521542  0.911708  0.701490  1
  Er  Er18  1  0.021542  0.701490  0.911708  1
  Er  Er19  1  0.521542  0.298510  0.088292  1
