# generated using pymatgen
data_Sr11Bi10
_symmetry_space_group_name_H-M   'P 1'
_cell_length_a   12.97128292
_cell_length_b   12.97128292
_cell_length_c   13.06525043
_cell_angle_alpha   119.76236872
_cell_angle_beta   119.76236870
_cell_angle_gamma   90.00000003
_symmetry_Int_Tables_number   1
_chemical_formula_structural   Sr11Bi10
_chemical_formula_sum   'Sr22 Bi20'
_cell_volume   1565.52064678
_cell_formula_units_Z   2
loop_
 _symmetry_equiv_pos_site_id
 _symmetry_equiv_pos_as_xyz
  1  'x, y, z'
loop_
 _atom_site_type_symbol
 _atom_site_label
 _atom_site_symmetry_multiplicity
 _atom_site_fract_x
 _atom_site_fract_y
 _atom_site_fract_z
 _atom_site_occupancy
  Sr  Sr0  1  0.834636  0.834636  0.000000  1
  Sr  Sr1  1  0.165364  0.834636  0.000000  1
  Sr  Sr2  1  0.834636  0.165364  0.000000  1
  Sr  Sr3  1  0.165364  0.165364  0.000000  1
  Sr  Sr4  1  0.603848  0.942602  0.207697  1
  Sr  Sr5  1  0.734905  0.396152  0.792303  1
  Sr  Sr6  1  0.057398  0.396152  0.792303  1
  Sr  Sr7  1  0.396152  0.057398  0.792303  1
  Sr  Sr8  1  0.396152  0.734905  0.792303  1
  Sr  Sr9  1  0.265095  0.603848  0.207697  1
  Sr  Sr10  1  0.942602  0.603848  0.207697  1
  Sr  Sr11  1  0.603848  0.265095  0.207697  1
  Sr  Sr12  1  0.661002  0.661002  0.322003  1
  Sr  Sr13  1  0.338998  0.338998  0.677997  1
  Sr  Sr14  1  0.939823  0.190319  0.380637  1
  Sr  Sr15  1  0.809681  0.559186  0.619363  1
  Sr  Sr16  1  0.809681  0.060177  0.619363  1
  Sr  Sr17  1  0.559186  0.809681  0.619363  1
  Sr  Sr18  1  0.060177  0.809681  0.619363  1
  Sr  Sr19  1  0.190319  0.939823  0.380637  1
  Sr  Sr20  1  0.440814  0.190319  0.380637  1
  Sr  Sr21  1  0.190319  0.440814  0.380637  1
  Bi  Bi22  1  0.374566  0.374566  0.000000  1
  Bi  Bi23  1  0.625434  0.374566  0.000000  1
  Bi  Bi24  1  0.374566  0.625434  0.000000  1
  Bi  Bi25  1  0.625434  0.625434  0.000000  1
  Bi  Bi26  1  0.649838  0.000000  0.000000  1
  Bi  Bi27  1  0.000000  0.649838  0.000000  1
  Bi  Bi28  1  0.000000  0.350162  0.000000  1
  Bi  Bi29  1  0.350162  0.000000  0.000000  1
  Bi  Bi30  1  0.119610  0.119610  0.652111  1
  Bi  Bi31  1  0.467499  0.467499  0.347889  1
  Bi  Bi32  1  0.880390  0.880390  0.347889  1
  Bi  Bi33  1  0.467499  0.880390  0.347889  1
  Bi  Bi34  1  0.880390  0.467499  0.347889  1
  Bi  Bi35  1  0.532501  0.119610  0.652111  1
  Bi  Bi36  1  0.119610  0.532501  0.652111  1
  Bi  Bi37  1  0.532501  0.532501  0.652111  1
  Bi  Bi38  1  0.874349  0.874349  0.748697  1
  Bi  Bi39  1  0.125651  0.125651  0.251303  1
  Bi  Bi40  1  0.250000  0.750000  0.500000  1
  Bi  Bi41  1  0.750000  0.250000  0.500000  1
