# generated using pymatgen
data_UTeO5
_symmetry_space_group_name_H-M   'P 1'
_cell_length_a   5.54138695
_cell_length_b   7.84743906
_cell_length_c   10.41833876
_cell_angle_alpha   90.00000000
_cell_angle_beta   90.00000000
_cell_angle_gamma   90.00000000
_symmetry_Int_Tables_number   1
_chemical_formula_structural   UTeO5
_chemical_formula_sum   'U4 Te4 O20'
_cell_volume   453.04871629
_cell_formula_units_Z   4
loop_
 _symmetry_equiv_pos_site_id
 _symmetry_equiv_pos_as_xyz
  1  'x, y, z'
loop_
 _atom_site_type_symbol
 _atom_site_label
 _atom_site_symmetry_multiplicity
 _atom_site_fract_x
 _atom_site_fract_y
 _atom_site_fract_z
 _atom_site_occupancy
  O  O0  1  0.303154  0.007797  0.915064  1
  O  O1  1  0.696846  0.507797  0.084936  1
  O  O2  1  0.696846  0.007797  0.415064  1
  O  O3  1  0.303154  0.507797  0.584936  1
  O  O4  1  0.236137  0.513087  0.885581  1
  O  O5  1  0.763863  0.013086  0.114419  1
  O  O6  1  0.763863  0.513087  0.385581  1
  O  O7  1  0.236137  0.013086  0.614419  1
  O  O8  1  0.267496  0.010191  0.207285  1
  O  O9  1  0.732504  0.510191  0.792715  1
  O  O10  1  0.732504  0.010191  0.707285  1
  O  O11  1  0.267496  0.510191  0.292715  1
  O  O12  1  0.147139  0.287602  0.103892  1
  O  O13  1  0.852861  0.787602  0.896108  1
  O  O14  1  0.852861  0.287602  0.603892  1
  O  O15  1  0.147139  0.787602  0.396108  1
  O  O16  1  0.141779  0.233154  0.394168  1
  O  O17  1  0.858221  0.733154  0.605832  1
  O  O18  1  0.858221  0.233154  0.894168  1
  O  O19  1  0.141779  0.733154  0.105832  1
  Te  Te20  1  0.358775  0.760168  0.249959  1
  Te  Te21  1  0.641225  0.260168  0.750041  1
  Te  Te22  1  0.641225  0.760168  0.749959  1
  Te  Te23  1  0.358775  0.260168  0.250041  1
  U  U24  1  0.032587  0.510372  0.484592  1
  U  U25  1  0.967413  0.010372  0.515408  1
  U  U26  1  0.967413  0.510372  0.984592  1
  U  U27  1  0.032587  0.010372  0.015408  1
