# generated using pymatgen
data_LiMnP2O7
_symmetry_space_group_name_H-M   'P 1'
_cell_length_a   6.29679674
_cell_length_b   6.23967583
_cell_length_c   7.19173576
_cell_angle_alpha   111.12186380
_cell_angle_beta   97.50573915
_cell_angle_gamma   81.96386757
_symmetry_Int_Tables_number   1
_chemical_formula_structural   LiMnP2O7
_chemical_formula_sum   'Li2 Mn2 P4 O14'
_cell_volume   260.00416317
_cell_formula_units_Z   2
loop_
 _symmetry_equiv_pos_site_id
 _symmetry_equiv_pos_as_xyz
  1  'x, y, z'
loop_
 _atom_site_type_symbol
 _atom_site_label
 _atom_site_symmetry_multiplicity
 _atom_site_fract_x
 _atom_site_fract_y
 _atom_site_fract_z
 _atom_site_occupancy
  Li  Li0  1  0.011101  0.704951  0.157528  1
  Li  Li1  1  0.988900  0.295050  0.842465  1
  O  O2  1  0.301551  0.217995  0.759905  1
  O  O3  1  0.941696  0.613910  0.862956  1
  O  O4  1  0.031738  0.938822  0.757063  1
  O  O5  1  0.058308  0.386090  0.137040  1
  O  O6  1  0.205820  0.360772  0.470006  1
  O  O7  1  0.968261  0.061181  0.242936  1
  O  O8  1  0.340257  0.053072  0.150871  1
  O  O9  1  0.397192  0.601176  0.784462  1
  O  O10  1  0.401059  0.766137  0.447444  1
  O  O11  1  0.794189  0.639224  0.529987  1
  O  O12  1  0.602804  0.398821  0.215543  1
  O  O13  1  0.659742  0.946922  0.849120  1
  O  O14  1  0.698444  0.782002  0.240095  1
  O  O15  1  0.598947  0.233866  0.552566  1
  P  P16  1  0.860157  0.783882  0.760534  1
  P  P17  1  0.609258  0.651475  0.354980  1
  P  P18  1  0.139843  0.216117  0.239462  1
  P  P19  1  0.390741  0.348524  0.645023  1
  Mn  Mn20  1  0.352246  0.900575  0.757342  1
  Mn  Mn21  1  0.647749  0.099439  0.242673  1
