# generated using pymatgen
data_HBr
_symmetry_space_group_name_H-M   'P 1'
_cell_length_a   6.25417238
_cell_length_b   6.03270165
_cell_length_c   5.84756942
_cell_angle_alpha   90.00000000
_cell_angle_beta   90.00000000
_cell_angle_gamma   90.00000000
_symmetry_Int_Tables_number   1
_chemical_formula_structural   HBr
_chemical_formula_sum   'H4 Br4'
_cell_volume   220.62619811
_cell_formula_units_Z   4
loop_
 _symmetry_equiv_pos_site_id
 _symmetry_equiv_pos_as_xyz
  1  'x, y, z'
loop_
 _atom_site_type_symbol
 _atom_site_label
 _atom_site_symmetry_multiplicity
 _atom_site_fract_x
 _atom_site_fract_y
 _atom_site_fract_z
 _atom_site_occupancy
  Br  Br0  1  0.002010  0.004833  0.006134  1
  Br  Br1  1  0.997990  0.504833  0.493866  1
  Br  Br2  1  0.497990  0.995167  0.506134  1
  Br  Br3  1  0.502010  0.495167  0.993866  1
  H  H4  1  0.077709  0.376872  0.303637  1
  H  H5  1  0.422291  0.623128  0.803637  1
  H  H6  1  0.577709  0.123128  0.696363  1
  H  H7  1  0.922291  0.876872  0.196363  1
