# generated using pymatgen
data_Nd4Ge3Rh4
_symmetry_space_group_name_H-M   'P 1'
_cell_length_a   5.71414606
_cell_length_b   8.04343470
_cell_length_c   11.02862976
_cell_angle_alpha   109.00488514
_cell_angle_beta   105.01427277
_cell_angle_gamma   90.00000000
_symmetry_Int_Tables_number   1
_chemical_formula_structural   Nd4Ge3Rh4
_chemical_formula_sum   'Nd8 Ge6 Rh8'
_cell_volume   460.91986880
_cell_formula_units_Z   2
loop_
 _symmetry_equiv_pos_site_id
 _symmetry_equiv_pos_as_xyz
  1  'x, y, z'
loop_
 _atom_site_type_symbol
 _atom_site_label
 _atom_site_symmetry_multiplicity
 _atom_site_fract_x
 _atom_site_fract_y
 _atom_site_fract_z
 _atom_site_occupancy
  Ge  Ge0  1  0.354449  0.750000  0.000000  1
  Ge  Ge1  1  0.645551  0.250000  0.000000  1
  Ge  Ge2  1  0.708543  0.441967  0.656482  1
  Ge  Ge3  1  0.052061  0.058033  0.343518  1
  Ge  Ge4  1  0.291457  0.558033  0.343518  1
  Ge  Ge5  1  0.947939  0.941967  0.656482  1
  Rh  Rh6  1  0.696845  0.017371  0.124723  1
  Rh  Rh7  1  0.427878  0.517371  0.124723  1
  Rh  Rh8  1  0.303155  0.982629  0.875277  1
  Rh  Rh9  1  0.928439  0.185912  0.557353  1
  Rh  Rh10  1  0.371086  0.314088  0.442647  1
  Rh  Rh11  1  0.572122  0.482629  0.875277  1
  Rh  Rh12  1  0.071561  0.814088  0.442647  1
  Rh  Rh13  1  0.628914  0.685912  0.557353  1
  Nd  Nd14  1  0.785816  0.398970  0.340545  1
  Nd  Nd15  1  0.445271  0.101030  0.659455  1
  Nd  Nd16  1  0.554729  0.898970  0.340545  1
  Nd  Nd17  1  0.078926  0.331084  0.866291  1
  Nd  Nd18  1  0.212635  0.168916  0.133709  1
  Nd  Nd19  1  0.921074  0.668916  0.133709  1
  Nd  Nd20  1  0.787365  0.831084  0.866291  1
  Nd  Nd21  1  0.214184  0.601030  0.659455  1
