# generated using pymatgen
data_Hg2GeSe4
_symmetry_space_group_name_H-M   'P 1'
_cell_length_a   5.82767883
_cell_length_b   5.82767883
_cell_length_c   7.15338473
_cell_angle_alpha   114.03766867
_cell_angle_beta   114.03766869
_cell_angle_gamma   90.00000004
_symmetry_Int_Tables_number   1
_chemical_formula_structural   Hg2GeSe4
_chemical_formula_sum   'Hg2 Ge1 Se4'
_cell_volume   198.58238583
_cell_formula_units_Z   1
loop_
 _symmetry_equiv_pos_site_id
 _symmetry_equiv_pos_as_xyz
  1  'x, y, z'
loop_
 _atom_site_type_symbol
 _atom_site_label
 _atom_site_symmetry_multiplicity
 _atom_site_fract_x
 _atom_site_fract_y
 _atom_site_fract_z
 _atom_site_occupancy
  Ge  Ge0  1  0.750000  0.250000  0.500000  1
  Se  Se1  1  0.073316  0.637546  0.759369  1
  Se  Se2  1  0.878177  0.926684  0.240631  1
  Se  Se3  1  0.686053  0.121823  0.759369  1
  Se  Se4  1  0.362454  0.313947  0.240631  1
  Hg  Hg5  1  0.500000  0.500000  0.000000  1
  Hg  Hg6  1  0.250000  0.750000  0.500000  1
