# generated using pymatgen
data_Nd2USe4
_symmetry_space_group_name_H-M   'P 1'
_cell_length_a   7.69828854
_cell_length_b   7.69828812
_cell_length_c   7.69828775
_cell_angle_alpha   109.23709211
_cell_angle_beta   109.94050455
_cell_angle_gamma   109.23708581
_symmetry_Int_Tables_number   1
_chemical_formula_structural   Nd2USe4
_chemical_formula_sum   'Nd4 U2 Se8'
_cell_volume   351.18724088
_cell_formula_units_Z   2
loop_
 _symmetry_equiv_pos_site_id
 _symmetry_equiv_pos_as_xyz
  1  'x, y, z'
loop_
 _atom_site_type_symbol
 _atom_site_label
 _atom_site_symmetry_multiplicity
 _atom_site_fract_x
 _atom_site_fract_y
 _atom_site_fract_z
 _atom_site_occupancy
  Nd  Nd0  1  0.250000  0.622875  0.372875  1
  Nd  Nd1  1  0.627125  0.377125  0.250000  1
  Nd  Nd2  1  0.750000  0.877125  0.127125  1
  Nd  Nd3  1  0.872875  0.122875  0.750000  1
  U  U4  1  0.125000  0.750000  0.875000  1
  U  U5  1  0.375000  0.250000  0.625000  1
  Se  Se6  1  0.005711  0.851241  0.504079  1
  Se  Se7  1  0.004079  0.351241  0.505711  1
  Se  Se8  1  0.154471  0.148759  0.152838  1
  Se  Se9  1  0.345529  0.498368  0.994289  1
  Se  Se10  1  0.494289  0.998368  0.845529  1
  Se  Se11  1  0.652838  0.648759  0.654471  1
  Se  Se12  1  0.495921  0.001632  0.347162  1
  Se  Se13  1  0.847162  0.501632  0.995921  1
