# generated using pymatgen
data_Ga2NiO4
_symmetry_space_group_name_H-M   'P 1'
_cell_length_a   5.90087083
_cell_length_b   5.90087079
_cell_length_c   5.97648218
_cell_angle_alpha   59.57521659
_cell_angle_beta   59.57521678
_cell_angle_gamma   59.49125680
_symmetry_Int_Tables_number   1
_chemical_formula_structural   Ga2NiO4
_chemical_formula_sum   'Ga4 Ni2 O8'
_cell_volume   145.63585467
_cell_formula_units_Z   2
loop_
 _symmetry_equiv_pos_site_id
 _symmetry_equiv_pos_as_xyz
  1  'x, y, z'
loop_
 _atom_site_type_symbol
 _atom_site_label
 _atom_site_symmetry_multiplicity
 _atom_site_fract_x
 _atom_site_fract_y
 _atom_site_fract_z
 _atom_site_occupancy
  Ga  Ga0  1  0.992448  0.992448  0.007552  1
  Ga  Ga1  1  0.257552  0.257552  0.242448  1
  Ga  Ga2  1  0.625000  0.625000  0.125000  1
  Ga  Ga3  1  0.625000  0.625000  0.625000  1
  Ni  Ni4  1  0.125000  0.625000  0.625000  1
  Ni  Ni5  1  0.625000  0.125000  0.625000  1
  O  O6  1  0.386691  0.386691  0.370740  1
  O  O7  1  0.386691  0.386691  0.855878  1
  O  O8  1  0.388719  0.858493  0.376394  1
  O  O9  1  0.858493  0.388719  0.376394  1
  O  O10  1  0.391507  0.861281  0.873606  1
  O  O11  1  0.861281  0.391507  0.873606  1
  O  O12  1  0.863309  0.863309  0.394122  1
  O  O13  1  0.863309  0.863309  0.879260  1
