# generated using pymatgen
data_Al39Fe7Cu24
_symmetry_space_group_name_H-M   'P 1'
_cell_length_a   12.60615364
_cell_length_b   12.60615364
_cell_length_c   12.60615364
_cell_angle_alpha   90.00000000
_cell_angle_beta   90.00000000
_cell_angle_gamma   90.00000000
_symmetry_Int_Tables_number   1
_chemical_formula_structural   Al39Fe7Cu24
_chemical_formula_sum   'Al78 Fe14 Cu48'
_cell_volume   2003.30828728
_cell_formula_units_Z   2
loop_
 _symmetry_equiv_pos_site_id
 _symmetry_equiv_pos_as_xyz
  1  'x, y, z'
loop_
 _atom_site_type_symbol
 _atom_site_label
 _atom_site_symmetry_multiplicity
 _atom_site_fract_x
 _atom_site_fract_y
 _atom_site_fract_z
 _atom_site_occupancy
  Al  Al0  1  0.000000  0.167795  0.288473  1
  Al  Al1  1  0.288473  0.000000  0.167795  1
  Al  Al2  1  0.167795  0.288473  0.000000  1
  Al  Al3  1  0.832205  0.711527  0.000000  1
  Al  Al4  1  0.288473  0.000000  0.832205  1
  Al  Al5  1  0.832205  0.288473  0.000000  1
  Al  Al6  1  0.711527  0.000000  0.167795  1
  Al  Al7  1  0.711527  0.000000  0.832205  1
  Al  Al8  1  0.167795  0.711527  0.000000  1
  Al  Al9  1  0.000000  0.832205  0.711527  1
  Al  Al10  1  0.000000  0.167795  0.711527  1
  Al  Al11  1  0.000000  0.832205  0.288473  1
  Al  Al12  1  0.607269  0.500000  0.323460  1
  Al  Al13  1  0.323460  0.607269  0.500000  1
  Al  Al14  1  0.500000  0.323460  0.607269  1
  Al  Al15  1  0.500000  0.676540  0.607269  1
  Al  Al16  1  0.323460  0.392731  0.500000  1
  Al  Al17  1  0.500000  0.323460  0.392731  1
  Al  Al18  1  0.676540  0.392731  0.500000  1
  Al  Al19  1  0.676540  0.607269  0.500000  1
  Al  Al20  1  0.500000  0.676540  0.392731  1
  Al  Al21  1  0.607269  0.500000  0.676540  1
  Al  Al22  1  0.392731  0.500000  0.676540  1
  Al  Al23  1  0.392731  0.500000  0.323460  1
  Al  Al24  1  0.175860  0.300629  0.386571  1
  Al  Al25  1  0.386571  0.175860  0.300629  1
  Al  Al26  1  0.300629  0.386571  0.175860  1
  Al  Al27  1  0.699371  0.613429  0.175860  1
  Al  Al28  1  0.386571  0.824140  0.699371  1
  Al  Al29  1  0.699371  0.386571  0.824140  1
  Al  Al30  1  0.613429  0.824140  0.300629  1
  Al  Al31  1  0.613429  0.175860  0.699371  1
  Al  Al32  1  0.300629  0.613429  0.824140  1
  Al  Al33  1  0.175860  0.699371  0.613429  1
  Al  Al34  1  0.824140  0.300629  0.613429  1
  Al  Al35  1  0.824140  0.699371  0.386571  1
  Al  Al36  1  0.824140  0.699371  0.613429  1
  Al  Al37  1  0.613429  0.824140  0.699371  1
  Al  Al38  1  0.699371  0.613429  0.824140  1
  Al  Al39  1  0.300629  0.386571  0.824140  1
  Al  Al40  1  0.613429  0.175860  0.300629  1
  Al  Al41  1  0.300629  0.613429  0.175860  1
  Al  Al42  1  0.386571  0.175860  0.699371  1
  Al  Al43  1  0.386571  0.824140  0.300629  1
  Al  Al44  1  0.699371  0.386571  0.175860  1
  Al  Al45  1  0.824140  0.300629  0.386571  1
  Al  Al46  1  0.175860  0.699371  0.386571  1
  Al  Al47  1  0.175860  0.300629  0.613429  1
  Al  Al48  1  0.110466  0.500000  0.500000  1
  Al  Al49  1  0.500000  0.110466  0.500000  1
  Al  Al50  1  0.500000  0.500000  0.110466  1
  Al  Al51  1  0.500000  0.889534  0.500000  1
  Al  Al52  1  0.500000  0.500000  0.889534  1
  Al  Al53  1  0.889534  0.500000  0.500000  1
  Al  Al54  1  0.000000  0.601280  0.319579  1
  Al  Al55  1  0.319579  0.000000  0.601280  1
  Al  Al56  1  0.601280  0.319579  0.000000  1
  Al  Al57  1  0.398720  0.680421  0.000000  1
  Al  Al58  1  0.319579  0.000000  0.398720  1
  Al  Al59  1  0.398720  0.319579  0.000000  1
  Al  Al60  1  0.680421  0.000000  0.601280  1
  Al  Al61  1  0.680421  0.000000  0.398720  1
  Al  Al62  1  0.601280  0.680421  0.000000  1
  Al  Al63  1  0.000000  0.398720  0.680421  1
  Al  Al64  1  0.000000  0.601280  0.680421  1
  Al  Al65  1  0.000000  0.398720  0.319579  1
  Al  Al66  1  0.113164  0.123962  0.500000  1
  Al  Al67  1  0.500000  0.113164  0.123962  1
  Al  Al68  1  0.123962  0.500000  0.113164  1
  Al  Al69  1  0.876038  0.500000  0.113164  1
  Al  Al70  1  0.500000  0.886836  0.876038  1
  Al  Al71  1  0.876038  0.500000  0.886836  1
  Al  Al72  1  0.500000  0.886836  0.123962  1
  Al  Al73  1  0.500000  0.113164  0.876038  1
  Al  Al74  1  0.123962  0.500000  0.886836  1
  Al  Al75  1  0.113164  0.876038  0.500000  1
  Al  Al76  1  0.886836  0.123962  0.500000  1
  Al  Al77  1  0.886836  0.876038  0.500000  1
  Fe  Fe78  1  0.000000  0.000000  0.000000  1
  Fe  Fe79  1  0.089852  0.000000  0.173195  1
  Fe  Fe80  1  0.173195  0.089852  0.000000  1
  Fe  Fe81  1  0.000000  0.173195  0.089852  1
  Fe  Fe82  1  0.000000  0.826805  0.089852  1
  Fe  Fe83  1  0.173195  0.910148  0.000000  1
  Fe  Fe84  1  0.000000  0.173195  0.910148  1
  Fe  Fe85  1  0.826805  0.910148  0.000000  1
  Fe  Fe86  1  0.826805  0.089852  0.000000  1
  Fe  Fe87  1  0.000000  0.826805  0.910148  1
  Fe  Fe88  1  0.089852  0.000000  0.826805  1
  Fe  Fe89  1  0.910148  0.000000  0.826805  1
  Fe  Fe90  1  0.910148  0.000000  0.173195  1
  Fe  Fe91  1  0.500000  0.500000  0.500000  1
  Cu  Cu92  1  0.194178  0.121365  0.303402  1
  Cu  Cu93  1  0.303402  0.194178  0.121365  1
  Cu  Cu94  1  0.121365  0.303402  0.194178  1
  Cu  Cu95  1  0.878635  0.696598  0.194178  1
  Cu  Cu96  1  0.303402  0.805822  0.878635  1
  Cu  Cu97  1  0.878635  0.303402  0.805822  1
  Cu  Cu98  1  0.696598  0.805822  0.121365  1
  Cu  Cu99  1  0.696598  0.194178  0.878635  1
  Cu  Cu100  1  0.121365  0.696598  0.805822  1
  Cu  Cu101  1  0.194178  0.878635  0.696598  1
  Cu  Cu102  1  0.805822  0.121365  0.696598  1
  Cu  Cu103  1  0.805822  0.878635  0.303402  1
  Cu  Cu104  1  0.805822  0.878635  0.696598  1
  Cu  Cu105  1  0.696598  0.805822  0.878635  1
  Cu  Cu106  1  0.878635  0.696598  0.805822  1
  Cu  Cu107  1  0.121365  0.303402  0.805822  1
  Cu  Cu108  1  0.696598  0.194178  0.121365  1
  Cu  Cu109  1  0.121365  0.696598  0.194178  1
  Cu  Cu110  1  0.303402  0.194178  0.878635  1
  Cu  Cu111  1  0.303402  0.805822  0.121365  1
  Cu  Cu112  1  0.878635  0.303402  0.194178  1
  Cu  Cu113  1  0.805822  0.121365  0.303402  1
  Cu  Cu114  1  0.194178  0.878635  0.303402  1
  Cu  Cu115  1  0.194178  0.121365  0.696598  1
  Cu  Cu116  1  0.000000  0.000000  0.387716  1
  Cu  Cu117  1  0.387716  0.000000  0.000000  1
  Cu  Cu118  1  0.000000  0.387716  0.000000  1
  Cu  Cu119  1  0.000000  0.612284  0.000000  1
  Cu  Cu120  1  0.612284  0.000000  0.000000  1
  Cu  Cu121  1  0.000000  0.000000  0.612284  1
  Cu  Cu122  1  0.183873  0.500000  0.309216  1
  Cu  Cu123  1  0.309216  0.183873  0.500000  1
  Cu  Cu124  1  0.500000  0.309216  0.183873  1
  Cu  Cu125  1  0.500000  0.690784  0.183873  1
  Cu  Cu126  1  0.309216  0.816127  0.500000  1
  Cu  Cu127  1  0.500000  0.309216  0.816127  1
  Cu  Cu128  1  0.690784  0.816127  0.500000  1
  Cu  Cu129  1  0.690784  0.183873  0.500000  1
  Cu  Cu130  1  0.500000  0.690784  0.816127  1
  Cu  Cu131  1  0.183873  0.500000  0.690784  1
  Cu  Cu132  1  0.816127  0.500000  0.690784  1
  Cu  Cu133  1  0.816127  0.500000  0.309216  1
  Cu  Cu134  1  0.000000  0.307449  0.500000  1
  Cu  Cu135  1  0.500000  0.000000  0.307449  1
  Cu  Cu136  1  0.307449  0.500000  0.000000  1
  Cu  Cu137  1  0.692551  0.500000  0.000000  1
  Cu  Cu138  1  0.500000  0.000000  0.692551  1
  Cu  Cu139  1  0.000000  0.692551  0.500000  1
