# generated using pymatgen
data_RbGa3
_symmetry_space_group_name_H-M   'P 1'
_cell_length_a   6.42554680
_cell_length_b   6.42554680
_cell_length_c   8.85494562
_cell_angle_alpha   111.27363618
_cell_angle_beta   111.27363616
_cell_angle_gamma   89.99999997
_symmetry_Int_Tables_number   1
_chemical_formula_structural   RbGa3
_chemical_formula_sum   'Rb3 Ga9'
_cell_volume   313.80309109
_cell_formula_units_Z   3
loop_
 _symmetry_equiv_pos_site_id
 _symmetry_equiv_pos_as_xyz
  1  'x, y, z'
loop_
 _atom_site_type_symbol
 _atom_site_label
 _atom_site_symmetry_multiplicity
 _atom_site_fract_x
 _atom_site_fract_y
 _atom_site_fract_z
 _atom_site_occupancy
  Ga  Ga0  1  0.500000  0.500000  0.000000  1
  Ga  Ga1  1  0.430727  0.223243  0.446486  1
  Ga  Ga2  1  0.776757  0.569273  0.553514  1
  Ga  Ga3  1  0.776757  0.984242  0.553514  1
  Ga  Ga4  1  0.015758  0.223243  0.446486  1
  Ga  Ga5  1  0.697297  0.391228  0.782457  1
  Ga  Ga6  1  0.608772  0.302703  0.217543  1
  Ga  Ga7  1  0.608772  0.914840  0.217543  1
  Ga  Ga8  1  0.085160  0.391228  0.782457  1
  Rb  Rb9  1  0.000000  0.000000  0.000000  1
  Rb  Rb10  1  0.372089  0.872089  0.744179  1
  Rb  Rb11  1  0.127911  0.627911  0.255821  1
