# generated using pymatgen
data_PrTe2Se
_symmetry_space_group_name_H-M   'P 1'
_cell_length_a   4.32411330
_cell_length_b   4.31271254
_cell_length_c   13.41218562
_cell_angle_alpha   99.25193528
_cell_angle_beta   90.00000000
_cell_angle_gamma   90.00000000
_symmetry_Int_Tables_number   1
_chemical_formula_structural   PrTe2Se
_chemical_formula_sum   'Pr2 Te4 Se2'
_cell_volume   246.86544102
_cell_formula_units_Z   2
loop_
 _symmetry_equiv_pos_site_id
 _symmetry_equiv_pos_as_xyz
  1  'x, y, z'
loop_
 _atom_site_type_symbol
 _atom_site_label
 _atom_site_symmetry_multiplicity
 _atom_site_fract_x
 _atom_site_fract_y
 _atom_site_fract_z
 _atom_site_occupancy
  Se  Se0  1  0.250000  0.705736  0.411471  1
  Se  Se1  1  0.750000  0.294264  0.588529  1
  Te  Te2  1  0.750000  0.921298  0.842595  1
  Te  Te3  1  0.250000  0.078702  0.157405  1
  Te  Te4  1  0.750000  0.578555  0.157110  1
  Te  Te5  1  0.250000  0.421445  0.842890  1
  Pr  Pr6  1  0.250000  0.820400  0.640800  1
  Pr  Pr7  1  0.750000  0.179600  0.359200  1
