# generated using pymatgen
data_Ca4P7Ir8
_symmetry_space_group_name_H-M   'P 1'
_cell_length_a   3.98246136
_cell_length_b   12.63393531
_cell_length_c   13.16998452
_cell_angle_alpha   98.91707952
_cell_angle_beta   90.00000000
_cell_angle_gamma   90.00000000
_symmetry_Int_Tables_number   1
_chemical_formula_structural   Ca4P7Ir8
_chemical_formula_sum   'Ca8 P14 Ir16'
_cell_volume   654.62787398
_cell_formula_units_Z   2
loop_
 _symmetry_equiv_pos_site_id
 _symmetry_equiv_pos_as_xyz
  1  'x, y, z'
loop_
 _atom_site_type_symbol
 _atom_site_label
 _atom_site_symmetry_multiplicity
 _atom_site_fract_x
 _atom_site_fract_y
 _atom_site_fract_z
 _atom_site_occupancy
  P  P0  1  0.250000  0.091265  0.412406  1
  P  P1  1  0.750000  0.528568  0.128211  1
  P  P2  1  0.250000  0.471432  0.871789  1
  P  P3  1  0.750000  0.908735  0.587594  1
  P  P4  1  0.250000  0.258528  0.079644  1
  P  P5  1  0.750000  0.741472  0.920356  1
  P  P6  1  0.750000  0.844996  0.280763  1
  P  P7  1  0.250000  0.155004  0.719237  1
  P  P8  1  0.250000  0.943745  0.099363  1
  P  P9  1  0.750000  0.056255  0.900637  1
  P  P10  1  0.250000  0.690268  0.688172  1
  P  P11  1  0.750000  0.309732  0.311828  1
  P  P12  1  0.250000  0.389672  0.562308  1
  P  P13  1  0.750000  0.610328  0.437692  1
  Ca  Ca14  1  0.750000  0.214198  0.565790  1
  Ca  Ca15  1  0.250000  0.785802  0.434210  1
  Ca  Ca16  1  0.750000  0.514643  0.708759  1
  Ca  Ca17  1  0.250000  0.485357  0.291241  1
  Ca  Ca18  1  0.750000  0.283276  0.894580  1
  Ca  Ca19  1  0.250000  0.896219  0.792614  1
  Ca  Ca20  1  0.750000  0.103781  0.207386  1
  Ca  Ca21  1  0.250000  0.716724  0.105420  1
  Ir  Ir22  1  0.250000  0.014045  0.574974  1
  Ir  Ir23  1  0.750000  0.985955  0.425026  1
  Ir  Ir24  1  0.250000  0.336963  0.727204  1
  Ir  Ir25  1  0.750000  0.663037  0.272796  1
  Ir  Ir26  1  0.250000  0.445997  0.048240  1
  Ir  Ir27  1  0.750000  0.554003  0.951760  1
  Ir  Ir28  1  0.250000  0.938760  0.274011  1
  Ir  Ir29  1  0.750000  0.061240  0.725989  1
  Ir  Ir30  1  0.250000  0.576696  0.527496  1
  Ir  Ir31  1  0.750000  0.423304  0.472504  1
  Ir  Ir32  1  0.250000  0.083086  0.998868  1
  Ir  Ir33  1  0.750000  0.916914  0.001132  1
  Ir  Ir34  1  0.250000  0.271416  0.395762  1
  Ir  Ir35  1  0.750000  0.728584  0.604238  1
  Ir  Ir36  1  0.250000  0.660666  0.858047  1
  Ir  Ir37  1  0.750000  0.339334  0.141953  1
