# generated using pymatgen
data_Pd16S7
_symmetry_space_group_name_H-M   'P 1'
_cell_length_a   7.84901170
_cell_length_b   7.84901170
_cell_length_c   7.84901170
_cell_angle_alpha   109.47122060
_cell_angle_beta   109.47122061
_cell_angle_gamma   109.47122066
_symmetry_Int_Tables_number   1
_chemical_formula_structural   Pd16S7
_chemical_formula_sum   'Pd16 S7'
_cell_volume   372.23999950
_cell_formula_units_Z   1
loop_
 _symmetry_equiv_pos_site_id
 _symmetry_equiv_pos_as_xyz
  1  'x, y, z'
loop_
 _atom_site_type_symbol
 _atom_site_label
 _atom_site_symmetry_multiplicity
 _atom_site_fract_x
 _atom_site_fract_y
 _atom_site_fract_z
 _atom_site_occupancy
  S  S0  1  0.500000  0.500000  0.000000  1
  S  S1  1  0.500000  0.000000  0.500000  1
  S  S2  1  0.000000  0.500000  0.500000  1
  S  S3  1  0.000000  0.000000  0.687975  1
  S  S4  1  0.000000  0.687975  0.000000  1
  S  S5  1  0.687975  0.000000  0.000000  1
  S  S6  1  0.312025  0.312025  0.312025  1
  Pd  Pd7  1  0.585459  0.000000  0.247626  1
  Pd  Pd8  1  0.000000  0.585459  0.247626  1
  Pd  Pd9  1  0.662167  0.414541  0.414541  1
  Pd  Pd10  1  0.414541  0.662167  0.414541  1
  Pd  Pd11  1  0.752374  0.752374  0.337833  1
  Pd  Pd12  1  0.770637  0.770637  0.770637  1
  Pd  Pd13  1  0.229363  0.000000  0.000000  1
  Pd  Pd14  1  0.000000  0.229363  0.000000  1
  Pd  Pd15  1  0.000000  0.000000  0.229363  1
  Pd  Pd16  1  0.247626  0.000000  0.585459  1
  Pd  Pd17  1  0.752374  0.337833  0.752374  1
  Pd  Pd18  1  0.337833  0.752374  0.752374  1
  Pd  Pd19  1  0.000000  0.247626  0.585459  1
  Pd  Pd20  1  0.247626  0.585459  0.000000  1
  Pd  Pd21  1  0.585459  0.247626  0.000000  1
  Pd  Pd22  1  0.414541  0.414541  0.662167  1
