# generated using pymatgen
data_Sr2H5Rh
_symmetry_space_group_name_H-M   'P 1'
_cell_length_a   5.44716174
_cell_length_b   5.44716181
_cell_length_c   5.35820145
_cell_angle_alpha   60.53877997
_cell_angle_beta   60.53878358
_cell_angle_gamma   58.92242972
_symmetry_Int_Tables_number   1
_chemical_formula_structural   Sr2H5Rh
_chemical_formula_sum   'Sr2 H5 Rh1'
_cell_volume   112.36124634
_cell_formula_units_Z   1
loop_
 _symmetry_equiv_pos_site_id
 _symmetry_equiv_pos_as_xyz
  1  'x, y, z'
loop_
 _atom_site_type_symbol
 _atom_site_label
 _atom_site_symmetry_multiplicity
 _atom_site_fract_x
 _atom_site_fract_y
 _atom_site_fract_z
 _atom_site_occupancy
  H  H0  1  0.227826  0.782432  0.217568  1
  H  H1  1  0.782432  0.227826  0.217568  1
  H  H2  1  0.227826  0.782432  0.772174  1
  H  H3  1  0.782432  0.227826  0.772174  1
  H  H4  1  0.762048  0.762048  0.237952  1
  Rh  Rh5  1  0.991930  0.991930  0.008070  1
  Sr  Sr6  1  0.251254  0.251254  0.248746  1
  Sr  Sr7  1  0.751254  0.751254  0.748746  1
