# generated using pymatgen
data_Ca(CeS2)2
_symmetry_space_group_name_H-M   'P 1'
_cell_length_a   7.41282279
_cell_length_b   7.41282247
_cell_length_c   7.41282244
_cell_angle_alpha   109.73849133
_cell_angle_beta   109.73849049
_cell_angle_gamma   108.93799673
_symmetry_Int_Tables_number   1
_chemical_formula_structural   Ca(CeS2)2
_chemical_formula_sum   'Ca2 Ce4 S8'
_cell_volume   313.54560676
_cell_formula_units_Z   2
loop_
 _symmetry_equiv_pos_site_id
 _symmetry_equiv_pos_as_xyz
  1  'x, y, z'
loop_
 _atom_site_type_symbol
 _atom_site_label
 _atom_site_symmetry_multiplicity
 _atom_site_fract_x
 _atom_site_fract_y
 _atom_site_fract_z
 _atom_site_occupancy
  Ca  Ca0  1  0.625000  0.375000  0.250000  1
  Ca  Ca1  1  0.875000  0.125000  0.750000  1
  Ce  Ce2  1  0.121804  0.750000  0.871804  1
  Ce  Ce3  1  0.250000  0.621804  0.371804  1
  Ce  Ce4  1  0.378196  0.250000  0.628196  1
  Ce  Ce5  1  0.750000  0.878196  0.128196  1
  S  S6  1  0.002829  0.856945  0.502291  1
  S  S7  1  0.000538  0.354654  0.497709  1
  S  S8  1  0.143055  0.145346  0.145884  1
  S  S9  1  0.356945  0.502829  0.002291  1
  S  S10  1  0.645346  0.643055  0.645884  1
  S  S11  1  0.497171  0.999462  0.854116  1
  S  S12  1  0.499462  0.997171  0.354116  1
  S  S13  1  0.854654  0.500538  0.997709  1
