# generated using pymatgen
data_Ce(NdS2)2
_symmetry_space_group_name_H-M   'P 1'
_cell_length_a   7.42281649
_cell_length_b   7.42281666
_cell_length_c   7.42281724
_cell_angle_alpha   109.51113534
_cell_angle_beta   109.51113987
_cell_angle_gamma   109.39141528
_symmetry_Int_Tables_number   1
_chemical_formula_structural   Ce(NdS2)2
_chemical_formula_sum   'Ce2 Nd4 S8'
_cell_volume   314.83550796
_cell_formula_units_Z   2
loop_
 _symmetry_equiv_pos_site_id
 _symmetry_equiv_pos_as_xyz
  1  'x, y, z'
loop_
 _atom_site_type_symbol
 _atom_site_label
 _atom_site_symmetry_multiplicity
 _atom_site_fract_x
 _atom_site_fract_y
 _atom_site_fract_z
 _atom_site_occupancy
  Ce  Ce0  1  0.625000  0.375000  0.250000  1
  Ce  Ce1  1  0.875000  0.125000  0.750000  1
  Nd  Nd2  1  0.129477  0.750000  0.879477  1
  Nd  Nd3  1  0.250000  0.629477  0.379477  1
  Nd  Nd4  1  0.370523  0.250000  0.620523  1
  Nd  Nd5  1  0.750000  0.870523  0.120523  1
  S  S6  1  0.000290  0.850647  0.501060  1
  S  S7  1  0.999230  0.349587  0.498940  1
  S  S8  1  0.149353  0.150413  0.149643  1
  S  S9  1  0.350647  0.500290  0.001060  1
  S  S10  1  0.650413  0.649353  0.649643  1
  S  S11  1  0.499710  0.000770  0.850357  1
  S  S12  1  0.500770  0.999710  0.350357  1
  S  S13  1  0.849587  0.499230  0.998940  1
