# generated using pymatgen
data_Na(Nd2Se3)4
_symmetry_space_group_name_H-M   'P 1'
_cell_length_a   23.27146644
_cell_length_b   8.94678781
_cell_length_c   8.94678834
_cell_angle_alpha   89.99999913
_cell_angle_beta   54.78265507
_cell_angle_gamma   54.78265257
_symmetry_Int_Tables_number   1
_chemical_formula_structural   Na(Nd2Se3)4
_chemical_formula_sum   'Na2 Nd16 Se24'
_cell_volume   1077.96180847
_cell_formula_units_Z   2
loop_
 _symmetry_equiv_pos_site_id
 _symmetry_equiv_pos_as_xyz
  1  'x, y, z'
loop_
 _atom_site_type_symbol
 _atom_site_label
 _atom_site_symmetry_multiplicity
 _atom_site_fract_x
 _atom_site_fract_y
 _atom_site_fract_z
 _atom_site_occupancy
  Na  Na0  1  0.083333  0.625000  0.375000  1
  Na  Na1  1  0.583333  0.875000  0.125000  1
  Nd  Nd2  1  0.164576  0.256896  0.625135  1
  Nd  Nd3  1  0.333333  0.369860  0.250000  1
  Nd  Nd4  1  0.247887  0.878169  0.128169  1
  Nd  Nd5  1  0.333333  0.130140  0.750000  1
  Nd  Nd6  1  0.164576  0.749378  0.881139  1
  Nd  Nd7  1  0.418780  0.621831  0.371831  1
  Nd  Nd8  1  0.502091  0.243104  0.618861  1
  Nd  Nd9  1  0.664576  0.381139  0.249378  1
  Nd  Nd10  1  0.664576  0.125135  0.756896  1
  Nd  Nd11  1  0.502091  0.750622  0.874865  1
  Nd  Nd12  1  0.747887  0.628169  0.378169  1
  Nd  Nd13  1  0.833333  0.250000  0.630140  1
  Nd  Nd14  1  0.002091  0.374865  0.250622  1
  Nd  Nd15  1  0.918780  0.871831  0.121831  1
  Nd  Nd16  1  0.002091  0.118861  0.743104  1
  Nd  Nd17  1  0.833333  0.750000  0.869860  1
  Se  Se18  1  0.050933  0.999088  0.345737  1
  Se  Se19  1  0.115733  0.498536  0.000912  1
  Se  Se20  1  0.050933  0.348113  0.501464  1
  Se  Se21  1  0.288979  0.136701  0.139800  1
  Se  Se22  1  0.288979  0.496362  0.993262  1
  Se  Se23  1  0.216666  0.998428  0.849935  1
  Se  Se24  1  0.115733  0.654263  0.651887  1
  Se  Se25  1  0.377688  0.003638  0.360200  1
  Se  Se26  1  0.216666  0.851574  0.500066  1
  Se  Se27  1  0.450001  0.501572  0.999934  1
  Se  Se28  1  0.377688  0.363299  0.506738  1
  Se  Se29  1  0.615733  0.151887  0.154263  1
  Se  Se30  1  0.615733  0.500912  0.998536  1
  Se  Se31  1  0.450001  0.648426  0.650065  1
  Se  Se32  1  0.550933  0.001464  0.848113  1
  Se  Se33  1  0.716666  0.000066  0.351574  1
  Se  Se34  1  0.550933  0.845737  0.499088  1
  Se  Se35  1  0.788979  0.493262  0.996362  1
  Se  Se36  1  0.716666  0.349935  0.498428  1
  Se  Se37  1  0.950001  0.150065  0.148426  1
  Se  Se38  1  0.950001  0.499934  0.001572  1
  Se  Se39  1  0.877688  0.006738  0.863299  1
  Se  Se40  1  0.788979  0.639800  0.636701  1
  Se  Se41  1  0.877688  0.860200  0.503638  1
