# generated using pymatgen
data_Ce2Te4O11
_symmetry_space_group_name_H-M   'P 1'
_cell_length_a   5.31661534
_cell_length_b   6.94888251
_cell_length_c   16.30722577
_cell_angle_alpha   79.67287647
_cell_angle_beta   80.61810907
_cell_angle_gamma   67.50816176
_symmetry_Int_Tables_number   1
_chemical_formula_structural   Ce2Te4O11
_chemical_formula_sum   'Ce4 Te8 O22'
_cell_volume   544.65519219
_cell_formula_units_Z   2
loop_
 _symmetry_equiv_pos_site_id
 _symmetry_equiv_pos_as_xyz
  1  'x, y, z'
loop_
 _atom_site_type_symbol
 _atom_site_label
 _atom_site_symmetry_multiplicity
 _atom_site_fract_x
 _atom_site_fract_y
 _atom_site_fract_z
 _atom_site_occupancy
  Ce  Ce0  1  0.134531  0.699604  0.537798  1
  Ce  Ce1  1  0.865469  0.300396  0.462202  1
  Ce  Ce2  1  0.371932  0.800396  0.962202  1
  Ce  Ce3  1  0.628068  0.199604  0.037798  1
  Te  Te4  1  0.391812  0.461491  0.298379  1
  Te  Te5  1  0.149582  0.388044  0.872385  1
  Te  Te6  1  0.848318  0.961491  0.798379  1
  Te  Te7  1  0.608188  0.538509  0.701621  1
  Te  Te8  1  0.850418  0.611956  0.127615  1
  Te  Te9  1  0.589990  0.888044  0.372385  1
  Te  Te10  1  0.410010  0.111956  0.627615  1
  Te  Te11  1  0.151682  0.038509  0.201621  1
  O  O12  1  0.191965  0.308173  0.545525  1
  O  O13  1  0.617141  0.047646  0.898980  1
  O  O14  1  0.436234  0.547646  0.398980  1
  O  O15  1  0.682052  0.130325  0.370745  1
  O  O16  1  0.797750  0.121532  0.170432  1
  O  O17  1  0.954337  0.808173  0.045525  1
  O  O18  1  0.251590  0.969702  0.442985  1
  O  O19  1  0.183123  0.369675  0.129255  1
  O  O20  1  0.142540  0.750000  0.250000  1
  O  O21  1  0.910287  0.621532  0.670432  1
  O  O22  1  0.317948  0.869675  0.629255  1
  O  O23  1  0.045663  0.191827  0.954475  1
  O  O24  1  0.089713  0.378468  0.329568  1
  O  O25  1  0.857460  0.250000  0.750000  1
  O  O26  1  0.563766  0.452354  0.601020  1
  O  O27  1  0.808035  0.691827  0.454475  1
  O  O28  1  0.382859  0.952354  0.101020  1
  O  O29  1  0.748410  0.030298  0.557015  1
  O  O30  1  0.816877  0.630325  0.870745  1
  O  O31  1  0.664276  0.530298  0.057015  1
  O  O32  1  0.202250  0.878468  0.829568  1
  O  O33  1  0.335724  0.469702  0.942985  1
