# generated using pymatgen
data_NaAlB14
_symmetry_space_group_name_H-M   'P 1'
_cell_length_a   5.84870882
_cell_length_b   7.26585292
_cell_length_c   7.26585362
_cell_angle_alpha   68.94564804
_cell_angle_beta   66.29034849
_cell_angle_gamma   66.29034680
_symmetry_Int_Tables_number   1
_chemical_formula_structural   NaAlB14
_chemical_formula_sum   'Na2 Al2 B28'
_cell_volume   251.55410109
_cell_formula_units_Z   2
loop_
 _symmetry_equiv_pos_site_id
 _symmetry_equiv_pos_as_xyz
  1  'x, y, z'
loop_
 _atom_site_type_symbol
 _atom_site_label
 _atom_site_symmetry_multiplicity
 _atom_site_fract_x
 _atom_site_fract_y
 _atom_site_fract_z
 _atom_site_occupancy
  Al  Al0  1  0.000000  0.500000  0.500000  1
  Al  Al1  1  0.500000  0.500000  0.500000  1
  B  B2  1  0.100731  0.722725  0.896992  1
  B  B3  1  0.329357  0.876666  0.465322  1
  B  B4  1  0.328531  0.464737  0.876928  1
  B  B5  1  0.280588  0.896682  0.723139  1
  B  B6  1  0.585547  0.746673  0.582366  1
  B  B7  1  0.647255  0.477111  0.728198  1
  B  B8  1  0.665619  0.865948  0.302190  1
  B  B9  1  0.600731  0.896992  0.722725  1
  B  B10  1  0.829357  0.465322  0.876666  1
  B  B11  1  0.828531  0.876928  0.464737  1
  B  B12  1  0.219412  0.276861  0.103318  1
  B  B13  1  0.780588  0.723139  0.896682  1
  B  B14  1  0.171469  0.123072  0.535263  1
  B  B15  1  0.170643  0.534678  0.123334  1
  B  B16  1  0.399269  0.103008  0.277275  1
  B  B17  1  0.085547  0.582366  0.746673  1
  B  B18  1  0.147255  0.728198  0.477111  1
  B  B19  1  0.165619  0.302190  0.865948  1
  B  B20  1  0.334381  0.134052  0.697810  1
  B  B21  1  0.352745  0.522889  0.271802  1
  B  B22  1  0.414453  0.253327  0.417634  1
  B  B23  1  0.719412  0.103318  0.276861  1
  B  B24  1  0.671469  0.535263  0.123072  1
  B  B25  1  0.670643  0.123334  0.534678  1
  B  B26  1  0.899269  0.277275  0.103008  1
  B  B27  1  0.834381  0.697810  0.134052  1
  B  B28  1  0.852745  0.271802  0.522889  1
  B  B29  1  0.914453  0.417634  0.253327  1
  Na  Na30  1  0.250000  0.903451  0.096549  1
  Na  Na31  1  0.750000  0.096549  0.903451  1
