# generated using pymatgen
data_Sr11(CdSb2)6
_symmetry_space_group_name_H-M   'P 1'
_cell_length_a   4.83053374
_cell_length_b   12.76217449
_cell_length_c   16.85528946
_cell_angle_alpha   109.70933285
_cell_angle_beta   98.23851818
_cell_angle_gamma   90.00000001
_symmetry_Int_Tables_number   1
_chemical_formula_structural   Sr11(CdSb2)6
_chemical_formula_sum   'Sr11 Cd6 Sb12'
_cell_volume   966.82367535
_cell_formula_units_Z   1
loop_
 _symmetry_equiv_pos_site_id
 _symmetry_equiv_pos_as_xyz
  1  'x, y, z'
loop_
 _atom_site_type_symbol
 _atom_site_label
 _atom_site_symmetry_multiplicity
 _atom_site_fract_x
 _atom_site_fract_y
 _atom_site_fract_z
 _atom_site_occupancy
  Sr  Sr0  1  0.981021  0.318885  0.962043  1
  Sr  Sr1  1  0.018979  0.681115  0.037957  1
  Sr  Sr2  1  0.886416  0.493936  0.772833  1
  Sr  Sr3  1  0.113584  0.506064  0.227167  1
  Sr  Sr4  1  0.873792  0.984465  0.747584  1
  Sr  Sr5  1  0.126208  0.015535  0.252416  1
  Sr  Sr6  1  0.799419  0.656864  0.598838  1
  Sr  Sr7  1  0.200581  0.343136  0.401162  1
  Sr  Sr8  1  0.721872  0.866751  0.443745  1
  Sr  Sr9  1  0.278128  0.133249  0.556255  1
  Sr  Sr10  1  0.000000  0.000000  0.000000  1
  Cd  Cd11  1  0.452471  0.755194  0.904941  1
  Cd  Cd12  1  0.399630  0.254863  0.799259  1
  Cd  Cd13  1  0.600370  0.745137  0.200741  1
  Cd  Cd14  1  0.547529  0.244806  0.095059  1
  Cd  Cd15  1  0.219065  0.666647  0.438130  1
  Cd  Cd16  1  0.780935  0.333353  0.561870  1
  Sb  Sb17  1  0.546559  0.884414  0.093117  1
  Sb  Sb18  1  0.453441  0.115586  0.906883  1
  Sb  Sb19  1  0.543007  0.500351  0.086015  1
  Sb  Sb20  1  0.456993  0.499649  0.913985  1
  Sb  Sb21  1  0.295152  0.865202  0.590304  1
  Sb  Sb22  1  0.704848  0.134798  0.409696  1
  Sb  Sb23  1  0.309217  0.470443  0.618434  1
  Sb  Sb24  1  0.690783  0.529557  0.381566  1
  Sb  Sb25  1  0.849971  0.216405  0.699942  1
  Sb  Sb26  1  0.090054  0.232684  0.180108  1
  Sb  Sb27  1  0.909946  0.767316  0.819892  1
  Sb  Sb28  1  0.150029  0.783595  0.300058  1
