# generated using pymatgen
data_Sr3Au2
_symmetry_space_group_name_H-M   'P 1'
_cell_length_a   8.36835907
_cell_length_b   8.36835992
_cell_length_c   8.36835882
_cell_angle_alpha   71.48421814
_cell_angle_beta   71.48421618
_cell_angle_gamma   71.48421584
_symmetry_Int_Tables_number   1
_chemical_formula_structural   Sr3Au2
_chemical_formula_sum   'Sr9 Au6'
_cell_volume   511.39686419
_cell_formula_units_Z   3
loop_
 _symmetry_equiv_pos_site_id
 _symmetry_equiv_pos_as_xyz
  1  'x, y, z'
loop_
 _atom_site_type_symbol
 _atom_site_label
 _atom_site_symmetry_multiplicity
 _atom_site_fract_x
 _atom_site_fract_y
 _atom_site_fract_z
 _atom_site_occupancy
  Au  Au0  1  0.650585  0.457301  0.091670  1
  Au  Au1  1  0.091670  0.650585  0.457301  1
  Au  Au2  1  0.457301  0.091670  0.650585  1
  Au  Au3  1  0.349415  0.542699  0.908330  1
  Au  Au4  1  0.908330  0.349415  0.542699  1
  Au  Au5  1  0.542699  0.908330  0.349415  1
  Sr  Sr6  1  0.500000  0.500000  0.500000  1
  Sr  Sr7  1  0.296866  0.296866  0.296866  1
  Sr  Sr8  1  0.703134  0.703134  0.703134  1
  Sr  Sr9  1  0.339745  0.831860  0.108649  1
  Sr  Sr10  1  0.108649  0.339745  0.831860  1
  Sr  Sr11  1  0.831860  0.108649  0.339745  1
  Sr  Sr12  1  0.660255  0.168140  0.891351  1
  Sr  Sr13  1  0.891351  0.660255  0.168140  1
  Sr  Sr14  1  0.168140  0.891351  0.660255  1
