# generated using pymatgen
data_Sr(SmS2)2
_symmetry_space_group_name_H-M   'P 1'
_cell_length_a   7.47120851
_cell_length_b   7.47120882
_cell_length_c   7.47120908
_cell_angle_alpha   109.40500199
_cell_angle_beta   109.60373523
_cell_angle_gamma   109.40500651
_symmetry_Int_Tables_number   1
_chemical_formula_structural   Sr(SmS2)2
_chemical_formula_sum   'Sr2 Sm4 S8'
_cell_volume   321.03248873
_cell_formula_units_Z   2
loop_
 _symmetry_equiv_pos_site_id
 _symmetry_equiv_pos_as_xyz
  1  'x, y, z'
loop_
 _atom_site_type_symbol
 _atom_site_label
 _atom_site_symmetry_multiplicity
 _atom_site_fract_x
 _atom_site_fract_y
 _atom_site_fract_z
 _atom_site_occupancy
  S  S0  1  0.987347  0.847161  0.489305  1
  S  S1  1  0.989305  0.347161  0.487347  1
  S  S2  1  0.140186  0.152839  0.142143  1
  S  S3  1  0.359814  0.501957  0.012653  1
  S  S4  1  0.512653  0.001957  0.859814  1
  S  S5  1  0.642143  0.652839  0.640186  1
  S  S6  1  0.510695  0.998043  0.357857  1
  S  S7  1  0.857857  0.498043  0.010695  1
  Sm  Sm8  1  0.250000  0.626004  0.376004  1
  Sm  Sm9  1  0.623996  0.373996  0.250000  1
  Sm  Sm10  1  0.750000  0.873996  0.123996  1
  Sm  Sm11  1  0.876004  0.126004  0.750000  1
  Sr  Sr12  1  0.125000  0.750000  0.875000  1
  Sr  Sr13  1  0.375000  0.250000  0.625000  1
