# generated using pymatgen
data_Ga2Te4O11
_symmetry_space_group_name_H-M   'P 1'
_cell_length_a   5.24462346
_cell_length_b   6.66145771
_cell_length_c   8.39387058
_cell_angle_alpha   75.40542130
_cell_angle_beta   89.07385944
_cell_angle_gamma   69.83207638
_symmetry_Int_Tables_number   1
_chemical_formula_structural   Ga2Te4O11
_chemical_formula_sum   'Ga2 Te4 O11'
_cell_volume   265.58409304
_cell_formula_units_Z   1
loop_
 _symmetry_equiv_pos_site_id
 _symmetry_equiv_pos_as_xyz
  1  'x, y, z'
loop_
 _atom_site_type_symbol
 _atom_site_label
 _atom_site_symmetry_multiplicity
 _atom_site_fract_x
 _atom_site_fract_y
 _atom_site_fract_z
 _atom_site_occupancy
  O  O0  1  0.557695  0.181822  0.910382  1
  O  O1  1  0.026131  0.442833  0.809748  1
  O  O2  1  0.171188  0.970811  0.862419  1
  O  O3  1  0.522070  0.540386  0.617027  1
  O  O4  1  0.914863  0.127713  0.168764  1
  O  O5  1  0.980605  0.400738  0.384645  1
  O  O6  1  0.551842  0.267137  0.404461  1
  O  O7  1  0.647593  0.888843  0.699454  1
  O  O8  1  0.627360  0.867205  0.335712  1
  O  O9  1  0.883570  0.689541  0.056751  1
  O  O10  1  0.298374  0.672966  0.243705  1
  Ga  Ga11  1  0.609846  0.574936  0.394838  1
  Ga  Ga12  1  0.899680  0.974668  0.011197  1
  Te  Te13  1  0.644471  0.599500  0.809341  1
  Te  Te14  1  0.322015  0.182520  0.739534  1
  Te  Te15  1  0.851843  0.008173  0.394539  1
  Te  Te16  1  0.187656  0.445409  0.197582  1
