# generated using pymatgen
data_KSb3O5
_symmetry_space_group_name_H-M   'P 1'
_cell_length_a   7.16264627
_cell_length_b   7.64022765
_cell_length_c   14.22058122
_cell_angle_alpha   90.00000000
_cell_angle_beta   90.00000000
_cell_angle_gamma   112.75128749
_symmetry_Int_Tables_number   1
_chemical_formula_structural   KSb3O5
_chemical_formula_sum   'K4 Sb12 O20'
_cell_volume   717.65982204
_cell_formula_units_Z   4
loop_
 _symmetry_equiv_pos_site_id
 _symmetry_equiv_pos_as_xyz
  1  'x, y, z'
loop_
 _atom_site_type_symbol
 _atom_site_label
 _atom_site_symmetry_multiplicity
 _atom_site_fract_x
 _atom_site_fract_y
 _atom_site_fract_z
 _atom_site_occupancy
  O  O0  1  0.717671  0.895345  0.868640  1
  O  O1  1  0.782329  0.604655  0.368640  1
  O  O2  1  0.282329  0.104655  0.131360  1
  O  O3  1  0.217671  0.395345  0.631360  1
  O  O4  1  0.956254  0.288931  0.844446  1
  O  O5  1  0.543746  0.211069  0.344446  1
  O  O6  1  0.043746  0.711069  0.155554  1
  O  O7  1  0.456254  0.788931  0.655554  1
  O  O8  1  0.817432  0.564149  0.903066  1
  O  O9  1  0.682568  0.935851  0.403066  1
  O  O10  1  0.182568  0.435851  0.096934  1
  O  O11  1  0.317432  0.064149  0.596934  1
  O  O12  1  0.604560  0.407761  0.540291  1
  O  O13  1  0.895440  0.092239  0.040291  1
  O  O14  1  0.395440  0.592239  0.459709  1
  O  O15  1  0.104560  0.907761  0.959709  1
  O  O16  1  0.031228  0.641347  0.726182  1
  O  O17  1  0.468772  0.858653  0.226182  1
  O  O18  1  0.968772  0.358653  0.273818  1
  O  O19  1  0.531228  0.141347  0.773818  1
  K  K20  1  0.101652  0.050245  0.758019  1
  K  K21  1  0.398348  0.449755  0.258019  1
  K  K22  1  0.898348  0.949755  0.241981  1
  K  K23  1  0.601652  0.550245  0.741981  1
  Sb  Sb24  1  0.820989  0.361190  0.396727  1
  Sb  Sb25  1  0.679011  0.138810  0.896727  1
  Sb  Sb26  1  0.179011  0.638810  0.603273  1
  Sb  Sb27  1  0.320989  0.861190  0.103273  1
  Sb  Sb28  1  0.805995  0.791797  0.985539  1
  Sb  Sb29  1  0.694005  0.708203  0.485539  1
  Sb  Sb30  1  0.194005  0.208203  0.014461  1
  Sb  Sb31  1  0.305995  0.291797  0.514461  1
  Sb  Sb32  1  0.417716  0.924859  0.357620  1
  Sb  Sb33  1  0.082284  0.575141  0.857620  1
  Sb  Sb34  1  0.582284  0.075141  0.642380  1
  Sb  Sb35  1  0.917716  0.424859  0.142380  1
