# generated using pymatgen
data_Li3Cr2(PO4)3
_symmetry_space_group_name_H-M   'P 1'
_cell_length_a   8.71307716
_cell_length_b   8.71307716
_cell_length_c   8.59881042
_cell_angle_alpha   58.43752858
_cell_angle_beta   121.56247139
_cell_angle_gamma   119.30901745
_symmetry_Int_Tables_number   1
_chemical_formula_structural   Li3Cr2(PO4)3
_chemical_formula_sum   'Li6 Cr4 P6 O24'
_cell_volume   452.58109014
_cell_formula_units_Z   2
loop_
 _symmetry_equiv_pos_site_id
 _symmetry_equiv_pos_as_xyz
  1  'x, y, z'
loop_
 _atom_site_type_symbol
 _atom_site_label
 _atom_site_symmetry_multiplicity
 _atom_site_fract_x
 _atom_site_fract_y
 _atom_site_fract_z
 _atom_site_occupancy
  Li  Li0  1  0.236529  0.841006  0.756004  1
  Li  Li1  1  0.763471  0.158992  0.243997  1
  Li  Li2  1  0.499999  1.000000  0.500000  1
  Li  Li3  1  0.841007  0.236530  0.743995  1
  Li  Li4  1  0.000001  0.500001  1.000000  1
  Li  Li5  1  0.158993  0.763470  0.256004  1
  O  O6  1  0.188364  0.549534  0.530268  1
  O  O7  1  0.903972  0.441296  0.232794  1
  O  O8  1  0.982195  0.125061  0.562443  1
  O  O9  1  0.874938  0.017806  0.062443  1
  O  O10  1  0.125062  0.982195  0.937558  1
  O  O11  1  0.017805  0.874939  0.437557  1
  O  O12  1  0.096028  0.558703  0.767206  1
  O  O13  1  0.406471  0.750853  0.727407  1
  O  O14  1  0.614643  0.681179  0.398630  1
  O  O15  1  0.318821  0.385357  0.898630  1
  O  O16  1  0.771034  0.946484  0.745884  1
  O  O17  1  0.811637  0.450466  0.469733  1
  O  O18  1  0.249148  0.593528  0.227409  1
  O  O19  1  0.450467  0.811636  0.030268  1
  O  O20  1  0.593529  0.249148  0.272592  1
  O  O21  1  0.053516  0.228966  0.245885  1
  O  O22  1  0.946484  0.771034  0.754116  1
  O  O23  1  0.385357  0.318820  0.601370  1
  O  O24  1  0.549533  0.188363  0.969732  1
  O  O25  1  0.750852  0.406472  0.772592  1
  O  O26  1  0.558704  0.096029  0.732794  1
  O  O27  1  0.228966  0.053517  0.254116  1
  O  O28  1  0.681179  0.614643  0.101371  1
  O  O29  1  0.441296  0.903972  0.267207  1
  P  P30  1  0.956473  0.956473  0.750000  1
  P  P31  1  0.445658  0.744969  0.233590  1
  P  P32  1  0.554342  0.255031  0.766410  1
  P  P33  1  0.043527  0.043527  0.250000  1
  P  P34  1  0.255031  0.554342  0.733590  1
  P  P35  1  0.744968  0.445657  0.266411  1
  Cr  Cr36  1  0.365421  0.142527  0.073912  1
  Cr  Cr37  1  0.857472  0.634579  0.573912  1
  Cr  Cr38  1  0.142528  0.365420  0.426088  1
  Cr  Cr39  1  0.634580  0.857473  0.926087  1
