# generated using pymatgen
data_Na3(WO3)4
_symmetry_space_group_name_H-M   'P 1'
_cell_length_a   7.88055384
_cell_length_b   7.88055356
_cell_length_c   6.82475978
_cell_angle_alpha   54.73561239
_cell_angle_beta   54.73561381
_cell_angle_gamma   90.00000174
_symmetry_Int_Tables_number   1
_chemical_formula_structural   Na3(WO3)4
_chemical_formula_sum   'Na3 W4 O12'
_cell_volume   244.70354139
_cell_formula_units_Z   1
loop_
 _symmetry_equiv_pos_site_id
 _symmetry_equiv_pos_as_xyz
  1  'x, y, z'
loop_
 _atom_site_type_symbol
 _atom_site_label
 _atom_site_symmetry_multiplicity
 _atom_site_fract_x
 _atom_site_fract_y
 _atom_site_fract_z
 _atom_site_occupancy
  Na  Na0  1  0.000000  0.500000  0.000000  1
  Na  Na1  1  0.500000  0.000000  0.000000  1
  Na  Na2  1  0.500000  0.500000  0.000000  1
  W  W3  1  0.000000  0.000000  0.500000  1
  W  W4  1  0.000000  0.500000  0.500000  1
  W  W5  1  0.500000  0.000000  0.500000  1
  W  W6  1  0.500000  0.500000  0.500000  1
  O  O7  1  0.252553  0.747447  1.000000  1
  O  O8  1  0.252553  0.252553  1.000000  1
  O  O9  1  0.000000  0.252553  0.494895  1
  O  O10  1  1.000000  0.747447  0.505105  1
  O  O11  1  0.252553  0.000000  0.494895  1
  O  O12  1  0.252553  0.505105  0.494895  1
  O  O13  1  0.747447  0.252553  0.000000  1
  O  O14  1  0.747447  0.747447  0.000000  1
  O  O15  1  0.505105  0.252553  0.494895  1
  O  O16  1  0.494895  0.747447  0.505105  1
  O  O17  1  0.747447  0.494895  0.505105  1
  O  O18  1  0.747447  1.000000  0.505105  1
