# generated using pymatgen
data_Ho2Al3Si2
_symmetry_space_group_name_H-M   'P 1'
_cell_length_a   4.03553189
_cell_length_b   5.45544566
_cell_length_c   6.60432429
_cell_angle_alpha   100.04632785
_cell_angle_beta   90.00000000
_cell_angle_gamma   111.70715078
_symmetry_Int_Tables_number   1
_chemical_formula_structural   Ho2Al3Si2
_chemical_formula_sum   'Ho2 Al3 Si2'
_cell_volume   132.68509257
_cell_formula_units_Z   1
loop_
 _symmetry_equiv_pos_site_id
 _symmetry_equiv_pos_as_xyz
  1  'x, y, z'
loop_
 _atom_site_type_symbol
 _atom_site_label
 _atom_site_symmetry_multiplicity
 _atom_site_fract_x
 _atom_site_fract_y
 _atom_site_fract_z
 _atom_site_occupancy
  Al  Al0  1  0.694494  0.388987  0.866489  1
  Al  Al1  1  0.000000  0.000000  0.000000  1
  Al  Al2  1  0.305506  0.611013  0.133511  1
  Si  Si3  1  0.906650  0.813300  0.360412  1
  Si  Si4  1  0.093350  0.186700  0.639588  1
  Ho  Ho5  1  0.380542  0.761084  0.677677  1
  Ho  Ho6  1  0.619458  0.238916  0.322323  1
