# generated using pymatgen
data_Pu5Os3
_symmetry_space_group_name_H-M   'P 1'
_cell_length_a   5.54149087
_cell_length_b   8.22419720
_cell_length_c   8.24155993
_cell_angle_alpha   83.49651843
_cell_angle_beta   70.35496881
_cell_angle_gamma   70.31178343
_symmetry_Int_Tables_number   1
_chemical_formula_structural   Pu5Os3
_chemical_formula_sum   'Pu10 Os6'
_cell_volume   333.06113742
_cell_formula_units_Z   2
loop_
 _symmetry_equiv_pos_site_id
 _symmetry_equiv_pos_as_xyz
  1  'x, y, z'
loop_
 _atom_site_type_symbol
 _atom_site_label
 _atom_site_symmetry_multiplicity
 _atom_site_fract_x
 _atom_site_fract_y
 _atom_site_fract_z
 _atom_site_occupancy
  Os  Os0  1  0.250000  0.000000  0.000000  1
  Os  Os1  1  0.750000  0.000000  0.000000  1
  Os  Os2  1  0.150464  0.500000  0.199071  1
  Os  Os3  1  0.349526  0.800948  0.500000  1
  Os  Os4  1  0.650474  0.199052  0.500000  1
  Os  Os5  1  0.849536  0.500000  0.800929  1
  Pu  Pu6  1  0.249754  0.500000  0.500000  1
  Pu  Pu7  1  0.750246  0.500000  0.500000  1
  Pu  Pu8  1  0.087034  0.132402  0.693531  1
  Pu  Pu9  1  0.780675  0.306359  0.132292  1
  Pu  Pu10  1  0.219325  0.693641  0.867708  1
  Pu  Pu11  1  0.912966  0.867598  0.306469  1
  Pu  Pu12  1  0.280564  0.132402  0.306469  1
  Pu  Pu13  1  0.719436  0.867598  0.693531  1
  Pu  Pu14  1  0.412967  0.306359  0.867708  1
  Pu  Pu15  1  0.587033  0.693641  0.132292  1
