# generated using pymatgen
data_Te3Pd10
_symmetry_space_group_name_H-M   'P 1'
_cell_length_a   8.94438098
_cell_length_b   8.94438098
_cell_length_c   8.94438098
_cell_angle_alpha   60.00000000
_cell_angle_beta   60.00000000
_cell_angle_gamma   60.00000002
_symmetry_Int_Tables_number   1
_chemical_formula_structural   Te3Pd10
_chemical_formula_sum   'Te6 Pd20'
_cell_volume   505.98293575
_cell_formula_units_Z   2
loop_
 _symmetry_equiv_pos_site_id
 _symmetry_equiv_pos_as_xyz
  1  'x, y, z'
loop_
 _atom_site_type_symbol
 _atom_site_label
 _atom_site_symmetry_multiplicity
 _atom_site_fract_x
 _atom_site_fract_y
 _atom_site_fract_z
 _atom_site_occupancy
  Pd  Pd0  1  0.365882  0.365882  0.365882  1
  Pd  Pd1  1  0.365882  0.365882  0.902355  1
  Pd  Pd2  1  0.902355  0.365882  0.365882  1
  Pd  Pd3  1  0.365882  0.902355  0.365882  1
  Pd  Pd4  1  0.884118  0.884118  0.884118  1
  Pd  Pd5  1  0.884118  0.884118  0.347645  1
  Pd  Pd6  1  0.347645  0.884118  0.884118  1
  Pd  Pd7  1  0.884118  0.347645  0.884118  1
  Pd  Pd8  1  0.741910  0.258090  0.258090  1
  Pd  Pd9  1  0.258090  0.258090  0.741910  1
  Pd  Pd10  1  0.741910  0.741910  0.258090  1
  Pd  Pd11  1  0.258090  0.741910  0.741910  1
  Pd  Pd12  1  0.258090  0.741910  0.258090  1
  Pd  Pd13  1  0.741910  0.258090  0.741910  1
  Pd  Pd14  1  0.508090  0.991910  0.991910  1
  Pd  Pd15  1  0.991910  0.991910  0.508090  1
  Pd  Pd16  1  0.508090  0.508090  0.991910  1
  Pd  Pd17  1  0.991910  0.508090  0.508090  1
  Pd  Pd18  1  0.991910  0.508090  0.991910  1
  Pd  Pd19  1  0.508090  0.991910  0.508090  1
  Te  Te20  1  0.000000  0.000000  0.000000  1
  Te  Te21  1  0.250000  0.250000  0.250000  1
  Te  Te22  1  0.625000  0.625000  0.625000  1
  Te  Te23  1  0.625000  0.625000  0.125000  1
  Te  Te24  1  0.125000  0.625000  0.625000  1
  Te  Te25  1  0.625000  0.125000  0.625000  1
