# generated using pymatgen
data_LiNi(PO3)3
_symmetry_space_group_name_H-M   'P 1'
_cell_length_a   9.65614053
_cell_length_b   9.38449455
_cell_length_c   9.38311206
_cell_angle_alpha   108.74578301
_cell_angle_beta   104.66659844
_cell_angle_gamma   109.69849171
_symmetry_Int_Tables_number   1
_chemical_formula_structural   LiNi(PO3)3
_chemical_formula_sum   'Li4 Ni4 P12 O36'
_cell_volume   692.93480862
_cell_formula_units_Z   4
loop_
 _symmetry_equiv_pos_site_id
 _symmetry_equiv_pos_as_xyz
  1  'x, y, z'
loop_
 _atom_site_type_symbol
 _atom_site_label
 _atom_site_symmetry_multiplicity
 _atom_site_fract_x
 _atom_site_fract_y
 _atom_site_fract_z
 _atom_site_occupancy
  Li  Li0  1  0.503809  0.932948  0.347202  1
  Li  Li1  1  0.327128  0.154148  0.360200  1
  Li  Li2  1  0.672872  0.845852  0.639800  1
  Li  Li3  1  0.496191  0.067052  0.652797  1
  O  O4  1  0.091736  0.139698  0.191236  1
  O  O5  1  0.994240  0.727218  0.048035  1
  O  O6  1  0.831218  0.167137  0.094443  1
  O  O7  1  0.805717  0.376263  -0.000095  1
  O  O8  1  0.062203  0.809908  0.632115  1
  O  O9  1  0.005759  0.272782  0.951965  1
  O  O10  1  0.168781  0.832863  0.905556  1
  O  O11  1  0.194283  0.623737  1.000094  1
  O  O12  1  0.136944  0.694091  0.404100  1
  O  O13  1  0.046905  0.176194  0.636020  1
  O  O14  1  0.189390  0.096935  0.882930  1
  O  O15  1  0.322140  0.427672  0.970600  1
  O  O16  1  0.367307  0.636162  0.847482  1
  O  O17  1  0.287421  0.592880  0.566216  1
  O  O18  1  0.297763  0.925739  0.214152  1
  O  O19  1  0.937797  0.190092  0.367886  1
  O  O20  1  0.251995  0.518144  0.269895  1
  O  O21  1  0.443314  0.822375  0.497012  1
  O  O22  1  0.355587  0.376797  0.633943  1
  O  O23  1  0.251532  0.014773  0.562040  1
  O  O24  1  0.579799  0.679874  0.732584  1
  O  O25  1  0.503747  0.251329  0.845075  1
  O  O26  1  0.496252  0.748671  0.154926  1
  O  O27  1  0.420201  0.320126  0.267416  1
  O  O28  1  0.863057  0.305909  0.595900  1
  O  O29  1  0.644414  0.623203  0.366058  1
  O  O30  1  0.556686  0.177625  0.502988  1
  O  O31  1  0.748005  0.481857  0.730105  1
  O  O32  1  0.908264  0.860302  0.808763  1
  O  O33  1  0.702237  0.074261  0.785849  1
  O  O34  1  0.712578  0.407120  0.433784  1
  O  O35  1  0.632692  0.363838  0.152517  1
  O  O36  1  0.677860  0.572328  0.029400  1
  O  O37  1  0.810608  0.903064  0.117069  1
  O  O38  1  0.953095  0.823806  0.363981  1
  O  O39  1  0.748468  0.985227  0.437960  1
  P  P40  1  0.924566  0.089892  0.187597  1
  P  P41  1  0.899414  0.151959  0.513505  1
  P  P42  1  0.839374  0.213354  0.943523  1
  P  P43  1  0.646878  0.392890  0.997398  1
  P  P44  1  0.075433  0.910108  0.812403  1
  P  P45  1  0.100585  0.848040  0.486495  1
  P  P46  1  0.160626  0.786646  0.056477  1
  P  P47  1  0.291589  0.658916  0.427287  1
  P  P48  1  0.708411  0.341084  0.572713  1
  P  P49  1  0.353123  0.607110  0.002602  1
  P  P50  1  0.592162  0.436978  0.307849  1
  P  P51  1  0.407837  0.563022  0.692152  1
  Ni  Ni52  1  0.275978  0.228637  0.750209  1
  Ni  Ni53  1  0.211863  0.296537  0.096676  1
  Ni  Ni54  1  0.788136  0.703463  0.903324  1
  Ni  Ni55  1  0.724022  0.771363  0.249791  1
