# generated using pymatgen
data_Li31Zr2P13
_symmetry_space_group_name_H-M   'P 1'
_cell_length_a   4.18259979
_cell_length_b   4.18259988
_cell_length_c   55.10725440
_cell_angle_alpha   60.41270872
_cell_angle_beta   60.41270888
_cell_angle_gamma   60.04042132
_symmetry_Int_Tables_number   1
_chemical_formula_structural   Li31Zr2P13
_chemical_formula_sum   'Li31 Zr2 P13'
_cell_volume   686.12259027
_cell_formula_units_Z   1
loop_
 _symmetry_equiv_pos_site_id
 _symmetry_equiv_pos_as_xyz
  1  'x, y, z'
loop_
 _atom_site_type_symbol
 _atom_site_label
 _atom_site_symmetry_multiplicity
 _atom_site_fract_x
 _atom_site_fract_y
 _atom_site_fract_z
 _atom_site_occupancy
  Li  Li0  1  0.265831  0.265831  0.169414  1
  Li  Li1  1  0.741549  0.741549  0.059650  1
  Li  Li2  1  0.485770  0.485770  0.195587  1
  Li  Li3  1  0.250813  0.250813  0.249816  1
  Li  Li4  1  0.737233  0.737233  0.137525  1
  Li  Li5  1  0.492681  0.492681  0.270950  1
  Li  Li6  1  0.253492  0.253492  0.326111  1
  Li  Li7  1  0.747054  0.747054  0.212232  1
  Li  Li8  1  0.239182  0.239182  0.406400  1
  Li  Li9  1  0.487185  0.487185  0.349129  1
  Li  Li10  1  0.749506  0.749506  0.288586  1
  Li  Li11  1  0.248277  0.248277  0.481150  1
  Li  Li12  1  0.731501  0.731501  0.369551  1
  Li  Li13  1  0.246935  0.246935  0.558355  1
  Li  Li14  1  0.757566  0.757566  0.440582  1
  Li  Li15  1  0.241587  0.241587  0.636529  1
  Li  Li16  1  0.753342  0.753342  0.518511  1
  Li  Li17  1  0.269287  0.269287  0.707207  1
  Li  Li18  1  0.752286  0.752286  0.595664  1
  Li  Li19  1  0.760916  0.760916  0.670508  1
  Li  Li20  1  0.513860  0.513860  0.727559  1
  Li  Li21  1  0.251471  0.251471  0.788105  1
  Li  Li22  1  0.509650  0.509650  0.805443  1
  Li  Li23  1  0.253211  0.253211  0.864641  1
  Li  Li24  1  0.746982  0.746982  0.750700  1
  Li  Li25  1  0.513252  0.513252  0.881552  1
  Li  Li26  1  0.259455  0.259455  0.940103  1
  Li  Li27  1  0.749784  0.749784  0.826985  1
  Li  Li28  1  0.525585  0.525585  0.955629  1
  Li  Li29  1  0.756372  0.756372  0.902362  1
  Li  Li30  1  0.749310  0.749310  0.980925  1
  P  P31  1  0.001745  0.001745  0.999539  1
  P  P32  1  0.990089  0.990089  0.079196  1
  P  P33  1  0.994687  0.994687  0.155078  1
  P  P34  1  0.010293  0.010293  0.228393  1
  P  P35  1  0.014591  0.014591  0.381198  1
  P  P36  1  0.010851  0.010851  0.305202  1
  P  P37  1  0.996755  0.996755  0.462207  1
  P  P38  1  0.000233  0.000233  0.538415  1
  P  P39  1  0.003296  0.003296  0.614703  1
  P  P40  1  0.988260  0.988260  0.771925  1
  P  P41  1  0.985276  0.985276  0.695774  1
  P  P42  1  0.991796  0.991796  0.848057  1
  P  P43  1  0.994845  0.994845  0.924234  1
  Zr  Zr44  1  0.236266  0.236266  0.022418  1
  Zr  Zr45  1  0.240094  0.240094  0.098507  1
