# generated using pymatgen
data_Ba3P2
_symmetry_space_group_name_H-M   'P 1'
_cell_length_a   25.72161130
_cell_length_b   9.90436514
_cell_length_c   9.90436502
_cell_angle_alpha   90.00000157
_cell_angle_beta   54.71878012
_cell_angle_gamma   54.71878057
_symmetry_Int_Tables_number   1
_chemical_formula_structural   Ba3P2
_chemical_formula_sum   'Ba24 P16'
_cell_volume   1455.55846757
_cell_formula_units_Z   8
loop_
 _symmetry_equiv_pos_site_id
 _symmetry_equiv_pos_as_xyz
  1  'x, y, z'
loop_
 _atom_site_type_symbol
 _atom_site_label
 _atom_site_symmetry_multiplicity
 _atom_site_fract_x
 _atom_site_fract_y
 _atom_site_fract_z
 _atom_site_occupancy
  Ba  Ba0  1  0.044959  0.992513  0.374585  1
  Ba  Ba1  1  0.137030  0.478504  0.985227  1
  Ba  Ba2  1  0.044959  0.372609  0.490538  1
  Ba  Ba3  1  0.288374  0.127391  0.125415  1
  Ba  Ba4  1  0.288374  0.507487  0.009462  1
  Ba  Ba5  1  0.137030  0.610408  0.603685  1
  Ba  Ba6  1  0.196304  0.021496  0.896315  1
  Ba  Ba7  1  0.378269  0.016563  0.349187  1
  Ba  Ba8  1  0.196304  0.889592  0.514773  1
  Ba  Ba9  1  0.455064  0.483994  0.983437  1
  Ba  Ba10  1  0.378269  0.348630  0.516006  1
  Ba  Ba11  1  0.637030  0.103685  0.110408  1
  Ba  Ba12  1  0.637030  0.485227  0.978504  1
  Ba  Ba13  1  0.455064  0.650813  0.651370  1
  Ba  Ba14  1  0.544959  0.990538  0.872609  1
  Ba  Ba15  1  0.696304  0.014773  0.389592  1
  Ba  Ba16  1  0.544959  0.874585  0.492513  1
  Ba  Ba17  1  0.788374  0.509462  0.007487  1
  Ba  Ba18  1  0.696304  0.396315  0.521496  1
  Ba  Ba19  1  0.955064  0.151370  0.150813  1
  Ba  Ba20  1  0.955064  0.483437  0.983994  1
  Ba  Ba21  1  0.788374  0.625415  0.627391  1
  Ba  Ba22  1  0.878269  0.016006  0.848630  1
  Ba  Ba23  1  0.878269  0.849187  0.516563  1
  P  P24  1  0.085975  0.621037  0.371037  1
  P  P25  1  0.166667  0.250000  0.628914  1
  P  P26  1  0.247358  0.878963  0.128963  1
  P  P27  1  0.340275  0.377830  0.250748  1
  P  P28  1  0.166667  0.750000  0.871086  1
  P  P29  1  0.340275  0.101345  0.728427  1
  P  P30  1  0.493058  0.271573  0.622170  1
  P  P31  1  0.666667  0.371086  0.250000  1
  P  P32  1  0.585975  0.871037  0.121037  1
  P  P33  1  0.493058  0.749252  0.898655  1
  P  P34  1  0.666667  0.128914  0.750000  1
  P  P35  1  0.747358  0.628963  0.378963  1
  P  P36  1  0.840275  0.228427  0.601345  1
  P  P37  1  0.993058  0.398655  0.249252  1
  P  P38  1  0.840275  0.750748  0.877830  1
  P  P39  1  0.993058  0.122170  0.771573  1
