# generated using pymatgen
data_NaSm2Se3
_symmetry_space_group_name_H-M   'P 1'
_cell_length_a   8.39233581
_cell_length_b   12.62128969
_cell_length_c   7.30782662
_cell_angle_alpha   29.71383273
_cell_angle_beta   54.47075147
_cell_angle_gamma   59.68800988
_symmetry_Int_Tables_number   1
_chemical_formula_structural   NaSm2Se3
_chemical_formula_sum   'Na2 Sm4 Se6'
_cell_volume   312.24380874
_cell_formula_units_Z   2
loop_
 _symmetry_equiv_pos_site_id
 _symmetry_equiv_pos_as_xyz
  1  'x, y, z'
loop_
 _atom_site_type_symbol
 _atom_site_label
 _atom_site_symmetry_multiplicity
 _atom_site_fract_x
 _atom_site_fract_y
 _atom_site_fract_z
 _atom_site_occupancy
  Na  Na0  1  -0.000000  0.333724  0.999414  1
  Na  Na1  1  0.500000  0.666276  0.000586  1
  Sm  Sm2  1  -0.000000  0.998721  0.001918  1
  Sm  Sm3  1  -0.000000  0.666641  0.000040  1
  Sm  Sm4  1  0.500000  0.333359  -0.000040  1
  Sm  Sm5  1  0.500000  0.001279  0.998082  1
  Se  Se6  1  0.248277  0.331892  0.501120  1
  Se  Se7  1  0.251723  0.668108  0.498880  1
  Se  Se8  1  0.751723  0.331892  0.503205  1
  Se  Se9  1  0.250000  0.000000  0.500000  1
  Se  Se10  1  0.748277  0.668108  0.496795  1
  Se  Se11  1  0.750000  0.000000  0.500000  1
