# generated using pymatgen
data_CeSbO3
_symmetry_space_group_name_H-M   'P 1'
_cell_length_a   7.76795842
_cell_length_b   7.76795882
_cell_length_c   7.76795903
_cell_angle_alpha   60.00000398
_cell_angle_beta   60.00000228
_cell_angle_gamma   60.00000609
_symmetry_Int_Tables_number   1
_chemical_formula_structural   CeSbO3
_chemical_formula_sum   'Ce4 Sb4 O12'
_cell_volume   331.44065327
_cell_formula_units_Z   4
loop_
 _symmetry_equiv_pos_site_id
 _symmetry_equiv_pos_as_xyz
  1  'x, y, z'
loop_
 _atom_site_type_symbol
 _atom_site_label
 _atom_site_symmetry_multiplicity
 _atom_site_fract_x
 _atom_site_fract_y
 _atom_site_fract_z
 _atom_site_occupancy
  Ce  Ce0  1  -0.000000  -0.000000  -0.000000  1
  Ce  Ce1  1  0.500000  -0.000000  -0.000000  1
  Ce  Ce2  1  -0.000000  0.500000  -0.000000  1
  Ce  Ce3  1  -0.000000  -0.000000  0.500000  1
  Sb  Sb4  1  -0.000000  0.500000  0.500000  1
  Sb  Sb5  1  0.500000  0.500000  -0.000000  1
  Sb  Sb6  1  0.500000  0.500000  0.500000  1
  Sb  Sb7  1  0.500000  -0.000000  0.500000  1
  O  O8  1  0.107139  0.642861  0.107139  1
  O  O9  1  0.107139  0.107139  0.642861  1
  O  O10  1  0.107139  0.642861  0.642861  1
  O  O11  1  0.642861  0.107139  0.107139  1
  O  O12  1  0.357139  0.357139  0.892861  1
  O  O13  1  0.357139  0.892861  0.357139  1
  O  O14  1  0.642861  0.107139  0.642861  1
  O  O15  1  0.642861  0.642861  0.107139  1
  O  O16  1  0.892861  0.357139  0.357139  1
  O  O17  1  0.357139  0.892861  0.892861  1
  O  O18  1  0.892861  0.357139  0.892861  1
  O  O19  1  0.892861  0.892861  0.357139  1
