# generated using pymatgen
data_BrO2F
_symmetry_space_group_name_H-M   'P 1'
_cell_length_a   6.64244837
_cell_length_b   6.69900305
_cell_length_c   6.64244831
_cell_angle_alpha   47.75616200
_cell_angle_beta   47.74633045
_cell_angle_gamma   47.75616011
_symmetry_Int_Tables_number   1
_chemical_formula_structural   BrO2F
_chemical_formula_sum   'Br2 O4 F2'
_cell_volume   148.30086049
_cell_formula_units_Z   2
loop_
 _symmetry_equiv_pos_site_id
 _symmetry_equiv_pos_as_xyz
  1  'x, y, z'
loop_
 _atom_site_type_symbol
 _atom_site_label
 _atom_site_symmetry_multiplicity
 _atom_site_fract_x
 _atom_site_fract_y
 _atom_site_fract_z
 _atom_site_occupancy
  Br  Br0  1  0.277073  0.227788  0.246531  1
  Br  Br1  1  0.746531  0.727788  0.777073  1
  F  F2  1  0.791673  0.089188  0.493479  1
  F  F3  1  0.993479  0.589188  0.291673  1
  O  O4  1  0.073996  0.506988  0.786931  1
  O  O5  1  0.498809  0.797236  0.073908  1
  O  O6  1  0.286931  0.006988  0.573996  1
  O  O7  1  0.573908  0.297236  0.998809  1
