# generated using pymatgen
data_LiFe2(PO4)3
_symmetry_space_group_name_H-M   'P 1'
_cell_length_a   8.59198272
_cell_length_b   12.16549634
_cell_length_c   8.77969793
_cell_angle_alpha   90.00000000
_cell_angle_beta   90.00000000
_cell_angle_gamma   90.33147396
_symmetry_Int_Tables_number   1
_chemical_formula_structural   LiFe2(PO4)3
_chemical_formula_sum   'Li4 Fe8 P12 O48'
_cell_volume   917.68901554
_cell_formula_units_Z   4
loop_
 _symmetry_equiv_pos_site_id
 _symmetry_equiv_pos_as_xyz
  1  'x, y, z'
loop_
 _atom_site_type_symbol
 _atom_site_label
 _atom_site_symmetry_multiplicity
 _atom_site_fract_x
 _atom_site_fract_y
 _atom_site_fract_z
 _atom_site_occupancy
  Li  Li0  1  0.194937  0.181884  0.782151  1
  Li  Li1  1  0.805064  0.818116  0.217848  1
  Li  Li2  1  0.694937  0.681884  0.717849  1
  Li  Li3  1  0.305062  0.318116  0.282151  1
  O  O4  1  0.306937  0.459006  0.546630  1
  O  O5  1  0.902213  0.420187  0.635426  1
  O  O6  1  0.858484  0.029113  0.566108  1
  O  O7  1  0.852823  0.762441  0.010597  1
  O  O8  1  0.870931  0.161867  0.788250  1
  O  O9  1  0.936921  0.407848  0.338838  1
  O  O10  1  0.935539  0.121379  0.115397  1
  O  O11  1  0.939487  0.554609  0.131158  1
  O  O12  1  0.060512  0.445391  0.868842  1
  O  O13  1  0.064462  0.878621  0.884602  1
  O  O14  1  0.063080  0.592152  0.661163  1
  O  O15  1  0.069790  0.172226  0.586955  1
  O  O16  1  0.097787  0.579813  0.364574  1
  O  O17  1  0.129070  0.838133  0.211751  1
  O  O18  1  0.141515  0.970887  0.433893  1
  O  O19  1  0.147177  0.237559  0.989403  1
  O  O20  1  0.172039  0.430560  0.177500  1
  O  O21  1  0.175843  0.178741  0.264210  1
  O  O22  1  0.193063  0.040994  0.046630  1
  O  O23  1  0.210211  0.775058  0.478282  1
  O  O24  1  0.289790  0.724941  0.978282  1
  O  O25  1  0.930209  0.827774  0.413044  1
  O  O26  1  0.324157  0.321259  0.764211  1
  O  O27  1  0.327961  0.069440  0.677500  1
  O  O28  1  0.352823  0.262441  0.489403  1
  O  O29  1  0.358485  0.529113  0.933892  1
  O  O30  1  0.370931  0.661867  0.711750  1
  O  O31  1  0.402212  0.920187  0.864574  1
  O  O32  1  0.436920  0.907848  0.161163  1
  O  O33  1  0.430209  0.327774  0.086956  1
  O  O34  1  0.435539  0.621379  0.384603  1
  O  O35  1  0.439488  0.054609  0.368841  1
  O  O36  1  0.560512  0.945391  0.631158  1
  O  O37  1  0.564462  0.378621  0.615398  1
  O  O38  1  0.569790  0.672226  0.913045  1
  O  O39  1  0.563080  0.092152  0.838837  1
  O  O40  1  0.597787  0.079813  0.135426  1
  O  O41  1  0.629070  0.338133  0.288250  1
  O  O42  1  0.641516  0.470887  0.066108  1
  O  O43  1  0.647178  0.737559  0.510598  1
  O  O44  1  0.672039  0.930560  0.322501  1
  O  O45  1  0.675843  0.678741  0.235790  1
  O  O46  1  0.827960  0.569440  0.822500  1
  O  O47  1  0.710211  0.275059  0.021718  1
  O  O48  1  0.789789  0.224941  0.521718  1
  O  O49  1  0.806938  0.959006  0.953370  1
  O  O50  1  0.824157  0.821259  0.735789  1
  O  O51  1  0.693063  0.540994  0.453371  1
  P  P52  1  0.394850  0.648190  0.885295  1
  P  P53  1  0.464511  0.006151  0.750738  1
  P  P54  1  0.387930  0.354521  0.606391  1
  P  P55  1  0.535488  0.993849  0.249262  1
  P  P56  1  0.605150  0.351810  0.114704  1
  P  P57  1  0.612070  0.645479  0.393609  1
  P  P58  1  0.887930  0.854521  0.893609  1
  P  P59  1  0.894850  0.148190  0.614705  1
  P  P60  1  0.035488  0.493849  0.250738  1
  P  P61  1  0.105149  0.851810  0.385295  1
  P  P62  1  0.112070  0.145479  0.106392  1
  P  P63  1  0.964511  0.506151  0.749262  1
  Fe  Fe64  1  0.750597  0.118227  0.972410  1
  Fe  Fe65  1  0.749403  0.381773  0.472411  1
  Fe  Fe66  1  0.750716  0.610798  0.034573  1
  Fe  Fe67  1  0.749285  0.889202  0.534573  1
  Fe  Fe68  1  0.250716  0.110798  0.465428  1
  Fe  Fe69  1  0.249283  0.389202  0.965427  1
  Fe  Fe70  1  0.250597  0.618227  0.527589  1
  Fe  Fe71  1  0.249404  0.881773  0.027590  1
