# generated using pymatgen
data_TiN
_symmetry_space_group_name_H-M   'P 1'
_cell_length_a   3.00740536
_cell_length_b   3.00740510
_cell_length_c   75.09409918
_cell_angle_alpha   60.00802302
_cell_angle_beta   60.00801985
_cell_angle_gamma   60.09282697
_symmetry_Int_Tables_number   1
_chemical_formula_structural   TiN
_chemical_formula_sum   'Ti22 N22'
_cell_volume   480.65247622
_cell_formula_units_Z   22
loop_
 _symmetry_equiv_pos_site_id
 _symmetry_equiv_pos_as_xyz
  1  'x, y, z'
loop_
 _atom_site_type_symbol
 _atom_site_label
 _atom_site_symmetry_multiplicity
 _atom_site_fract_x
 _atom_site_fract_y
 _atom_site_fract_z
 _atom_site_occupancy
  N  N0  1  0.506938  0.506938  0.139176  1
  N  N1  1  0.501072  0.501072  0.179871  1
  N  N2  1  0.501072  0.501072  0.219879  1
  N  N3  1  0.499472  0.499472  0.260062  1
  N  N4  1  0.500131  0.500131  0.299982  1
  N  N5  1  0.500227  0.500227  0.339997  1
  N  N6  1  0.499855  0.499855  0.380007  1
  N  N7  1  0.500219  0.500219  0.419990  1
  N  N8  1  0.499858  0.499858  0.460008  1
  N  N9  1  0.500129  0.500129  0.499994  1
  N  N10  1  0.499896  0.499896  0.540005  1
  N  N11  1  0.500086  0.500086  0.579997  1
  N  N12  1  0.499967  0.499967  0.619999  1
  N  N13  1  0.499994  0.499994  0.660003  1
  N  N14  1  0.500021  0.500021  0.699997  1
  N  N15  1  0.500062  0.500062  0.739996  1
  N  N16  1  0.499662  0.499662  0.780005  1
  N  N17  1  0.500197  0.500197  0.820009  1
  N  N18  1  0.500670  0.500670  0.859917  1
  N  N19  1  0.499071  0.499071  0.900096  1
  N  N20  1  0.508548  0.508548  0.938971  1
  N  N21  1  0.526352  0.526352  0.976825  1
  Ti  Ti22  1  0.990132  0.990132  0.121188  1
  Ti  Ti23  1  0.004963  0.004963  0.159404  1
  Ti  Ti24  1  0.997523  0.997523  0.200288  1
  Ti  Ti25  1  0.001444  0.001444  0.239809  1
  Ti  Ti26  1  0.999121  0.999121  0.280127  1
  Ti  Ti27  1  0.000374  0.000374  0.319925  1
  Ti  Ti28  1  0.000593  0.000593  0.399944  1
  Ti  Ti29  1  0.999487  0.999487  0.360055  1
  Ti  Ti30  1  0.999503  0.999503  0.440039  1
  Ti  Ti31  1  0.000318  0.000318  0.479971  1
  Ti  Ti32  1  0.999945  0.999945  0.560003  1
  Ti  Ti33  1  0.999834  0.999834  0.520015  1
  Ti  Ti34  1  0.000117  0.000117  0.599995  1
  Ti  Ti35  1  0.999632  0.999632  0.640030  1
  Ti  Ti36  1  0.000752  0.000752  0.679941  1
  Ti  Ti37  1  0.998877  0.998877  0.720076  1
  Ti  Ti38  1  0.999078  0.999078  0.800085  1
  Ti  Ti39  1  0.001259  0.001259  0.759918  1
  Ti  Ti40  1  0.999922  0.999922  0.880059  1
  Ti  Ti41  1  -0.000025  -0.000025  0.839977  1
  Ti  Ti42  1  0.966561  0.966561  0.964031  1
  Ti  Ti43  1  0.997092  0.997092  0.920330  1
