# generated using pymatgen
data_Nd2Sn2O7
_symmetry_space_group_name_H-M   'P 1'
_cell_length_a   7.59007829
_cell_length_b   7.59007832
_cell_length_c   7.59007809
_cell_angle_alpha   59.99999810
_cell_angle_beta   59.99999797
_cell_angle_gamma   59.99999876
_symmetry_Int_Tables_number   1
_chemical_formula_structural   Nd2Sn2O7
_chemical_formula_sum   'Nd4 Sn4 O14'
_cell_volume   309.18879203
_cell_formula_units_Z   2
loop_
 _symmetry_equiv_pos_site_id
 _symmetry_equiv_pos_as_xyz
  1  'x, y, z'
loop_
 _atom_site_type_symbol
 _atom_site_label
 _atom_site_symmetry_multiplicity
 _atom_site_fract_x
 _atom_site_fract_y
 _atom_site_fract_z
 _atom_site_occupancy
  Nd  Nd0  1  0.000000  0.000000  0.000000  1
  Nd  Nd1  1  0.000000  0.500000  0.000000  1
  Nd  Nd2  1  0.000000  0.000000  0.500000  1
  Nd  Nd3  1  0.500000  0.000000  0.000000  1
  Sn  Sn4  1  0.000000  0.500000  0.500000  1
  Sn  Sn5  1  0.500000  0.500000  0.000000  1
  Sn  Sn6  1  0.500000  0.000000  0.500000  1
  Sn  Sn7  1  0.500000  0.500000  0.500000  1
  O  O8  1  0.133384  0.133384  0.616616  1
  O  O9  1  0.133384  0.616616  0.133384  1
  O  O10  1  0.616616  0.133384  0.133384  1
  O  O11  1  0.375000  0.375000  0.375000  1
  O  O12  1  0.133384  0.616616  0.616616  1
  O  O13  1  0.383384  0.383384  0.866616  1
  O  O14  1  0.383384  0.866616  0.383384  1
  O  O15  1  0.616616  0.133384  0.616616  1
  O  O16  1  0.616616  0.616616  0.133384  1
  O  O17  1  0.866616  0.383384  0.383384  1
  O  O18  1  0.383384  0.866616  0.866616  1
  O  O19  1  0.625000  0.625000  0.625000  1
  O  O20  1  0.866616  0.383384  0.866616  1
  O  O21  1  0.866616  0.866616  0.383384  1
