# generated using pymatgen
data_La2Te4O11
_symmetry_space_group_name_H-M   'P 1'
_cell_length_a   5.36181819
_cell_length_b   7.00425858
_cell_length_c   16.61184537
_cell_angle_alpha   79.21531156
_cell_angle_beta   80.71268185
_cell_angle_gamma   67.49561380
_symmetry_Int_Tables_number   1
_chemical_formula_structural   La2Te4O11
_chemical_formula_sum   'La4 Te8 O22'
_cell_volume   563.40337709
_cell_formula_units_Z   2
loop_
 _symmetry_equiv_pos_site_id
 _symmetry_equiv_pos_as_xyz
  1  'x, y, z'
loop_
 _atom_site_type_symbol
 _atom_site_label
 _atom_site_symmetry_multiplicity
 _atom_site_fract_x
 _atom_site_fract_y
 _atom_site_fract_z
 _atom_site_occupancy
  O  O0  1  0.852559  0.250000  0.750000  1
  O  O1  1  0.147441  0.750000  0.250000  1
  O  O2  1  0.194356  0.879420  0.829649  1
  O  O3  1  0.903424  0.620580  0.670351  1
  O  O4  1  0.805644  0.120580  0.170351  1
  O  O5  1  0.096576  0.379420  0.329649  1
  O  O6  1  0.615957  0.051217  0.897430  1
  O  O7  1  0.564604  0.448783  0.602570  1
  O  O8  1  0.384043  0.948783  0.102570  1
  O  O9  1  0.435396  0.551217  0.397430  1
  O  O10  1  0.046150  0.194986  0.952919  1
  O  O11  1  0.194054  0.305014  0.547081  1
  O  O12  1  0.676725  0.132493  0.371863  1
  O  O13  1  0.181081  0.367507  0.128137  1
  O  O14  1  0.323275  0.867507  0.628137  1
  O  O15  1  0.818919  0.632493  0.871863  1
  O  O16  1  0.253663  0.970712  0.443352  1
  O  O17  1  0.667727  0.529288  0.056648  1
  O  O18  1  0.746337  0.029288  0.556648  1
  O  O19  1  0.332273  0.470712  0.943352  1
  O  O20  1  0.805946  0.694986  0.452919  1
  O  O21  1  0.953850  0.805014  0.047081  1
  Te  Te22  1  0.608479  0.534740  0.700471  1
  Te  Te23  1  0.843690  0.965260  0.799529  1
  Te  Te24  1  0.391521  0.465260  0.299529  1
  Te  Te25  1  0.156310  0.034740  0.200471  1
  Te  Te26  1  0.148119  0.392551  0.873780  1
  Te  Te27  1  0.414450  0.107449  0.626220  1
  Te  Te28  1  0.851881  0.607449  0.126220  1
  Te  Te29  1  0.585550  0.892551  0.373780  1
  La  La30  1  0.133520  0.699036  0.538702  1
  La  La31  1  0.371257  0.800964  0.961298  1
  La  La32  1  0.866480  0.300964  0.461298  1
  La  La33  1  0.628743  0.199036  0.038702  1
