# generated using pymatgen
data_NiP2O7
_symmetry_space_group_name_H-M   'P 1'
_cell_length_a   6.49375374
_cell_length_b   6.49418861
_cell_length_c   13.35556332
_cell_angle_alpha   78.80199630
_cell_angle_beta   77.71566696
_cell_angle_gamma   99.38450467
_symmetry_Int_Tables_number   1
_chemical_formula_structural   NiP2O7
_chemical_formula_sum   'Ni4 P8 O28'
_cell_volume   527.43821275
_cell_formula_units_Z   4
loop_
 _symmetry_equiv_pos_site_id
 _symmetry_equiv_pos_as_xyz
  1  'x, y, z'
loop_
 _atom_site_type_symbol
 _atom_site_label
 _atom_site_symmetry_multiplicity
 _atom_site_fract_x
 _atom_site_fract_y
 _atom_site_fract_z
 _atom_site_occupancy
  O  O0  1  0.783210  0.388667  0.015720  1
  O  O1  1  0.759707  0.176927  0.875591  1
  O  O2  1  0.903947  0.530295  0.645686  1
  O  O3  1  0.878613  0.992361  0.696326  1
  O  O4  1  0.240293  0.823072  0.124410  1
  O  O5  1  0.096053  0.469706  0.354313  1
  O  O6  1  0.121387  0.007638  0.303675  1
  O  O7  1  0.035188  0.857224  0.878393  1
  O  O8  1  0.095627  0.200995  0.515741  1
  O  O9  1  0.323939  0.450170  0.145705  1
  O  O10  1  0.235552  0.913434  0.621641  1
  O  O11  1  0.285603  0.594767  0.484859  1
  O  O12  1  0.188647  0.574835  0.803701  1
  O  O13  1  0.211389  0.265839  0.679188  1
  O  O14  1  0.579656  0.770447  0.015204  1
  O  O15  1  0.216789  0.611334  0.984281  1
  O  O16  1  0.447594  0.364627  0.375643  1
  O  O17  1  0.904374  0.799005  0.484258  1
  O  O18  1  0.445106  0.890374  0.820794  1
  O  O19  1  0.552406  0.635373  0.624357  1
  O  O20  1  0.964811  0.142777  0.121607  1
  O  O21  1  0.420344  0.229553  0.984795  1
  O  O22  1  0.788611  0.734162  0.320812  1
  O  O23  1  0.811353  0.425165  0.196299  1
  O  O24  1  0.714397  0.405234  0.515141  1
  O  O25  1  0.764448  0.086567  0.378359  1
  O  O26  1  0.676059  0.549829  0.854296  1
  O  O27  1  0.554894  0.109627  0.179207  1
  P  P28  1  0.221864  0.744246  0.868142  1
  P  P29  1  0.778136  0.255755  0.131858  1
  P  P30  1  0.887528  0.910027  0.368125  1
  P  P31  1  0.762945  0.586761  0.571211  1
  P  P32  1  0.342082  0.665696  0.071258  1
  P  P33  1  0.237054  0.413240  0.428789  1
  P  P34  1  0.112472  0.089972  0.631875  1
  P  P35  1  0.657918  0.334303  0.928742  1
  Ni  Ni36  1  0.736161  0.872691  0.855159  1
  Ni  Ni37  1  0.772358  0.408823  0.355169  1
  Ni  Ni38  1  0.227641  0.591178  0.644831  1
  Ni  Ni39  1  0.263839  0.127310  0.144841  1
