# generated using pymatgen
data_Nb5Ga3
_symmetry_space_group_name_H-M   'P 1'
_cell_length_a   5.06975530
_cell_length_b   7.88873721
_cell_length_c   7.88873721
_cell_angle_alpha   84.07352631
_cell_angle_beta   71.25670218
_cell_angle_gamma   71.25670213
_symmetry_Int_Tables_number   1
_chemical_formula_structural   Nb5Ga3
_chemical_formula_sum   'Nb10 Ga6'
_cell_volume   282.92565429
_cell_formula_units_Z   2
loop_
 _symmetry_equiv_pos_site_id
 _symmetry_equiv_pos_as_xyz
  1  'x, y, z'
loop_
 _atom_site_type_symbol
 _atom_site_label
 _atom_site_symmetry_multiplicity
 _atom_site_fract_x
 _atom_site_fract_y
 _atom_site_fract_z
 _atom_site_occupancy
  Ga  Ga0  1  0.000000  0.000000  0.000000  1
  Ga  Ga1  1  0.500000  0.000000  0.000000  1
  Ga  Ga2  1  0.165910  0.500000  0.168180  1
  Ga  Ga3  1  0.334090  0.831820  0.500000  1
  Ga  Ga4  1  0.665910  0.168180  0.500000  1
  Ga  Ga5  1  0.834090  0.500000  0.831820  1
  Nb  Nb6  1  0.250000  0.500000  0.500000  1
  Nb  Nb7  1  0.750000  0.500000  0.500000  1
  Nb  Nb8  1  0.077802  0.155444  0.688952  1
  Nb  Nb9  1  0.766754  0.311048  0.155444  1
  Nb  Nb10  1  0.233246  0.688952  0.844556  1
  Nb  Nb11  1  0.922198  0.844556  0.311048  1
  Nb  Nb12  1  0.266754  0.155444  0.311048  1
  Nb  Nb13  1  0.733246  0.844556  0.688952  1
  Nb  Nb14  1  0.422198  0.311048  0.844556  1
  Nb  Nb15  1  0.577802  0.688952  0.155444  1
