# generated using pymatgen
data_Cl2O7
_symmetry_space_group_name_H-M   'P 1'
_cell_length_a   4.88140222
_cell_length_b   7.57342181
_cell_length_c   9.19218460
_cell_angle_alpha   110.58147300
_cell_angle_beta   90.00000000
_cell_angle_gamma   108.80037614
_symmetry_Int_Tables_number   1
_chemical_formula_structural   Cl2O7
_chemical_formula_sum   'Cl4 O14'
_cell_volume   298.69085049
_cell_formula_units_Z   2
loop_
 _symmetry_equiv_pos_site_id
 _symmetry_equiv_pos_as_xyz
  1  'x, y, z'
loop_
 _atom_site_type_symbol
 _atom_site_label
 _atom_site_symmetry_multiplicity
 _atom_site_fract_x
 _atom_site_fract_y
 _atom_site_fract_z
 _atom_site_occupancy
  O  O0  1  0.201932  0.649227  0.705387  1
  O  O1  1  0.552705  0.350773  0.794613  1
  O  O2  1  0.798068  0.350773  0.294613  1
  O  O3  1  0.447295  0.649227  0.205387  1
  O  O4  1  0.579534  0.000000  0.250000  1
  O  O5  1  0.420466  0.000000  0.750000  1
  O  O6  1  0.094452  0.743882  0.095199  1
  O  O7  1  0.350570  0.256118  0.404801  1
  O  O8  1  0.905548  0.256118  0.904801  1
  O  O9  1  0.649430  0.743882  0.595199  1
  O  O10  1  0.163535  0.824788  0.373037  1
  O  O11  1  0.338746  0.175212  0.126963  1
  O  O12  1  0.836465  0.175212  0.626963  1
  O  O13  1  0.661254  0.824788  0.873037  1
  Cl  Cl14  1  0.496564  0.779579  0.728570  1
  Cl  Cl15  1  0.716985  0.220421  0.771430  1
  Cl  Cl16  1  0.503436  0.220421  0.271430  1
  Cl  Cl17  1  0.283015  0.779579  0.228570  1
