# generated using pymatgen
data_Ti19N25
_symmetry_space_group_name_H-M   'P 1'
_cell_length_a   3.04732494
_cell_length_b   3.04732514
_cell_length_c   74.87311257
_cell_angle_alpha   59.41950998
_cell_angle_beta   59.41951323
_cell_angle_gamma   59.99999067
_symmetry_Int_Tables_number   1
_chemical_formula_structural   Ti19N25
_chemical_formula_sum   'Ti19 N25'
_cell_volume   487.28341855
_cell_formula_units_Z   1
loop_
 _symmetry_equiv_pos_site_id
 _symmetry_equiv_pos_as_xyz
  1  'x, y, z'
loop_
 _atom_site_type_symbol
 _atom_site_label
 _atom_site_symmetry_multiplicity
 _atom_site_fract_x
 _atom_site_fract_y
 _atom_site_fract_z
 _atom_site_occupancy
  N  N0  1  0.466377  0.466377  0.024035  1
  N  N1  1  0.499152  0.499152  0.060102  1
  N  N2  1  0.531998  0.531998  0.096160  1
  N  N3  1  0.464455  0.464455  0.144265  1
  N  N4  1  0.532642  0.532642  0.176083  1
  N  N5  1  0.466383  0.466383  0.224034  1
  N  N6  1  0.533617  0.533617  0.255966  1
  N  N7  1  0.467358  0.467358  0.303917  1
  N  N8  1  0.535545  0.535545  0.335735  1
  N  N9  1  0.468002  0.468002  0.383840  1
  N  N10  1  0.500848  0.500848  0.419898  1
  N  N11  1  0.533623  0.533623  0.455965  1
  N  N12  1  0.472801  0.472801  0.503264  1
  N  N13  1  0.492072  0.492072  0.540951  1
  N  N14  1  0.502891  0.502891  0.579653  1
  N  N15  1  0.500446  0.500446  0.619946  1
  N  N16  1  0.500447  0.500447  0.659946  1
  N  N17  1  0.500199  0.500199  0.699976  1
  N  N18  1  0.500000  0.500000  0.740000  1
  N  N19  1  0.499801  0.499801  0.780024  1
  N  N20  1  0.499553  0.499553  0.820054  1
  N  N21  1  0.499554  0.499554  0.860054  1
  N  N22  1  0.497109  0.497109  0.900347  1
  N  N23  1  0.507928  0.507928  0.939049  1
  N  N24  1  0.527199  0.527199  0.976736  1
  Ti  Ti25  1  0.017496  0.017496  0.037901  1
  Ti  Ti26  1  0.980706  0.980706  0.082315  1
  Ti  Ti27  1  0.998952  0.998952  0.160126  1
  Ti  Ti28  1  0.000000  0.000000  0.240000  1
  Ti  Ti29  1  0.001048  0.001048  0.319874  1
  Ti  Ti30  1  0.019294  0.019294  0.397685  1
  Ti  Ti31  1  0.982504  0.982504  0.442099  1
  Ti  Ti32  1  0.040122  0.040122  0.515185  1
  Ti  Ti33  1  1.006833  1.006833  0.559180  1
  Ti  Ti34  1  0.001431  0.001431  0.599828  1
  Ti  Ti35  1  1.000975  1.000975  0.639883  1
  Ti  Ti36  1  0.000997  0.000997  0.679880  1
  Ti  Ti37  1  0.999129  0.999129  0.720104  1
  Ti  Ti38  1  0.000871  0.000871  0.759896  1
  Ti  Ti39  1  0.999003  0.999003  0.800120  1
  Ti  Ti40  1  -0.000975  -0.000975  0.840117  1
  Ti  Ti41  1  0.998569  0.998569  0.880172  1
  Ti  Ti42  1  -0.006833  -0.006833  0.920820  1
  Ti  Ti43  1  0.959878  0.959878  0.964815  1
