# generated using pymatgen
data_NaAsO2
_symmetry_space_group_name_H-M   'P 1'
_cell_length_a   5.17068523
_cell_length_b   6.79042426
_cell_length_c   15.90307643
_cell_angle_alpha   90.00000000
_cell_angle_beta   90.00000000
_cell_angle_gamma   90.00000000
_symmetry_Int_Tables_number   1
_chemical_formula_structural   NaAsO2
_chemical_formula_sum   'Na8 As8 O16'
_cell_volume   558.37524517
_cell_formula_units_Z   8
loop_
 _symmetry_equiv_pos_site_id
 _symmetry_equiv_pos_as_xyz
  1  'x, y, z'
loop_
 _atom_site_type_symbol
 _atom_site_label
 _atom_site_symmetry_multiplicity
 _atom_site_fract_x
 _atom_site_fract_y
 _atom_site_fract_z
 _atom_site_occupancy
  O  O0  1  0.081663  0.313752  0.883083  1
  O  O1  1  0.581663  0.686248  0.616917  1
  O  O2  1  0.418337  0.813752  0.116917  1
  O  O3  1  0.918337  0.186248  0.383083  1
  O  O4  1  0.918337  0.686248  0.116917  1
  O  O5  1  0.418337  0.313752  0.383083  1
  O  O6  1  0.581663  0.186248  0.883083  1
  O  O7  1  0.081663  0.813752  0.616917  1
  O  O8  1  0.210881  0.929819  0.918581  1
  O  O9  1  0.710881  0.070181  0.581419  1
  O  O10  1  0.289119  0.429819  0.081419  1
  O  O11  1  0.210881  0.429819  0.581419  1
  O  O12  1  0.789119  0.070181  0.081419  1
  O  O13  1  0.289119  0.929819  0.418581  1
  O  O14  1  0.710881  0.570181  0.918581  1
  O  O15  1  0.789119  0.570181  0.418581  1
  Na  Na16  1  0.242690  0.098495  0.050360  1
  Na  Na17  1  0.742690  0.401505  0.050360  1
  Na  Na18  1  0.257310  0.098495  0.550360  1
  Na  Na19  1  0.757310  0.901505  0.949640  1
  Na  Na20  1  0.757310  0.401505  0.550360  1
  Na  Na21  1  0.257310  0.598495  0.949640  1
  Na  Na22  1  0.742690  0.901505  0.449640  1
  Na  Na23  1  0.242690  0.598495  0.449640  1
  As  As24  1  0.267997  0.598731  0.660649  1
  As  As25  1  0.767997  0.401269  0.839351  1
  As  As26  1  0.232003  0.098731  0.339351  1
  As  As27  1  0.732003  0.901269  0.160649  1
  As  As28  1  0.732003  0.401269  0.339351  1
  As  As29  1  0.232003  0.598731  0.160649  1
  As  As30  1  0.767997  0.901269  0.660649  1
  As  As31  1  0.267997  0.098731  0.839351  1
