# generated using pymatgen
data_UPd3
_symmetry_space_group_name_H-M   'P 1'
_cell_length_a   5.85118409
_cell_length_b   5.85118450
_cell_length_c   9.67879771
_cell_angle_alpha   90.00000000
_cell_angle_beta   90.00000000
_cell_angle_gamma   119.99999776
_symmetry_Int_Tables_number   1
_chemical_formula_structural   UPd3
_chemical_formula_sum   'U4 Pd12'
_cell_volume   286.97205578
_cell_formula_units_Z   4
loop_
 _symmetry_equiv_pos_site_id
 _symmetry_equiv_pos_as_xyz
  1  'x, y, z'
loop_
 _atom_site_type_symbol
 _atom_site_label
 _atom_site_symmetry_multiplicity
 _atom_site_fract_x
 _atom_site_fract_y
 _atom_site_fract_z
 _atom_site_occupancy
  Pd  Pd0  1  0.500000  0.000000  0.000000  1
  Pd  Pd1  1  0.500000  0.500000  0.500000  1
  Pd  Pd2  1  0.000000  0.500000  0.500000  1
  Pd  Pd3  1  0.000000  0.500000  0.000000  1
  Pd  Pd4  1  0.500000  0.500000  0.000000  1
  Pd  Pd5  1  0.500000  0.000000  0.500000  1
  Pd  Pd6  1  0.828167  0.656335  0.250000  1
  Pd  Pd7  1  0.171833  0.828167  0.750000  1
  Pd  Pd8  1  0.656335  0.828167  0.750000  1
  Pd  Pd9  1  0.343665  0.171833  0.250000  1
  Pd  Pd10  1  0.828167  0.171833  0.250000  1
  Pd  Pd11  1  0.171833  0.343665  0.750000  1
  U  U12  1  0.000000  0.000000  0.000000  1
  U  U13  1  0.000000  0.000000  0.500000  1
  U  U14  1  0.333333  0.666667  0.250000  1
  U  U15  1  0.666667  0.333333  0.750000  1
