# generated using pymatgen
data_Gd2MgS4
_symmetry_space_group_name_H-M   'P 1'
_cell_length_a   7.23331269
_cell_length_b   7.23331292
_cell_length_c   7.23331302
_cell_angle_alpha   110.71393927
_cell_angle_beta   107.01338468
_cell_angle_gamma   110.71393617
_symmetry_Int_Tables_number   1
_chemical_formula_structural   Gd2MgS4
_chemical_formula_sum   'Gd4 Mg2 S8'
_cell_volume   290.93323390
_cell_formula_units_Z   2
loop_
 _symmetry_equiv_pos_site_id
 _symmetry_equiv_pos_as_xyz
  1  'x, y, z'
loop_
 _atom_site_type_symbol
 _atom_site_label
 _atom_site_symmetry_multiplicity
 _atom_site_fract_x
 _atom_site_fract_y
 _atom_site_fract_z
 _atom_site_occupancy
  Gd  Gd0  1  0.250000  0.632336  0.382336  1
  Gd  Gd1  1  0.617664  0.367664  0.250000  1
  Gd  Gd2  1  0.750000  0.867664  0.117664  1
  Gd  Gd3  1  0.882336  0.132336  0.750000  1
  Mg  Mg4  1  0.125000  0.750000  0.875000  1
  Mg  Mg5  1  0.375000  0.250000  0.625000  1
  S  S6  1  0.997220  0.378304  0.510717  1
  S  S7  1  0.132414  0.121696  0.118916  1
  S  S8  1  0.367586  0.486503  0.989283  1
  S  S9  1  0.489283  0.986503  0.867586  1
  S  S10  1  0.618916  0.621696  0.632414  1
  S  S11  1  0.502780  0.013497  0.381084  1
  S  S12  1  0.010717  0.878304  0.497220  1
  S  S13  1  0.881084  0.513497  0.002780  1
