# generated using pymatgen
data_LiInSe2
_symmetry_space_group_name_H-M   'P 1'
_cell_length_a   8.01244021
_cell_length_b   10.56967079
_cell_length_c   6.89483900
_cell_angle_alpha   29.26525803
_cell_angle_beta   54.52232047
_cell_angle_gamma   40.74193881
_symmetry_Int_Tables_number   1
_chemical_formula_structural   LiInSe2
_chemical_formula_sum   'Li2 In2 Se4'
_cell_volume   180.26163688
_cell_formula_units_Z   2
loop_
 _symmetry_equiv_pos_site_id
 _symmetry_equiv_pos_as_xyz
  1  'x, y, z'
loop_
 _atom_site_type_symbol
 _atom_site_label
 _atom_site_symmetry_multiplicity
 _atom_site_fract_x
 _atom_site_fract_y
 _atom_site_fract_z
 _atom_site_occupancy
  In  In0  1  0.500072  0.999884  0.000094  1
  In  In1  1  0.249928  0.500116  0.999906  1
  Li  Li2  1  0.999996  0.000015  0.999978  1
  Li  Li3  1  0.750004  0.499985  0.000022  1
  Se  Se4  1  0.489054  0.500221  0.521209  1
  Se  Se5  1  0.260946  0.999779  0.478791  1
  Se  Se6  1  0.010808  0.499970  0.478646  1
  Se  Se7  1  0.739192  1.000030  0.521354  1
