# generated using pymatgen
data_Li2NiGe3O8
_symmetry_space_group_name_H-M   'P 1'
_cell_length_a   8.30367474
_cell_length_b   8.30367474
_cell_length_c   8.30367474
_cell_angle_alpha   90.00000000
_cell_angle_beta   90.00000000
_cell_angle_gamma   90.00000000
_symmetry_Int_Tables_number   1
_chemical_formula_structural   Li2NiGe3O8
_chemical_formula_sum   'Li8 Ni4 Ge12 O32'
_cell_volume   572.54679481
_cell_formula_units_Z   4
loop_
 _symmetry_equiv_pos_site_id
 _symmetry_equiv_pos_as_xyz
  1  'x, y, z'
loop_
 _atom_site_type_symbol
 _atom_site_label
 _atom_site_symmetry_multiplicity
 _atom_site_fract_x
 _atom_site_fract_y
 _atom_site_fract_z
 _atom_site_occupancy
  Li  Li0  1  0.003312  0.003312  0.003312  1
  Li  Li1  1  0.753312  0.746688  0.253312  1
  Li  Li2  1  0.253312  0.753312  0.746688  1
  Li  Li3  1  0.746688  0.253312  0.753312  1
  Li  Li4  1  0.496688  0.996688  0.503312  1
  Li  Li5  1  0.503312  0.496688  0.996688  1
  Li  Li6  1  0.996688  0.503312  0.496688  1
  Li  Li7  1  0.246688  0.246688  0.246688  1
  O  O8  1  0.606711  0.600423  0.373803  1
  O  O9  1  0.149577  0.856711  0.123803  1
  O  O10  1  0.649577  0.643289  0.876197  1
  O  O11  1  0.856711  0.123803  0.149577  1
  O  O12  1  0.143289  0.623803  0.350423  1
  O  O13  1  0.123803  0.149577  0.856711  1
  O  O14  1  0.376197  0.850423  0.356711  1
  O  O15  1  0.399577  0.873803  0.893289  1
  O  O16  1  0.899577  0.626197  0.106711  1
  O  O17  1  0.600423  0.373803  0.606711  1
  O  O18  1  0.626197  0.106711  0.899577  1
  O  O19  1  0.115942  0.615942  0.884058  1
  O  O20  1  0.106711  0.899577  0.626197  1
  O  O21  1  0.873803  0.893289  0.399577  1
  O  O22  1  0.893289  0.399577  0.873803  1
  O  O23  1  0.373803  0.606711  0.600423  1
  O  O24  1  0.384058  0.384058  0.384058  1
  O  O25  1  0.134058  0.365942  0.634058  1
  O  O26  1  0.634058  0.134058  0.365942  1
  O  O27  1  0.365942  0.634058  0.134058  1
  O  O28  1  0.100423  0.126197  0.393289  1
  O  O29  1  0.884058  0.115942  0.615942  1
  O  O30  1  0.615942  0.884058  0.115942  1
  O  O31  1  0.865942  0.865942  0.865942  1
  O  O32  1  0.393289  0.100423  0.126197  1
  O  O33  1  0.850423  0.356711  0.376197  1
  O  O34  1  0.350423  0.143289  0.623803  1
  O  O35  1  0.643289  0.876197  0.649577  1
  O  O36  1  0.356711  0.376197  0.850423  1
  O  O37  1  0.623803  0.350423  0.143289  1
  O  O38  1  0.876197  0.649577  0.643289  1
  O  O39  1  0.126197  0.393289  0.100423  1
  Ni  Ni40  1  0.625000  0.625000  0.625000  1
  Ni  Ni41  1  0.875000  0.375000  0.125000  1
  Ni  Ni42  1  0.125000  0.875000  0.375000  1
  Ni  Ni43  1  0.375000  0.125000  0.875000  1
  Ge  Ge44  1  0.622500  0.372500  0.375000  1
  Ge  Ge45  1  0.872500  0.125000  0.377500  1
  Ge  Ge46  1  0.127500  0.625000  0.122500  1
  Ge  Ge47  1  0.372500  0.375000  0.622500  1
  Ge  Ge48  1  0.377500  0.872500  0.125000  1
  Ge  Ge49  1  0.122500  0.127500  0.625000  1
  Ge  Ge50  1  0.375000  0.622500  0.372500  1
  Ge  Ge51  1  0.875000  0.877500  0.627500  1
  Ge  Ge52  1  0.125000  0.377500  0.872500  1
  Ge  Ge53  1  0.627500  0.875000  0.877500  1
  Ge  Ge54  1  0.625000  0.122500  0.127500  1
  Ge  Ge55  1  0.877500  0.627500  0.875000  1
