# generated using pymatgen
data_Sc2Te3
_symmetry_space_group_name_H-M   'P 1'
_cell_length_a   8.29337968
_cell_length_b   12.50454636
_cell_length_c   7.22932749
_cell_angle_alpha   29.86468921
_cell_angle_beta   54.08855712
_cell_angle_gamma   59.42640588
_symmetry_Int_Tables_number   1
_chemical_formula_structural   Sc2Te3
_chemical_formula_sum   'Sc4 Te6'
_cell_volume   302.36437673
_cell_formula_units_Z   2
loop_
 _symmetry_equiv_pos_site_id
 _symmetry_equiv_pos_as_xyz
  1  'x, y, z'
loop_
 _atom_site_type_symbol
 _atom_site_label
 _atom_site_symmetry_multiplicity
 _atom_site_fract_x
 _atom_site_fract_y
 _atom_site_fract_z
 _atom_site_occupancy
  Sc  Sc0  1  1.000000  0.996713  0.004931  1
  Sc  Sc1  1  0.500000  0.336620  0.995069  1
  Sc  Sc2  1  0.500000  0.668117  0.997826  1
  Sc  Sc3  1  1.000000  0.665217  0.002174  1
  Te  Te4  1  0.249704  -0.000953  0.503680  1
  Te  Te5  1  0.250296  0.334286  0.496320  1
  Te  Te6  1  0.750296  -0.000953  0.499181  1
  Te  Te7  1  0.250000  0.666667  0.500000  1
  Te  Te8  1  0.749704  0.334286  0.500819  1
  Te  Te9  1  0.750000  0.666667  0.500000  1
