# generated using pymatgen
data_Co5RuO8
_symmetry_space_group_name_H-M   'P 1'
_cell_length_a   6.04990040
_cell_length_b   5.97059116
_cell_length_c   5.97059103
_cell_angle_alpha   60.00000075
_cell_angle_beta   60.43270975
_cell_angle_gamma   60.43270835
_symmetry_Int_Tables_number   1
_chemical_formula_structural   Co5RuO8
_chemical_formula_sum   'Co5 Ru1 O8'
_cell_volume   153.48911975
_cell_formula_units_Z   1
loop_
 _symmetry_equiv_pos_site_id
 _symmetry_equiv_pos_as_xyz
  1  'x, y, z'
loop_
 _atom_site_type_symbol
 _atom_site_label
 _atom_site_symmetry_multiplicity
 _atom_site_fract_x
 _atom_site_fract_y
 _atom_site_fract_z
 _atom_site_occupancy
  Co  Co0  1  0.102289  0.132570  0.132570  1
  Co  Co1  1  0.500000  0.500000  0.000000  1
  Co  Co2  1  0.500000  0.000000  0.500000  1
  Co  Co3  1  0.500000  0.500000  0.500000  1
  Co  Co4  1  0.897711  0.867430  0.867430  1
  Ru  Ru5  1  0.000000  0.500000  0.500000  1
  O  O6  1  0.242041  0.264765  0.264765  1
  O  O7  1  0.242041  0.728430  0.264765  1
  O  O8  1  0.242041  0.264765  0.728430  1
  O  O9  1  0.701230  0.266257  0.266257  1
  O  O10  1  0.298770  0.733743  0.733743  1
  O  O11  1  0.757959  0.735235  0.271570  1
  O  O12  1  0.757959  0.271570  0.735235  1
  O  O13  1  0.757959  0.735235  0.735235  1
