# generated using pymatgen
data_KCO3
_symmetry_space_group_name_H-M   'P 1'
_cell_length_a   7.30505779
_cell_length_b   8.54106090
_cell_length_c   11.09566634
_cell_angle_alpha   90.00000000
_cell_angle_beta   90.00000000
_cell_angle_gamma   111.34591096
_symmetry_Int_Tables_number   1
_chemical_formula_structural   KCO3
_chemical_formula_sum   'K8 C8 O24'
_cell_volume   644.80000080
_cell_formula_units_Z   8
loop_
 _symmetry_equiv_pos_site_id
 _symmetry_equiv_pos_as_xyz
  1  'x, y, z'
loop_
 _atom_site_type_symbol
 _atom_site_label
 _atom_site_symmetry_multiplicity
 _atom_site_fract_x
 _atom_site_fract_y
 _atom_site_fract_z
 _atom_site_occupancy
  C  C0  1  0.725207  0.554556  0.870555  1
  C  C1  1  0.327826  0.961857  0.624498  1
  C  C2  1  0.172174  0.038143  0.124498  1
  C  C3  1  0.672174  0.038143  0.375502  1
  C  C4  1  0.827826  0.961857  0.875502  1
  C  C5  1  0.225207  0.554556  0.629445  1
  C  C6  1  0.274793  0.445444  0.129445  1
  C  C7  1  0.774793  0.445444  0.370555  1
  O  O8  1  0.927355  0.850657  0.842676  1
  O  O9  1  0.572645  0.149343  0.342676  1
  O  O10  1  0.072645  0.149343  0.157324  1
  O  O11  1  0.427355  0.850657  0.657324  1
  O  O12  1  0.872165  0.699186  0.922502  1
  O  O13  1  0.627835  0.300814  0.422502  1
  O  O14  1  0.127835  0.300814  0.077498  1
  O  O15  1  0.372165  0.699186  0.577498  1
  O  O16  1  0.181404  0.436831  0.554184  1
  O  O17  1  0.706411  0.922352  0.959704  1
  O  O18  1  0.793589  0.077648  0.459704  1
  O  O19  1  0.293589  0.077648  0.040296  1
  O  O20  1  0.662837  0.560811  0.766647  1
  O  O21  1  0.837163  0.439189  0.266647  1
  O  O22  1  0.337163  0.439189  0.233353  1
  O  O23  1  0.162837  0.560811  0.733353  1
  O  O24  1  0.206411  0.922352  0.540296  1
  O  O25  1  0.681404  0.436831  0.945816  1
  O  O26  1  0.818596  0.563169  0.445816  1
  O  O27  1  0.318596  0.563169  0.054184  1
  O  O28  1  0.887700  0.087363  0.807009  1
  O  O29  1  0.612300  0.912637  0.307009  1
  O  O30  1  0.112300  0.912637  0.192991  1
  O  O31  1  0.387700  0.087363  0.692991  1
  K  K32  1  0.283294  0.299668  0.841020  1
  K  K33  1  0.216706  0.700332  0.341020  1
  K  K34  1  0.716706  0.700332  0.158980  1
  K  K35  1  0.783294  0.299668  0.658980  1
  K  K36  1  0.699100  0.197425  0.091520  1
  K  K37  1  0.800900  0.802575  0.591520  1
  K  K38  1  0.300900  0.802575  0.908480  1
  K  K39  1  0.199100  0.197425  0.408480  1
