# generated using pymatgen
data_Ba5B4O11
_symmetry_space_group_name_H-M   'P 1'
_cell_length_a   9.73823651
_cell_length_b   16.92448432
_cell_length_c   23.20322047
_cell_angle_alpha   90.00000000
_cell_angle_beta   90.00000000
_cell_angle_gamma   90.00000000
_symmetry_Int_Tables_number   1
_chemical_formula_structural   Ba5B4O11
_chemical_formula_sum   'Ba60 B48 O132'
_cell_volume   3824.23022251
_cell_formula_units_Z   12
loop_
 _symmetry_equiv_pos_site_id
 _symmetry_equiv_pos_as_xyz
  1  'x, y, z'
loop_
 _atom_site_type_symbol
 _atom_site_label
 _atom_site_symmetry_multiplicity
 _atom_site_fract_x
 _atom_site_fract_y
 _atom_site_fract_z
 _atom_site_occupancy
  B  B0  1  0.123820  0.991614  0.158000  1
  B  B1  1  0.623820  0.508386  0.842000  1
  B  B2  1  0.876180  0.491614  0.342000  1
  B  B3  1  0.376180  0.008386  0.658000  1
  B  B4  1  0.058971  0.690600  0.491373  1
  B  B5  1  0.558971  0.809400  0.508627  1
  B  B6  1  0.941029  0.190600  0.008627  1
  B  B7  1  0.441029  0.309400  0.991373  1
  B  B8  1  0.075498  0.305100  0.507698  1
  B  B9  1  0.575498  0.194900  0.492302  1
  B  B10  1  0.924502  0.805100  0.992302  1
  B  B11  1  0.424502  0.694900  0.007698  1
  B  B12  1  0.136411  0.007257  0.840466  1
  B  B13  1  0.636411  0.492743  0.159534  1
  B  B14  1  0.863589  0.507257  0.659534  1
  B  B15  1  0.363589  0.992743  0.340466  1
  B  B16  1  0.109945  0.004607  0.515087  1
  B  B17  1  0.609945  0.495393  0.484913  1
  B  B18  1  0.890055  0.504607  0.984913  1
  B  B19  1  0.390055  0.995393  0.015087  1
  B  B20  1  0.225529  0.576316  0.761391  1
  B  B21  1  0.725529  0.923684  0.238609  1
  B  B22  1  0.774471  0.076316  0.738609  1
  B  B23  1  0.274471  0.423684  0.261391  1
  B  B24  1  0.067455  0.325226  0.151199  1
  B  B25  1  0.567455  0.174774  0.848801  1
  B  B26  1  0.932545  0.825226  0.348801  1
  B  B27  1  0.432545  0.674774  0.651199  1
  B  B28  1  0.072386  0.685150  0.815356  1
  B  B29  1  0.572386  0.814850  0.184644  1
  B  B30  1  0.927614  0.185150  0.684644  1
  B  B31  1  0.427614  0.314850  0.315356  1
  B  B32  1  0.055427  0.316655  0.824644  1
  B  B33  1  0.555427  0.183345  0.175356  1
  B  B34  1  0.944573  0.816655  0.675356  1
  B  B35  1  0.444573  0.683345  0.324644  1
  B  B36  1  0.048658  0.686925  0.173221  1
  B  B37  1  0.548658  0.813075  0.826779  1
  B  B38  1  0.951342  0.186925  0.326779  1
  B  B39  1  0.451342  0.313075  0.673221  1
  B  B40  1  0.128178  0.529432  0.928656  1
  B  B41  1  0.628178  0.970568  0.071344  1
  B  B42  1  0.871822  0.029432  0.571344  1
  B  B43  1  0.371822  0.470568  0.428656  1
  B  B44  1  0.150380  0.455564  0.092892  1
  B  B45  1  0.650380  0.044436  0.907108  1
  B  B46  1  0.849620  0.955564  0.407108  1
  B  B47  1  0.349620  0.544436  0.592892  1
  O  O48  1  0.106323  0.348312  0.557068  1
  O  O49  1  0.606323  0.151688  0.442932  1
  O  O50  1  0.893677  0.848312  0.942932  1
  O  O51  1  0.393677  0.651688  0.057068  1
  O  O52  1  0.140545  0.266500  0.857258  1
  O  O53  1  0.640545  0.233500  0.142742  1
  O  O54  1  0.859455  0.766500  0.642742  1
  O  O55  1  0.359455  0.733500  0.357258  1
  O  O56  1  0.090941  0.658449  0.438049  1
  O  O57  1  0.590941  0.841551  0.561951  1
  O  O58  1  0.909059  0.158449  0.061951  1
  O  O59  1  0.409059  0.341551  0.938049  1
  O  O60  1  0.139209  0.749774  0.515378  1
  O  O61  1  0.639209  0.750226  0.484622  1
  O  O62  1  0.860791  0.249774  0.984622  1
  O  O63  1  0.360791  0.250226  0.015378  1
  O  O64  1  0.112067  0.354361  0.776822  1
  O  O65  1  0.612067  0.145639  0.223178  1
  O  O66  1  0.887933  0.854361  0.723178  1
  O  O67  1  0.387933  0.645639  0.276822  1
  O  O68  1  0.080965  0.826856  0.660664  1
  O  O69  1  0.580965  0.673144  0.339336  1
  O  O70  1  0.919035  0.326856  0.839336  1
  O  O71  1  0.419035  0.173144  0.160664  1
  O  O72  1  0.041744  0.824714  0.024116  1
  O  O73  1  0.541744  0.675286  0.975884  1
  O  O74  1  0.958256  0.324714  0.475884  1
  O  O75  1  0.458256  0.175286  0.524116  1
  O  O76  1  0.234857  0.577701  0.943865  1
  O  O77  1  0.734857  0.922299  0.056135  1
  O  O78  1  0.765143  0.077701  0.556135  1
  O  O79  1  0.265143  0.422299  0.443865  1
  O  O80  1  0.051634  0.000637  0.888445  1
  O  O81  1  0.551634  0.499363  0.111555  1
  O  O82  1  0.948366  0.500637  0.611555  1
  O  O83  1  0.448366  0.999363  0.388445  1
  O  O84  1  0.153629  0.457406  0.278938  1
  O  O85  1  0.653629  0.042594  0.721062  1
  O  O86  1  0.846371  0.957406  0.221062  1
  O  O87  1  0.346371  0.542594  0.778938  1
  O  O88  1  0.160884  0.921084  0.184446  1
  O  O89  1  0.660884  0.578916  0.815554  1
  O  O90  1  0.839116  0.421084  0.315554  1
  O  O91  1  0.339116  0.078916  0.684446  1
  O  O92  1  0.159454  0.727214  0.147911  1
  O  O93  1  0.659454  0.772786  0.852089  1
  O  O94  1  0.840546  0.227214  0.352089  1
  O  O95  1  0.340546  0.272786  0.647911  1
  O  O96  1  0.245290  0.427916  0.054892  1
  O  O97  1  0.745290  0.072084  0.945108  1
  O  O98  1  0.754710  0.927916  0.445108  1
  O  O99  1  0.254710  0.572084  0.554892  1
  O  O100  1  0.102248  0.924350  0.513124  1
  O  O101  1  0.602248  0.575650  0.486876  1
  O  O102  1  0.897752  0.424350  0.986876  1
  O  O103  1  0.397752  0.075650  0.013124  1
  O  O104  1  0.065394  0.647521  0.225224  1
  O  O105  1  0.565394  0.852479  0.774776  1
  O  O106  1  0.934606  0.147521  0.274776  1
  O  O107  1  0.434606  0.352479  0.725224  1
  O  O108  1  0.059200  0.164321  0.979376  1
  O  O109  1  0.559200  0.335679  0.020624  1
  O  O110  1  0.940800  0.664321  0.520624  1
  O  O111  1  0.440800  0.835679  0.479376  1
  O  O112  1  0.158398  0.242431  0.490731  1
  O  O113  1  0.658398  0.257569  0.509269  1
  O  O114  1  0.841602  0.742431  0.009269  1
  O  O115  1  0.341602  0.757569  0.990731  1
  O  O116  1  0.079753  0.189829  0.353408  1
  O  O117  1  0.579753  0.310171  0.646592  1
  O  O118  1  0.920247  0.689829  0.146592  1
  O  O119  1  0.420247  0.810171  0.853408  1
  O  O120  1  0.996942  0.550544  0.956153  1
  O  O121  1  0.496942  0.949456  0.043847  1
  O  O122  1  0.003058  0.050544  0.543847  1
  O  O123  1  0.503058  0.449456  0.456153  1
  O  O124  1  0.132792  0.466454  0.892249  1
  O  O125  1  0.632792  0.033546  0.107751  1
  O  O126  1  0.867208  0.966454  0.607751  1
  O  O127  1  0.367208  0.533546  0.392249  1
  O  O128  1  0.149989  0.063929  0.185356  1
  O  O129  1  0.649989  0.436071  0.814644  1
  O  O130  1  0.850011  0.563929  0.314644  1
  O  O131  1  0.350011  0.936071  0.685356  1
  O  O132  1  0.169441  0.939649  0.808534  1
  O  O133  1  0.669441  0.560351  0.191466  1
  O  O134  1  0.830559  0.439649  0.691466  1
  O  O135  1  0.330559  0.060351  0.308534  1
  O  O136  1  0.041600  0.139341  0.678634  1
  O  O137  1  0.541600  0.360659  0.321366  1
  O  O138  1  0.958400  0.639341  0.821366  1
  O  O139  1  0.458400  0.860659  0.178634  1
  O  O140  1  0.191945  0.079878  0.824694  1
  O  O141  1  0.691945  0.420122  0.175306  1
  O  O142  1  0.808055  0.579878  0.675306  1
  O  O143  1  0.308055  0.920122  0.324694  1
  O  O144  1  0.061367  0.991399  0.104350  1
  O  O145  1  0.561367  0.508601  0.895650  1
  O  O146  1  0.938633  0.491399  0.395650  1
  O  O147  1  0.438633  0.008601  0.604350  1
  O  O148  1  0.135037  0.546487  0.722503  1
  O  O149  1  0.635037  0.953513  0.277497  1
  O  O150  1  0.864963  0.046487  0.777497  1
  O  O151  1  0.364963  0.453513  0.222503  1
  O  O152  1  0.131419  0.531540  0.110927  1
  O  O153  1  0.631419  0.968460  0.889073  1
  O  O154  1  0.868581  0.031540  0.389073  1
  O  O155  1  0.368581  0.468460  0.610927  1
  O  O156  1  0.196328  0.652791  0.788488  1
  O  O157  1  0.696328  0.847209  0.211512  1
  O  O158  1  0.803672  0.152791  0.711512  1
  O  O159  1  0.303672  0.347209  0.288488  1
  O  O160  1  0.054217  0.399153  0.119334  1
  O  O161  1  0.554217  0.100847  0.880666  1
  O  O162  1  0.945783  0.899153  0.380666  1
  O  O163  1  0.445783  0.600847  0.619334  1
  O  O164  1  0.084271  0.761981  0.831593  1
  O  O165  1  0.584271  0.738019  0.168407  1
  O  O166  1  0.915729  0.261981  0.668407  1
  O  O167  1  0.415729  0.238019  0.331593  1
  O  O168  1  0.183567  0.281318  0.148378  1
  O  O169  1  0.683567  0.218682  0.851622  1
  O  O170  1  0.816433  0.781318  0.351622  1
  O  O171  1  0.316433  0.718682  0.648378  1
  O  O172  1  0.214231  0.048962  0.493493  1
  O  O173  1  0.714231  0.451038  0.506507  1
  O  O174  1  0.785769  0.548962  0.006507  1
  O  O175  1  0.285769  0.951038  0.993493  1
  O  O176  1  0.048093  0.806174  0.319028  1
  O  O177  1  0.548093  0.693826  0.680972  1
  O  O178  1  0.951907  0.306174  0.180972  1
  O  O179  1  0.451907  0.193826  0.819028  1
  Ba  Ba180  1  0.224266  0.192879  0.249471  1
  Ba  Ba181  1  0.724266  0.307121  0.750529  1
  Ba  Ba182  1  0.775734  0.692879  0.250529  1
  Ba  Ba183  1  0.275734  0.807121  0.749471  1
  Ba  Ba184  1  0.392277  0.344099  0.537983  1
  Ba  Ba185  1  0.892277  0.155901  0.462017  1
  Ba  Ba186  1  0.607723  0.844099  0.962017  1
  Ba  Ba187  1  0.107723  0.655901  0.037983  1
  Ba  Ba188  1  0.307237  0.149929  0.415417  1
  Ba  Ba189  1  0.807237  0.350071  0.584583  1
  Ba  Ba190  1  0.692763  0.649929  0.084583  1
  Ba  Ba191  1  0.192763  0.850071  0.915417  1
  Ba  Ba192  1  0.590533  0.145098  0.630496  1
  Ba  Ba193  1  0.090533  0.354902  0.369504  1
  Ba  Ba194  1  0.409467  0.645098  0.869504  1
  Ba  Ba195  1  0.909467  0.854902  0.130496  1
  Ba  Ba196  1  0.560965  0.512800  0.297744  1
  Ba  Ba197  1  0.060965  0.987200  0.702256  1
  Ba  Ba198  1  0.439035  0.012800  0.202256  1
  Ba  Ba199  1  0.939035  0.487200  0.797744  1
  Ba  Ba200  1  0.715282  0.346649  0.415435  1
  Ba  Ba201  1  0.215282  0.153351  0.584565  1
  Ba  Ba202  1  0.284718  0.846649  0.084565  1
  Ba  Ba203  1  0.784718  0.653351  0.915435  1
  Ba  Ba204  1  0.538681  0.005120  0.497982  1
  Ba  Ba205  1  0.038681  0.494880  0.502018  1
  Ba  Ba206  1  0.461319  0.505120  0.002018  1
  Ba  Ba207  1  0.961319  0.994880  0.997982  1
  Ba  Ba208  1  0.643105  0.100797  0.333290  1
  Ba  Ba209  1  0.143105  0.399203  0.666710  1
  Ba  Ba210  1  0.356895  0.600797  0.166710  1
  Ba  Ba211  1  0.856895  0.899203  0.833290  1
  Ba  Ba212  1  0.744711  0.297766  0.250063  1
  Ba  Ba213  1  0.244711  0.202234  0.749937  1
  Ba  Ba214  1  0.255289  0.797766  0.249937  1
  Ba  Ba215  1  0.755289  0.702234  0.750063  1
  Ba  Ba216  1  0.210539  0.149052  0.083190  1
  Ba  Ba217  1  0.710539  0.350948  0.916810  1
  Ba  Ba218  1  0.789461  0.649052  0.416810  1
  Ba  Ba219  1  0.289461  0.850948  0.583190  1
  Ba  Ba220  1  0.076034  0.651744  0.629625  1
  Ba  Ba221  1  0.576034  0.848256  0.370375  1
  Ba  Ba222  1  0.923966  0.151744  0.870375  1
  Ba  Ba223  1  0.423966  0.348256  0.129625  1
  Ba  Ba224  1  0.119111  0.340365  0.966165  1
  Ba  Ba225  1  0.619111  0.159635  0.033835  1
  Ba  Ba226  1  0.880889  0.840365  0.533835  1
  Ba  Ba227  1  0.380889  0.659635  0.466165  1
  Ba  Ba228  1  0.147880  0.603017  0.333204  1
  Ba  Ba229  1  0.647880  0.896983  0.666796  1
  Ba  Ba230  1  0.852120  0.103017  0.166796  1
  Ba  Ba231  1  0.352120  0.396983  0.833204  1
  Ba  Ba232  1  0.204006  0.846148  0.417926  1
  Ba  Ba233  1  0.704006  0.653852  0.582074  1
  Ba  Ba234  1  0.795994  0.346148  0.082073  1
  Ba  Ba235  1  0.295994  0.153852  0.917926  1
  Ba  Ba236  1  0.051017  0.996899  0.293739  1
  Ba  Ba237  1  0.551017  0.503101  0.706261  1
  Ba  Ba238  1  0.948983  0.496899  0.206261  1
  Ba  Ba239  1  0.448983  0.003101  0.793739  1
