# generated using pymatgen
data_Sr3Sn13Rh4
_symmetry_space_group_name_H-M   'P 1'
_cell_length_a   9.95126145
_cell_length_b   9.95126145
_cell_length_c   9.95126145
_cell_angle_alpha   90.00000000
_cell_angle_beta   90.00000000
_cell_angle_gamma   90.00000000
_symmetry_Int_Tables_number   1
_chemical_formula_structural   Sr3Sn13Rh4
_chemical_formula_sum   'Sr6 Sn26 Rh8'
_cell_volume   985.44958261
_cell_formula_units_Z   2
loop_
 _symmetry_equiv_pos_site_id
 _symmetry_equiv_pos_as_xyz
  1  'x, y, z'
loop_
 _atom_site_type_symbol
 _atom_site_label
 _atom_site_symmetry_multiplicity
 _atom_site_fract_x
 _atom_site_fract_y
 _atom_site_fract_z
 _atom_site_occupancy
  Sr  Sr0  1  0.250000  0.500000  0.000000  1
  Sr  Sr1  1  0.750000  0.500000  0.000000  1
  Sr  Sr2  1  0.500000  0.000000  0.250000  1
  Sr  Sr3  1  0.500000  0.000000  0.750000  1
  Sr  Sr4  1  0.000000  0.750000  0.500000  1
  Sr  Sr5  1  0.000000  0.250000  0.500000  1
  Rh  Rh6  1  0.250000  0.250000  0.250000  1
  Rh  Rh7  1  0.750000  0.250000  0.750000  1
  Rh  Rh8  1  0.750000  0.750000  0.250000  1
  Rh  Rh9  1  0.250000  0.750000  0.750000  1
  Rh  Rh10  1  0.750000  0.750000  0.750000  1
  Rh  Rh11  1  0.250000  0.750000  0.250000  1
  Rh  Rh12  1  0.250000  0.250000  0.750000  1
  Rh  Rh13  1  0.750000  0.250000  0.250000  1
  Sn  Sn14  1  0.000000  0.000000  0.000000  1
  Sn  Sn15  1  0.500000  0.500000  0.500000  1
  Sn  Sn16  1  0.000000  0.300126  0.153346  1
  Sn  Sn17  1  0.500000  0.346654  0.800126  1
  Sn  Sn18  1  0.500000  0.653346  0.199874  1
  Sn  Sn19  1  0.653346  0.800126  0.500000  1
  Sn  Sn20  1  0.346654  0.800126  0.500000  1
  Sn  Sn21  1  0.199874  0.500000  0.653346  1
  Sn  Sn22  1  0.800126  0.500000  0.653346  1
  Sn  Sn23  1  0.153346  0.000000  0.300126  1
  Sn  Sn24  1  0.300126  0.153346  0.000000  1
  Sn  Sn25  1  0.699874  0.846654  0.000000  1
  Sn  Sn26  1  0.153346  0.000000  0.699874  1
  Sn  Sn27  1  0.699874  0.153346  0.000000  1
  Sn  Sn28  1  0.846654  0.000000  0.300126  1
  Sn  Sn29  1  0.846654  0.000000  0.699874  1
  Sn  Sn30  1  0.300126  0.846654  0.000000  1
  Sn  Sn31  1  0.000000  0.699874  0.846654  1
  Sn  Sn32  1  0.000000  0.300126  0.846654  1
  Sn  Sn33  1  0.000000  0.699874  0.153346  1
  Sn  Sn34  1  0.800126  0.500000  0.346654  1
  Sn  Sn35  1  0.199874  0.500000  0.346654  1
  Sn  Sn36  1  0.653346  0.199874  0.500000  1
  Sn  Sn37  1  0.346654  0.199874  0.500000  1
  Sn  Sn38  1  0.500000  0.653346  0.800126  1
  Sn  Sn39  1  0.500000  0.346654  0.199874  1
