# generated using pymatgen
data_Sm5AgS8
_symmetry_space_group_name_H-M   'P 1'
_cell_length_a   7.35542159
_cell_length_b   7.35542102
_cell_length_c   7.35542164
_cell_angle_alpha   109.68138141
_cell_angle_beta   109.68138056
_cell_angle_gamma   109.05171478
_symmetry_Int_Tables_number   1
_chemical_formula_structural   Sm5AgS8
_chemical_formula_sum   'Sm5 Ag1 S8'
_cell_volume   306.32562696
_cell_formula_units_Z   1
loop_
 _symmetry_equiv_pos_site_id
 _symmetry_equiv_pos_as_xyz
  1  'x, y, z'
loop_
 _atom_site_type_symbol
 _atom_site_label
 _atom_site_symmetry_multiplicity
 _atom_site_fract_x
 _atom_site_fract_y
 _atom_site_fract_z
 _atom_site_occupancy
  Ag  Ag0  1  0.875000  0.125000  0.750000  1
  S  S1  1  0.993642  0.852791  0.498758  1
  S  S2  1  0.006952  0.365920  0.490411  1
  S  S3  1  0.147209  0.145967  0.140850  1
  S  S4  1  0.375509  0.516541  0.009589  1
  S  S5  1  0.483459  0.993048  0.858968  1
  S  S6  1  0.634080  0.624491  0.641032  1
  S  S7  1  0.505116  0.006358  0.359150  1
  S  S8  1  0.854033  0.494884  0.001242  1
  Sm  Sm9  1  0.110062  0.745957  0.868019  1
  Sm  Sm10  1  0.254043  0.622061  0.364104  1
  Sm  Sm11  1  0.377939  0.242043  0.631981  1
  Sm  Sm12  1  0.625000  0.375000  0.250000  1
  Sm  Sm13  1  0.757957  0.889938  0.135896  1
