# generated using pymatgen
data_LiCoPO4
_symmetry_space_group_name_H-M   'P 1'
_cell_length_a   11.06824729
_cell_length_b   6.12278371
_cell_length_c   5.01888633
_cell_angle_alpha   90.00000000
_cell_angle_beta   90.00000000
_cell_angle_gamma   90.00000000
_symmetry_Int_Tables_number   1
_chemical_formula_structural   LiCoPO4
_chemical_formula_sum   'Li4 Co4 P4 O16'
_cell_volume   340.12231898
_cell_formula_units_Z   4
loop_
 _symmetry_equiv_pos_site_id
 _symmetry_equiv_pos_as_xyz
  1  'x, y, z'
loop_
 _atom_site_type_symbol
 _atom_site_label
 _atom_site_symmetry_multiplicity
 _atom_site_fract_x
 _atom_site_fract_y
 _atom_site_fract_z
 _atom_site_occupancy
  Li  Li0  1  0.068057  0.215982  0.990883  1
  Li  Li1  1  0.931943  0.784018  0.490883  1
  Li  Li2  1  0.568057  0.284018  0.990883  1
  Li  Li3  1  0.431943  0.715982  0.490883  1
  O  O4  1  0.085969  0.714912  0.305409  1
  O  O5  1  0.839195  0.061511  0.413101  1
  O  O6  1  0.851950  0.481321  0.384861  1
  O  O7  1  0.914031  0.285088  0.805409  1
  O  O8  1  0.042599  0.242973  0.387282  1
  O  O9  1  0.414032  0.214912  0.805409  1
  O  O10  1  0.148050  0.518679  0.884863  1
  O  O11  1  0.660805  0.561511  0.913103  1
  O  O12  1  0.339195  0.438488  0.413101  1
  O  O13  1  0.351950  0.018679  0.384861  1
  O  O14  1  0.957401  0.757027  0.887282  1
  O  O15  1  0.457401  0.742973  0.887282  1
  O  O16  1  0.542599  0.257027  0.387282  1
  O  O17  1  0.585968  0.785088  0.305409  1
  O  O18  1  0.648050  0.981320  0.884863  1
  O  O19  1  0.160805  0.938488  0.913103  1
  P  P20  1  0.088502  0.730931  0.996621  1
  P  P21  1  0.411498  0.230930  0.496621  1
  P  P22  1  0.588502  0.769070  0.996621  1
  P  P23  1  0.911498  0.269070  0.496621  1
  Co  Co24  1  0.834259  0.530696  0.992730  1
  Co  Co25  1  0.665741  0.030696  0.492731  1
  Co  Co26  1  0.334259  0.969304  0.992730  1
  Co  Co27  1  0.165741  0.469304  0.492731  1
