# generated using pymatgen
data_Li2HN
_symmetry_space_group_name_H-M   'P 1'
_cell_length_a   3.66859576
_cell_length_b   3.66859640
_cell_length_c   3.54638921
_cell_angle_alpha   61.09596354
_cell_angle_beta   61.09596522
_cell_angle_gamma   56.18651121
_symmetry_Int_Tables_number   1
_chemical_formula_structural   Li2HN
_chemical_formula_sum   'Li2 H1 N1'
_cell_volume   33.17422165
_cell_formula_units_Z   1
loop_
 _symmetry_equiv_pos_site_id
 _symmetry_equiv_pos_as_xyz
  1  'x, y, z'
loop_
 _atom_site_type_symbol
 _atom_site_label
 _atom_site_symmetry_multiplicity
 _atom_site_fract_x
 _atom_site_fract_y
 _atom_site_fract_z
 _atom_site_occupancy
  H  H0  1  0.762511  0.237489  1.000000  1
  Li  Li1  1  0.194087  0.238163  0.283875  1
  Li  Li2  1  0.761837  0.805913  0.716125  1
  N  N3  1  0.061565  0.938435  0.000000  1
