# generated using pymatgen
data_Si3O
_symmetry_space_group_name_H-M   'P 1'
_cell_length_a   4.21423349
_cell_length_b   12.16941022
_cell_length_c   11.21438300
_cell_angle_alpha   41.63019534
_cell_angle_beta   55.68428214
_cell_angle_gamma   58.70280006
_symmetry_Int_Tables_number   1
_chemical_formula_structural   Si3O
_chemical_formula_sum   'Si12 O4'
_cell_volume   310.48211830
_cell_formula_units_Z   4
loop_
 _symmetry_equiv_pos_site_id
 _symmetry_equiv_pos_as_xyz
  1  'x, y, z'
loop_
 _atom_site_type_symbol
 _atom_site_label
 _atom_site_symmetry_multiplicity
 _atom_site_fract_x
 _atom_site_fract_y
 _atom_site_fract_z
 _atom_site_occupancy
  Si  Si0  1  0.966111  0.984345  0.994847  1
  Si  Si1  1  0.981697  0.358135  0.977913  1
  Si  Si2  1  0.283889  0.057322  0.130153  1
  Si  Si3  1  0.953594  0.142751  0.541195  1
  Si  Si4  1  0.994383  0.642805  0.041151  1
  Si  Si5  1  0.255617  0.398862  0.083849  1
  Si  Si6  1  0.096402  0.484355  0.494980  1
  Si  Si7  1  0.240138  0.183609  0.647053  1
  Si  Si8  1  0.268303  0.683531  0.147087  1
  Si  Si9  1  0.153598  0.557312  0.630020  1
  Si  Si10  1  0.009862  0.858057  0.477947  1
  Si  Si11  1  0.296406  0.898916  0.583805  1
  O  O12  1  0.125000  0.020833  0.062500  1
  O  O13  1  0.036355  0.270795  0.312479  1
  O  O14  1  0.625000  0.520833  0.562500  1
  O  O15  1  0.213645  0.770871  0.812521  1
