# generated using pymatgen
data_CoAsS
_symmetry_space_group_name_H-M   'P 1'
_cell_length_a   5.57871429
_cell_length_b   5.61311804
_cell_length_c   5.61832496
_cell_angle_alpha   90.00000000
_cell_angle_beta   92.55392687
_cell_angle_gamma   90.00000000
_symmetry_Int_Tables_number   1
_chemical_formula_structural   CoAsS
_chemical_formula_sum   'Co4 As4 S4'
_cell_volume   175.75737662
_cell_formula_units_Z   4
loop_
 _symmetry_equiv_pos_site_id
 _symmetry_equiv_pos_as_xyz
  1  'x, y, z'
loop_
 _atom_site_type_symbol
 _atom_site_label
 _atom_site_symmetry_multiplicity
 _atom_site_fract_x
 _atom_site_fract_y
 _atom_site_fract_z
 _atom_site_occupancy
  S  S0  1  0.873440  0.382011  0.113856  1
  S  S1  1  0.126560  0.617989  0.886144  1
  S  S2  1  0.126560  0.882011  0.386144  1
  S  S3  1  0.873440  0.117989  0.613856  1
  Co  Co4  1  0.500000  0.500000  0.000000  1
  Co  Co5  1  0.000000  0.500000  0.500000  1
  Co  Co6  1  0.000000  0.000000  0.000000  1
  Co  Co7  1  0.500000  0.000000  0.500000  1
  As  As8  1  0.376705  0.123814  0.872231  1
  As  As9  1  0.623295  0.876186  0.127769  1
  As  As10  1  0.376705  0.376186  0.372231  1
  As  As11  1  0.623295  0.623814  0.627769  1
