# generated using pymatgen
data_La2CdS4
_symmetry_space_group_name_H-M   'P 1'
_cell_length_a   7.56303939
_cell_length_b   7.56303865
_cell_length_c   7.56303870
_cell_angle_alpha   110.77568886
_cell_angle_beta   110.77568758
_cell_angle_gamma   106.89265037
_symmetry_Int_Tables_number   1
_chemical_formula_structural   La2CdS4
_chemical_formula_sum   'La4 Cd2 S8'
_cell_volume   332.51453954
_cell_formula_units_Z   2
loop_
 _symmetry_equiv_pos_site_id
 _symmetry_equiv_pos_as_xyz
  1  'x, y, z'
loop_
 _atom_site_type_symbol
 _atom_site_label
 _atom_site_symmetry_multiplicity
 _atom_site_fract_x
 _atom_site_fract_y
 _atom_site_fract_z
 _atom_site_occupancy
  Cd  Cd0  1  0.625000  0.375000  0.250000  1
  Cd  Cd1  1  0.875000  0.125000  0.750000  1
  La  La2  1  0.107546  0.750000  0.857546  1
  La  La3  1  0.250000  0.607546  0.357546  1
  La  La4  1  0.392454  0.250000  0.642454  1
  La  La5  1  0.750000  0.892454  0.142454  1
  S  S6  1  0.006451  0.884779  0.515834  1
  S  S7  1  0.990618  0.368946  0.484166  1
  S  S8  1  0.115221  0.131054  0.121672  1
  S  S9  1  0.384779  0.506451  0.015834  1
  S  S10  1  0.493549  0.009382  0.878328  1
  S  S11  1  0.631054  0.615221  0.621672  1
  S  S12  1  0.509382  0.993549  0.378328  1
  S  S13  1  0.868946  0.490618  0.984166  1
