# generated using pymatgen
data_Eu(LuS2)2
_symmetry_space_group_name_H-M   'P 1'
_cell_length_a   7.22599962
_cell_length_b   7.22599965
_cell_length_c   7.22599969
_cell_angle_alpha   109.29535763
_cell_angle_beta   109.29535200
_cell_angle_gamma   109.82352467
_symmetry_Int_Tables_number   1
_chemical_formula_structural   Eu(LuS2)2
_chemical_formula_sum   'Eu2 Lu4 S8'
_cell_volume   290.44212849
_cell_formula_units_Z   2
loop_
 _symmetry_equiv_pos_site_id
 _symmetry_equiv_pos_as_xyz
  1  'x, y, z'
loop_
 _atom_site_type_symbol
 _atom_site_label
 _atom_site_symmetry_multiplicity
 _atom_site_fract_x
 _atom_site_fract_y
 _atom_site_fract_z
 _atom_site_occupancy
  Eu  Eu0  1  0.625000  0.375000  0.250000  1
  Eu  Eu1  1  0.875000  0.125000  0.750000  1
  Lu  Lu2  1  0.131470  0.750000  0.881470  1
  Lu  Lu3  1  0.250000  0.631470  0.381470  1
  Lu  Lu4  1  0.368530  0.250000  0.618530  1
  Lu  Lu5  1  0.750000  0.868530  0.118530  1
  S  S6  1  0.012089  0.864486  0.495744  1
  S  S7  1  0.487911  0.983655  0.852397  1
  S  S8  1  0.135514  0.131257  0.147603  1
  S  S9  1  0.483655  0.987911  0.352397  1
  S  S10  1  0.364486  0.512089  0.995744  1
  S  S11  1  0.631257  0.635514  0.647603  1
  S  S12  1  0.868743  0.516345  0.004256  1
  S  S13  1  0.016345  0.368743  0.504256  1
