# generated using pymatgen
data_Tb4Mo4O11
_symmetry_space_group_name_H-M   'P 1'
_cell_length_a   5.74625018
_cell_length_b   10.85652014
_cell_length_c   16.09588512
_cell_angle_alpha   90.00000000
_cell_angle_beta   90.00000000
_cell_angle_gamma   90.00000000
_symmetry_Int_Tables_number   1
_chemical_formula_structural   Tb4Mo4O11
_chemical_formula_sum   'Tb16 Mo16 O44'
_cell_volume   1004.13021719
_cell_formula_units_Z   4
loop_
 _symmetry_equiv_pos_site_id
 _symmetry_equiv_pos_as_xyz
  1  'x, y, z'
loop_
 _atom_site_type_symbol
 _atom_site_label
 _atom_site_symmetry_multiplicity
 _atom_site_fract_x
 _atom_site_fract_y
 _atom_site_fract_z
 _atom_site_occupancy
  O  O0  1  0.245323  0.000000  0.000000  1
  O  O1  1  0.754677  0.500000  0.500000  1
  O  O2  1  0.754677  0.000000  0.000000  1
  O  O3  1  0.245323  0.500000  0.500000  1
  O  O4  1  0.000000  0.229388  0.523509  1
  O  O5  1  0.000000  0.770612  0.476492  1
  O  O6  1  0.000000  0.729388  0.976492  1
  O  O7  1  0.000000  0.270612  0.023509  1
  O  O8  1  0.000000  0.048013  0.653096  1
  O  O9  1  0.000000  0.951987  0.346903  1
  O  O10  1  0.000000  0.548012  0.846904  1
  O  O11  1  0.000000  0.451988  0.153096  1
  O  O12  1  0.500000  0.245599  0.513552  1
  O  O13  1  0.500000  0.754401  0.486448  1
  O  O14  1  0.500000  0.745599  0.986447  1
  O  O15  1  0.500000  0.254400  0.013552  1
  O  O16  1  0.500000  0.040550  0.665988  1
  O  O17  1  0.500000  0.959449  0.334013  1
  O  O18  1  0.762983  0.311376  0.861259  1
  O  O19  1  0.500000  0.459449  0.165987  1
  O  O20  1  0.247147  0.960641  0.172709  1
  O  O21  1  0.247147  0.039359  0.827291  1
  O  O22  1  0.752853  0.460641  0.327290  1
  O  O23  1  0.752853  0.539359  0.672709  1
  O  O24  1  0.752853  0.039359  0.827291  1
  O  O25  1  0.752853  0.960641  0.172709  1
  O  O26  1  0.247147  0.539359  0.672709  1
  O  O27  1  0.247147  0.460641  0.327290  1
  O  O28  1  0.237017  0.688624  0.138741  1
  O  O29  1  0.237017  0.311376  0.861259  1
  O  O30  1  0.762983  0.188624  0.361259  1
  O  O31  1  0.762983  0.811376  0.638740  1
  O  O32  1  0.263444  0.225787  0.173923  1
  O  O33  1  0.263444  0.774213  0.826078  1
  O  O34  1  0.736556  0.725787  0.326077  1
  O  O35  1  0.736556  0.274213  0.673922  1
  O  O36  1  0.736556  0.774213  0.826078  1
  O  O37  1  0.736556  0.225787  0.173923  1
  O  O38  1  0.263444  0.274213  0.673922  1
  O  O39  1  0.263444  0.725787  0.326077  1
  O  O40  1  0.237017  0.188624  0.361259  1
  O  O41  1  0.237017  0.811376  0.638740  1
  O  O42  1  0.762983  0.688624  0.138741  1
  O  O43  1  0.500000  0.540551  0.834012  1
  Mo  Mo44  1  0.000000  0.917292  0.559977  1
  Mo  Mo45  1  0.000000  0.082708  0.440023  1
  Mo  Mo46  1  0.000000  0.417292  0.940023  1
  Mo  Mo47  1  0.000000  0.582708  0.059977  1
  Mo  Mo48  1  0.500000  0.904337  0.570835  1
  Mo  Mo49  1  0.500000  0.095663  0.429165  1
  Mo  Mo50  1  0.500000  0.404337  0.929166  1
  Mo  Mo51  1  0.500000  0.595663  0.070835  1
  Mo  Mo52  1  0.275518  0.865327  0.414576  1
  Mo  Mo53  1  0.275518  0.134673  0.585424  1
  Mo  Mo54  1  0.724482  0.365328  0.085424  1
  Mo  Mo55  1  0.724482  0.634673  0.914575  1
  Mo  Mo56  1  0.724482  0.134673  0.585424  1
  Mo  Mo57  1  0.724482  0.865327  0.414576  1
  Mo  Mo58  1  0.275518  0.634673  0.914575  1
  Mo  Mo59  1  0.275518  0.365328  0.085424  1
  Tb  Tb60  1  0.000000  0.616983  0.577214  1
  Tb  Tb61  1  0.000000  0.383017  0.422786  1
  Tb  Tb62  1  0.000000  0.116983  0.922786  1
  Tb  Tb63  1  0.000000  0.883017  0.077214  1
  Tb  Tb64  1  0.000000  0.402000  0.737123  1
  Tb  Tb65  1  0.000000  0.598000  0.262877  1
  Tb  Tb66  1  0.000000  0.902000  0.762877  1
  Tb  Tb67  1  0.000000  0.098001  0.237123  1
  Tb  Tb68  1  0.500000  0.422142  0.598593  1
  Tb  Tb69  1  0.500000  0.577857  0.401407  1
  Tb  Tb70  1  0.500000  0.922143  0.901407  1
  Tb  Tb71  1  0.500000  0.077857  0.098593  1
  Tb  Tb72  1  0.500000  0.184511  0.776964  1
  Tb  Tb73  1  0.500000  0.815489  0.223036  1
  Tb  Tb74  1  0.500000  0.684511  0.723036  1
  Tb  Tb75  1  0.500000  0.315489  0.276964  1
