# generated using pymatgen
data_La2PbSe4
_symmetry_space_group_name_H-M   'P 1'
_cell_length_a   7.94095907
_cell_length_b   7.94095961
_cell_length_c   7.94095922
_cell_angle_alpha   109.41512183
_cell_angle_beta   109.58347830
_cell_angle_gamma   109.41512330
_symmetry_Int_Tables_number   1
_chemical_formula_structural   La2PbSe4
_chemical_formula_sum   'La4 Pb2 Se8'
_cell_volume   385.47458686
_cell_formula_units_Z   2
loop_
 _symmetry_equiv_pos_site_id
 _symmetry_equiv_pos_as_xyz
  1  'x, y, z'
loop_
 _atom_site_type_symbol
 _atom_site_label
 _atom_site_symmetry_multiplicity
 _atom_site_fract_x
 _atom_site_fract_y
 _atom_site_fract_z
 _atom_site_occupancy
  La  La0  1  0.250000  0.632468  0.382468  1
  La  La1  1  0.750000  0.867532  0.117532  1
  La  La2  1  0.617532  0.367532  0.250000  1
  La  La3  1  0.882468  0.132468  0.750000  1
  Pb  Pb4  1  0.125000  0.750000  0.875000  1
  Pb  Pb5  1  0.375000  0.250000  0.625000  1
  Se  Se6  1  0.991111  0.847472  0.493256  1
  Se  Se7  1  0.143638  0.152528  0.145784  1
  Se  Se8  1  0.356362  0.502145  0.008889  1
  Se  Se9  1  0.508889  0.002145  0.856362  1
  Se  Se10  1  0.645784  0.652528  0.643638  1
  Se  Se11  1  0.506744  0.997855  0.354216  1
  Se  Se12  1  0.854216  0.497855  0.006744  1
  Se  Se13  1  0.993256  0.347472  0.491111  1
