# generated using pymatgen
data_K6Fe2O5
_symmetry_space_group_name_H-M   'P 1'
_cell_length_a   6.78917472
_cell_length_b   6.77134864
_cell_length_c   6.77134859
_cell_angle_alpha   117.64684029
_cell_angle_beta   91.47084198
_cell_angle_gamma   91.47085025
_symmetry_Int_Tables_number   1
_chemical_formula_structural   K6Fe2O5
_chemical_formula_sum   'K6 Fe2 O5'
_cell_volume   275.41051363
_cell_formula_units_Z   1
loop_
 _symmetry_equiv_pos_site_id
 _symmetry_equiv_pos_as_xyz
  1  'x, y, z'
loop_
 _atom_site_type_symbol
 _atom_site_label
 _atom_site_symmetry_multiplicity
 _atom_site_fract_x
 _atom_site_fract_y
 _atom_site_fract_z
 _atom_site_occupancy
  K  K0  1  0.994302  0.209485  0.787325  1
  K  K1  1  0.171309  0.364171  0.364171  1
  K  K2  1  0.503023  0.756353  0.242733  1
  K  K3  1  0.503023  0.242733  0.756353  1
  K  K4  1  0.826994  0.644038  0.644038  1
  K  K5  1  0.994302  0.787325  0.209485  1
  Fe  Fe6  1  0.331277  0.790543  0.790543  1
  Fe  Fe7  1  0.696626  0.189644  0.189644  1
  O  O8  1  0.219049  0.842326  0.561058  1
  O  O9  1  0.219049  0.561058  0.842326  1
  O  O10  1  0.587222  0.928374  0.928374  1
  O  O11  1  0.771462  0.165483  0.446866  1
  O  O12  1  0.771462  0.446866  0.165483  1
