# generated using pymatgen
data_Nb4Cr2Si5
_symmetry_space_group_name_H-M   'P 1'
_cell_length_a   4.95731670
_cell_length_b   7.88654395
_cell_length_c   9.38611381
_cell_angle_alpha   114.84201473
_cell_angle_beta   105.31212518
_cell_angle_gamma   90.00000000
_symmetry_Int_Tables_number   1
_chemical_formula_structural   Nb4Cr2Si5
_chemical_formula_sum   'Nb8 Cr4 Si10'
_cell_volume   318.59358417
_cell_formula_units_Z   2
loop_
 _symmetry_equiv_pos_site_id
 _symmetry_equiv_pos_as_xyz
  1  'x, y, z'
loop_
 _atom_site_type_symbol
 _atom_site_label
 _atom_site_symmetry_multiplicity
 _atom_site_fract_x
 _atom_site_fract_y
 _atom_site_fract_z
 _atom_site_occupancy
  Si  Si0  1  0.250000  0.000000  0.000000  1
  Si  Si1  1  0.750000  0.000000  0.000000  1
  Si  Si2  1  0.570501  0.652692  0.141002  1
  Si  Si3  1  0.429499  0.347308  0.858998  1
  Si  Si4  1  0.929499  0.511691  0.858998  1
  Si  Si5  1  0.070501  0.488309  0.141002  1
  Si  Si6  1  0.782080  0.988098  0.564160  1
  Si  Si7  1  0.217920  0.011902  0.435840  1
  Si  Si8  1  0.282080  0.576062  0.564160  1
  Si  Si9  1  0.717920  0.423938  0.435840  1
  Cr  Cr10  1  0.943401  0.693401  0.386802  1
  Cr  Cr11  1  0.556599  0.306599  0.613198  1
  Cr  Cr12  1  0.056599  0.306599  0.613198  1
  Cr  Cr13  1  0.443401  0.693401  0.386802  1
  Nb  Nb14  1  0.936696  0.192508  0.873392  1
  Nb  Nb15  1  0.063304  0.807492  0.126608  1
  Nb  Nb16  1  0.563304  0.319116  0.126608  1
  Nb  Nb17  1  0.436696  0.680884  0.873392  1
  Nb  Nb18  1  0.643495  0.030166  0.286990  1
  Nb  Nb19  1  0.356505  0.969834  0.713010  1
  Nb  Nb20  1  0.856505  0.743176  0.713010  1
  Nb  Nb21  1  0.143495  0.256824  0.286990  1
