# generated using pymatgen
data_B5H11
_symmetry_space_group_name_H-M   'P 1'
_cell_length_a   7.00706045
_cell_length_b   8.87340123
_cell_length_c   10.60468456
_cell_angle_alpha   90.00000000
_cell_angle_beta   94.80507852
_cell_angle_gamma   90.00000000
_symmetry_Int_Tables_number   1
_chemical_formula_structural   B5H11
_chemical_formula_sum   'B20 H44'
_cell_volume   657.04436502
_cell_formula_units_Z   4
loop_
 _symmetry_equiv_pos_site_id
 _symmetry_equiv_pos_as_xyz
  1  'x, y, z'
loop_
 _atom_site_type_symbol
 _atom_site_label
 _atom_site_symmetry_multiplicity
 _atom_site_fract_x
 _atom_site_fract_y
 _atom_site_fract_z
 _atom_site_occupancy
  H  H0  1  0.556088  0.371356  0.918900  1
  H  H1  1  0.943912  0.871356  0.581100  1
  H  H2  1  0.443912  0.628644  0.081100  1
  H  H3  1  0.056088  0.128644  0.418900  1
  H  H4  1  0.349705  0.213328  0.761913  1
  H  H5  1  0.150295  0.713328  0.738087  1
  H  H6  1  0.650295  0.786672  0.238087  1
  H  H7  1  0.849705  0.286672  0.261913  1
  H  H8  1  0.521949  0.274772  0.641765  1
  H  H9  1  0.978051  0.774772  0.858235  1
  H  H10  1  0.478051  0.725228  0.358235  1
  H  H11  1  0.021949  0.225228  0.141765  1
  H  H12  1  0.786834  0.318438  0.709033  1
  H  H13  1  0.713166  0.818438  0.790967  1
  H  H14  1  0.213166  0.681562  0.290967  1
  H  H15  1  0.466124  0.182022  0.925466  1
  H  H16  1  0.286834  0.181562  0.209033  1
  H  H17  1  0.262751  0.826543  0.587137  1
  H  H18  1  0.762751  0.673457  0.087137  1
  H  H19  1  0.737249  0.173457  0.412863  1
  H  H20  1  0.404043  0.005092  0.314531  1
  H  H21  1  0.095957  0.505092  0.185469  1
  H  H22  1  0.595957  0.994908  0.685469  1
  H  H23  1  0.904043  0.494908  0.814531  1
  H  H24  1  0.322694  0.204443  0.392219  1
  H  H25  1  0.177306  0.704443  0.107781  1
  H  H26  1  0.677306  0.795557  0.607781  1
  H  H27  1  0.822694  0.295557  0.892219  1
  H  H28  1  0.143420  0.019884  0.097807  1
  H  H29  1  0.356580  0.519884  0.402193  1
  H  H30  1  0.856580  0.980116  0.902193  1
  H  H31  1  0.643420  0.480116  0.597807  1
  H  H32  1  0.978066  0.923280  0.335748  1
  H  H33  1  0.521934  0.423280  0.164252  1
  H  H34  1  0.021934  0.076720  0.664252  1
  H  H35  1  0.478066  0.576720  0.835748  1
  H  H36  1  0.762496  0.116926  0.140664  1
  H  H37  1  0.737504  0.616926  0.359336  1
  H  H38  1  0.237504  0.883074  0.859336  1
  H  H39  1  0.262496  0.383074  0.640664  1
  H  H40  1  0.966124  0.317978  0.425466  1
  H  H41  1  0.533876  0.817978  0.074534  1
  H  H42  1  0.033876  0.682022  0.574534  1
  H  H43  1  0.237249  0.326543  0.912863  1
  B  B44  1  0.386339  0.289599  0.875037  1
  B  B45  1  0.113661  0.789599  0.624963  1
  B  B46  1  0.613661  0.710401  0.124963  1
  B  B47  1  0.886339  0.210401  0.375037  1
  B  B48  1  0.392876  0.338779  0.709867  1
  B  B49  1  0.107124  0.838779  0.790133  1
  B  B50  1  0.607124  0.661221  0.290133  1
  B  B51  1  0.892876  0.161221  0.209867  1
  B  B52  1  0.527639  0.450011  0.819200  1
  B  B53  1  0.972361  0.950011  0.680800  1
  B  B54  1  0.472361  0.549989  0.180800  1
  B  B55  1  0.027639  0.049989  0.319200  1
  B  B56  1  0.629724  0.395619  0.683786  1
  B  B57  1  0.870276  0.895619  0.816214  1
  B  B58  1  0.370276  0.604381  0.316214  1
  B  B59  1  0.129724  0.104381  0.183786  1
  B  B60  1  0.786414  0.397588  0.819998  1
  B  B61  1  0.713586  0.897588  0.680002  1
  B  B62  1  0.213586  0.602412  0.180002  1
  B  B63  1  0.286414  0.102412  0.319998  1
