# generated using pymatgen
data_UNb3O10
_symmetry_space_group_name_H-M   'P 1'
_cell_length_a   7.56270325
_cell_length_b   7.56270325
_cell_length_c   8.90055556
_cell_angle_alpha   102.24904131
_cell_angle_beta   102.24904134
_cell_angle_gamma   120.04063784
_symmetry_Int_Tables_number   1
_chemical_formula_structural   UNb3O10
_chemical_formula_sum   'U2 Nb6 O20'
_cell_volume   398.98723174
_cell_formula_units_Z   2
loop_
 _symmetry_equiv_pos_site_id
 _symmetry_equiv_pos_as_xyz
  1  'x, y, z'
loop_
 _atom_site_type_symbol
 _atom_site_label
 _atom_site_symmetry_multiplicity
 _atom_site_fract_x
 _atom_site_fract_y
 _atom_site_fract_z
 _atom_site_occupancy
  O  O0  1  0.077519  0.922479  0.250000  1
  O  O1  1  0.672480  0.327521  0.250000  1
  O  O2  1  0.922479  0.077519  0.750000  1
  O  O3  1  0.327519  0.672479  0.750000  1
  O  O4  1  0.757766  0.007766  0.015532  1
  O  O5  1  0.992233  0.242233  0.484468  1
  O  O6  1  0.242234  0.992234  0.984468  1
  O  O7  1  0.007767  0.757767  0.515532  1
  O  O8  1  0.528298  0.076807  0.754437  1
  O  O9  1  0.322369  0.273860  0.745562  1
  O  O10  1  0.923193  0.471701  0.745562  1
  O  O11  1  0.726140  0.677631  0.754437  1
  O  O12  1  0.471702  0.923194  0.245562  1
  O  O13  1  0.677632  0.726140  0.254438  1
  O  O14  1  0.499123  0.749123  0.498247  1
  O  O15  1  0.273861  0.322369  0.245562  1
  O  O16  1  0.749123  0.499123  0.998247  1
  O  O17  1  0.500876  0.250877  0.501752  1
  O  O18  1  0.250876  0.500877  0.001753  1
  O  O19  1  0.076807  0.528299  0.254437  1
  Nb  Nb20  1  0.615819  0.865819  0.731637  1
  Nb  Nb21  1  0.134182  0.384181  0.768363  1
  Nb  Nb22  1  0.384181  0.134181  0.268363  1
  Nb  Nb23  1  0.865818  0.615819  0.231636  1
  Nb  Nb24  1  0.625000  0.374999  0.750000  1
  Nb  Nb25  1  0.375000  0.625001  0.250000  1
  U  U26  1  0.875000  0.125001  0.250000  1
  U  U27  1  0.125000  0.874999  0.750000  1
