# generated using pymatgen
data_K2Ta3Cl9
_symmetry_space_group_name_H-M   'P 1'
_cell_length_a   9.74115345
_cell_length_b   9.89033234
_cell_length_c   9.89033234
_cell_angle_alpha   117.73214468
_cell_angle_beta   102.63352974
_cell_angle_gamma   102.63352973
_symmetry_Int_Tables_number   1
_chemical_formula_structural   K2Ta3Cl9
_chemical_formula_sum   'K4 Ta6 Cl18'
_cell_volume   764.23720852
_cell_formula_units_Z   2
loop_
 _symmetry_equiv_pos_site_id
 _symmetry_equiv_pos_as_xyz
  1  'x, y, z'
loop_
 _atom_site_type_symbol
 _atom_site_label
 _atom_site_symmetry_multiplicity
 _atom_site_fract_x
 _atom_site_fract_y
 _atom_site_fract_z
 _atom_site_occupancy
  Cl  Cl0  1  0.500000  0.795048  0.204952  1
  Cl  Cl1  1  0.820178  0.497414  0.107998  1
  Cl  Cl2  1  0.820178  0.107998  0.497414  1
  Cl  Cl3  1  0.179822  0.502586  0.892002  1
  Cl  Cl4  1  0.215607  0.268235  0.268235  1
  Cl  Cl5  1  0.784393  0.731765  0.731765  1
  Cl  Cl6  1  0.485783  0.598486  0.805047  1
  Cl  Cl7  1  0.514217  0.194953  0.401514  1
  Cl  Cl8  1  0.514217  0.401514  0.194953  1
  Cl  Cl9  1  0.485783  0.805047  0.598486  1
  Cl  Cl10  1  0.828566  0.318140  0.318140  1
  Cl  Cl11  1  0.185470  0.084466  0.880104  1
  Cl  Cl12  1  0.185470  0.880104  0.084466  1
  Cl  Cl13  1  0.814530  0.915534  0.119896  1
  Cl  Cl14  1  0.814530  0.119896  0.915534  1
  Cl  Cl15  1  0.500000  0.204952  0.795048  1
  Cl  Cl16  1  0.171434  0.681860  0.681860  1
  Cl  Cl17  1  0.179822  0.892002  0.502586  1
  K  K18  1  0.825792  0.449727  0.770773  1
  K  K19  1  0.174208  0.229227  0.550273  1
  K  K20  1  0.174208  0.550273  0.229227  1
  K  K21  1  0.825792  0.770773  0.449727  1
  Ta  Ta22  1  0.626525  0.881809  0.881809  1
  Ta  Ta23  1  0.373475  0.118191  0.118191  1
  Ta  Ta24  1  0.361667  0.953353  0.782150  1
  Ta  Ta25  1  0.638333  0.217850  0.046647  1
  Ta  Ta26  1  0.638333  0.046647  0.217850  1
  Ta  Ta27  1  0.361667  0.782150  0.953353  1
