# generated using pymatgen
data_Ag2SO3
_symmetry_space_group_name_H-M   'P 1'
_cell_length_a   4.71789742
_cell_length_b   8.11016018
_cell_length_c   9.79091950
_cell_angle_alpha   90.00000000
_cell_angle_beta   94.84681080
_cell_angle_gamma   90.00000000
_symmetry_Int_Tables_number   1
_chemical_formula_structural   Ag2SO3
_chemical_formula_sum   'Ag8 S4 O12'
_cell_volume   373.28939775
_cell_formula_units_Z   4
loop_
 _symmetry_equiv_pos_site_id
 _symmetry_equiv_pos_as_xyz
  1  'x, y, z'
loop_
 _atom_site_type_symbol
 _atom_site_label
 _atom_site_symmetry_multiplicity
 _atom_site_fract_x
 _atom_site_fract_y
 _atom_site_fract_z
 _atom_site_occupancy
  O  O0  1  0.969424  0.120609  0.626908  1
  O  O1  1  0.530576  0.620609  0.873092  1
  O  O2  1  0.030576  0.879391  0.373092  1
  O  O3  1  0.469424  0.379391  0.126908  1
  O  O4  1  0.169269  0.196597  0.975391  1
  O  O5  1  0.330731  0.696597  0.524609  1
  O  O6  1  0.830731  0.803403  0.024609  1
  O  O7  1  0.077022  0.224236  0.216829  1
  O  O8  1  0.577022  0.275764  0.716829  1
  O  O9  1  0.922978  0.775764  0.783171  1
  O  O10  1  0.422978  0.724236  0.283171  1
  O  O11  1  0.669269  0.303403  0.475391  1
  S  S12  1  0.314028  0.211983  0.120661  1
  S  S13  1  0.685972  0.788017  0.879339  1
  S  S14  1  0.185972  0.711983  0.379339  1
  S  S15  1  0.814028  0.288017  0.620661  1
  Ag  Ag16  1  0.306718  0.112774  0.434370  1
  Ag  Ag17  1  0.806718  0.387226  0.934370  1
  Ag  Ag18  1  0.693282  0.887226  0.565630  1
  Ag  Ag19  1  0.193282  0.612774  0.065630  1
  Ag  Ag20  1  0.366096  0.021387  0.798562  1
  Ag  Ag21  1  0.133904  0.521387  0.701438  1
  Ag  Ag22  1  0.633904  0.978613  0.201438  1
  Ag  Ag23  1  0.866096  0.478613  0.298562  1
