# generated using pymatgen
data_B5H6Br
_symmetry_space_group_name_H-M   'P 1'
_cell_length_a   7.59148504
_cell_length_b   12.22556961
_cell_length_c   13.77800809
_cell_angle_alpha   110.81086706
_cell_angle_beta   90.00000000
_cell_angle_gamma   90.00000000
_symmetry_Int_Tables_number   1
_chemical_formula_structural   B5H6Br
_chemical_formula_sum   'B40 H48 Br8'
_cell_volume   1195.31291603
_cell_formula_units_Z   8
loop_
 _symmetry_equiv_pos_site_id
 _symmetry_equiv_pos_as_xyz
  1  'x, y, z'
loop_
 _atom_site_type_symbol
 _atom_site_label
 _atom_site_symmetry_multiplicity
 _atom_site_fract_x
 _atom_site_fract_y
 _atom_site_fract_z
 _atom_site_occupancy
  H  H0  1  0.197050  0.603832  0.170269  1
  H  H1  1  0.697050  0.896168  0.829731  1
  H  H2  1  0.802950  0.396168  0.829731  1
  H  H3  1  0.302950  0.103832  0.170269  1
  H  H4  1  0.417517  0.679805  0.250291  1
  H  H5  1  0.917517  0.820195  0.749709  1
  H  H6  1  0.582483  0.320195  0.749709  1
  H  H7  1  0.082483  0.179805  0.250291  1
  H  H8  1  0.282285  0.548534  0.276988  1
  H  H9  1  0.782285  0.951466  0.723012  1
  H  H10  1  0.717715  0.451466  0.723012  1
  H  H11  1  0.217715  0.048534  0.276988  1
  H  H12  1  0.303267  0.605713  0.431419  1
  H  H13  1  0.803267  0.894287  0.568581  1
  H  H14  1  0.696733  0.394287  0.568581  1
  H  H15  1  0.196733  0.105713  0.431419  1
  H  H16  1  0.010995  0.424005  0.383119  1
  H  H17  1  0.510995  0.075995  0.616881  1
  H  H18  1  0.989005  0.575995  0.616881  1
  H  H19  1  0.489005  0.924005  0.383119  1
  H  H20  1  0.089535  0.424757  0.245036  1
  H  H21  1  0.589535  0.075243  0.754964  1
  H  H22  1  0.910465  0.575243  0.754964  1
  H  H23  1  0.711646  0.260329  0.297819  1
  H  H24  1  0.882206  0.338676  0.155581  1
  H  H25  1  0.382206  0.161324  0.844419  1
  H  H26  1  0.117794  0.661324  0.844419  1
  H  H27  1  0.617794  0.838676  0.155581  1
  H  H28  1  0.004471  0.478687  0.137110  1
  H  H29  1  0.504471  0.021313  0.862890  1
  H  H30  1  0.995529  0.521313  0.862890  1
  H  H31  1  0.495529  0.978687  0.137110  1
  H  H32  1  0.134102  0.830302  0.401268  1
  H  H33  1  0.634102  0.669698  0.598732  1
  H  H34  1  0.865898  0.169698  0.598732  1
  H  H35  1  0.365898  0.330302  0.401268  1
  H  H36  1  0.933629  0.671800  0.479447  1
  H  H37  1  0.433629  0.828200  0.520553  1
  H  H38  1  0.066371  0.328200  0.520553  1
  H  H39  1  0.566371  0.171800  0.479447  1
  H  H40  1  0.675823  0.538721  0.319811  1
  H  H41  1  0.175823  0.961279  0.680189  1
  H  H42  1  0.324177  0.461279  0.680189  1
  H  H43  1  0.824177  0.038721  0.319811  1
  H  H44  1  0.788354  0.760329  0.297819  1
  H  H45  1  0.288354  0.739671  0.702181  1
  H  H46  1  0.211646  0.239671  0.702181  1
  H  H47  1  0.410465  0.924757  0.245036  1
  B  B48  1  0.075701  0.686255  0.210399  1
  B  B49  1  0.575701  0.813745  0.789601  1
  B  B50  1  0.924299  0.313745  0.789601  1
  B  B51  1  0.424299  0.186255  0.210399  1
  B  B52  1  0.272338  0.652399  0.264861  1
  B  B53  1  0.772338  0.847601  0.735139  1
  B  B54  1  0.727662  0.347601  0.735139  1
  B  B55  1  0.227662  0.152399  0.264861  1
  B  B56  1  0.199664  0.605060  0.366268  1
  B  B57  1  0.699664  0.894940  0.633732  1
  B  B58  1  0.800336  0.394940  0.633732  1
  B  B59  1  0.300336  0.105060  0.366268  1
  B  B60  1  0.013327  0.487438  0.334535  1
  B  B61  1  0.513327  0.012562  0.665465  1
  B  B62  1  0.986673  0.512562  0.665465  1
  B  B63  1  0.486673  0.987438  0.334535  1
  B  B64  1  0.931442  0.434654  0.205215  1
  B  B65  1  0.431442  0.065346  0.794785  1
  B  B66  1  0.068558  0.565346  0.794785  1
  B  B67  1  0.568558  0.934654  0.205215  1
  B  B68  1  0.885783  0.562853  0.176220  1
  B  B69  1  0.385783  0.937147  0.823780  1
  B  B70  1  0.114217  0.437147  0.823780  1
  B  B71  1  0.614217  0.062853  0.176220  1
  B  B72  1  0.604010  0.186787  0.290676  1
  B  B73  1  0.608644  0.768829  0.652886  1
  B  B74  1  0.891356  0.268829  0.652886  1
  B  B75  1  0.391356  0.231171  0.347114  1
  B  B76  1  0.975558  0.638175  0.390218  1
  B  B77  1  0.475558  0.861825  0.609782  1
  B  B78  1  0.024442  0.361825  0.609782  1
  B  B79  1  0.524442  0.138175  0.390218  1
  B  B80  1  0.824166  0.550126  0.296720  1
  B  B81  1  0.324166  0.949874  0.703280  1
  B  B82  1  0.175834  0.449874  0.703280  1
  B  B83  1  0.675834  0.050126  0.296720  1
  B  B84  1  0.895990  0.686787  0.290676  1
  B  B85  1  0.395990  0.813213  0.709324  1
  B  B86  1  0.104010  0.313213  0.709324  1
  B  B87  1  0.108644  0.731171  0.347114  1
  Br  Br88  1  0.083593  0.785927  0.126605  1
  Br  Br89  1  0.583593  0.714073  0.873395  1
  Br  Br90  1  0.916407  0.214073  0.873395  1
  Br  Br91  1  0.416407  0.285927  0.126605  1
  Br  Br92  1  0.727039  0.553620  0.061640  1
  Br  Br93  1  0.227039  0.946380  0.938360  1
  Br  Br94  1  0.272961  0.446380  0.938360  1
  Br  Br95  1  0.772961  0.053620  0.061640  1
