# generated using pymatgen
data_Li3Fe2(PO4)3
_symmetry_space_group_name_H-M   'P 1'
_cell_length_a   8.67854041
_cell_length_b   12.18937282
_cell_length_c   8.73705646
_cell_angle_alpha   90.00000000
_cell_angle_beta   90.00000000
_cell_angle_gamma   90.38657321
_symmetry_Int_Tables_number   1
_chemical_formula_structural   Li3Fe2(PO4)3
_chemical_formula_sum   'Li12 Fe8 P12 O48'
_cell_volume   924.23690779
_cell_formula_units_Z   4
loop_
 _symmetry_equiv_pos_site_id
 _symmetry_equiv_pos_as_xyz
  1  'x, y, z'
loop_
 _atom_site_type_symbol
 _atom_site_label
 _atom_site_symmetry_multiplicity
 _atom_site_fract_x
 _atom_site_fract_y
 _atom_site_fract_z
 _atom_site_occupancy
  Li  Li0  1  0.075741  0.699898  0.078601  1
  Li  Li1  1  0.924259  0.300102  0.921398  1
  Li  Li2  1  0.912662  0.240380  0.298580  1
  Li  Li3  1  0.792478  0.819962  0.225282  1
  Li  Li4  1  0.707522  0.680038  0.725281  1
  Li  Li5  1  0.587337  0.259620  0.798580  1
  Li  Li6  1  0.575741  0.199897  0.421399  1
  Li  Li7  1  0.424259  0.800102  0.578601  1
  Li  Li8  1  0.412662  0.740380  0.201420  1
  Li  Li9  1  0.087338  0.759620  0.701421  1
  Li  Li10  1  0.207522  0.180038  0.774719  1
  Li  Li11  1  0.292478  0.319962  0.274719  1
  O  O12  1  0.170976  0.433160  0.167840  1
  O  O13  1  0.854111  0.027956  0.591834  1
  O  O14  1  0.857765  0.184122  0.782567  1
  O  O15  1  0.899437  0.431555  0.627044  1
  O  O16  1  0.928355  0.831761  0.408824  1
  O  O17  1  0.926490  0.402748  0.311178  1
  O  O18  1  0.923012  0.150260  0.110623  1
  O  O19  1  0.951731  0.569466  0.133010  1
  O  O20  1  0.048270  0.430533  0.866989  1
  O  O21  1  0.076988  0.849740  0.889377  1
  O  O22  1  0.073510  0.597253  0.688822  1
  O  O23  1  0.071646  0.168239  0.591177  1
  O  O24  1  0.100563  0.568446  0.372955  1
  O  O25  1  0.142234  0.815878  0.217434  1
  O  O26  1  0.145889  0.972043  0.408166  1
  O  O27  1  0.147811  0.236278  0.979476  1
  O  O28  1  0.156961  0.186894  0.264429  1
  O  O29  1  0.852190  0.763723  0.020523  1
  O  O30  1  0.168208  0.038577  0.056928  1
  O  O31  1  0.194172  0.780638  0.503867  1
  O  O32  1  0.305828  0.719362  0.003867  1
  O  O33  1  0.331792  0.461424  0.556928  1
  O  O34  1  0.329024  0.066840  0.667841  1
  O  O35  1  0.343039  0.313106  0.764428  1
  O  O36  1  0.354111  0.527957  0.908166  1
  O  O37  1  0.352190  0.263722  0.479477  1
  O  O38  1  0.357766  0.684121  0.717433  1
  O  O39  1  0.399437  0.931555  0.872956  1
  O  O40  1  0.426490  0.902748  0.188822  1
  O  O41  1  0.423012  0.650260  0.389377  1
  O  O42  1  0.428354  0.331761  0.091177  1
  O  O43  1  0.451730  0.069466  0.366989  1
  O  O44  1  0.548269  0.930534  0.633011  1
  O  O45  1  0.571646  0.668238  0.908823  1
  O  O46  1  0.576988  0.349740  0.610622  1
  O  O47  1  0.573511  0.097252  0.811178  1
  O  O48  1  0.600563  0.068445  0.127044  1
  O  O49  1  0.642234  0.315878  0.282566  1
  O  O50  1  0.647811  0.736278  0.520524  1
  O  O51  1  0.645889  0.472044  0.091835  1
  O  O52  1  0.843040  0.813107  0.735572  1
  O  O53  1  0.670976  0.933159  0.332160  1
  O  O54  1  0.668208  0.538577  0.443072  1
  O  O55  1  0.694171  0.280639  0.996133  1
  O  O56  1  0.805828  0.219362  0.496134  1
  O  O57  1  0.831792  0.961423  0.943071  1
  O  O58  1  0.829024  0.566840  0.832160  1
  O  O59  1  0.656961  0.686893  0.235572  1
  P  P60  1  0.396486  0.648996  0.884215  1
  P  P61  1  0.397194  0.350908  0.602628  1
  P  P62  1  0.464251  0.006970  0.747581  1
  P  P63  1  0.535749  0.993030  0.252420  1
  P  P64  1  0.602806  0.649092  0.397372  1
  P  P65  1  0.603514  0.351004  0.115786  1
  P  P66  1  0.897194  0.850908  0.897372  1
  P  P67  1  0.896487  0.148996  0.615786  1
  P  P68  1  0.035749  0.493030  0.247581  1
  P  P69  1  0.103514  0.851004  0.384214  1
  P  P70  1  0.102806  0.149092  0.102629  1
  P  P71  1  0.964251  0.506970  0.752419  1
  Fe  Fe72  1  0.754666  0.394521  0.468944  1
  Fe  Fe73  1  0.745335  0.105479  0.968944  1
  Fe  Fe74  1  0.754692  0.892646  0.540583  1
  Fe  Fe75  1  0.745308  0.607354  0.040582  1
  Fe  Fe76  1  0.254692  0.392646  0.959417  1
  Fe  Fe77  1  0.245308  0.107355  0.459417  1
  Fe  Fe78  1  0.254666  0.894521  0.031055  1
  Fe  Fe79  1  0.245334  0.605479  0.531055  1
