# generated using pymatgen
data_Li2MgCl4
_symmetry_space_group_name_H-M   'P 1'
_cell_length_a   7.43162847
_cell_length_b   7.43162845
_cell_length_c   7.41190160
_cell_angle_alpha   60.08776804
_cell_angle_beta   60.08776535
_cell_angle_gamma   60.50789610
_symmetry_Int_Tables_number   1
_chemical_formula_structural   Li2MgCl4
_chemical_formula_sum   'Li4 Mg2 Cl8'
_cell_volume   290.93854284
_cell_formula_units_Z   2
loop_
 _symmetry_equiv_pos_site_id
 _symmetry_equiv_pos_as_xyz
  1  'x, y, z'
loop_
 _atom_site_type_symbol
 _atom_site_label
 _atom_site_symmetry_multiplicity
 _atom_site_fract_x
 _atom_site_fract_y
 _atom_site_fract_z
 _atom_site_occupancy
  Cl  Cl0  1  0.253379  0.253379  0.262903  1
  Cl  Cl1  1  0.253379  0.253379  0.730339  1
  Cl  Cl2  1  0.250400  0.725218  0.262191  1
  Cl  Cl3  1  0.725218  0.250400  0.262191  1
  Cl  Cl4  1  0.274782  0.749600  0.737809  1
  Cl  Cl5  1  0.749600  0.274782  0.737809  1
  Cl  Cl6  1  0.746621  0.746621  0.269661  1
  Cl  Cl7  1  0.746621  0.746621  0.737097  1
  Li  Li8  1  0.115620  0.115620  0.134380  1
  Li  Li9  1  0.500000  0.500000  0.000000  1
  Li  Li10  1  0.500000  0.500000  0.500000  1
  Li  Li11  1  0.884380  0.884380  0.865620  1
  Mg  Mg12  1  0.000000  0.500000  0.500000  1
  Mg  Mg13  1  0.500000  0.000000  0.500000  1
