# generated using pymatgen
data_InAgSe2
_symmetry_space_group_name_H-M   'P 1'
_cell_length_a   8.01675566
_cell_length_b   10.67807970
_cell_length_c   7.04314658
_cell_angle_alpha   29.10497069
_cell_angle_beta   55.27945716
_cell_angle_gamma   41.23743664
_symmetry_Int_Tables_number   1
_chemical_formula_structural   InAgSe2
_chemical_formula_sum   'In2 Ag2 Se4'
_cell_volume   185.98519750
_cell_formula_units_Z   2
loop_
 _symmetry_equiv_pos_site_id
 _symmetry_equiv_pos_as_xyz
  1  'x, y, z'
loop_
 _atom_site_type_symbol
 _atom_site_label
 _atom_site_symmetry_multiplicity
 _atom_site_fract_x
 _atom_site_fract_y
 _atom_site_fract_z
 _atom_site_occupancy
  Ag  Ag0  1  0.250636  0.500132  0.998319  1
  Ag  Ag1  1  0.499364  0.999868  0.001681  1
  In  In2  1  0.000316  0.000008  0.999431  1
  In  In3  1  0.749684  0.499992  0.000569  1
  Se  Se4  1  0.241376  0.000070  0.517145  1
  Se  Se5  1  0.990866  0.499872  0.518737  1
  Se  Se6  1  0.759134  0.000128  0.481263  1
  Se  Se7  1  0.508624  0.499930  0.482855  1
