# generated using pymatgen
data_CeThO4
_symmetry_space_group_name_H-M   'P 1'
_cell_length_a   3.92289319
_cell_length_b   7.84379111
_cell_length_c   6.79221790
_cell_angle_alpha   30.01123965
_cell_angle_beta   54.72110012
_cell_angle_gamma   59.99158498
_symmetry_Int_Tables_number   1
_chemical_formula_structural   CeThO4
_chemical_formula_sum   'Ce1 Th1 O4'
_cell_volume   85.33716760
_cell_formula_units_Z   1
loop_
 _symmetry_equiv_pos_site_id
 _symmetry_equiv_pos_as_xyz
  1  'x, y, z'
loop_
 _atom_site_type_symbol
 _atom_site_label
 _atom_site_symmetry_multiplicity
 _atom_site_fract_x
 _atom_site_fract_y
 _atom_site_fract_z
 _atom_site_occupancy
  Ce  Ce0  1  0.000000  0.500000  0.000000  1
  O  O1  1  0.246091  0.000000  0.253909  1
  O  O2  1  0.253905  0.499996  0.246099  1
  O  O3  1  0.753909  1.000000  0.746091  1
  O  O4  1  0.746095  0.500004  0.753901  1
  Th  Th5  1  0.000000  0.000000  0.000000  1
