# generated using pymatgen
data_Cd(InSe2)2
_symmetry_space_group_name_H-M   'P 1'
_cell_length_a   8.15203505
_cell_length_b   10.67731774
_cell_length_c   6.89561105
_cell_angle_alpha   29.37013566
_cell_angle_beta   53.76466571
_cell_angle_gamma   40.22708167
_symmetry_Int_Tables_number   1
_chemical_formula_structural   Cd(InSe2)2
_chemical_formula_sum   'Cd1 In2 Se4'
_cell_volume   184.81229682
_cell_formula_units_Z   1
loop_
 _symmetry_equiv_pos_site_id
 _symmetry_equiv_pos_as_xyz
  1  'x, y, z'
loop_
 _atom_site_type_symbol
 _atom_site_label
 _atom_site_symmetry_multiplicity
 _atom_site_fract_x
 _atom_site_fract_y
 _atom_site_fract_z
 _atom_site_occupancy
  Cd  Cd0  1  0.250000  0.500000  0.000000  1
  In  In1  1  0.750000  0.500000  0.000000  1
  In  In2  1  0.500000  0.000000  0.000000  1
  Se  Se3  1  0.260492  1.000000  0.479016  1
  Se  Se4  1  0.509319  0.500000  0.481362  1
  Se  Se5  1  0.990681  0.500000  0.518638  1
  Se  Se6  1  0.739508  0.000000  0.520984  1
