# generated using pymatgen
data_Cs2TiS3
_symmetry_space_group_name_H-M   'P 1'
_cell_length_a   6.58854695
_cell_length_b   7.86388154
_cell_length_c   7.86388154
_cell_angle_alpha   108.85475562
_cell_angle_beta   90.00000000
_cell_angle_gamma   90.00000000
_symmetry_Int_Tables_number   1
_chemical_formula_structural   Cs2TiS3
_chemical_formula_sum   'Cs4 Ti2 S6'
_cell_volume   385.57703367
_cell_formula_units_Z   2
loop_
 _symmetry_equiv_pos_site_id
 _symmetry_equiv_pos_as_xyz
  1  'x, y, z'
loop_
 _atom_site_type_symbol
 _atom_site_label
 _atom_site_symmetry_multiplicity
 _atom_site_fract_x
 _atom_site_fract_y
 _atom_site_fract_z
 _atom_site_occupancy
  S  S0  1  0.505890  0.373195  0.626135  1
  S  S1  1  0.005890  0.626805  0.373865  1
  S  S2  1  0.757029  0.176893  0.176893  1
  S  S3  1  0.257029  0.823107  0.823107  1
  S  S4  1  0.005890  0.373865  0.626805  1
  S  S5  1  0.505890  0.626135  0.373195  1
  Ti  Ti6  1  0.756151  0.421798  0.421798  1
  Ti  Ti7  1  0.256151  0.578202  0.578202  1
  Cs  Cs8  1  0.256020  0.005418  0.317859  1
  Cs  Cs9  1  0.756020  0.994582  0.682141  1
  Cs  Cs10  1  0.756020  0.682141  0.994582  1
  Cs  Cs11  1  0.256020  0.317859  0.005418  1
