# generated using pymatgen
data_Rb4P21I
_symmetry_space_group_name_H-M   'P 1'
_cell_length_a   9.94946580
_cell_length_b   13.07609425
_cell_length_c   13.07609425
_cell_angle_alpha   115.42298256
_cell_angle_beta   90.00000000
_cell_angle_gamma   90.00000000
_symmetry_Int_Tables_number   1
_chemical_formula_structural   Rb4P21I
_chemical_formula_sum   'Rb8 P42 I2'
_cell_volume   1536.46285350
_cell_formula_units_Z   2
loop_
 _symmetry_equiv_pos_site_id
 _symmetry_equiv_pos_as_xyz
  1  'x, y, z'
loop_
 _atom_site_type_symbol
 _atom_site_label
 _atom_site_symmetry_multiplicity
 _atom_site_fract_x
 _atom_site_fract_y
 _atom_site_fract_z
 _atom_site_occupancy
  P  P0  1  0.750000  0.049586  0.049586  1
  P  P1  1  0.250000  0.950414  0.950414  1
  P  P2  1  0.750000  0.340014  0.799459  1
  P  P3  1  0.250000  0.659986  0.200541  1
  P  P4  1  0.750000  0.799459  0.340014  1
  P  P5  1  0.250000  0.200541  0.659986  1
  P  P6  1  0.076999  0.684652  0.986285  1
  P  P7  1  0.576999  0.315348  0.013715  1
  P  P8  1  0.423001  0.986285  0.684652  1
  P  P9  1  0.923001  0.013715  0.315348  1
  P  P10  1  0.085049  0.942584  0.499599  1
  P  P11  1  0.585049  0.057416  0.500401  1
  P  P12  1  0.414951  0.499599  0.942584  1
  P  P13  1  0.914951  0.500401  0.057416  1
  P  P14  1  0.914951  0.057416  0.500401  1
  P  P15  1  0.414951  0.942584  0.499599  1
  P  P16  1  0.585049  0.500401  0.057416  1
  P  P17  1  0.085049  0.499599  0.942584  1
  P  P18  1  0.087903  0.848799  0.848799  1
  P  P19  1  0.587903  0.151201  0.151201  1
  P  P20  1  0.412097  0.848799  0.848799  1
  P  P21  1  0.912097  0.151201  0.151201  1
  P  P22  1  0.250000  0.057152  0.496168  1
  P  P23  1  0.750000  0.942848  0.503832  1
  P  P24  1  0.250000  0.496168  0.057152  1
  P  P25  1  0.750000  0.503832  0.942848  1
  P  P26  1  0.250000  0.107093  0.760722  1
  P  P27  1  0.750000  0.892907  0.239278  1
  P  P28  1  0.250000  0.760722  0.107093  1
  P  P29  1  0.750000  0.239278  0.892907  1
  P  P30  1  0.135936  0.818312  0.670346  1
  P  P31  1  0.635936  0.181688  0.329654  1
  P  P32  1  0.364064  0.670346  0.818312  1
  P  P33  1  0.864064  0.329654  0.181688  1
  P  P34  1  0.864064  0.181688  0.329654  1
  P  P35  1  0.364064  0.818312  0.670346  1
  P  P36  1  0.635936  0.329654  0.181688  1
  P  P37  1  0.135936  0.670346  0.818312  1
  P  P38  1  0.076999  0.986285  0.684652  1
  P  P39  1  0.576999  0.013715  0.315348  1
  P  P40  1  0.423001  0.684652  0.986285  1
  P  P41  1  0.923001  0.315348  0.013715  1
  Rb  Rb42  1  0.750000  0.759736  0.935364  1
  Rb  Rb43  1  0.250000  0.240264  0.064636  1
  Rb  Rb44  1  0.750000  0.935364  0.759736  1
  Rb  Rb45  1  0.250000  0.064636  0.240264  1
  Rb  Rb46  1  0.500000  0.619827  0.380173  1
  Rb  Rb47  1  0.000000  0.380173  0.619827  1
  Rb  Rb48  1  0.500000  0.380173  0.619827  1
  Rb  Rb49  1  0.000000  0.619827  0.380173  1
  I  I50  1  0.750000  0.602027  0.602027  1
  I  I51  1  0.250000  0.397973  0.397973  1
