# generated using pymatgen
data_DyAl4Ni
_symmetry_space_group_name_H-M   'P 1'
_cell_length_a   4.05864456
_cell_length_b   6.61447843
_cell_length_c   7.97072421
_cell_angle_alpha   90.00000000
_cell_angle_beta   104.74970539
_cell_angle_gamma   90.00000000
_symmetry_Int_Tables_number   1
_chemical_formula_structural   DyAl4Ni
_chemical_formula_sum   'Dy2 Al8 Ni2'
_cell_volume   206.92935306
_cell_formula_units_Z   2
loop_
 _symmetry_equiv_pos_site_id
 _symmetry_equiv_pos_as_xyz
  1  'x, y, z'
loop_
 _atom_site_type_symbol
 _atom_site_label
 _atom_site_symmetry_multiplicity
 _atom_site_fract_x
 _atom_site_fract_y
 _atom_site_fract_z
 _atom_site_occupancy
  Al  Al0  1  0.500000  0.000000  0.000000  1
  Al  Al1  1  0.500000  0.500000  0.000000  1
  Al  Al2  1  0.076251  0.250000  0.152503  1
  Al  Al3  1  0.923749  0.750000  0.847497  1
  Al  Al4  1  0.688524  0.052735  0.377048  1
  Al  Al5  1  0.311476  0.947265  0.622952  1
  Al  Al6  1  0.311476  0.552735  0.622952  1
  Al  Al7  1  0.688524  0.447265  0.377048  1
  Ni  Ni8  1  0.226432  0.250000  0.452864  1
  Ni  Ni9  1  0.773568  0.750000  0.547136  1
  Dy  Dy10  1  0.882591  0.250000  0.765181  1
  Dy  Dy11  1  0.117409  0.750000  0.234819  1
