# generated using pymatgen
data_Ac2S3
_symmetry_space_group_name_H-M   'P 1'
_cell_length_a   23.53665862
_cell_length_b   9.07674538
_cell_length_c   9.07674557
_cell_angle_alpha   89.99999801
_cell_angle_beta   54.65739297
_cell_angle_gamma   54.65739212
_symmetry_Int_Tables_number   1
_chemical_formula_structural   Ac2S3
_chemical_formula_sum   'Ac16 S24'
_cell_volume   1115.21928234
_cell_formula_units_Z   8
loop_
 _symmetry_equiv_pos_site_id
 _symmetry_equiv_pos_as_xyz
  1  'x, y, z'
loop_
 _atom_site_type_symbol
 _atom_site_label
 _atom_site_symmetry_multiplicity
 _atom_site_fract_x
 _atom_site_fract_y
 _atom_site_fract_z
 _atom_site_occupancy
  Ac  Ac0  1  0.993253  0.403199  0.250626  1
  Ac  Ac1  1  0.087849  0.618226  0.368226  1
  Ac  Ac2  1  0.166667  0.250000  0.629300  1
  Ac  Ac3  1  0.340080  0.382958  0.249374  1
  Ac  Ac4  1  0.245484  0.881774  0.131774  1
  Ac  Ac5  1  0.340080  0.096801  0.730386  1
  Ac  Ac6  1  0.166667  0.750000  0.870700  1
  Ac  Ac7  1  0.493253  0.269614  0.617042  1
  Ac  Ac8  1  0.587849  0.868226  0.118226  1
  Ac  Ac9  1  0.666667  0.370700  0.250000  1
  Ac  Ac10  1  0.493253  0.750626  0.903199  1
  Ac  Ac11  1  0.666667  0.129300  0.750000  1
  Ac  Ac12  1  0.745484  0.631774  0.381774  1
  Ac  Ac13  1  0.840080  0.230386  0.596801  1
  Ac  Ac14  1  0.840080  0.749374  0.882958  1
  Ac  Ac15  1  0.993253  0.117042  0.769614  1
  S  S16  1  0.050603  0.997631  0.353346  1
  S  S17  1  0.128063  0.484713  0.990635  1
  S  S18  1  0.050603  0.350560  0.494846  1
  S  S19  1  0.282730  0.149440  0.146654  1
  S  S20  1  0.282730  0.502369  0.005154  1
  S  S21  1  0.128063  0.631097  0.625175  1
  S  S22  1  0.383075  0.010971  0.343570  1
  S  S23  1  0.205270  0.868903  0.509365  1
  S  S24  1  0.450259  0.492793  0.989029  1
  S  S25  1  0.383075  0.339807  0.507207  1
  S  S26  1  0.205270  0.015287  0.874825  1
  S  S27  1  0.628063  0.125175  0.131097  1
  S  S28  1  0.628063  0.490635  0.984713  1
  S  S29  1  0.450259  0.656430  0.660193  1
  S  S30  1  0.705270  0.009365  0.368903  1
  S  S31  1  0.550603  0.853346  0.497631  1
  S  S32  1  0.782730  0.505154  0.002369  1
  S  S33  1  0.705270  0.374825  0.515287  1
  S  S34  1  0.550603  0.994846  0.850560  1
  S  S35  1  0.950259  0.160193  0.156430  1
  S  S36  1  0.950259  0.489029  0.992793  1
  S  S37  1  0.782730  0.646654  0.649440  1
  S  S38  1  0.883075  0.843570  0.510971  1
  S  S39  1  0.883075  0.007207  0.839807  1
