# generated using pymatgen
data_Na3UO4
_symmetry_space_group_name_H-M   'P 1'
_cell_length_a   6.78243980
_cell_length_b   6.78243901
_cell_length_c   6.99866654
_cell_angle_alpha   58.93968265
_cell_angle_beta   58.93968585
_cell_angle_gamma   60.60349503
_symmetry_Int_Tables_number   1
_chemical_formula_structural   Na3UO4
_chemical_formula_sum   'Na6 U2 O8'
_cell_volume   224.90403452
_cell_formula_units_Z   2
loop_
 _symmetry_equiv_pos_site_id
 _symmetry_equiv_pos_as_xyz
  1  'x, y, z'
loop_
 _atom_site_type_symbol
 _atom_site_label
 _atom_site_symmetry_multiplicity
 _atom_site_fract_x
 _atom_site_fract_y
 _atom_site_fract_z
 _atom_site_occupancy
  Na  Na0  1  0.000000  0.500000  0.000000  1
  Na  Na1  1  0.500000  0.000000  0.000000  1
  Na  Na2  1  0.500000  0.500000  0.000000  1
  Na  Na3  1  0.500000  0.000000  0.500000  1
  Na  Na4  1  0.500000  0.500000  0.500000  1
  Na  Na5  1  0.000000  0.500000  0.500000  1
  O  O6  1  0.216007  0.216007  0.283639  1
  O  O7  1  0.213157  0.786660  0.250091  1
  O  O8  1  0.216007  0.216007  0.784347  1
  O  O9  1  0.213340  0.786843  0.749909  1
  O  O10  1  0.786660  0.213157  0.250091  1
  O  O11  1  0.783993  0.783993  0.215653  1
  O  O12  1  0.786843  0.213340  0.749909  1
  O  O13  1  0.783993  0.783993  0.716361  1
  U  U14  1  0.000000  0.000000  0.000000  1
  U  U15  1  0.000000  0.000000  0.500000  1
