# generated using pymatgen
data_Bi3SbO7
_symmetry_space_group_name_H-M   'P 1'
_cell_length_a   6.69533367
_cell_length_b   7.03391445
_cell_length_c   7.70499889
_cell_angle_alpha   73.74948517
_cell_angle_beta   89.51127983
_cell_angle_gamma   76.86935368
_symmetry_Int_Tables_number   1
_chemical_formula_structural   Bi3SbO7
_chemical_formula_sum   'Bi6 Sb2 O14'
_cell_volume   338.66845617
_cell_formula_units_Z   2
loop_
 _symmetry_equiv_pos_site_id
 _symmetry_equiv_pos_as_xyz
  1  'x, y, z'
loop_
 _atom_site_type_symbol
 _atom_site_label
 _atom_site_symmetry_multiplicity
 _atom_site_fract_x
 _atom_site_fract_y
 _atom_site_fract_z
 _atom_site_occupancy
  O  O0  1  0.535972  0.627795  0.820879  1
  O  O1  1  0.464028  0.372205  0.179121  1
  O  O2  1  0.723905  0.944484  0.053789  1
  O  O3  1  0.276095  0.055516  0.946211  1
  O  O4  1  0.723621  0.941732  0.479833  1
  O  O5  1  0.276379  0.058268  0.520167  1
  O  O6  1  0.466556  0.343204  0.641779  1
  O  O7  1  0.533444  0.656796  0.358221  1
  O  O8  1  0.110382  0.698631  0.038575  1
  O  O9  1  0.889618  0.301369  0.961425  1
  O  O10  1  0.892627  0.301563  0.385042  1
  O  O11  1  0.107373  0.698437  0.614958  1
  O  O12  1  0.095219  0.927772  0.268485  1
  O  O13  1  0.904781  0.072228  0.731515  1
  Sb  Sb14  1  0.000000  0.000000  0.500000  1
  Sb  Sb15  1  0.000000  0.000000  0.000000  1
  Bi  Bi16  1  0.483160  0.007795  0.255379  1
  Bi  Bi17  1  0.516840  0.992205  0.744621  1
  Bi  Bi18  1  0.733146  0.508000  0.123114  1
  Bi  Bi19  1  0.266854  0.492000  0.876886  1
  Bi  Bi20  1  0.258445  0.540523  0.367263  1
  Bi  Bi21  1  0.741555  0.459477  0.632737  1
