# generated using pymatgen
data_S3(NO)2
_symmetry_space_group_name_H-M   'P 1'
_cell_length_a   4.83178033
_cell_length_b   7.34236684
_cell_length_c   8.84892817
_cell_angle_alpha   95.99932227
_cell_angle_beta   105.84375622
_cell_angle_gamma   89.99999996
_symmetry_Int_Tables_number   1
_chemical_formula_structural   S3(NO)2
_chemical_formula_sum   'S6 N4 O4'
_cell_volume   300.21684850
_cell_formula_units_Z   2
loop_
 _symmetry_equiv_pos_site_id
 _symmetry_equiv_pos_as_xyz
  1  'x, y, z'
loop_
 _atom_site_type_symbol
 _atom_site_label
 _atom_site_symmetry_multiplicity
 _atom_site_fract_x
 _atom_site_fract_y
 _atom_site_fract_z
 _atom_site_occupancy
  N  N0  1  0.787723  0.794963  0.862584  1
  N  N1  1  0.074861  0.294963  0.862584  1
  N  N2  1  0.212277  0.205037  0.137416  1
  N  N3  1  0.925139  0.705037  0.137416  1
  O  O4  1  0.666462  0.623043  0.343854  1
  O  O5  1  0.677391  0.123043  0.343854  1
  O  O6  1  0.322609  0.876957  0.656146  1
  O  O7  1  0.333538  0.376957  0.656146  1
  S  S8  1  0.362854  0.145817  0.302300  1
  S  S9  1  0.060554  0.354183  0.697700  1
  S  S10  1  0.637146  0.854183  0.697700  1
  S  S11  1  0.939446  0.645817  0.302300  1
  S  S12  1  0.363992  0.250000  0.000000  1
  S  S13  1  0.636008  0.750000  0.000000  1
