# generated using pymatgen
data_Pb3Au
_symmetry_space_group_name_H-M   'P 1'
_cell_length_a   6.07949821
_cell_length_b   9.16282894
_cell_length_c   9.16282894
_cell_angle_alpha   83.73284147
_cell_angle_beta   70.57571520
_cell_angle_gamma   70.57571523
_symmetry_Int_Tables_number   1
_chemical_formula_structural   Pb3Au
_chemical_formula_sum   'Pb12 Au4'
_cell_volume   453.96779526
_cell_formula_units_Z   4
loop_
 _symmetry_equiv_pos_site_id
 _symmetry_equiv_pos_as_xyz
  1  'x, y, z'
loop_
 _atom_site_type_symbol
 _atom_site_label
 _atom_site_symmetry_multiplicity
 _atom_site_fract_x
 _atom_site_fract_y
 _atom_site_fract_z
 _atom_site_occupancy
  Au  Au0  1  0.793872  0.705694  0.705986  1
  Au  Au1  1  0.500000  0.705943  0.294057  1
  Au  Au2  1  0.500000  0.294174  0.705826  1
  Au  Au3  1  0.206128  0.294014  0.294306  1
  Pb  Pb4  1  0.358763  0.640753  0.640789  1
  Pb  Pb5  1  0.000000  0.640673  0.359327  1
  Pb  Pb6  1  0.000000  0.358926  0.641074  1
  Pb  Pb7  1  0.641237  0.359211  0.359247  1
  Pb  Pb8  1  0.851497  0.000526  0.808071  1
  Pb  Pb9  1  0.338299  0.808165  0.999778  1
  Pb  Pb10  1  0.148503  0.191929  0.999474  1
  Pb  Pb11  1  0.661701  0.000222  0.191835  1
  Pb  Pb12  1  0.463889  0.999264  0.598948  1
  Pb  Pb13  1  0.936672  0.599489  0.000035  1
  Pb  Pb14  1  0.536111  0.401052  0.000736  1
  Pb  Pb15  1  0.063328  0.999965  0.400511  1
