# generated using pymatgen
data_Na3ZrF7
_symmetry_space_group_name_H-M   'P 1'
_cell_length_a   5.49777027
_cell_length_b   5.49777027
_cell_length_c   6.33845064
_cell_angle_alpha   113.55259819
_cell_angle_beta   113.55259819
_cell_angle_gamma   89.80526790
_symmetry_Int_Tables_number   1
_chemical_formula_structural   Na3ZrF7
_chemical_formula_sum   'Na3 Zr1 F7'
_cell_volume   158.18377392
_cell_formula_units_Z   1
loop_
 _symmetry_equiv_pos_site_id
 _symmetry_equiv_pos_as_xyz
  1  'x, y, z'
loop_
 _atom_site_type_symbol
 _atom_site_label
 _atom_site_symmetry_multiplicity
 _atom_site_fract_x
 _atom_site_fract_y
 _atom_site_fract_z
 _atom_site_occupancy
  F  F0  1  0.156049  0.156049  0.855372  1
  F  F1  1  0.100992  0.642380  0.759532  1
  F  F2  1  0.330173  0.963999  0.242205  1
  F  F3  1  0.642380  0.100992  0.759532  1
  F  F4  1  0.623622  0.623622  0.717021  1
  F  F5  1  0.963999  0.330173  0.242205  1
  F  F6  1  0.851332  0.851332  0.219317  1
  Na  Na7  1  0.239368  0.773410  0.508713  1
  Na  Na8  1  0.492192  0.492192  0.967131  1
  Na  Na9  1  0.773410  0.239368  0.508713  1
  Zr  Zr10  1  0.951484  0.951484  0.970257  1
