# generated using pymatgen
data_Ba(GeRu)2
_symmetry_space_group_name_H-M   'P 1'
_cell_length_a   6.23273283
_cell_length_b   6.23273283
_cell_length_c   7.18730709
_cell_angle_alpha   103.51452480
_cell_angle_beta   103.51452479
_cell_angle_gamma   117.45385796
_symmetry_Int_Tables_number   1
_chemical_formula_structural   Ba(GeRu)2
_chemical_formula_sum   'Ba2 Ge4 Ru4'
_cell_volume   221.23679405
_cell_formula_units_Z   2
loop_
 _symmetry_equiv_pos_site_id
 _symmetry_equiv_pos_as_xyz
  1  'x, y, z'
loop_
 _atom_site_type_symbol
 _atom_site_label
 _atom_site_symmetry_multiplicity
 _atom_site_fract_x
 _atom_site_fract_y
 _atom_site_fract_z
 _atom_site_occupancy
  Ge  Ge0  1  0.198158  0.801842  0.250000  1
  Ge  Ge1  1  0.551842  0.448158  0.250000  1
  Ge  Ge2  1  0.801842  0.198158  0.750000  1
  Ge  Ge3  1  0.448158  0.551842  0.750000  1
  Ru  Ru4  1  0.252047  0.502047  0.004095  1
  Ru  Ru5  1  0.497953  0.747953  0.495905  1
  Ru  Ru6  1  0.502047  0.252047  0.504095  1
  Ru  Ru7  1  0.747953  0.497953  0.995905  1
  Ba  Ba8  1  0.875000  0.125000  0.250000  1
  Ba  Ba9  1  0.125000  0.875000  0.750000  1
