# generated using pymatgen
data_Ca(SmS2)2
_symmetry_space_group_name_H-M   'P 1'
_cell_length_a   7.36281079
_cell_length_b   7.36281107
_cell_length_c   7.36281162
_cell_angle_alpha   109.59167382
_cell_angle_beta   109.59167390
_cell_angle_gamma   109.23058472
_symmetry_Int_Tables_number   1
_chemical_formula_structural   Ca(SmS2)2
_chemical_formula_sum   'Ca2 Sm4 S8'
_cell_volume   307.25809749
_cell_formula_units_Z   2
loop_
 _symmetry_equiv_pos_site_id
 _symmetry_equiv_pos_as_xyz
  1  'x, y, z'
loop_
 _atom_site_type_symbol
 _atom_site_label
 _atom_site_symmetry_multiplicity
 _atom_site_fract_x
 _atom_site_fract_y
 _atom_site_fract_z
 _atom_site_occupancy
  Ca  Ca0  1  0.625000  0.375000  0.250000  1
  Ca  Ca1  1  0.875000  0.125000  0.750000  1
  S  S2  1  0.004558  0.858502  0.501417  1
  S  S3  1  0.003141  0.357085  0.498583  1
  S  S4  1  0.495442  0.996859  0.853944  1
  S  S5  1  0.141498  0.142915  0.146056  1
  S  S6  1  0.358502  0.504558  0.001417  1
  S  S7  1  0.642915  0.641498  0.646056  1
  S  S8  1  0.496859  0.995442  0.353944  1
  S  S9  1  0.857085  0.503141  0.998583  1
  Sm  Sm10  1  0.121624  0.750000  0.871624  1
  Sm  Sm11  1  0.250000  0.621624  0.371624  1
  Sm  Sm12  1  0.378376  0.250000  0.628376  1
  Sm  Sm13  1  0.750000  0.878376  0.128376  1
