# generated using pymatgen
data_W2CCl8
_symmetry_space_group_name_H-M   'P 1'
_cell_length_a   12.26985142
_cell_length_b   13.40849019
_cell_length_c   17.02186629
_cell_angle_alpha   90.00000000
_cell_angle_beta   90.00000000
_cell_angle_gamma   90.00000000
_symmetry_Int_Tables_number   1
_chemical_formula_structural   W2CCl8
_chemical_formula_sum   'W16 C8 Cl64'
_cell_volume   2800.44054678
_cell_formula_units_Z   8
loop_
 _symmetry_equiv_pos_site_id
 _symmetry_equiv_pos_as_xyz
  1  'x, y, z'
loop_
 _atom_site_type_symbol
 _atom_site_label
 _atom_site_symmetry_multiplicity
 _atom_site_fract_x
 _atom_site_fract_y
 _atom_site_fract_z
 _atom_site_occupancy
  C  C0  1  0.051871  0.758744  0.083280  1
  C  C1  1  0.551871  0.741256  0.916720  1
  C  C2  1  0.948129  0.258744  0.416720  1
  C  C3  1  0.448129  0.241256  0.583280  1
  C  C4  1  0.948129  0.241256  0.916720  1
  C  C5  1  0.448129  0.258744  0.083280  1
  C  C6  1  0.051871  0.741256  0.583280  1
  C  C7  1  0.551871  0.758744  0.416720  1
  Cl  Cl8  1  0.737580  0.647232  0.199549  1
  Cl  Cl9  1  0.237580  0.852768  0.800451  1
  Cl  Cl10  1  0.262420  0.147232  0.300451  1
  Cl  Cl11  1  0.762420  0.352768  0.699549  1
  Cl  Cl12  1  0.262420  0.352768  0.800451  1
  Cl  Cl13  1  0.762420  0.147232  0.199549  1
  Cl  Cl14  1  0.737580  0.852768  0.699549  1
  Cl  Cl15  1  0.237580  0.647232  0.300451  1
  Cl  Cl16  1  0.981558  0.762957  0.271790  1
  Cl  Cl17  1  0.481558  0.737043  0.728210  1
  Cl  Cl18  1  0.018442  0.262957  0.228210  1
  Cl  Cl19  1  0.518442  0.237043  0.771790  1
  Cl  Cl20  1  0.018442  0.237043  0.728210  1
  Cl  Cl21  1  0.518442  0.262957  0.271790  1
  Cl  Cl22  1  0.981558  0.737043  0.771790  1
  Cl  Cl23  1  0.481558  0.762957  0.228210  1
  Cl  Cl24  1  0.016267  0.558908  0.196540  1
  Cl  Cl25  1  0.516267  0.941092  0.803460  1
  Cl  Cl26  1  0.983733  0.058908  0.303460  1
  Cl  Cl27  1  0.483733  0.441092  0.696540  1
  Cl  Cl28  1  0.983733  0.441092  0.803460  1
  Cl  Cl29  1  0.483733  0.058908  0.196540  1
  Cl  Cl30  1  0.016267  0.941092  0.696540  1
  Cl  Cl31  1  0.516267  0.558908  0.303460  1
  Cl  Cl32  1  0.209150  0.862697  0.193513  1
  Cl  Cl33  1  0.709150  0.637303  0.806487  1
  Cl  Cl34  1  0.790850  0.362697  0.306487  1
  Cl  Cl35  1  0.290850  0.137303  0.693513  1
  Cl  Cl36  1  0.790850  0.137303  0.806487  1
  Cl  Cl37  1  0.290850  0.362697  0.193513  1
  Cl  Cl38  1  0.209150  0.637303  0.693513  1
  Cl  Cl39  1  0.709150  0.862697  0.306487  1
  Cl  Cl40  1  0.250164  0.626918  0.103228  1
  Cl  Cl41  1  0.750164  0.873082  0.896772  1
  Cl  Cl42  1  0.749836  0.126918  0.396772  1
  Cl  Cl43  1  0.249836  0.373082  0.603228  1
  Cl  Cl44  1  0.749836  0.373082  0.896772  1
  Cl  Cl45  1  0.249836  0.126918  0.103228  1
  Cl  Cl46  1  0.250164  0.873082  0.603228  1
  Cl  Cl47  1  0.750164  0.626918  0.396772  1
  Cl  Cl48  1  0.836513  0.855264  0.116734  1
  Cl  Cl49  1  0.336513  0.644736  0.883266  1
  Cl  Cl50  1  0.163487  0.355264  0.383266  1
  Cl  Cl51  1  0.663487  0.144736  0.616734  1
  Cl  Cl52  1  0.163487  0.144736  0.883266  1
  Cl  Cl53  1  0.663487  0.355264  0.116734  1
  Cl  Cl54  1  0.836513  0.644736  0.616734  1
  Cl  Cl55  1  0.336513  0.855264  0.383266  1
  Cl  Cl56  1  0.873402  0.613846  0.034338  1
  Cl  Cl57  1  0.373402  0.886154  0.965662  1
  Cl  Cl58  1  0.126598  0.113846  0.465662  1
  Cl  Cl59  1  0.626598  0.386154  0.534338  1
  Cl  Cl60  1  0.126598  0.386154  0.965662  1
  Cl  Cl61  1  0.626598  0.113846  0.034338  1
  Cl  Cl62  1  0.873402  0.886154  0.534338  1
  Cl  Cl63  1  0.373402  0.613846  0.465662  1
  Cl  Cl64  1  0.080756  0.815083  0.998732  1
  Cl  Cl65  1  0.580756  0.684917  0.001268  1
  Cl  Cl66  1  0.919244  0.315083  0.501268  1
  Cl  Cl67  1  0.419244  0.184917  0.498732  1
  Cl  Cl68  1  0.919244  0.184917  0.001268  1
  Cl  Cl69  1  0.419244  0.315083  0.998732  1
  Cl  Cl70  1  0.080756  0.684917  0.498732  1
  Cl  Cl71  1  0.580756  0.815083  0.501268  1
  W  W72  1  0.127629  0.711276  0.178669  1
  W  W73  1  0.627629  0.788724  0.821331  1
  W  W74  1  0.872371  0.211276  0.321331  1
  W  W75  1  0.372371  0.288724  0.678669  1
  W  W76  1  0.872371  0.288724  0.821331  1
  W  W77  1  0.372371  0.211276  0.178669  1
  W  W78  1  0.127629  0.788724  0.678669  1
  W  W79  1  0.627629  0.711276  0.321331  1
  W  W80  1  0.922995  0.707968  0.140003  1
  W  W81  1  0.422995  0.792032  0.859997  1
  W  W82  1  0.077005  0.207968  0.359997  1
  W  W83  1  0.577005  0.292032  0.640003  1
  W  W84  1  0.077005  0.292032  0.859997  1
  W  W85  1  0.577005  0.207968  0.140003  1
  W  W86  1  0.922995  0.792032  0.640003  1
  W  W87  1  0.422995  0.707968  0.359997  1
