# generated using pymatgen
data_Na4CoO4
_symmetry_space_group_name_H-M   'P 1'
_cell_length_a   5.73259015
_cell_length_b   5.75253706
_cell_length_c   8.70929464
_cell_angle_alpha   71.50389845
_cell_angle_beta   80.95966801
_cell_angle_gamma   68.35264234
_symmetry_Int_Tables_number   1
_chemical_formula_structural   Na4CoO4
_chemical_formula_sum   'Na8 Co2 O8'
_cell_volume   252.89842120
_cell_formula_units_Z   2
loop_
 _symmetry_equiv_pos_site_id
 _symmetry_equiv_pos_as_xyz
  1  'x, y, z'
loop_
 _atom_site_type_symbol
 _atom_site_label
 _atom_site_symmetry_multiplicity
 _atom_site_fract_x
 _atom_site_fract_y
 _atom_site_fract_z
 _atom_site_occupancy
  O  O0  1  0.749069  0.133289  0.129738  1
  O  O1  1  0.696300  0.548121  0.365769  1
  O  O2  1  0.246472  0.006253  0.388541  1
  O  O3  1  0.249765  0.476913  0.551605  1
  O  O4  1  0.576411  0.685799  0.674669  1
  O  O5  1  0.194905  0.205264  0.942927  1
  O  O6  1  0.867285  0.996664  0.820722  1
  O  O7  1  0.198700  0.675489  0.106156  1
  Na  Na8  1  0.964995  0.789405  0.349584  1
  Na  Na9  1  0.470494  0.437947  0.927114  1
  Na  Na10  1  0.453794  0.320970  0.317558  1
  Na  Na11  1  0.469753  0.078134  0.732986  1
  Na  Na12  1  0.975917  0.242493  0.568153  1
  Na  Na13  1  0.479660  0.892810  0.145522  1
  Na  Na14  1  0.989786  0.362112  0.176963  1
  Na  Na15  1  0.975781  0.604783  0.761334  1
  Co  Co16  1  0.002431  0.997589  0.992995  1
  Co  Co17  1  0.442583  0.684266  0.502062  1
