# generated using pymatgen
data_DyBr2
_symmetry_space_group_name_H-M   'P 1'
_cell_length_a   6.72564971
_cell_length_b   7.57487546
_cell_length_c   13.13237521
_cell_angle_alpha   90.00000000
_cell_angle_beta   90.00000000
_cell_angle_gamma   90.00000000
_symmetry_Int_Tables_number   1
_chemical_formula_structural   DyBr2
_chemical_formula_sum   'Dy8 Br16'
_cell_volume   669.04144824
_cell_formula_units_Z   8
loop_
 _symmetry_equiv_pos_site_id
 _symmetry_equiv_pos_as_xyz
  1  'x, y, z'
loop_
 _atom_site_type_symbol
 _atom_site_label
 _atom_site_symmetry_multiplicity
 _atom_site_fract_x
 _atom_site_fract_y
 _atom_site_fract_z
 _atom_site_occupancy
  Br  Br0  1  0.816651  0.880505  0.707947  1
  Br  Br1  1  0.316651  0.119495  0.792053  1
  Br  Br2  1  0.683349  0.380505  0.292053  1
  Br  Br3  1  0.183349  0.619495  0.207947  1
  Br  Br4  1  0.183349  0.119495  0.292053  1
  Br  Br5  1  0.683349  0.880505  0.207947  1
  Br  Br6  1  0.316651  0.619495  0.707947  1
  Br  Br7  1  0.816651  0.380505  0.792053  1
  Br  Br8  1  0.019609  0.793006  0.954950  1
  Br  Br9  1  0.519609  0.206994  0.545050  1
  Br  Br10  1  0.480391  0.293006  0.045050  1
  Br  Br11  1  0.980391  0.706994  0.454950  1
  Br  Br12  1  0.980391  0.206994  0.045050  1
  Br  Br13  1  0.480391  0.793006  0.454950  1
  Br  Br14  1  0.519609  0.706994  0.954950  1
  Br  Br15  1  0.019609  0.293006  0.545050  1
  Dy  Dy16  1  0.679700  0.549435  0.595455  1
  Dy  Dy17  1  0.179700  0.450565  0.904545  1
  Dy  Dy18  1  0.820300  0.049435  0.404545  1
  Dy  Dy19  1  0.320300  0.950565  0.095455  1
  Dy  Dy20  1  0.320300  0.450565  0.404545  1
  Dy  Dy21  1  0.820300  0.549435  0.095455  1
  Dy  Dy22  1  0.179700  0.950565  0.595455  1
  Dy  Dy23  1  0.679700  0.049435  0.904545  1
