# generated using pymatgen
data_TaHO3
_symmetry_space_group_name_H-M   'P 1'
_cell_length_a   7.50101586
_cell_length_b   7.50101494
_cell_length_c   7.75523470
_cell_angle_alpha   58.87240402
_cell_angle_beta   58.87240411
_cell_angle_gamma   62.25519378
_symmetry_Int_Tables_number   1
_chemical_formula_structural   TaHO3
_chemical_formula_sum   'Ta4 H4 O12'
_cell_volume   307.81219832
_cell_formula_units_Z   4
loop_
 _symmetry_equiv_pos_site_id
 _symmetry_equiv_pos_as_xyz
  1  'x, y, z'
loop_
 _atom_site_type_symbol
 _atom_site_label
 _atom_site_symmetry_multiplicity
 _atom_site_fract_x
 _atom_site_fract_y
 _atom_site_fract_z
 _atom_site_occupancy
  H  H0  1  0.176122  0.176122  0.573878  1
  H  H1  1  0.573878  0.573878  0.176122  1
  H  H2  1  0.426122  0.426122  0.823878  1
  H  H3  1  0.823878  0.823878  0.426122  1
  O  O4  1  0.081064  0.081064  0.668936  1
  O  O5  1  0.050260  0.699740  0.050260  1
  O  O6  1  0.050260  0.699740  0.699740  1
  O  O7  1  0.699740  0.050260  0.050260  1
  O  O8  1  0.331064  0.331064  0.918936  1
  O  O9  1  0.300260  0.949740  0.300260  1
  O  O10  1  0.699740  0.050260  0.699740  1
  O  O11  1  0.668936  0.668936  0.081064  1
  O  O12  1  0.300260  0.949740  0.949740  1
  O  O13  1  0.949740  0.300260  0.300260  1
  O  O14  1  0.949740  0.300260  0.949740  1
  O  O15  1  0.918936  0.918936  0.331064  1
  Ta  Ta16  1  0.000000  0.000000  0.000000  1
  Ta  Ta17  1  0.500000  0.000000  0.000000  1
  Ta  Ta18  1  0.000000  0.000000  0.500000  1
  Ta  Ta19  1  0.000000  0.500000  0.000000  1
