# generated using pymatgen
data_La2USe4
_symmetry_space_group_name_H-M   'P 1'
_cell_length_a   7.76324673
_cell_length_b   7.76324591
_cell_length_c   7.76324603
_cell_angle_alpha   109.24805750
_cell_angle_beta   109.91848269
_cell_angle_gamma   109.24805086
_symmetry_Int_Tables_number   1
_chemical_formula_structural   La2USe4
_chemical_formula_sum   'La4 U2 Se8'
_cell_volume   360.15406304
_cell_formula_units_Z   2
loop_
 _symmetry_equiv_pos_site_id
 _symmetry_equiv_pos_as_xyz
  1  'x, y, z'
loop_
 _atom_site_type_symbol
 _atom_site_label
 _atom_site_symmetry_multiplicity
 _atom_site_fract_x
 _atom_site_fract_y
 _atom_site_fract_z
 _atom_site_occupancy
  La  La0  1  0.250000  0.626904  0.376904  1
  La  La1  1  0.750000  0.873096  0.123096  1
  La  La2  1  0.623096  0.373096  0.250000  1
  La  La3  1  0.876904  0.126904  0.750000  1
  U  U4  1  0.125000  0.750000  0.875000  1
  U  U5  1  0.375000  0.250000  0.625000  1
  Se  Se6  1  0.007276  0.851309  0.506957  1
  Se  Se7  1  0.493044  0.000320  0.344352  1
  Se  Se8  1  0.155967  0.148691  0.155648  1
  Se  Se9  1  0.344033  0.499680  0.992724  1
  Se  Se10  1  0.492724  -0.000320  0.844033  1
  Se  Se11  1  0.655648  0.648691  0.655967  1
  Se  Se12  1  0.844352  0.500320  0.993043  1
  Se  Se13  1  0.006957  0.351309  0.507276  1
