# generated using pymatgen
data_Ho3(CuSi)4
_symmetry_space_group_name_H-M   'P 1'
_cell_length_a   4.11647005
_cell_length_b   6.53442358
_cell_length_c   7.83797055
_cell_angle_alpha   114.63224410
_cell_angle_beta   105.22427158
_cell_angle_gamma   89.99999997
_symmetry_Int_Tables_number   1
_chemical_formula_structural   Ho3(CuSi)4
_chemical_formula_sum   'Ho3 Si4 Cu4'
_cell_volume   183.47522055
_cell_formula_units_Z   1
loop_
 _symmetry_equiv_pos_site_id
 _symmetry_equiv_pos_as_xyz
  1  'x, y, z'
loop_
 _atom_site_type_symbol
 _atom_site_label
 _atom_site_symmetry_multiplicity
 _atom_site_fract_x
 _atom_site_fract_y
 _atom_site_fract_z
 _atom_site_occupancy
  Si  Si0  1  0.499993  0.815066  0.999986  1
  Si  Si1  1  0.500007  0.184934  0.000014  1
  Si  Si2  1  0.783773  0.283798  0.567545  1
  Si  Si3  1  0.216227  0.716202  0.432455  1
  Cu  Cu4  1  0.331165  0.522194  0.662330  1
  Cu  Cu5  1  0.668828  0.859801  0.337657  1
  Cu  Cu6  1  0.331172  0.140199  0.662343  1
  Cu  Cu7  1  0.668835  0.477806  0.337670  1
  Ho  Ho8  1  0.870377  0.870390  0.740755  1
  Ho  Ho9  1  0.129623  0.129610  0.259245  1
  Ho  Ho10  1  0.000000  0.500000  0.000000  1
