# generated using pymatgen
data_Ho2Pd2Pb
_symmetry_space_group_name_H-M   'P 1'
_cell_length_a   3.57163438
_cell_length_b   7.94794641
_cell_length_c   7.94794641
_cell_angle_alpha   90.00000000
_cell_angle_beta   90.00000000
_cell_angle_gamma   90.00000000
_symmetry_Int_Tables_number   1
_chemical_formula_structural   Ho2Pd2Pb
_chemical_formula_sum   'Ho4 Pd4 Pb2'
_cell_volume   225.61961567
_cell_formula_units_Z   2
loop_
 _symmetry_equiv_pos_site_id
 _symmetry_equiv_pos_as_xyz
  1  'x, y, z'
loop_
 _atom_site_type_symbol
 _atom_site_label
 _atom_site_symmetry_multiplicity
 _atom_site_fract_x
 _atom_site_fract_y
 _atom_site_fract_z
 _atom_site_occupancy
  Pd  Pd0  1  0.000000  0.125591  0.374409  1
  Pd  Pd1  1  0.000000  0.625591  0.125591  1
  Pd  Pd2  1  0.000000  0.874409  0.625591  1
  Pd  Pd3  1  0.000000  0.374409  0.874409  1
  Ho  Ho4  1  0.500000  0.170297  0.670297  1
  Ho  Ho5  1  0.500000  0.329703  0.170297  1
  Ho  Ho6  1  0.500000  0.670297  0.829703  1
  Ho  Ho7  1  0.500000  0.829703  0.329703  1
  Pb  Pb8  1  0.000000  0.000000  0.000000  1
  Pb  Pb9  1  0.000000  0.500000  0.500000  1
