# generated using pymatgen
data_La5S8
_symmetry_space_group_name_H-M   'P 1'
_cell_length_a   7.57566234
_cell_length_b   7.57566260
_cell_length_c   7.57566211
_cell_angle_alpha   109.43112020
_cell_angle_beta   109.55145334
_cell_angle_gamma   109.43112279
_symmetry_Int_Tables_number   1
_chemical_formula_structural   La5S8
_chemical_formula_sum   'La5 S8'
_cell_volume   334.68733230
_cell_formula_units_Z   1
loop_
 _symmetry_equiv_pos_site_id
 _symmetry_equiv_pos_as_xyz
  1  'x, y, z'
loop_
 _atom_site_type_symbol
 _atom_site_label
 _atom_site_symmetry_multiplicity
 _atom_site_fract_x
 _atom_site_fract_y
 _atom_site_fract_z
 _atom_site_occupancy
  La  La0  1  0.244126  0.634357  0.374243  1
  La  La1  1  0.375000  0.250000  0.625000  1
  La  La2  1  0.739886  0.865643  0.109769  1
  La  La3  1  0.625757  0.369883  0.260114  1
  La  La4  1  0.890231  0.130117  0.755874  1
  S  S5  1  0.993158  0.851132  0.480798  1
  S  S6  1  0.002797  0.335492  0.483861  1
  S  S7  1  0.516139  0.018936  0.851631  1
  S  S8  1  0.148369  0.164508  0.167305  1
  S  S9  1  0.357975  0.487640  0.006842  1
  S  S10  1  0.629666  0.648868  0.642025  1
  S  S11  1  0.519202  0.012360  0.370334  1
  S  S12  1  0.832695  0.481064  0.997203  1
