# generated using pymatgen
data_Pr2UTe4
_symmetry_space_group_name_H-M   'P 1'
_cell_length_a   8.23548319
_cell_length_b   8.23548350
_cell_length_c   8.23548302
_cell_angle_alpha   109.37931114
_cell_angle_beta   109.65520318
_cell_angle_gamma   109.37930344
_symmetry_Int_Tables_number   1
_chemical_formula_structural   Pr2UTe4
_chemical_formula_sum   'Pr4 U2 Te8'
_cell_volume   429.97382367
_cell_formula_units_Z   2
loop_
 _symmetry_equiv_pos_site_id
 _symmetry_equiv_pos_as_xyz
  1  'x, y, z'
loop_
 _atom_site_type_symbol
 _atom_site_label
 _atom_site_symmetry_multiplicity
 _atom_site_fract_x
 _atom_site_fract_y
 _atom_site_fract_z
 _atom_site_occupancy
  Pr  Pr0  1  0.250000  0.624675  0.374675  1
  Pr  Pr1  1  0.750000  0.875325  0.125325  1
  Pr  Pr2  1  0.625325  0.375325  0.250000  1
  Pr  Pr3  1  0.874675  0.124675  0.750000  1
  Te  Te4  1  0.155499  0.149557  0.154580  1
  Te  Te5  1  0.344501  0.499081  0.994059  1
  Te  Te6  1  0.494059  0.999081  0.844501  1
  Te  Te7  1  0.654580  0.649557  0.655499  1
  Te  Te8  1  0.494977  0.000919  0.345420  1
  Te  Te9  1  0.005941  0.850443  0.505023  1
  Te  Te10  1  0.845420  0.500919  0.994977  1
  Te  Te11  1  0.005023  0.350443  0.505941  1
  U  U12  1  0.125000  0.750000  0.875000  1
  U  U13  1  0.375000  0.250000  0.625000  1
