# generated using pymatgen
data_SrLaI4
_symmetry_space_group_name_H-M   'P 1'
_cell_length_a   7.55911086
_cell_length_b   8.63074551
_cell_length_c   9.11928074
_cell_angle_alpha   113.23726214
_cell_angle_beta   108.94121164
_cell_angle_gamma   100.94320371
_symmetry_Int_Tables_number   1
_chemical_formula_structural   SrLaI4
_chemical_formula_sum   'Sr2 La2 I8'
_cell_volume   481.25212455
_cell_formula_units_Z   2
loop_
 _symmetry_equiv_pos_site_id
 _symmetry_equiv_pos_as_xyz
  1  'x, y, z'
loop_
 _atom_site_type_symbol
 _atom_site_label
 _atom_site_symmetry_multiplicity
 _atom_site_fract_x
 _atom_site_fract_y
 _atom_site_fract_z
 _atom_site_occupancy
  La  La0  1  0.749995  -0.000019  -0.000035  1
  La  La1  1  0.250005  1.000019  1.000035  1
  I  I2  1  0.356452  0.945716  0.646392  1
  I  I3  1  0.789913  0.700692  0.646327  1
  I  I4  1  0.643548  0.054284  0.353608  1
  I  I5  1  0.210087  0.299308  0.353673  1
  I  I6  1  0.630816  0.366240  0.124717  1
  I  I7  1  0.993934  0.758453  0.124749  1
  I  I8  1  0.369184  0.633760  0.875283  1
  I  I9  1  0.006066  0.241547  0.875251  1
  Sr  Sr10  1  0.615007  0.364993  0.730016  1
  Sr  Sr11  1  0.384993  0.635007  0.269984  1
