# generated using pymatgen
data_Ce3SiPd5
_symmetry_space_group_name_H-M   'P 1'
_cell_length_a   7.33071781
_cell_length_b   7.57699557
_cell_length_c   8.39489013
_cell_angle_alpha   116.82623308
_cell_angle_beta   115.88828512
_cell_angle_gamma   90.00000003
_symmetry_Int_Tables_number   1
_chemical_formula_structural   Ce3SiPd5
_chemical_formula_sum   'Ce6 Si2 Pd10'
_cell_volume   362.90200105
_cell_formula_units_Z   2
loop_
 _symmetry_equiv_pos_site_id
 _symmetry_equiv_pos_as_xyz
  1  'x, y, z'
loop_
 _atom_site_type_symbol
 _atom_site_label
 _atom_site_symmetry_multiplicity
 _atom_site_fract_x
 _atom_site_fract_y
 _atom_site_fract_z
 _atom_site_occupancy
  Si  Si0  1  0.750000  0.217457  0.000000  1
  Si  Si1  1  0.250000  0.782543  0.000000  1
  Pd  Pd2  1  0.902571  0.542187  0.710133  1
  Pd  Pd3  1  0.692438  0.457813  0.289867  1
  Pd  Pd4  1  0.597429  0.832054  0.289867  1
  Pd  Pd5  1  0.807562  0.167946  0.710133  1
  Pd  Pd6  1  0.000000  0.000000  0.000000  1
  Pd  Pd7  1  0.500000  0.000000  0.000000  1
  Pd  Pd8  1  0.192438  0.832054  0.289867  1
  Pd  Pd9  1  0.402571  0.167946  0.710133  1
  Pd  Pd10  1  0.307562  0.542187  0.710133  1
  Pd  Pd11  1  0.097429  0.457813  0.289867  1
  Ce  Ce12  1  0.950418  0.176599  0.400836  1
  Ce  Ce13  1  0.049582  0.823401  0.599164  1
  Ce  Ce14  1  0.549582  0.775763  0.599164  1
  Ce  Ce15  1  0.450418  0.224237  0.400836  1
  Ce  Ce16  1  0.750000  0.617649  0.000000  1
  Ce  Ce17  1  0.250000  0.382351  0.000000  1
