# generated using pymatgen
data_Li3Mn2(PO4)3
_symmetry_space_group_name_H-M   'P 1'
_cell_length_a   8.76953199
_cell_length_b   8.76927184
_cell_length_c   6.22822641
_cell_angle_alpha   74.72608863
_cell_angle_beta   105.27574719
_cell_angle_gamma   81.58823993
_symmetry_Int_Tables_number   1
_chemical_formula_structural   Li3Mn2(PO4)3
_chemical_formula_sum   'Li6 Mn4 P6 O24'
_cell_volume   433.58512217
_cell_formula_units_Z   2
loop_
 _symmetry_equiv_pos_site_id
 _symmetry_equiv_pos_as_xyz
  1  'x, y, z'
loop_
 _atom_site_type_symbol
 _atom_site_label
 _atom_site_symmetry_multiplicity
 _atom_site_fract_x
 _atom_site_fract_y
 _atom_site_fract_z
 _atom_site_occupancy
  Li  Li0  1  0.698452  0.698439  0.750004  1
  Li  Li1  1  0.978899  0.978897  0.750027  1
  Li  Li2  1  0.499999  0.500002  0.500000  1
  Li  Li3  1  0.021102  0.021100  0.249974  1
  Li  Li4  1  0.301548  0.301562  0.249997  1
  Li  Li5  1  0.500001  0.500000  0.000001  1
  O  O6  1  0.144665  0.851706  0.091552  1
  O  O7  1  0.851698  0.144640  0.408453  1
  O  O8  1  0.616996  0.047422  0.181663  1
  O  O9  1  0.665398  0.015975  0.601163  1
  O  O10  1  0.015987  0.665422  0.898790  1
  O  O11  1  0.148302  0.855358  0.591547  1
  O  O12  1  0.383004  0.952578  0.818337  1
  O  O13  1  0.334602  0.984025  0.398837  1
  O  O14  1  0.984014  0.334577  0.101209  1
  O  O15  1  0.047413  0.617022  0.318285  1
  O  O16  1  0.449054  0.700019  0.706385  1
  O  O17  1  0.260606  0.467113  0.767720  1
  O  O18  1  0.299983  0.550941  0.206383  1
  O  O19  1  0.272870  0.181990  0.977872  1
  O  O20  1  0.855335  0.148293  0.908450  1
  O  O21  1  0.181986  0.272855  0.522149  1
  O  O22  1  0.818014  0.727144  0.477851  1
  O  O23  1  0.467098  0.260634  0.732264  1
  O  O24  1  0.727130  0.818011  0.022128  1
  O  O25  1  0.700017  0.449058  0.793619  1
  O  O26  1  0.739394  0.532887  0.232280  1
  O  O27  1  0.550946  0.299981  0.293615  1
  O  O28  1  0.952586  0.382977  0.681714  1
  O  O29  1  0.532901  0.739367  0.267736  1
  P  P30  1  0.669666  0.136637  0.368157  1
  P  P31  1  0.863365  0.330315  0.868191  1
  P  P32  1  0.707853  0.707842  0.250000  1
  P  P33  1  0.292148  0.292158  0.750000  1
  P  P34  1  0.330335  0.863362  0.631844  1
  P  P35  1  0.136635  0.669684  0.131809  1
  Mn  Mn36  1  0.054800  0.634628  0.622069  1
  Mn  Mn37  1  0.365426  0.945207  0.122142  1
  Mn  Mn38  1  0.634575  0.054795  0.877857  1
  Mn  Mn39  1  0.945197  0.365372  0.377928  1
