# generated using pymatgen
data_NbO2F
_symmetry_space_group_name_H-M   'P 1'
_cell_length_a   5.65141019
_cell_length_b   5.51052231
_cell_length_c   5.65141102
_cell_angle_alpha   59.43314210
_cell_angle_beta   56.52082365
_cell_angle_gamma   59.43314356
_symmetry_Int_Tables_number   1
_chemical_formula_structural   NbO2F
_chemical_formula_sum   'Nb2 O4 F2'
_cell_volume   119.85809101
_cell_formula_units_Z   2
loop_
 _symmetry_equiv_pos_site_id
 _symmetry_equiv_pos_as_xyz
  1  'x, y, z'
loop_
 _atom_site_type_symbol
 _atom_site_label
 _atom_site_symmetry_multiplicity
 _atom_site_fract_x
 _atom_site_fract_y
 _atom_site_fract_z
 _atom_site_occupancy
  F  F0  1  0.163660  0.750000  0.336340  1
  F  F1  1  0.836340  0.250000  0.663660  1
  Nb  Nb2  1  0.000000  0.000000  0.000000  1
  Nb  Nb3  1  0.500000  0.500000  0.500000  1
  O  O4  1  0.315813  0.183895  0.757895  1
  O  O5  1  0.742105  0.316105  0.184187  1
  O  O6  1  0.257895  0.683895  0.815813  1
  O  O7  1  0.684187  0.816105  0.242105  1
