# generated using pymatgen
data_Li3Mo2(PO4)3
_symmetry_space_group_name_H-M   'P 1'
_cell_length_a   8.69343995
_cell_length_b   12.38963378
_cell_length_c   9.02444428
_cell_angle_alpha   90.00000000
_cell_angle_beta   90.00000000
_cell_angle_gamma   89.91852679
_symmetry_Int_Tables_number   1
_chemical_formula_structural   Li3Mo2(PO4)3
_chemical_formula_sum   'Li12 Mo8 P12 O48'
_cell_volume   972.00871078
_cell_formula_units_Z   4
loop_
 _symmetry_equiv_pos_site_id
 _symmetry_equiv_pos_as_xyz
  1  'x, y, z'
loop_
 _atom_site_type_symbol
 _atom_site_label
 _atom_site_symmetry_multiplicity
 _atom_site_fract_x
 _atom_site_fract_y
 _atom_site_fract_z
 _atom_site_occupancy
  Li  Li0  1  0.068751  0.350636  0.516562  1
  Li  Li1  1  0.083079  0.686748  0.090926  1
  Li  Li2  1  0.176807  0.178909  0.777709  1
  Li  Li3  1  0.323192  0.321091  0.277708  1
  Li  Li4  1  0.416921  0.813252  0.590927  1
  Li  Li5  1  0.431248  0.149365  0.016562  1
  Li  Li6  1  0.568751  0.850635  0.983438  1
  Li  Li7  1  0.583079  0.186749  0.409074  1
  Li  Li8  1  0.676807  0.678909  0.722291  1
  Li  Li9  1  0.823192  0.821091  0.222291  1
  Li  Li10  1  0.916920  0.313252  0.909073  1
  Li  Li11  1  0.931248  0.649364  0.483438  1
  O  O12  1  0.190986  0.437051  0.183555  1
  O  O13  1  0.954283  0.550481  0.130296  1
  O  O14  1  0.952723  0.400383  0.332991  1
  O  O15  1  0.943069  0.806591  0.426910  1
  O  O16  1  0.906726  0.419937  0.639498  1
  O  O17  1  0.883214  0.178755  0.786500  1
  O  O18  1  0.878372  0.754798  0.010034  1
  O  O19  1  0.824427  0.807745  0.741676  1
  O  O20  1  0.047350  0.894704  0.887243  1
  O  O21  1  0.045718  0.449519  0.869703  1
  O  O22  1  0.047277  0.599618  0.667009  1
  O  O23  1  0.056930  0.193408  0.573090  1
  O  O24  1  0.093275  0.580064  0.360501  1
  O  O25  1  0.116786  0.821245  0.213499  1
  O  O26  1  0.121629  0.245202  0.989966  1
  O  O27  1  0.129688  0.964801  0.410617  1
  O  O28  1  0.175574  0.192255  0.258323  1
  O  O29  1  0.952649  0.105296  0.112758  1
  O  O30  1  0.229048  0.778503  0.474868  1
  O  O31  1  0.235355  0.066543  0.048198  1
  O  O32  1  0.264645  0.433456  0.548197  1
  O  O33  1  0.270952  0.721497  0.974868  1
  O  O34  1  0.309014  0.062948  0.683556  1
  O  O35  1  0.324426  0.307745  0.758324  1
  O  O36  1  0.370312  0.535199  0.910616  1
  O  O37  1  0.378372  0.254798  0.489967  1
  O  O38  1  0.383215  0.678755  0.713500  1
  O  O39  1  0.406726  0.919936  0.860502  1
  O  O40  1  0.443070  0.306591  0.073090  1
  O  O41  1  0.452723  0.900382  0.167009  1
  O  O42  1  0.452650  0.605296  0.387242  1
  O  O43  1  0.454282  0.050481  0.369703  1
  O  O44  1  0.545718  0.949519  0.630296  1
  O  O45  1  0.547350  0.394704  0.612757  1
  O  O46  1  0.547276  0.099618  0.832990  1
  O  O47  1  0.556930  0.693409  0.926910  1
  O  O48  1  0.593275  0.080064  0.139498  1
  O  O49  1  0.616786  0.321246  0.286500  1
  O  O50  1  0.621629  0.745202  0.510034  1
  O  O51  1  0.629688  0.464801  0.089383  1
  O  O52  1  0.675574  0.692256  0.241676  1
  O  O53  1  0.690986  0.937052  0.316445  1
  O  O54  1  0.729048  0.278503  0.025132  1
  O  O55  1  0.735354  0.566544  0.451802  1
  O  O56  1  0.764646  0.933456  0.951802  1
  O  O57  1  0.770952  0.221497  0.525132  1
  O  O58  1  0.809013  0.562948  0.816445  1
  O  O59  1  0.870313  0.035199  0.589383  1
  P  P60  1  0.955353  0.510702  0.748892  1
  P  P61  1  0.889224  0.155088  0.616482  1
  P  P62  1  0.884665  0.849415  0.893273  1
  P  P63  1  0.615335  0.650585  0.393273  1
  P  P64  1  0.610777  0.344912  0.116482  1
  P  P65  1  0.544647  0.989298  0.248893  1
  P  P66  1  0.455353  0.010702  0.751107  1
  P  P67  1  0.389224  0.655088  0.883519  1
  P  P68  1  0.044648  0.489298  0.251107  1
  P  P69  1  0.110777  0.844912  0.383519  1
  P  P70  1  0.384664  0.349415  0.606727  1
  P  P71  1  0.115336  0.150585  0.106727  1
  Mo  Mo72  1  0.244493  0.893070  0.030942  1
  Mo  Mo73  1  0.243448  0.109054  0.460749  1
  Mo  Mo74  1  0.255506  0.606930  0.530942  1
  Mo  Mo75  1  0.256552  0.390947  0.960749  1
  Mo  Mo76  1  0.743448  0.609054  0.039252  1
  Mo  Mo77  1  0.744493  0.393070  0.469059  1
  Mo  Mo78  1  0.756553  0.890946  0.539251  1
  Mo  Mo79  1  0.755507  0.106930  0.969058  1
