# generated using pymatgen
data_Ho10In20Ni9
_symmetry_space_group_name_H-M   'P 1'
_cell_length_a   9.17852261
_cell_length_b   13.38459180
_cell_length_c   13.38459180
_cell_angle_alpha   90.00000000
_cell_angle_beta   90.00000000
_cell_angle_gamma   90.00000000
_symmetry_Int_Tables_number   1
_chemical_formula_structural   Ho10In20Ni9
_chemical_formula_sum   'Ho20 In40 Ni18'
_cell_volume   1644.30752203
_cell_formula_units_Z   2
loop_
 _symmetry_equiv_pos_site_id
 _symmetry_equiv_pos_as_xyz
  1  'x, y, z'
loop_
 _atom_site_type_symbol
 _atom_site_label
 _atom_site_symmetry_multiplicity
 _atom_site_fract_x
 _atom_site_fract_y
 _atom_site_fract_z
 _atom_site_occupancy
  Ni  Ni0  1  0.000000  0.250000  0.750000  1
  Ni  Ni1  1  0.000000  0.750000  0.250000  1
  Ni  Ni2  1  0.408837  0.250000  0.027278  1
  Ni  Ni3  1  0.408837  0.472722  0.250000  1
  Ni  Ni4  1  0.408837  0.027278  0.250000  1
  Ni  Ni5  1  0.408837  0.250000  0.472722  1
  Ni  Ni6  1  0.591163  0.750000  0.972722  1
  Ni  Ni7  1  0.591163  0.750000  0.527278  1
  Ni  Ni8  1  0.591163  0.527278  0.750000  1
  Ni  Ni9  1  0.591163  0.972722  0.750000  1
  Ni  Ni10  1  0.104529  0.594782  0.594782  1
  Ni  Ni11  1  0.104529  0.905218  0.594782  1
  Ni  Ni12  1  0.104529  0.594782  0.905218  1
  Ni  Ni13  1  0.104529  0.905218  0.905218  1
  Ni  Ni14  1  0.895470  0.094782  0.405218  1
  Ni  Ni15  1  0.895470  0.405218  0.094782  1
  Ni  Ni16  1  0.895470  0.094782  0.094782  1
  Ni  Ni17  1  0.895470  0.405218  0.405218  1
  In  In18  1  0.000000  0.594908  0.094908  1
  In  In19  1  0.000000  0.405092  0.594908  1
  In  In20  1  0.000000  0.094908  0.905092  1
  In  In21  1  0.000000  0.905092  0.405092  1
  In  In22  1  0.000000  0.405092  0.905092  1
  In  In23  1  0.000000  0.594908  0.405092  1
  In  In24  1  0.000000  0.905092  0.094908  1
  In  In25  1  0.000000  0.094908  0.594908  1
  In  In26  1  0.500000  0.119766  0.619766  1
  In  In27  1  0.500000  0.880234  0.119766  1
  In  In28  1  0.500000  0.619766  0.380234  1
  In  In29  1  0.500000  0.380234  0.880234  1
  In  In30  1  0.500000  0.880234  0.380234  1
  In  In31  1  0.500000  0.119766  0.880234  1
  In  In32  1  0.500000  0.380234  0.619766  1
  In  In33  1  0.500000  0.619766  0.119766  1
  In  In34  1  0.092997  0.250000  0.083439  1
  In  In35  1  0.092997  0.416561  0.250000  1
  In  In36  1  0.092997  0.083439  0.250000  1
  In  In37  1  0.092997  0.250000  0.416561  1
  In  In38  1  0.907003  0.750000  0.916561  1
  In  In39  1  0.907003  0.750000  0.583439  1
  In  In40  1  0.907003  0.583439  0.750000  1
  In  In41  1  0.907003  0.916561  0.750000  1
  In  In42  1  0.234617  0.250000  0.865981  1
  In  In43  1  0.234617  0.634019  0.250000  1
  In  In44  1  0.234617  0.865981  0.250000  1
  In  In45  1  0.234617  0.250000  0.634019  1
  In  In46  1  0.765383  0.750000  0.134019  1
  In  In47  1  0.765383  0.750000  0.365981  1
  In  In48  1  0.765383  0.365981  0.750000  1
  In  In49  1  0.765383  0.134019  0.750000  1
  In  In50  1  0.590215  0.381932  0.381932  1
  In  In51  1  0.590215  0.118068  0.381932  1
  In  In52  1  0.590215  0.381932  0.118068  1
  In  In53  1  0.590215  0.118068  0.118068  1
  In  In54  1  0.409785  0.881932  0.618068  1
  In  In55  1  0.409785  0.618068  0.881932  1
  In  In56  1  0.409785  0.881932  0.881932  1
  In  In57  1  0.409785  0.618068  0.618068  1
  Ho  Ho58  1  0.363267  0.250000  0.250000  1
  Ho  Ho59  1  0.636733  0.750000  0.750000  1
  Ho  Ho60  1  0.835237  0.250000  0.250000  1
  Ho  Ho61  1  0.164763  0.750000  0.750000  1
  Ho  Ho62  1  0.768128  0.250000  0.526710  1
  Ho  Ho63  1  0.768128  0.973290  0.250000  1
  Ho  Ho64  1  0.768128  0.526710  0.250000  1
  Ho  Ho65  1  0.768128  0.250000  0.973290  1
  Ho  Ho66  1  0.231872  0.750000  0.473290  1
  Ho  Ho67  1  0.231872  0.750000  0.026710  1
  Ho  Ho68  1  0.231872  0.026710  0.750000  1
  Ho  Ho69  1  0.231872  0.473290  0.750000  1
  Ho  Ho70  1  0.268394  0.453395  0.453395  1
  Ho  Ho71  1  0.268394  0.046605  0.453395  1
  Ho  Ho72  1  0.268394  0.453395  0.046605  1
  Ho  Ho73  1  0.268394  0.046605  0.046605  1
  Ho  Ho74  1  0.731606  0.953395  0.546605  1
  Ho  Ho75  1  0.731606  0.546605  0.953395  1
  Ho  Ho76  1  0.731606  0.953395  0.953395  1
  Ho  Ho77  1  0.731606  0.546605  0.546605  1
