# generated using pymatgen
data_NaYO2
_symmetry_space_group_name_H-M   'P 1'
_cell_length_a   5.99629682
_cell_length_b   6.11146532
_cell_length_c   7.45361435
_cell_angle_alpha   104.67128559
_cell_angle_beta   104.03637948
_cell_angle_gamma   112.92657485
_symmetry_Int_Tables_number   1
_chemical_formula_structural   NaYO2
_chemical_formula_sum   'Na4 Y4 O8'
_cell_volume   224.81437247
_cell_formula_units_Z   4
loop_
 _symmetry_equiv_pos_site_id
 _symmetry_equiv_pos_as_xyz
  1  'x, y, z'
loop_
 _atom_site_type_symbol
 _atom_site_label
 _atom_site_symmetry_multiplicity
 _atom_site_fract_x
 _atom_site_fract_y
 _atom_site_fract_z
 _atom_site_occupancy
  O  O0  1  0.063161  0.769441  0.627091  1
  O  O1  1  0.563930  0.357650  0.627091  1
  O  O2  1  0.936839  0.230559  0.372909  1
  O  O3  1  0.436070  0.642350  0.372909  1
  O  O4  1  0.832713  0.540710  0.123941  1
  O  O5  1  0.708772  0.916769  0.876059  1
  O  O6  1  0.167287  0.459290  0.876059  1
  O  O7  1  0.291228  0.083231  0.123941  1
  Na  Na8  1  0.430820  0.180820  0.861640  1
  Na  Na9  1  0.194066  0.944066  0.388132  1
  Na  Na10  1  0.569180  0.819180  0.138360  1
  Na  Na11  1  0.805934  0.055934  0.611868  1
  Y  Y12  1  0.317040  0.567040  0.634080  1
  Y  Y13  1  0.682960  0.432960  0.365920  1
  Y  Y14  1  0.056817  0.306817  0.113634  1
  Y  Y15  1  0.943183  0.693183  0.886366  1
