# generated using pymatgen
data_TlSbSe2
_symmetry_space_group_name_H-M   'P 1'
_cell_length_a   6.13632155
_cell_length_b   5.97321010
_cell_length_c   4.11041518
_cell_angle_alpha   90.00000000
_cell_angle_beta   131.81614705
_cell_angle_gamma   90.00000000
_symmetry_Int_Tables_number   1
_chemical_formula_structural   TlSbSe2
_chemical_formula_sum   'Tl1 Sb1 Se2'
_cell_volume   112.28604723
_cell_formula_units_Z   1
loop_
 _symmetry_equiv_pos_site_id
 _symmetry_equiv_pos_as_xyz
  1  'x, y, z'
loop_
 _atom_site_type_symbol
 _atom_site_label
 _atom_site_symmetry_multiplicity
 _atom_site_fract_x
 _atom_site_fract_y
 _atom_site_fract_z
 _atom_site_occupancy
  Sb  Sb0  1  0.996512  0.250000  0.923552  1
  Se  Se1  1  0.499864  0.750000  -0.000185  1
  Se  Se2  1  0.498439  0.250000  0.044680  1
  Tl  Tl3  1  0.005185  0.750000  0.031952  1
