# generated using pymatgen
data_Sr(La2Se3)4
_symmetry_space_group_name_H-M   'P 1'
_cell_length_a   23.71228416
_cell_length_b   9.12462876
_cell_length_c   9.12462911
_cell_angle_alpha   90.02302137
_cell_angle_beta   54.75847599
_cell_angle_gamma   54.75847441
_symmetry_Int_Tables_number   1
_chemical_formula_structural   Sr(La2Se3)4
_chemical_formula_sum   'Sr2 La16 Se24'
_cell_volume   1140.66649484
_cell_formula_units_Z   2
loop_
 _symmetry_equiv_pos_site_id
 _symmetry_equiv_pos_as_xyz
  1  'x, y, z'
loop_
 _atom_site_type_symbol
 _atom_site_label
 _atom_site_symmetry_multiplicity
 _atom_site_fract_x
 _atom_site_fract_y
 _atom_site_fract_z
 _atom_site_occupancy
  Sr  Sr0  1  0.499929  0.750051  0.874899  1
  Sr  Sr1  1  0.999929  0.374899  0.250051  1
  La  La2  1  0.999965  0.126676  0.749767  1
  La  La3  1  0.083333  0.623371  0.375464  1
  La  La4  1  0.166713  0.249425  0.624174  1
  La  La5  1  0.333590  0.374736  0.249549  1
  La  La6  1  0.249870  0.875447  0.125165  1
  La  La7  1  0.166472  0.751640  0.874774  1
  La  La8  1  0.333065  0.125172  0.751642  1
  La  La9  1  0.416476  0.625821  0.374283  1
  La  La10  1  0.499965  0.249767  0.626676  1
  La  La11  1  0.666472  0.374774  0.251640  1
  La  La12  1  0.583333  0.875464  0.123371  1
  La  La13  1  0.666713  0.124174  0.749425  1
  La  La14  1  0.749870  0.625165  0.375447  1
  La  La15  1  0.833065  0.251642  0.625172  1
  La  La16  1  0.916476  0.874283  0.125821  1
  La  La17  1  0.833590  0.749549  0.874736  1
  Se  Se18  1  0.050863  0.994893  0.350967  1
  Se  Se19  1  0.118464  0.500895  0.996128  1
  Se  Se20  1  0.050272  0.350069  0.503217  1
  Se  Se21  1  0.280377  0.155592  0.154273  1
  Se  Se22  1  0.283961  0.499273  0.998371  1
  Se  Se23  1  0.116248  0.650875  0.649592  1
  Se  Se24  1  0.219292  0.995534  0.845300  1
  Se  Se25  1  0.382123  0.002487  0.355753  1
  Se  Se26  1  0.216712  0.849107  0.500314  1
  Se  Se27  1  0.448929  0.498007  0.001842  1
  Se  Se28  1  0.383332  0.350711  0.500344  1
  Se  Se29  1  0.616248  0.149592  0.150875  1
  Se  Se30  1  0.618464  0.496128  0.000895  1
  Se  Se31  1  0.450014  0.648085  0.646314  1
  Se  Se32  1  0.550272  0.003217  0.850069  1
  Se  Se33  1  0.716712  0.000314  0.349107  1
  Se  Se34  1  0.550863  0.850967  0.494893  1
  Se  Se35  1  0.783961  0.498371  0.999273  1
  Se  Se36  1  0.719292  0.345300  0.495534  1
  Se  Se37  1  0.950014  0.146314  0.148085  1
  Se  Se38  1  0.948929  0.501842  0.998007  1
  Se  Se39  1  0.883332  0.000344  0.850711  1
  Se  Se40  1  0.780377  0.654273  0.655592  1
  Se  Se41  1  0.882123  0.855753  0.502487  1
