# generated using pymatgen
data_Ti2P
_symmetry_space_group_name_H-M   'P 1'
_cell_length_a   19.85338117
_cell_length_b   19.85338093
_cell_length_c   3.51260482
_cell_angle_alpha   90.00000000
_cell_angle_beta   90.00000000
_cell_angle_gamma   120.00000042
_symmetry_Int_Tables_number   1
_chemical_formula_structural   Ti2P
_chemical_formula_sum   'Ti54 P27'
_cell_volume   1199.02676883
_cell_formula_units_Z   27
loop_
 _symmetry_equiv_pos_site_id
 _symmetry_equiv_pos_as_xyz
  1  'x, y, z'
loop_
 _atom_site_type_symbol
 _atom_site_label
 _atom_site_symmetry_multiplicity
 _atom_site_fract_x
 _atom_site_fract_y
 _atom_site_fract_z
 _atom_site_occupancy
  P  P0  1  0.666667  0.333333  0.000000  1
  P  P1  1  0.333333  0.666667  0.000000  1
  P  P2  1  0.000000  0.000000  0.000000  1
  P  P3  1  0.333278  0.000000  0.000000  1
  P  P4  1  0.666722  0.666722  0.000000  1
  P  P5  1  0.000000  0.333278  0.000000  1
  P  P6  1  0.444519  0.222515  0.500000  1
  P  P7  1  0.777997  0.555481  0.500000  1
  P  P8  1  0.777485  0.222003  0.500000  1
  P  P9  1  0.222003  0.777485  0.500000  1
  P  P10  1  0.555481  0.777997  0.500000  1
  P  P11  1  0.222515  0.444519  0.500000  1
  P  P12  1  0.222047  0.111012  0.500000  1
  P  P13  1  0.888965  0.777953  0.500000  1
  P  P14  1  0.888988  0.111035  0.500000  1
  P  P15  1  0.111035  0.888988  0.500000  1
  P  P16  1  0.777953  0.888965  0.500000  1
  P  P17  1  0.111012  0.222047  0.500000  1
  P  P18  1  0.555208  0.110837  0.500000  1
  P  P19  1  0.555629  0.444792  0.500000  1
  P  P20  1  0.889163  0.444371  0.500000  1
  P  P21  1  0.444371  0.889163  0.500000  1
  P  P22  1  0.444792  0.555629  0.500000  1
  P  P23  1  0.110837  0.555208  0.500000  1
  P  P24  1  0.333006  0.333006  0.000000  1
  P  P25  1  0.000000  0.666994  0.000000  1
  P  P26  1  0.666994  0.000000  0.000000  1
  Ti  Ti27  1  0.417698  0.084741  0.500000  1
  Ti  Ti28  1  0.667042  0.582302  0.500000  1
  Ti  Ti29  1  0.915259  0.332958  0.500000  1
  Ti  Ti30  1  0.332958  0.915259  0.500000  1
  Ti  Ti31  1  0.582302  0.667042  0.500000  1
  Ti  Ti32  1  0.084741  0.417698  0.500000  1
  Ti  Ti33  1  0.248712  0.000000  0.500000  1
  Ti  Ti34  1  0.751288  0.751288  0.500000  1
  Ti  Ti35  1  0.000000  0.248712  0.500000  1
  Ti  Ti36  1  0.333270  0.136535  0.000000  1
  Ti  Ti37  1  0.803265  0.666730  0.000000  1
  Ti  Ti38  1  0.863465  0.196735  0.000000  1
  Ti  Ti39  1  0.196735  0.863465  0.000000  1
  Ti  Ti40  1  0.666730  0.803265  0.000000  1
  Ti  Ti41  1  0.136535  0.333270  0.000000  1
  Ti  Ti42  1  0.469455  0.000000  0.000000  1
  Ti  Ti43  1  0.530545  0.530545  0.000000  1
  Ti  Ti44  1  1.000000  0.469455  0.000000  1
  Ti  Ti45  1  0.084451  0.084451  0.500000  1
  Ti  Ti46  1  0.000000  0.915549  0.500000  1
  Ti  Ti47  1  0.915549  0.000000  0.500000  1
  Ti  Ti48  1  0.751401  0.417805  0.500000  1
  Ti  Ti49  1  0.666404  0.248599  0.500000  1
  Ti  Ti50  1  0.582195  0.333596  0.500000  1
  Ti  Ti51  1  0.333596  0.582195  0.500000  1
  Ti  Ti52  1  0.248599  0.666404  0.500000  1
  Ti  Ti53  1  0.417805  0.751401  0.500000  1
  Ti  Ti54  1  0.136378  0.000000  0.000000  1
  Ti  Ti55  1  0.863622  0.863622  0.000000  1
  Ti  Ti56  1  1.000000  0.136378  0.000000  1
  Ti  Ti57  1  0.863867  0.530160  0.000000  1
  Ti  Ti58  1  0.666293  0.136133  0.000000  1
  Ti  Ti59  1  0.469840  0.333707  0.000000  1
  Ti  Ti60  1  0.333707  0.469840  0.000000  1
  Ti  Ti61  1  0.136133  0.666293  0.000000  1
  Ti  Ti62  1  0.530160  0.863867  0.000000  1
  Ti  Ti63  1  0.802976  0.333094  0.000000  1
  Ti  Ti64  1  0.530118  0.197024  0.000000  1
  Ti  Ti65  1  0.666906  0.469882  0.000000  1
  Ti  Ti66  1  0.469882  0.666906  0.000000  1
  Ti  Ti67  1  0.197024  0.530118  0.000000  1
  Ti  Ti68  1  0.333094  0.802976  0.000000  1
  Ti  Ti69  1  0.196658  0.196658  0.000000  1
  Ti  Ti70  1  0.000000  0.803342  0.000000  1
  Ti  Ti71  1  0.803342  0.000000  0.000000  1
  Ti  Ti72  1  1.000000  0.582318  0.500000  1
  Ti  Ti73  1  0.582318  0.000000  0.500000  1
  Ti  Ti74  1  0.417682  0.417682  0.500000  1
  Ti  Ti75  1  0.333175  0.248618  0.500000  1
  Ti  Ti76  1  0.915443  0.666825  0.500000  1
  Ti  Ti77  1  0.751382  0.084557  0.500000  1
  Ti  Ti78  1  0.084557  0.751382  0.500000  1
  Ti  Ti79  1  0.666825  0.915443  0.500000  1
  Ti  Ti80  1  0.248618  0.333175  0.500000  1
