# generated using pymatgen
data_V2(PO4)3
_symmetry_space_group_name_H-M   'P 1'
_cell_length_a   8.47968336
_cell_length_b   8.59650998
_cell_length_c   11.90811957
_cell_angle_alpha   90.00000000
_cell_angle_beta   89.35762367
_cell_angle_gamma   90.00000000
_symmetry_Int_Tables_number   1
_chemical_formula_structural   V2(PO4)3
_chemical_formula_sum   'V8 P12 O48'
_cell_volume   867.99594901
_cell_formula_units_Z   4
loop_
 _symmetry_equiv_pos_site_id
 _symmetry_equiv_pos_as_xyz
  1  'x, y, z'
loop_
 _atom_site_type_symbol
 _atom_site_label
 _atom_site_symmetry_multiplicity
 _atom_site_fract_x
 _atom_site_fract_y
 _atom_site_fract_z
 _atom_site_occupancy
  O  O0  1  0.073389  0.642402  0.570040  1
  O  O1  1  0.071393  0.600731  0.130466  1
  O  O2  1  0.073055  0.826856  0.404584  1
  O  O3  1  0.073790  0.918985  0.839687  1
  O  O4  1  0.109500  0.136541  0.422728  1
  O  O5  1  0.129154  0.286521  0.169033  1
  O  O6  1  0.152449  0.071006  0.023290  1
  O  O7  1  0.158623  0.496231  0.757272  1
  O  O8  1  0.157916  0.347357  0.562153  1
  O  O9  1  0.154727  0.218223  0.824911  1
  O  O10  1  0.197904  0.005498  0.224192  1
  O  O11  1  0.197177  0.439697  0.960086  1
  O  O12  1  0.302095  0.505498  0.275808  1
  O  O13  1  0.302823  0.939697  0.539914  1
  O  O14  1  0.345273  0.718223  0.675089  1
  O  O15  1  0.342084  0.847357  0.937847  1
  O  O16  1  0.347551  0.571006  0.476710  1
  O  O17  1  0.341377  0.996231  0.742728  1
  O  O18  1  0.370846  0.786521  0.330967  1
  O  O19  1  0.390500  0.636541  0.077272  1
  O  O20  1  0.426945  0.326856  0.095416  1
  O  O21  1  0.428607  0.100731  0.369534  1
  O  O22  1  0.426210  0.418985  0.660313  1
  O  O23  1  0.426611  0.142402  0.929960  1
  O  O24  1  0.573389  0.857598  0.070040  1
  O  O25  1  0.573790  0.581015  0.339687  1
  O  O26  1  0.571393  0.899269  0.630466  1
  O  O27  1  0.573055  0.673144  0.904584  1
  O  O28  1  0.609500  0.363459  0.922728  1
  O  O29  1  0.629154  0.213479  0.669033  1
  O  O30  1  0.658623  0.003769  0.257272  1
  O  O31  1  0.652449  0.428994  0.523290  1
  O  O32  1  0.657916  0.152643  0.062153  1
  O  O33  1  0.654727  0.281777  0.324911  1
  O  O34  1  0.697177  0.060303  0.460086  1
  O  O35  1  0.697904  0.494502  0.724192  1
  O  O36  1  0.802823  0.560303  0.039914  1
  O  O37  1  0.802096  0.994502  0.775808  1
  O  O38  1  0.845273  0.781777  0.175089  1
  O  O39  1  0.842084  0.652643  0.437847  1
  O  O40  1  0.841377  0.503769  0.242728  1
  O  O41  1  0.847551  0.928994  0.976710  1
  O  O42  1  0.870846  0.713479  0.830967  1
  O  O43  1  0.890500  0.863459  0.577272  1
  O  O44  1  0.926210  0.081015  0.160313  1
  O  O45  1  0.926945  0.173144  0.595416  1
  O  O46  1  0.928607  0.399269  0.869534  1
  O  O47  1  0.926611  0.357598  0.429961  1
  P  P48  1  0.030269  0.249786  0.503448  1
  P  P49  1  0.106235  0.113133  0.145847  1
  P  P50  1  0.109653  0.387400  0.856288  1
  P  P51  1  0.390347  0.887400  0.643712  1
  P  P52  1  0.393765  0.613133  0.354153  1
  P  P53  1  0.469731  0.749786  0.996552  1
  P  P54  1  0.530269  0.250214  0.003448  1
  P  P55  1  0.606235  0.386867  0.645847  1
  P  P56  1  0.609653  0.112600  0.356288  1
  P  P57  1  0.890347  0.612600  0.143712  1
  P  P58  1  0.893765  0.886867  0.854153  1
  P  P59  1  0.969731  0.750214  0.496552  1
  V  V60  1  0.248570  0.967130  0.381358  1
  V  V61  1  0.250373  0.532301  0.617320  1
  V  V62  1  0.251430  0.467130  0.118642  1
  V  V63  1  0.249627  0.032301  0.882680  1
  V  V64  1  0.750373  0.967699  0.117320  1
  V  V65  1  0.748570  0.532870  0.881358  1
  V  V66  1  0.749627  0.467699  0.382680  1
  V  V67  1  0.751430  0.032870  0.618642  1
