# generated using pymatgen
data_La3(Sn3Pd2)2
_symmetry_space_group_name_H-M   'P 1'
_cell_length_a   4.68543587
_cell_length_b   15.84529322
_cell_length_c   17.11487211
_cell_angle_alpha   90.00000000
_cell_angle_beta   90.00000000
_cell_angle_gamma   90.00000000
_symmetry_Int_Tables_number   1
_chemical_formula_structural   La3(Sn3Pd2)2
_chemical_formula_sum   'La12 Sn24 Pd16'
_cell_volume   1270.64413608
_cell_formula_units_Z   4
loop_
 _symmetry_equiv_pos_site_id
 _symmetry_equiv_pos_as_xyz
  1  'x, y, z'
loop_
 _atom_site_type_symbol
 _atom_site_label
 _atom_site_symmetry_multiplicity
 _atom_site_fract_x
 _atom_site_fract_y
 _atom_site_fract_z
 _atom_site_occupancy
  Pd  Pd0  1  0.250000  0.121301  0.011294  1
  Pd  Pd1  1  0.750000  0.878699  0.988706  1
  Pd  Pd2  1  0.750000  0.621301  0.488706  1
  Pd  Pd3  1  0.250000  0.378699  0.511294  1
  Pd  Pd4  1  0.250000  0.400285  0.047811  1
  Pd  Pd5  1  0.750000  0.599715  0.952189  1
  Pd  Pd6  1  0.750000  0.900285  0.452189  1
  Pd  Pd7  1  0.250000  0.099715  0.547811  1
  Pd  Pd8  1  0.250000  0.233547  0.282579  1
  Pd  Pd9  1  0.750000  0.766453  0.717421  1
  Pd  Pd10  1  0.750000  0.733547  0.217421  1
  Pd  Pd11  1  0.250000  0.266453  0.782579  1
  Pd  Pd12  1  0.250000  0.525351  0.290718  1
  Pd  Pd13  1  0.750000  0.474649  0.709282  1
  Pd  Pd14  1  0.750000  0.025351  0.209282  1
  Pd  Pd15  1  0.250000  0.974649  0.790718  1
  Sn  Sn16  1  0.250000  0.582288  0.025821  1
  Sn  Sn17  1  0.750000  0.417712  0.974179  1
  Sn  Sn18  1  0.750000  0.082288  0.474179  1
  Sn  Sn19  1  0.250000  0.917712  0.525821  1
  Sn  Sn20  1  0.250000  0.105709  0.171180  1
  Sn  Sn21  1  0.750000  0.894291  0.828820  1
  Sn  Sn22  1  0.750000  0.605709  0.328820  1
  Sn  Sn23  1  0.250000  0.394291  0.671180  1
  Sn  Sn24  1  0.250000  0.663348  0.189092  1
  Sn  Sn25  1  0.750000  0.336652  0.810908  1
  Sn  Sn26  1  0.750000  0.163348  0.310908  1
  Sn  Sn27  1  0.250000  0.836652  0.689092  1
  Sn  Sn28  1  0.250000  0.379593  0.206310  1
  Sn  Sn29  1  0.750000  0.620407  0.793690  1
  Sn  Sn30  1  0.750000  0.879593  0.293690  1
  Sn  Sn31  1  0.250000  0.120407  0.706310  1
  Sn  Sn32  1  0.250000  0.229862  0.442946  1
  Sn  Sn33  1  0.750000  0.770138  0.557054  1
  Sn  Sn34  1  0.750000  0.729862  0.057054  1
  Sn  Sn35  1  0.250000  0.270138  0.942946  1
  Sn  Sn36  1  0.250000  0.538334  0.447603  1
  Sn  Sn37  1  0.750000  0.461666  0.552397  1
  Sn  Sn38  1  0.750000  0.038334  0.052397  1
  Sn  Sn39  1  0.250000  0.961666  0.947603  1
  La  La40  1  0.250000  0.881966  0.141633  1
  La  La41  1  0.750000  0.118034  0.858367  1
  La  La42  1  0.750000  0.381966  0.358367  1
  La  La43  1  0.250000  0.618034  0.641633  1
  La  La44  1  0.250000  0.017211  0.350661  1
  La  La45  1  0.750000  0.982789  0.649339  1
  La  La46  1  0.750000  0.517211  0.149339  1
  La  La47  1  0.250000  0.482789  0.850661  1
  La  La48  1  0.250000  0.751370  0.384059  1
  La  La49  1  0.750000  0.248630  0.615941  1
  La  La50  1  0.750000  0.251370  0.115941  1
  La  La51  1  0.250000  0.748630  0.884059  1
