# generated using pymatgen
data_Tb2FeSi2
_symmetry_space_group_name_H-M   'P 1'
_cell_length_a   4.14860575
_cell_length_b   5.69023733
_cell_length_c   8.96835378
_cell_angle_alpha   83.06144694
_cell_angle_beta   76.62688765
_cell_angle_gamma   68.62089933
_symmetry_Int_Tables_number   1
_chemical_formula_structural   Tb2FeSi2
_chemical_formula_sum   'Tb4 Fe2 Si4'
_cell_volume   191.64246533
_cell_formula_units_Z   2
loop_
 _symmetry_equiv_pos_site_id
 _symmetry_equiv_pos_as_xyz
  1  'x, y, z'
loop_
 _atom_site_type_symbol
 _atom_site_label
 _atom_site_symmetry_multiplicity
 _atom_site_fract_x
 _atom_site_fract_y
 _atom_site_fract_z
 _atom_site_occupancy
  Si  Si0  1  0.501933  0.123454  0.872680  1
  Si  Si1  1  0.498067  0.876546  0.127320  1
  Si  Si2  1  0.342629  0.750489  0.564253  1
  Si  Si3  1  0.657371  0.249511  0.435747  1
  Fe  Fe4  1  0.727635  0.921567  0.623163  1
  Fe  Fe5  1  0.272365  0.078433  0.376837  1
  Tb  Tb6  1  0.188824  0.730771  0.891581  1
  Tb  Tb7  1  0.811176  0.269229  0.108419  1
  Tb  Tb8  1  0.998558  0.330489  0.672395  1
  Tb  Tb9  1  0.001442  0.669511  0.327605  1
