# generated using pymatgen
data_Rb2BeF4
_symmetry_space_group_name_H-M   'P 1'
_cell_length_a   5.98264726
_cell_length_b   7.80509873
_cell_length_c   10.43513884
_cell_angle_alpha   90.00000000
_cell_angle_beta   90.00000000
_cell_angle_gamma   90.00000000
_symmetry_Int_Tables_number   1
_chemical_formula_structural   Rb2BeF4
_chemical_formula_sum   'Rb8 Be4 F16'
_cell_volume   487.27039982
_cell_formula_units_Z   4
loop_
 _symmetry_equiv_pos_site_id
 _symmetry_equiv_pos_as_xyz
  1  'x, y, z'
loop_
 _atom_site_type_symbol
 _atom_site_label
 _atom_site_symmetry_multiplicity
 _atom_site_fract_x
 _atom_site_fract_y
 _atom_site_fract_z
 _atom_site_occupancy
  Be  Be0  1  0.747331  0.763019  0.581316  1
  Be  Be1  1  0.247331  0.736981  0.081316  1
  Be  Be2  1  0.747331  0.263019  0.918684  1
  Be  Be3  1  0.247331  0.236981  0.418684  1
  F  F4  1  0.032161  0.809028  0.149049  1
  F  F5  1  0.532161  0.190972  0.850951  1
  F  F6  1  0.532161  0.690972  0.649049  1
  F  F7  1  0.032161  0.309028  0.350951  1
  F  F8  1  0.461535  0.307226  0.348893  1
  F  F9  1  0.461535  0.807226  0.151107  1
  F  F10  1  0.961535  0.692774  0.651107  1
  F  F11  1  0.961535  0.192774  0.848893  1
  F  F12  1  0.245586  0.036939  0.414072  1
  F  F13  1  0.745586  0.963061  0.585928  1
  F  F14  1  0.745586  0.463061  0.914072  1
  F  F15  1  0.245586  0.536939  0.085928  1
  F  F16  1  0.249661  0.305802  0.561183  1
  F  F17  1  0.749661  0.694198  0.438817  1
  F  F18  1  0.749661  0.194198  0.061183  1
  F  F19  1  0.249661  0.805802  0.938817  1
  Rb  Rb20  1  0.248274  0.487833  0.808442  1
  Rb  Rb21  1  0.748274  0.512167  0.191558  1
  Rb  Rb22  1  0.748274  0.012167  0.308442  1
  Rb  Rb23  1  0.248274  0.987833  0.691558  1
  Rb  Rb24  1  0.248252  0.163156  0.092084  1
  Rb  Rb25  1  0.748252  0.836844  0.907916  1
  Rb  Rb26  1  0.748252  0.336844  0.592084  1
  Rb  Rb27  1  0.248252  0.663156  0.407916  1
