# generated using pymatgen
data_Ga17Rh10
_symmetry_space_group_name_H-M   'P 1'
_cell_length_a   5.87987570
_cell_length_b   5.87987570
_cell_length_c   48.23391224
_cell_angle_alpha   90.00000000
_cell_angle_beta   90.00000000
_cell_angle_gamma   90.00000000
_symmetry_Int_Tables_number   1
_chemical_formula_structural   Ga17Rh10
_chemical_formula_sum   'Ga68 Rh40'
_cell_volume   1667.58806931
_cell_formula_units_Z   4
loop_
 _symmetry_equiv_pos_site_id
 _symmetry_equiv_pos_as_xyz
  1  'x, y, z'
loop_
 _atom_site_type_symbol
 _atom_site_label
 _atom_site_symmetry_multiplicity
 _atom_site_fract_x
 _atom_site_fract_y
 _atom_site_fract_z
 _atom_site_occupancy
  Ga  Ga0  1  0.171668  0.171668  0.250000  1
  Ga  Ga1  1  0.171668  0.828332  0.750000  1
  Ga  Ga2  1  0.828332  0.171668  0.750000  1
  Ga  Ga3  1  0.828332  0.828332  0.250000  1
  Ga  Ga4  1  0.347099  0.233069  0.015159  1
  Ga  Ga5  1  0.233069  0.652901  0.984841  1
  Ga  Ga6  1  0.766931  0.347099  0.984841  1
  Ga  Ga7  1  0.652901  0.766931  0.015159  1
  Ga  Ga8  1  0.233069  0.347099  0.484841  1
  Ga  Ga9  1  0.766931  0.652901  0.484841  1
  Ga  Ga10  1  0.652901  0.233069  0.515159  1
  Ga  Ga11  1  0.347099  0.766931  0.515159  1
  Ga  Ga12  1  0.798904  0.156272  0.044989  1
  Ga  Ga13  1  0.156272  0.201096  0.955011  1
  Ga  Ga14  1  0.843728  0.798904  0.955011  1
  Ga  Ga15  1  0.201096  0.843728  0.044989  1
  Ga  Ga16  1  0.156272  0.798904  0.455011  1
  Ga  Ga17  1  0.843728  0.201096  0.455011  1
  Ga  Ga18  1  0.201096  0.156272  0.544989  1
  Ga  Ga19  1  0.798904  0.843728  0.544989  1
  Ga  Ga20  1  0.166935  0.322716  0.073782  1
  Ga  Ga21  1  0.322716  0.833065  0.926218  1
  Ga  Ga22  1  0.677284  0.166935  0.926218  1
  Ga  Ga23  1  0.833065  0.677284  0.073782  1
  Ga  Ga24  1  0.322716  0.166935  0.426218  1
  Ga  Ga25  1  0.677284  0.833065  0.426218  1
  Ga  Ga26  1  0.833065  0.322716  0.573782  1
  Ga  Ga27  1  0.166935  0.677284  0.573782  1
  Ga  Ga28  1  0.662565  0.315479  0.102525  1
  Ga  Ga29  1  0.315479  0.337435  0.897475  1
  Ga  Ga30  1  0.684521  0.662565  0.897475  1
  Ga  Ga31  1  0.337435  0.684521  0.102525  1
  Ga  Ga32  1  0.315479  0.662565  0.397475  1
  Ga  Ga33  1  0.684521  0.337435  0.397475  1
  Ga  Ga34  1  0.337435  0.315479  0.602525  1
  Ga  Ga35  1  0.662565  0.684521  0.602525  1
  Ga  Ga36  1  0.288671  0.154410  0.131541  1
  Ga  Ga37  1  0.154410  0.711329  0.868459  1
  Ga  Ga38  1  0.845590  0.288671  0.868459  1
  Ga  Ga39  1  0.711329  0.845590  0.131541  1
  Ga  Ga40  1  0.154410  0.288671  0.368459  1
  Ga  Ga41  1  0.845590  0.711329  0.368459  1
  Ga  Ga42  1  0.711329  0.154410  0.631541  1
  Ga  Ga43  1  0.288671  0.845590  0.631541  1
  Ga  Ga44  1  0.847729  0.244666  0.161634  1
  Ga  Ga45  1  0.244666  0.152271  0.838366  1
  Ga  Ga46  1  0.755334  0.847729  0.838366  1
  Ga  Ga47  1  0.152271  0.755334  0.161634  1
  Ga  Ga48  1  0.244666  0.847729  0.338366  1
  Ga  Ga49  1  0.755334  0.152271  0.338366  1
  Ga  Ga50  1  0.152271  0.244666  0.661634  1
  Ga  Ga51  1  0.847729  0.755334  0.661634  1
  Ga  Ga52  1  0.278615  0.346489  0.191972  1
  Ga  Ga53  1  0.346489  0.721385  0.808028  1
  Ga  Ga54  1  0.653511  0.278615  0.808028  1
  Ga  Ga55  1  0.721385  0.653511  0.191972  1
  Ga  Ga56  1  0.346489  0.278615  0.308028  1
  Ga  Ga57  1  0.653511  0.721385  0.308028  1
  Ga  Ga58  1  0.721385  0.346489  0.691972  1
  Ga  Ga59  1  0.278615  0.653511  0.691972  1
  Ga  Ga60  1  0.659249  0.192039  0.221301  1
  Ga  Ga61  1  0.192039  0.340751  0.778699  1
  Ga  Ga62  1  0.807961  0.659249  0.778699  1
  Ga  Ga63  1  0.340751  0.807961  0.221301  1
  Ga  Ga64  1  0.192039  0.659249  0.278699  1
  Ga  Ga65  1  0.807961  0.340751  0.278699  1
  Ga  Ga66  1  0.340751  0.192039  0.721301  1
  Ga  Ga67  1  0.659249  0.807961  0.721301  1
  Rh  Rh68  1  0.500000  0.500000  0.250000  1
  Rh  Rh69  1  0.500000  0.500000  0.750000  1
  Rh  Rh70  1  0.000000  0.000000  0.000000  1
  Rh  Rh71  1  0.000000  0.000000  0.500000  1
  Rh  Rh72  1  0.000000  0.000000  0.098742  1
  Rh  Rh73  1  0.000000  0.000000  0.901258  1
  Rh  Rh74  1  0.000000  0.000000  0.401258  1
  Rh  Rh75  1  0.000000  0.000000  0.598742  1
  Rh  Rh76  1  0.000000  0.000000  0.201255  1
  Rh  Rh77  1  0.000000  0.000000  0.798745  1
  Rh  Rh78  1  0.000000  0.000000  0.298745  1
  Rh  Rh79  1  0.000000  0.000000  0.701255  1
  Rh  Rh80  1  0.500000  0.500000  0.051587  1
  Rh  Rh81  1  0.500000  0.500000  0.948413  1
  Rh  Rh82  1  0.500000  0.500000  0.448413  1
  Rh  Rh83  1  0.500000  0.500000  0.551587  1
  Rh  Rh84  1  0.500000  0.500000  0.149405  1
  Rh  Rh85  1  0.500000  0.500000  0.850595  1
  Rh  Rh86  1  0.500000  0.500000  0.350595  1
  Rh  Rh87  1  0.500000  0.500000  0.649405  1
  Rh  Rh88  1  0.000000  0.500000  0.025974  1
  Rh  Rh89  1  0.500000  0.000000  0.974026  1
  Rh  Rh90  1  0.500000  0.000000  0.474026  1
  Rh  Rh91  1  0.000000  0.500000  0.525974  1
  Rh  Rh92  1  0.000000  0.500000  0.123509  1
  Rh  Rh93  1  0.500000  0.000000  0.876491  1
  Rh  Rh94  1  0.500000  0.000000  0.376491  1
  Rh  Rh95  1  0.000000  0.500000  0.623509  1
  Rh  Rh96  1  0.000000  0.500000  0.226557  1
  Rh  Rh97  1  0.500000  0.000000  0.773443  1
  Rh  Rh98  1  0.500000  0.000000  0.273443  1
  Rh  Rh99  1  0.000000  0.500000  0.726557  1
  Rh  Rh100  1  0.000000  0.500000  0.324693  1
  Rh  Rh101  1  0.500000  0.000000  0.675307  1
  Rh  Rh102  1  0.500000  0.000000  0.175307  1
  Rh  Rh103  1  0.000000  0.500000  0.824693  1
  Rh  Rh104  1  0.000000  0.500000  0.424272  1
  Rh  Rh105  1  0.500000  0.000000  0.575728  1
  Rh  Rh106  1  0.500000  0.000000  0.075728  1
  Rh  Rh107  1  0.000000  0.500000  0.924272  1
