# generated using pymatgen
data_LiCo2(PO4)3
_symmetry_space_group_name_H-M   'P 1'
_cell_length_a   8.58587178
_cell_length_b   12.10933822
_cell_length_c   8.69936959
_cell_angle_alpha   90.00000000
_cell_angle_beta   90.00000000
_cell_angle_gamma   90.18307174
_symmetry_Int_Tables_number   1
_chemical_formula_structural   LiCo2(PO4)3
_chemical_formula_sum   'Li4 Co8 P12 O48'
_cell_volume   904.46209944
_cell_formula_units_Z   4
loop_
 _symmetry_equiv_pos_site_id
 _symmetry_equiv_pos_as_xyz
  1  'x, y, z'
loop_
 _atom_site_type_symbol
 _atom_site_label
 _atom_site_symmetry_multiplicity
 _atom_site_fract_x
 _atom_site_fract_y
 _atom_site_fract_z
 _atom_site_occupancy
  Li  Li0  1  0.199981  0.183998  0.777643  1
  Li  Li1  1  0.800020  0.816002  0.222357  1
  Li  Li2  1  0.699980  0.683998  0.722356  1
  Li  Li3  1  0.300020  0.316002  0.277643  1
  O  O4  1  0.315941  0.463424  0.548722  1
  O  O5  1  0.893833  0.422667  0.635434  1
  O  O6  1  0.852219  0.025853  0.576242  1
  O  O7  1  0.845095  0.764267  0.013970  1
  O  O8  1  0.866962  0.164226  0.790542  1
  O  O9  1  0.931910  0.409779  0.333447  1
  O  O10  1  0.933446  0.130111  0.112863  1
  O  O11  1  0.943483  0.560036  0.130329  1
  O  O12  1  0.056518  0.439964  0.869670  1
  O  O13  1  0.066554  0.869888  0.887137  1
  O  O14  1  0.068090  0.590220  0.666553  1
  O  O15  1  0.069038  0.167453  0.587080  1
  O  O16  1  0.106167  0.577333  0.364565  1
  O  O17  1  0.133038  0.835774  0.209457  1
  O  O18  1  0.147780  0.974147  0.423757  1
  O  O19  1  0.154904  0.235733  0.986029  1
  O  O20  1  0.170719  0.429454  0.172919  1
  O  O21  1  0.176068  0.178660  0.263880  1
  O  O22  1  0.184059  0.036576  0.048722  1
  O  O23  1  0.202146  0.774666  0.484224  1
  O  O24  1  0.297855  0.725334  0.984223  1
  O  O25  1  0.930961  0.832547  0.412920  1
  O  O26  1  0.323931  0.321339  0.763881  1
  O  O27  1  0.329281  0.070546  0.672918  1
  O  O28  1  0.345096  0.264267  0.486029  1
  O  O29  1  0.352219  0.525853  0.923757  1
  O  O30  1  0.366961  0.664226  0.709457  1
  O  O31  1  0.393834  0.922667  0.864565  1
  O  O32  1  0.431909  0.909779  0.166554  1
  O  O33  1  0.433446  0.630112  0.387138  1
  O  O34  1  0.430962  0.332547  0.087080  1
  O  O35  1  0.443482  0.060036  0.369671  1
  O  O36  1  0.556517  0.939964  0.630329  1
  O  O37  1  0.569039  0.667453  0.912920  1
  O  O38  1  0.566554  0.369888  0.612863  1
  O  O39  1  0.568090  0.090220  0.833447  1
  O  O40  1  0.606167  0.077333  0.135434  1
  O  O41  1  0.633038  0.335774  0.290542  1
  O  O42  1  0.647780  0.474147  0.076243  1
  O  O43  1  0.654905  0.735733  0.513971  1
  O  O44  1  0.670718  0.929454  0.327081  1
  O  O45  1  0.676069  0.678660  0.236119  1
  O  O46  1  0.829282  0.570546  0.827081  1
  O  O47  1  0.702146  0.274666  0.015777  1
  O  O48  1  0.797854  0.225334  0.515777  1
  O  O49  1  0.815940  0.963424  0.951278  1
  O  O50  1  0.823932  0.821339  0.736119  1
  O  O51  1  0.684060  0.536576  0.451278  1
  P  P52  1  0.394135  0.646239  0.883505  1
  P  P53  1  0.463639  0.006457  0.749590  1
  P  P54  1  0.387712  0.354346  0.604889  1
  P  P55  1  0.536360  0.993543  0.250410  1
  P  P56  1  0.605865  0.353761  0.116495  1
  P  P57  1  0.612288  0.645653  0.395111  1
  P  P58  1  0.887712  0.854346  0.895111  1
  P  P59  1  0.894135  0.146239  0.616495  1
  P  P60  1  0.036361  0.493543  0.249591  1
  P  P61  1  0.105864  0.853761  0.383505  1
  P  P62  1  0.112288  0.145654  0.104889  1
  P  P63  1  0.963640  0.506457  0.750410  1
  Co  Co64  1  0.750395  0.379307  0.473921  1
  Co  Co65  1  0.749605  0.120693  0.973921  1
  Co  Co66  1  0.751991  0.609593  0.036407  1
  Co  Co67  1  0.748009  0.890408  0.536407  1
  Co  Co68  1  0.251991  0.109593  0.463593  1
  Co  Co69  1  0.248009  0.390407  0.963594  1
  Co  Co70  1  0.250394  0.879307  0.026080  1
  Co  Co71  1  0.249606  0.620693  0.526080  1
