# generated using pymatgen
data_Li2VP2O7
_symmetry_space_group_name_H-M   'P 1'
_cell_length_a   5.06472258
_cell_length_b   7.00769024
_cell_length_c   8.45637939
_cell_angle_alpha   67.10689508
_cell_angle_beta   87.82557216
_cell_angle_gamma   88.07215382
_symmetry_Int_Tables_number   1
_chemical_formula_structural   Li2VP2O7
_chemical_formula_sum   'Li4 V2 P4 O14'
_cell_volume   276.23579083
_cell_formula_units_Z   2
loop_
 _symmetry_equiv_pos_site_id
 _symmetry_equiv_pos_as_xyz
  1  'x, y, z'
loop_
 _atom_site_type_symbol
 _atom_site_label
 _atom_site_symmetry_multiplicity
 _atom_site_fract_x
 _atom_site_fract_y
 _atom_site_fract_z
 _atom_site_occupancy
  Li  Li0  1  0.228562  0.797375  0.559629  1
  Li  Li1  1  0.288711  0.833827  0.001266  1
  Li  Li2  1  0.711289  0.166172  0.998734  1
  Li  Li3  1  0.771437  0.202625  0.440372  1
  O  O4  1  0.303822  0.122880  1.000666  1
  O  O5  1  0.134378  0.293640  0.462733  1
  O  O6  1  0.131146  0.654638  0.217988  1
  O  O7  1  0.285946  0.347200  0.160347  1
  O  O8  1  0.079022  0.914321  0.783158  1
  O  O9  1  0.389664  0.958948  0.321044  1
  O  O10  1  0.429996  0.525504  0.665763  1
  O  O11  1  0.570004  0.474497  0.334236  1
  O  O12  1  0.920978  0.085680  0.216842  1
  O  O13  1  0.696178  0.877119  -0.000665  1
  O  O14  1  0.714054  0.652800  0.839654  1
  O  O15  1  0.868854  0.345363  0.782011  1
  O  O16  1  0.865621  0.706360  0.537266  1
  O  O17  1  0.610336  0.041052  0.678957  1
  P  P18  1  0.220786  0.115285  0.179442  1
  P  P19  1  0.279255  0.448359  0.304913  1
  P  P20  1  0.720745  0.551640  0.695086  1
  P  P21  1  0.779215  0.884716  0.820558  1
  V  V22  1  0.245295  0.225092  0.722150  1
  V  V23  1  0.754705  0.774909  0.277849  1
