# generated using pymatgen
data_Pr2S3
_symmetry_space_group_name_H-M   'P 1'
_cell_length_a   22.48525975
_cell_length_b   8.66402014
_cell_length_c   8.66402015
_cell_angle_alpha   90.00000057
_cell_angle_beta   54.69140784
_cell_angle_gamma   54.69140780
_symmetry_Int_Tables_number   1
_chemical_formula_structural   Pr2S3
_chemical_formula_sum   'Pr16 S24'
_cell_volume   972.35799397
_cell_formula_units_Z   8
loop_
 _symmetry_equiv_pos_site_id
 _symmetry_equiv_pos_as_xyz
  1  'x, y, z'
loop_
 _atom_site_type_symbol
 _atom_site_label
 _atom_site_symmetry_multiplicity
 _atom_site_fract_x
 _atom_site_fract_y
 _atom_site_fract_z
 _atom_site_occupancy
  Pr  Pr0  1  0.995048  0.119575  0.765388  1
  Pr  Pr1  1  0.085101  0.622347  0.372347  1
  Pr  Pr2  1  0.166667  0.250000  0.630030  1
  Pr  Pr3  1  0.248232  0.877653  0.127653  1
  Pr  Pr4  1  0.338285  0.380425  0.250532  1
  Pr  Pr5  1  0.338285  0.104719  0.734612  1
  Pr  Pr6  1  0.166667  0.750000  0.869970  1
  Pr  Pr7  1  0.495048  0.265388  0.619575  1
  Pr  Pr8  1  0.666667  0.369970  0.250000  1
  Pr  Pr9  1  0.585101  0.872347  0.122347  1
  Pr  Pr10  1  0.666667  0.130030  0.750000  1
  Pr  Pr11  1  0.495048  0.749468  0.895281  1
  Pr  Pr12  1  0.748232  0.627653  0.377653  1
  Pr  Pr13  1  0.838285  0.234612  0.604719  1
  Pr  Pr14  1  0.995048  0.395281  0.249468  1
  Pr  Pr15  1  0.838285  0.750532  0.880425  1
  S  S16  1  0.126145  0.487106  0.991965  1
  S  S17  1  0.050741  0.349139  0.495998  1
  S  S18  1  0.282592  0.150861  0.148223  1
  S  S19  1  0.050741  0.998636  0.351777  1
  S  S20  1  0.282592  0.501364  0.004002  1
  S  S21  1  0.126145  0.634459  0.629600  1
  S  S22  1  0.207189  0.012894  0.870400  1
  S  S23  1  0.207189  0.865541  0.508035  1
  S  S24  1  0.449025  0.495536  0.994706  1
  S  S25  1  0.384308  0.341781  0.504464  1
  S  S26  1  0.384308  0.005294  0.342610  1
  S  S27  1  0.626145  0.129600  0.134459  1
  S  S28  1  0.626145  0.491965  0.987106  1
  S  S29  1  0.550741  0.995998  0.849139  1
  S  S30  1  0.449025  0.657390  0.658219  1
  S  S31  1  0.550741  0.851777  0.498636  1
  S  S32  1  0.782592  0.504002  0.001364  1
  S  S33  1  0.707189  0.370400  0.512894  1
  S  S34  1  0.949025  0.158219  0.157390  1
  S  S35  1  0.707189  0.008035  0.365541  1
  S  S36  1  0.949025  0.494706  0.995536  1
  S  S37  1  0.884308  0.004464  0.841781  1
  S  S38  1  0.782592  0.648223  0.650861  1
  S  S39  1  0.884308  0.842610  0.505294  1
