# generated using pymatgen
data_Nd(CuGe)2
_symmetry_space_group_name_H-M   'P 1'
_cell_length_a   4.14698762
_cell_length_b   4.14698762
_cell_length_c   5.93724099
_cell_angle_alpha   110.44054645
_cell_angle_beta   110.44054642
_cell_angle_gamma   89.99999992
_symmetry_Int_Tables_number   1
_chemical_formula_structural   Nd(CuGe)2
_chemical_formula_sum   'Nd1 Cu2 Ge2'
_cell_volume   88.78324428
_cell_formula_units_Z   1
loop_
 _symmetry_equiv_pos_site_id
 _symmetry_equiv_pos_as_xyz
  1  'x, y, z'
loop_
 _atom_site_type_symbol
 _atom_site_label
 _atom_site_symmetry_multiplicity
 _atom_site_fract_x
 _atom_site_fract_y
 _atom_site_fract_z
 _atom_site_occupancy
  Cu  Cu0  1  0.250000  0.750000  0.500000  1
  Cu  Cu1  1  0.750000  0.250000  0.500000  1
  Ge  Ge2  1  0.622184  0.622184  0.244368  1
  Ge  Ge3  1  0.377816  0.377816  0.755632  1
  Nd  Nd4  1  0.000000  0.000000  0.000000  1
