# generated using pymatgen
data_Cs2Mn3Se4
_symmetry_space_group_name_H-M   'P 1'
_cell_length_a   6.33240108
_cell_length_b   10.08965697
_cell_length_c   10.08965696
_cell_angle_alpha   74.65907230
_cell_angle_beta   71.71121811
_cell_angle_gamma   71.71121808
_symmetry_Int_Tables_number   1
_chemical_formula_structural   Cs2Mn3Se4
_chemical_formula_sum   'Cs4 Mn6 Se8'
_cell_volume   571.21703998
_cell_formula_units_Z   2
loop_
 _symmetry_equiv_pos_site_id
 _symmetry_equiv_pos_as_xyz
  1  'x, y, z'
loop_
 _atom_site_type_symbol
 _atom_site_label
 _atom_site_symmetry_multiplicity
 _atom_site_fract_x
 _atom_site_fract_y
 _atom_site_fract_z
 _atom_site_occupancy
  Mn  Mn0  1  0.250000  0.520320  0.979680  1
  Mn  Mn1  1  0.250000  0.979680  0.520320  1
  Mn  Mn2  1  0.750000  0.479680  0.020320  1
  Mn  Mn3  1  0.750000  0.750000  0.750000  1
  Mn  Mn4  1  0.250000  0.250000  0.250000  1
  Mn  Mn5  1  0.750000  0.020320  0.479680  1
  Se  Se6  1  0.373020  0.213899  0.480851  1
  Se  Se7  1  0.567770  0.286101  0.019149  1
  Se  Se8  1  0.126980  0.019149  0.286101  1
  Se  Se9  1  0.932230  0.480851  0.213899  1
  Se  Se10  1  0.626980  0.786101  0.519149  1
  Se  Se11  1  0.432230  0.713899  0.980851  1
  Se  Se12  1  0.873020  0.980851  0.713899  1
  Se  Se13  1  0.067770  0.519149  0.786101  1
  Cs  Cs14  1  0.234646  0.121012  0.878988  1
  Cs  Cs15  1  0.734646  0.378988  0.621012  1
  Cs  Cs16  1  0.265354  0.621012  0.378988  1
  Cs  Cs17  1  0.765354  0.878988  0.121012  1
