# generated using pymatgen
data_Ca3Ru2O7
_symmetry_space_group_name_H-M   'P 1'
_cell_length_a   5.42844338
_cell_length_b   5.63838821
_cell_length_c   10.17667476
_cell_angle_alpha   90.00000000
_cell_angle_beta   105.46859057
_cell_angle_gamma   90.00000000
_symmetry_Int_Tables_number   1
_chemical_formula_structural   Ca3Ru2O7
_chemical_formula_sum   'Ca6 Ru4 O14'
_cell_volume   300.20135860
_cell_formula_units_Z   2
loop_
 _symmetry_equiv_pos_site_id
 _symmetry_equiv_pos_as_xyz
  1  'x, y, z'
loop_
 _atom_site_type_symbol
 _atom_site_label
 _atom_site_symmetry_multiplicity
 _atom_site_fract_x
 _atom_site_fract_y
 _atom_site_fract_z
 _atom_site_occupancy
  O  O0  1  0.068567  0.954793  0.238357  1
  O  O1  1  0.931433  0.454793  0.761643  1
  O  O2  1  0.169790  0.454793  0.238357  1
  O  O3  1  0.830210  0.954793  0.761643  1
  O  O4  1  0.525640  0.050395  0.159483  1
  O  O5  1  0.474360  0.550395  0.840517  1
  O  O6  1  0.633843  0.550395  0.159483  1
  O  O7  1  0.366157  0.050395  0.840517  1
  O  O8  1  0.156749  0.725456  0.000000  1
  O  O9  1  0.843251  0.225456  0.000000  1
  O  O10  1  0.126331  0.773710  0.602025  1
  O  O11  1  0.873669  0.273710  0.397975  1
  O  O12  1  0.475694  0.273710  0.602025  1
  O  O13  1  0.524306  0.773710  0.397975  1
  Ca  Ca14  1  0.554197  0.689678  0.622726  1
  Ca  Ca15  1  0.445803  0.189678  0.377274  1
  Ca  Ca16  1  0.068529  0.189678  0.622726  1
  Ca  Ca17  1  0.931471  0.689678  0.377274  1
  Ca  Ca18  1  0.267646  0.311266  0.000000  1
  Ca  Ca19  1  0.732354  0.811266  0.000000  1
  Ru  Ru20  1  0.653433  0.249012  0.801906  1
  Ru  Ru21  1  0.346567  0.749012  0.198094  1
  Ru  Ru22  1  0.148473  0.749012  0.801906  1
  Ru  Ru23  1  0.851527  0.249012  0.198094  1
