# generated using pymatgen
data_Ho3(CuGe)4
_symmetry_space_group_name_H-M   'P 1'
_cell_length_a   4.18368952
_cell_length_b   6.65291513
_cell_length_c   7.97773709
_cell_angle_alpha   114.64328435
_cell_angle_beta   105.20125349
_cell_angle_gamma   90.00000003
_symmetry_Int_Tables_number   1
_chemical_formula_structural   Ho3(CuGe)4
_chemical_formula_sum   'Ho3 Cu4 Ge4'
_cell_volume   193.24539840
_cell_formula_units_Z   1
loop_
 _symmetry_equiv_pos_site_id
 _symmetry_equiv_pos_as_xyz
  1  'x, y, z'
loop_
 _atom_site_type_symbol
 _atom_site_label
 _atom_site_symmetry_multiplicity
 _atom_site_fract_x
 _atom_site_fract_y
 _atom_site_fract_z
 _atom_site_occupancy
  Cu  Cu0  1  0.669199  0.859286  0.338398  1
  Cu  Cu1  1  0.330801  0.140714  0.661602  1
  Cu  Cu2  1  0.669199  0.479112  0.338398  1
  Cu  Cu3  1  0.330801  0.520888  0.661602  1
  Ge  Ge4  1  0.783136  0.283136  0.566273  1
  Ge  Ge5  1  0.500000  0.808065  0.000000  1
  Ge  Ge6  1  0.500000  0.191935  0.000000  1
  Ge  Ge7  1  0.216864  0.716864  0.433727  1
  Ho  Ho8  1  0.870142  0.870142  0.740285  1
  Ho  Ho9  1  0.129858  0.129858  0.259715  1
  Ho  Ho10  1  0.000000  0.500000  0.000000  1
