# generated using pymatgen
data_Mo2(PO4)3
_symmetry_space_group_name_H-M   'P 1'
_cell_length_a   8.75803966
_cell_length_b   9.03291356
_cell_length_c   8.77394048
_cell_angle_alpha   90.06835329
_cell_angle_beta   60.08657986
_cell_angle_gamma   118.97385719
_symmetry_Int_Tables_number   1
_chemical_formula_structural   Mo2(PO4)3
_chemical_formula_sum   'Mo4 P6 O24'
_cell_volume   499.19572017
_cell_formula_units_Z   2
loop_
 _symmetry_equiv_pos_site_id
 _symmetry_equiv_pos_as_xyz
  1  'x, y, z'
loop_
 _atom_site_type_symbol
 _atom_site_label
 _atom_site_symmetry_multiplicity
 _atom_site_fract_x
 _atom_site_fract_y
 _atom_site_fract_z
 _atom_site_occupancy
  O  O0  1  0.222053  0.780544  0.199729  1
  O  O1  1  0.230727  0.091130  0.270044  1
  O  O2  1  0.189273  0.265921  0.093850  1
  O  O3  1  0.009976  0.212912  0.436375  1
  O  O4  1  0.778002  0.918845  0.742767  1
  O  O5  1  0.786620  0.717424  0.926832  1
  O  O6  1  0.974096  0.770424  0.581855  1
  O  O7  1  0.407763  0.912651  0.853756  1
  O  O8  1  0.778970  0.415320  0.995229  1
  O  O9  1  0.652662  0.913189  0.494983  1
  O  O10  1  0.580166  0.584244  0.792167  1
  O  O11  1  0.012583  0.730336  0.067025  1
  O  O12  1  0.361444  0.783809  0.440153  1
  O  O13  1  0.658303  0.732914  0.282755  1
  O  O14  1  0.206597  0.578735  0.007368  1
  O  O15  1  0.365651  0.580718  0.621967  1
  O  O16  1  0.636140  0.417518  0.360996  1
  O  O17  1  0.606413  0.084565  0.136105  1
  O  O18  1  0.371233  0.276899  0.712018  1
  O  O19  1  0.663713  0.229019  0.541960  1
  O  O20  1  0.993760  0.280352  0.908992  1
  O  O21  1  0.403218  0.423274  0.228931  1
  O  O22  1  0.350450  0.084981  0.512358  1
  O  O23  1  0.757480  0.216881  0.800774  1
  P  P24  1  0.782091  0.248060  0.964987  1
  P  P25  1  0.506278  0.750790  0.462352  1
  P  P26  1  0.503576  0.249562  0.532450  1
  P  P27  1  0.212844  0.748928  0.032161  1
  P  P28  1  0.782934  0.750191  0.751962  1
  P  P29  1  0.213877  0.250018  0.250473  1
  Mo  Mo30  1  0.712958  0.068360  0.644976  1
  Mo  Mo31  1  0.711545  0.571380  0.142852  1
  Mo  Mo32  1  0.285248  0.428180  0.854603  1
  Mo  Mo33  1  0.291358  0.931926  0.354192  1
