# generated using pymatgen
data_SrLiBi
_symmetry_space_group_name_H-M   'P 1'
_cell_length_a   4.94623642
_cell_length_b   8.23189437
_cell_length_c   8.70005923
_cell_angle_alpha   90.00000000
_cell_angle_beta   90.00000000
_cell_angle_gamma   90.00000000
_symmetry_Int_Tables_number   1
_chemical_formula_structural   SrLiBi
_chemical_formula_sum   'Sr4 Li4 Bi4'
_cell_volume   354.23940459
_cell_formula_units_Z   4
loop_
 _symmetry_equiv_pos_site_id
 _symmetry_equiv_pos_as_xyz
  1  'x, y, z'
loop_
 _atom_site_type_symbol
 _atom_site_label
 _atom_site_symmetry_multiplicity
 _atom_site_fract_x
 _atom_site_fract_y
 _atom_site_fract_z
 _atom_site_occupancy
  Li  Li0  1  0.750000  0.839957  0.574504  1
  Li  Li1  1  0.250000  0.660043  0.074504  1
  Li  Li2  1  0.750000  0.339957  0.925496  1
  Li  Li3  1  0.250000  0.160043  0.425496  1
  Sr  Sr4  1  0.250000  0.503857  0.706847  1
  Sr  Sr5  1  0.750000  0.996143  0.206847  1
  Sr  Sr6  1  0.250000  0.003857  0.793153  1
  Sr  Sr7  1  0.750000  0.496143  0.293153  1
  Bi  Bi8  1  0.250000  0.776710  0.405312  1
  Bi  Bi9  1  0.750000  0.223290  0.594688  1
  Bi  Bi10  1  0.250000  0.276710  0.094688  1
  Bi  Bi11  1  0.750000  0.723290  0.905312  1
