# generated using pymatgen
data_Nd2EuSe4
_symmetry_space_group_name_H-M   'P 1'
_cell_length_a   7.79833364
_cell_length_b   7.79833347
_cell_length_c   7.79833401
_cell_angle_alpha   109.44874188
_cell_angle_beta   109.44873749
_cell_angle_gamma   109.51618689
_symmetry_Int_Tables_number   1
_chemical_formula_structural   Nd2EuSe4
_chemical_formula_sum   'Nd4 Eu2 Se8'
_cell_volume   365.07608282
_cell_formula_units_Z   2
loop_
 _symmetry_equiv_pos_site_id
 _symmetry_equiv_pos_as_xyz
  1  'x, y, z'
loop_
 _atom_site_type_symbol
 _atom_site_label
 _atom_site_symmetry_multiplicity
 _atom_site_fract_x
 _atom_site_fract_y
 _atom_site_fract_z
 _atom_site_occupancy
  Eu  Eu0  1  0.625000  0.375000  0.250000  1
  Eu  Eu1  1  0.875000  0.125000  0.750000  1
  Nd  Nd2  1  0.125069  0.750000  0.875069  1
  Nd  Nd3  1  0.250000  0.625069  0.375069  1
  Nd  Nd4  1  0.374931  0.250000  0.624931  1
  Nd  Nd5  1  0.750000  0.874931  0.124931  1
  Se  Se6  1  0.145327  0.145281  0.150164  1
  Se  Se7  1  0.495117  0.995163  0.349836  1
  Se  Se8  1  0.354673  0.504837  0.999954  1
  Se  Se9  1  0.645281  0.645327  0.650164  1
  Se  Se10  1  0.495163  0.995117  0.849836  1
  Se  Se11  1  0.004837  0.854673  0.499954  1
  Se  Se12  1  0.854719  0.504883  0.000046  1
  Se  Se13  1  0.004883  0.354719  0.500046  1
