# generated using pymatgen
data_Tb3SiBr3
_symmetry_space_group_name_H-M   'P 1'
_cell_length_a   10.10300507
_cell_length_b   10.10300507
_cell_length_c   10.10300507
_cell_angle_alpha   109.47122065
_cell_angle_beta   109.47122065
_cell_angle_gamma   109.47122060
_symmetry_Int_Tables_number   1
_chemical_formula_structural   Tb3SiBr3
_chemical_formula_sum   'Tb12 Si4 Br12'
_cell_volume   793.83423121
_cell_formula_units_Z   4
loop_
 _symmetry_equiv_pos_site_id
 _symmetry_equiv_pos_as_xyz
  1  'x, y, z'
loop_
 _atom_site_type_symbol
 _atom_site_label
 _atom_site_symmetry_multiplicity
 _atom_site_fract_x
 _atom_site_fract_y
 _atom_site_fract_z
 _atom_site_occupancy
  Si  Si0  1  0.500000  0.000000  0.250000  1
  Si  Si1  1  0.000000  0.250000  0.500000  1
  Si  Si2  1  0.250000  0.500000  0.000000  1
  Si  Si3  1  0.250000  0.250000  0.250000  1
  Br  Br4  1  0.250000  0.754626  0.745374  1
  Br  Br5  1  0.995374  0.504626  0.250000  1
  Br  Br6  1  0.504626  0.250000  0.995374  1
  Br  Br7  1  0.754626  0.509251  0.504626  1
  Br  Br8  1  0.745374  0.995374  0.990749  1
  Br  Br9  1  0.990749  0.745374  0.995374  1
  Br  Br10  1  0.509251  0.504626  0.754626  1
  Br  Br11  1  0.504626  0.754626  0.509251  1
  Br  Br12  1  0.250000  0.995374  0.504626  1
  Br  Br13  1  0.995374  0.990749  0.745374  1
  Br  Br14  1  0.745374  0.250000  0.754626  1
  Br  Br15  1  0.754626  0.745374  0.250000  1
  Tb  Tb16  1  0.025163  0.262581  0.012581  1
  Tb  Tb17  1  0.012581  0.025163  0.262581  1
  Tb  Tb18  1  0.012581  0.487419  0.750000  1
  Tb  Tb19  1  0.262581  0.750000  0.237419  1
  Tb  Tb20  1  0.262581  0.012581  0.025163  1
  Tb  Tb21  1  0.750000  0.012581  0.487419  1
  Tb  Tb22  1  0.750000  0.237419  0.262581  1
  Tb  Tb23  1  0.237419  0.262581  0.750000  1
  Tb  Tb24  1  0.487419  0.237419  0.474837  1
  Tb  Tb25  1  0.237419  0.474837  0.487419  1
  Tb  Tb26  1  0.487419  0.750000  0.012581  1
  Tb  Tb27  1  0.474837  0.487419  0.237419  1
