# generated using pymatgen
data_Rb6Br4O
_symmetry_space_group_name_H-M   'P 1'
_cell_length_a   9.50334502
_cell_length_b   9.50334431
_cell_length_c   9.50334509
_cell_angle_alpha   88.97297637
_cell_angle_beta   88.97297644
_cell_angle_gamma   88.97297536
_symmetry_Int_Tables_number   1
_chemical_formula_structural   Rb6Br4O
_chemical_formula_sum   'Rb12 Br8 O2'
_cell_volume   857.87216166
_cell_formula_units_Z   2
loop_
 _symmetry_equiv_pos_site_id
 _symmetry_equiv_pos_as_xyz
  1  'x, y, z'
loop_
 _atom_site_type_symbol
 _atom_site_label
 _atom_site_symmetry_multiplicity
 _atom_site_fract_x
 _atom_site_fract_y
 _atom_site_fract_z
 _atom_site_occupancy
  Rb  Rb0  1  0.224063  0.558556  0.429432  1
  Rb  Rb1  1  0.429432  0.224063  0.558556  1
  Rb  Rb2  1  0.558556  0.429432  0.224063  1
  Rb  Rb3  1  0.941444  0.275937  0.070568  1
  Rb  Rb4  1  0.070568  0.941444  0.275937  1
  Rb  Rb5  1  0.275937  0.070568  0.941444  1
  Rb  Rb6  1  0.775937  0.441444  0.570568  1
  Rb  Rb7  1  0.570568  0.775937  0.441444  1
  Rb  Rb8  1  0.441444  0.570568  0.775937  1
  Rb  Rb9  1  0.058556  0.724063  0.929432  1
  Rb  Rb10  1  0.929432  0.058556  0.724063  1
  Rb  Rb11  1  0.724063  0.929432  0.058556  1
  Br  Br12  1  0.879700  0.620300  0.250000  1
  Br  Br13  1  0.250000  0.879700  0.620300  1
  Br  Br14  1  0.620300  0.250000  0.879700  1
  Br  Br15  1  0.120300  0.379700  0.750000  1
  Br  Br16  1  0.750000  0.120300  0.379700  1
  Br  Br17  1  0.379700  0.750000  0.120300  1
  Br  Br18  1  0.250000  0.250000  0.250000  1
  Br  Br19  1  0.750000  0.750000  0.750000  1
  O  O20  1  0.000000  0.000000  0.000000  1
  O  O21  1  0.500000  0.500000  0.500000  1
