# generated using pymatgen
data_PrSO
_symmetry_space_group_name_H-M   'P 1'
_cell_length_a   8.42422358
_cell_length_b   5.86666082
_cell_length_c   6.56263680
_cell_angle_alpha   103.08884930
_cell_angle_beta   99.07393236
_cell_angle_gamma   45.86081694
_symmetry_Int_Tables_number   1
_chemical_formula_structural   PrSO
_chemical_formula_sum   'Pr4 S4 O4'
_cell_volume   226.71484278
_cell_formula_units_Z   4
loop_
 _symmetry_equiv_pos_site_id
 _symmetry_equiv_pos_as_xyz
  1  'x, y, z'
loop_
 _atom_site_type_symbol
 _atom_site_label
 _atom_site_symmetry_multiplicity
 _atom_site_fract_x
 _atom_site_fract_y
 _atom_site_fract_z
 _atom_site_occupancy
  O  O0  1  0.248277  0.245906  0.505085  1
  O  O1  1  0.251723  0.742460  0.505085  1
  O  O2  1  0.748277  0.257540  0.494915  1
  O  O3  1  0.751723  0.754094  0.494915  1
  Pr  Pr4  1  0.003774  0.285243  0.675074  1
  Pr  Pr5  1  0.996226  0.714757  0.324926  1
  Pr  Pr6  1  0.496226  0.292791  0.675074  1
  Pr  Pr7  1  0.503774  0.707209  0.324926  1
  S  S8  1  0.064796  0.090370  0.092149  1
  S  S9  1  0.435204  0.219963  0.092149  1
  S  S10  1  0.935204  0.909630  0.907851  1
  S  S11  1  0.564796  0.780037  0.907851  1
