# generated using pymatgen
data_La2UTe4
_symmetry_space_group_name_H-M   'P 1'
_cell_length_a   8.28828859
_cell_length_b   8.28828830
_cell_length_c   8.28828806
_cell_angle_alpha   109.33205310
_cell_angle_beta   109.74991227
_cell_angle_gamma   109.33205247
_symmetry_Int_Tables_number   1
_chemical_formula_structural   La2UTe4
_chemical_formula_sum   'La4 U2 Te8'
_cell_volume   438.29343943
_cell_formula_units_Z   2
loop_
 _symmetry_equiv_pos_site_id
 _symmetry_equiv_pos_as_xyz
  1  'x, y, z'
loop_
 _atom_site_type_symbol
 _atom_site_label
 _atom_site_symmetry_multiplicity
 _atom_site_fract_x
 _atom_site_fract_y
 _atom_site_fract_z
 _atom_site_occupancy
  La  La0  1  0.250000  0.625896  0.375896  1
  La  La1  1  0.750000  0.874104  0.124104  1
  La  La2  1  0.624104  0.374104  0.250000  1
  La  La3  1  0.875896  0.125896  0.750000  1
  Te  Te4  1  0.006303  0.350386  0.506574  1
  Te  Te5  1  0.156187  0.149614  0.155916  1
  Te  Te6  1  0.343813  0.499729  0.993426  1
  Te  Te7  1  0.493426  -0.000271  0.843813  1
  Te  Te8  1  0.655916  0.649614  0.656187  1
  Te  Te9  1  0.493697  1.000271  0.344084  1
  Te  Te10  1  0.006574  0.850386  0.506303  1
  Te  Te11  1  0.844084  0.500271  0.993697  1
  U  U12  1  0.125000  0.750000  0.875000  1
  U  U13  1  0.375000  0.250000  0.625000  1
