# generated using pymatgen
data_Na2Sb4O7
_symmetry_space_group_name_H-M   'P 1'
_cell_length_a   5.76979070
_cell_length_b   10.03876451
_cell_length_c   10.30880301
_cell_angle_alpha   118.20309106
_cell_angle_beta   104.77121940
_cell_angle_gamma   92.92990986
_symmetry_Int_Tables_number   1
_chemical_formula_structural   Na2Sb4O7
_chemical_formula_sum   'Na4 Sb8 O14'
_cell_volume   498.39805973
_cell_formula_units_Z   2
loop_
 _symmetry_equiv_pos_site_id
 _symmetry_equiv_pos_as_xyz
  1  'x, y, z'
loop_
 _atom_site_type_symbol
 _atom_site_label
 _atom_site_symmetry_multiplicity
 _atom_site_fract_x
 _atom_site_fract_y
 _atom_site_fract_z
 _atom_site_occupancy
  O  O0  1  0.733457  0.229692  0.237110  1
  O  O1  1  0.144618  0.613543  0.130723  1
  O  O2  1  0.266543  0.770308  0.762890  1
  O  O3  1  0.496347  0.492582  0.762890  1
  O  O4  1  0.940604  0.690604  0.881209  1
  O  O5  1  0.059396  0.309396  0.118791  1
  O  O6  1  0.013896  0.982820  0.869277  1
  O  O7  1  0.855382  0.386457  0.869277  1
  O  O8  1  0.986104  0.017180  0.130723  1
  O  O9  1  0.729326  0.305463  0.526032  1
  O  O10  1  0.203294  0.279431  0.473968  1
  O  O11  1  0.270674  0.694537  0.473968  1
  O  O12  1  0.503653  0.507418  0.237110  1
  O  O13  1  0.796706  0.720569  0.526032  1
  Na  Na14  1  0.596701  0.679849  0.684010  1
  Na  Na15  1  0.087309  0.504161  0.684010  1
  Na  Na16  1  0.403299  0.320151  0.315990  1
  Na  Na17  1  0.912691  0.495839  0.315990  1
  Sb  Sb18  1  0.799740  0.117031  0.018942  1
  Sb  Sb19  1  0.780798  0.598088  0.981058  1
  Sb  Sb20  1  0.200260  0.882969  0.981058  1
  Sb  Sb21  1  0.219202  0.401912  0.018942  1
  Sb  Sb22  1  0.121425  0.864145  0.637430  1
  Sb  Sb23  1  0.516005  0.273285  0.637430  1
  Sb  Sb24  1  0.878575  0.135855  0.362570  1
  Sb  Sb25  1  0.483995  0.726715  0.362570  1
