# generated using pymatgen
data_K3(NiO2)2
_symmetry_space_group_name_H-M   'P 1'
_cell_length_a   5.49661960
_cell_length_b   5.49661960
_cell_length_c   10.70782262
_cell_angle_alpha   90.00000000
_cell_angle_beta   90.00000000
_cell_angle_gamma   112.29111499
_symmetry_Int_Tables_number   1
_chemical_formula_structural   K3(NiO2)2
_chemical_formula_sum   'K6 Ni4 O8'
_cell_volume   299.33695274
_cell_formula_units_Z   2
loop_
 _symmetry_equiv_pos_site_id
 _symmetry_equiv_pos_as_xyz
  1  'x, y, z'
loop_
 _atom_site_type_symbol
 _atom_site_label
 _atom_site_symmetry_multiplicity
 _atom_site_fract_x
 _atom_site_fract_y
 _atom_site_fract_z
 _atom_site_occupancy
  O  O0  1  0.864521  0.731941  0.615572  1
  O  O1  1  0.864521  0.731941  0.884429  1
  O  O2  1  0.268059  0.135479  0.615572  1
  O  O3  1  0.731941  0.864522  0.115571  1
  O  O4  1  0.135478  0.268059  0.384429  1
  O  O5  1  0.268059  0.135479  0.884429  1
  O  O6  1  0.731941  0.864522  0.384429  1
  O  O7  1  0.135478  0.268059  0.115571  1
  K  K8  1  0.297744  0.702258  0.250000  1
  K  K9  1  0.702257  0.297743  0.750000  1
  K  K10  1  0.350082  0.649919  0.572505  1
  K  K11  1  0.649919  0.350082  0.072505  1
  K  K12  1  0.649919  0.350082  0.427495  1
  K  K13  1  0.350082  0.649919  0.927495  1
  Ni  Ni14  1  0.065889  0.934111  0.750000  1
  Ni  Ni15  1  0.000000  0.000000  0.500000  1
  Ni  Ni16  1  0.000000  0.000000  0.000000  1
  Ni  Ni17  1  0.934111  0.065888  0.250000  1
