# generated using pymatgen
data_Tm3Ga5
_symmetry_space_group_name_H-M   'P 1'
_cell_length_a   6.04605918
_cell_length_b   9.60664771
_cell_length_c   11.33295410
_cell_angle_alpha   90.00000000
_cell_angle_beta   90.00000000
_cell_angle_gamma   90.00000000
_symmetry_Int_Tables_number   1
_chemical_formula_structural   Tm3Ga5
_chemical_formula_sum   'Tm12 Ga20'
_cell_volume   658.24472643
_cell_formula_units_Z   4
loop_
 _symmetry_equiv_pos_site_id
 _symmetry_equiv_pos_as_xyz
  1  'x, y, z'
loop_
 _atom_site_type_symbol
 _atom_site_label
 _atom_site_symmetry_multiplicity
 _atom_site_fract_x
 _atom_site_fract_y
 _atom_site_fract_z
 _atom_site_occupancy
  Ga  Ga0  1  0.626493  0.750000  0.494126  1
  Ga  Ga1  1  0.126493  0.250000  0.005874  1
  Ga  Ga2  1  0.373507  0.250000  0.505874  1
  Ga  Ga3  1  0.873507  0.750000  0.994126  1
  Ga  Ga4  1  0.672886  0.750000  0.748478  1
  Ga  Ga5  1  0.172886  0.250000  0.751522  1
  Ga  Ga6  1  0.327114  0.250000  0.251522  1
  Ga  Ga7  1  0.827114  0.750000  0.248478  1
  Ga  Ga8  1  0.104946  0.750000  0.701283  1
  Ga  Ga9  1  0.604946  0.250000  0.798717  1
  Ga  Ga10  1  0.895054  0.250000  0.298717  1
  Ga  Ga11  1  0.395054  0.750000  0.201283  1
  Ga  Ga12  1  0.874364  0.948167  0.591018  1
  Ga  Ga13  1  0.374364  0.051833  0.908982  1
  Ga  Ga14  1  0.125636  0.448167  0.408982  1
  Ga  Ga15  1  0.625636  0.551833  0.091018  1
  Ga  Ga16  1  0.125636  0.051833  0.408982  1
  Ga  Ga17  1  0.625636  0.948167  0.091018  1
  Ga  Ga18  1  0.874364  0.551833  0.591018  1
  Ga  Ga19  1  0.374364  0.448167  0.908982  1
  Tm  Tm20  1  0.347832  0.750000  0.926830  1
  Tm  Tm21  1  0.847832  0.250000  0.573170  1
  Tm  Tm22  1  0.652168  0.250000  0.073170  1
  Tm  Tm23  1  0.152168  0.750000  0.426830  1
  Tm  Tm24  1  0.890673  0.009719  0.852226  1
  Tm  Tm25  1  0.390673  0.990281  0.647774  1
  Tm  Tm26  1  0.109327  0.509719  0.147774  1
  Tm  Tm27  1  0.609327  0.490281  0.352226  1
  Tm  Tm28  1  0.109327  0.990281  0.147774  1
  Tm  Tm29  1  0.609327  0.009719  0.352226  1
  Tm  Tm30  1  0.890673  0.490281  0.852226  1
  Tm  Tm31  1  0.390673  0.509719  0.647774  1
