# generated using pymatgen
data_Co2RuO4
_symmetry_space_group_name_H-M   'P 1'
_cell_length_a   5.98670778
_cell_length_b   5.98670832
_cell_length_c   5.99251877
_cell_angle_alpha   59.96789530
_cell_angle_beta   59.96789231
_cell_angle_gamma   56.06568996
_symmetry_Int_Tables_number   1
_chemical_formula_structural   Co2RuO4
_chemical_formula_sum   'Co4 Ru2 O8'
_cell_volume   146.78137325
_cell_formula_units_Z   2
loop_
 _symmetry_equiv_pos_site_id
 _symmetry_equiv_pos_as_xyz
  1  'x, y, z'
loop_
 _atom_site_type_symbol
 _atom_site_label
 _atom_site_symmetry_multiplicity
 _atom_site_fract_x
 _atom_site_fract_y
 _atom_site_fract_z
 _atom_site_occupancy
  Co  Co0  1  -0.002583  -0.002583  0.002583  1
  Co  Co1  1  0.252583  0.252583  0.247417  1
  Co  Co2  1  0.625000  0.625000  0.125000  1
  Co  Co3  1  0.625000  0.625000  0.625000  1
  Ru  Ru4  1  0.125000  0.625000  0.625000  1
  Ru  Ru5  1  0.625000  0.125000  0.625000  1
  O  O6  1  0.401356  0.401356  0.350117  1
  O  O7  1  0.401356  0.401356  0.847170  1
  O  O8  1  0.388659  0.838070  0.386635  1
  O  O9  1  0.838070  0.388659  0.386635  1
  O  O10  1  0.411930  0.861341  0.863365  1
  O  O11  1  0.861341  0.411930  0.863365  1
  O  O12  1  0.848644  0.848644  0.402830  1
  O  O13  1  0.848644  0.848644  0.899883  1
