# generated using pymatgen
data_Bi2CO5
_symmetry_space_group_name_H-M   'P 1'
_cell_length_a   4.55734241
_cell_length_b   3.59749581
_cell_length_c   7.52268339
_cell_angle_alpha   103.83173527
_cell_angle_beta   107.63227033
_cell_angle_gamma   90.00000003
_symmetry_Int_Tables_number   1
_chemical_formula_structural   Bi2CO5
_chemical_formula_sum   'Bi2 C1 O5'
_cell_volume   113.78188017
_cell_formula_units_Z   1
loop_
 _symmetry_equiv_pos_site_id
 _symmetry_equiv_pos_as_xyz
  1  'x, y, z'
loop_
 _atom_site_type_symbol
 _atom_site_label
 _atom_site_symmetry_multiplicity
 _atom_site_fract_x
 _atom_site_fract_y
 _atom_site_fract_z
 _atom_site_occupancy
  C  C0  1  0.341051  0.341155  0.682103  1
  O  O1  1  0.434090  0.434238  0.868180  1
  O  O2  1  0.536990  0.293590  0.587159  1
  O  O3  1  0.589422  0.089407  0.178845  1
  O  O4  1  0.114496  0.614452  0.228992  1
  O  O5  1  0.050169  0.293590  0.587159  1
  Bi  Bi6  1  0.695359  0.695143  0.390718  1
  Bi  Bi7  1  0.019752  0.019754  0.039504  1
