# generated using pymatgen
data_CrSbO4
_symmetry_space_group_name_H-M   'P 1'
_cell_length_a   5.60210260
_cell_length_b   5.60210260
_cell_length_c   5.60210260
_cell_angle_alpha   73.02237499
_cell_angle_beta   68.01220018
_cell_angle_gamma   109.48697827
_symmetry_Int_Tables_number   1
_chemical_formula_structural   CrSbO4
_chemical_formula_sum   'Cr2 Sb2 O8'
_cell_volume   135.08291938
_cell_formula_units_Z   2
loop_
 _symmetry_equiv_pos_site_id
 _symmetry_equiv_pos_as_xyz
  1  'x, y, z'
loop_
 _atom_site_type_symbol
 _atom_site_label
 _atom_site_symmetry_multiplicity
 _atom_site_fract_x
 _atom_site_fract_y
 _atom_site_fract_z
 _atom_site_occupancy
  Cr  Cr0  1  0.749998  0.500000  0.750002  1
  Cr  Cr1  1  0.250003  0.500000  0.249997  1
  Sb  Sb2  1  -0.000036  0.000000  0.000036  1
  Sb  Sb3  1  0.500050  0.000000  0.499950  1
  O  O4  1  0.750000  0.194252  0.055747  1
  O  O5  1  0.250005  0.194233  0.555763  1
  O  O6  1  0.750000  0.805748  0.444252  1
  O  O7  1  0.250005  0.805767  0.944228  1
  O  O8  1  0.694784  0.694811  0.000027  1
  O  O9  1  0.194822  0.694808  0.499986  1
  O  O10  1  0.305163  0.305189  0.000027  1
  O  O11  1  0.805206  0.305192  0.499986  1
