# generated using pymatgen
data_H30S2O21
_symmetry_space_group_name_H-M   'P 1'
_cell_length_a   5.93278522
_cell_length_b   6.30958790
_cell_length_c   13.88083986
_cell_angle_alpha   76.86319699
_cell_angle_beta   85.04430259
_cell_angle_gamma   67.66080675
_symmetry_Int_Tables_number   1
_chemical_formula_structural   H30S2O21
_chemical_formula_sum   'H30 S2 O21'
_cell_volume   468.03337256
_cell_formula_units_Z   1
loop_
 _symmetry_equiv_pos_site_id
 _symmetry_equiv_pos_as_xyz
  1  'x, y, z'
loop_
 _atom_site_type_symbol
 _atom_site_label
 _atom_site_symmetry_multiplicity
 _atom_site_fract_x
 _atom_site_fract_y
 _atom_site_fract_z
 _atom_site_occupancy
  H  H0  1  0.160322  0.410723  0.838240  1
  H  H1  1  0.160322  0.248964  0.161760  1
  H  H2  1  0.089749  0.211622  0.808627  1
  H  H3  1  0.089749  0.020249  0.191373  1
  H  H4  1  0.559819  0.923832  0.000000  1
  H  H5  1  0.300715  0.093601  0.932998  1
  H  H6  1  0.300715  0.026599  0.067002  1
  H  H7  1  0.935170  0.822052  0.940799  1
  H  H8  1  0.935170  0.762850  0.059201  1
  H  H9  1  0.660397  0.684843  0.792781  1
  H  H10  1  0.660397  0.477623  0.207219  1
  H  H11  1  0.412867  0.657126  0.842983  1
  H  H12  1  0.412867  0.500108  0.157017  1
  H  H13  1  0.708705  0.437703  0.934383  1
  H  H14  1  0.708705  0.372086  0.065617  1
  H  H15  1  0.815650  0.150480  0.000000  1
  H  H16  1  0.410427  0.578064  0.652924  1
  H  H17  1  0.410427  0.230988  0.347076  1
  H  H18  1  0.622567  0.324947  0.689305  1
  H  H19  1  0.622567  0.014252  0.310695  1
  H  H20  1  0.828590  0.925276  0.565353  1
  H  H21  1  0.828590  0.490629  0.434647  1
  H  H22  1  0.720012  0.025329  0.453783  1
  H  H23  1  0.247156  0.703325  0.388505  1
  H  H24  1  0.247156  0.091830  0.611495  1
  H  H25  1  0.352067  0.905825  0.404482  1
  H  H26  1  0.352067  0.310307  0.595518  1
  H  H27  1  0.069430  0.898058  0.463635  1
  H  H28  1  0.069430  0.361693  0.536365  1
  H  H29  1  0.720012  0.479112  0.546217  1
  O  O30  1  0.218621  0.241015  0.838783  1
  O  O31  1  0.218621  0.079798  0.161217  1
  O  O32  1  0.376123  0.971191  0.000000  1
  O  O33  1  0.847520  0.880721  0.000000  1
  O  O34  1  0.592098  0.597575  0.848245  1
  O  O35  1  0.592098  0.445820  0.151755  1
  O  O36  1  0.794375  0.317851  0.000000  1
  O  O37  1  0.514245  0.428850  0.632868  1
  O  O38  1  0.514245  0.061717  0.367132  1
  O  O39  1  0.854392  0.007769  0.497850  1
  O  O40  1  0.854392  0.505618  0.502150  1
  O  O41  1  0.257971  0.236414  0.564566  1
  O  O42  1  0.257971  0.800980  0.435434  1
  O  O43  1  0.821541  0.815286  0.698719  1
  O  O44  1  0.821541  0.514005  0.301281  1
  O  O45  1  0.889530  0.123146  0.758382  1
  O  O46  1  0.889530  0.881528  0.241618  1
  O  O47  1  0.217466  0.856006  0.674744  1
  O  O48  1  0.217466  0.530751  0.325256  1
  O  O49  1  0.090747  0.713176  0.839985  1
  O  O50  1  0.090747  0.553161  0.160015  1
  S  S51  1  0.001062  0.879570  0.741916  1
  S  S52  1  0.001062  0.621486  0.258084  1
