# generated using pymatgen
data_La5Sn3Cl
_symmetry_space_group_name_H-M   'P 1'
_cell_length_a   9.67331145
_cell_length_b   9.67331145
_cell_length_c   6.93083506
_cell_angle_alpha   90.00000000
_cell_angle_beta   90.00000000
_cell_angle_gamma   120.00000004
_symmetry_Int_Tables_number   1
_chemical_formula_structural   La5Sn3Cl
_chemical_formula_sum   'La10 Sn6 Cl2'
_cell_volume   561.65100057
_cell_formula_units_Z   2
loop_
 _symmetry_equiv_pos_site_id
 _symmetry_equiv_pos_as_xyz
  1  'x, y, z'
loop_
 _atom_site_type_symbol
 _atom_site_label
 _atom_site_symmetry_multiplicity
 _atom_site_fract_x
 _atom_site_fract_y
 _atom_site_fract_z
 _atom_site_occupancy
  Cl  Cl0  1  0.000000  0.000000  0.500000  1
  Cl  Cl1  1  0.000000  0.000000  0.000000  1
  Sn  Sn2  1  0.612198  0.612198  0.750000  1
  Sn  Sn3  1  0.000000  0.612198  0.250000  1
  Sn  Sn4  1  0.612198  0.000000  0.250000  1
  Sn  Sn5  1  0.387802  0.000000  0.750000  1
  Sn  Sn6  1  0.000000  0.387802  0.750000  1
  Sn  Sn7  1  0.387802  0.387802  0.250000  1
  La  La8  1  0.666667  0.333333  0.000000  1
  La  La9  1  0.333333  0.666667  0.500000  1
  La  La10  1  0.666667  0.333333  0.500000  1
  La  La11  1  0.333333  0.666667  0.000000  1
  La  La12  1  0.739820  0.000000  0.750000  1
  La  La13  1  0.739820  0.739820  0.250000  1
  La  La14  1  0.000000  0.260180  0.250000  1
  La  La15  1  0.000000  0.739820  0.750000  1
  La  La16  1  0.260180  0.260180  0.750000  1
  La  La17  1  0.260180  0.000000  0.250000  1
