# generated using pymatgen
data_Rb2Bi8Se13
_symmetry_space_group_name_H-M   'P 1'
_cell_length_a   4.22101778
_cell_length_b   13.89366320
_cell_length_c   25.28277362
_cell_angle_alpha   96.63142020
_cell_angle_beta   90.00000000
_cell_angle_gamma   90.00000000
_symmetry_Int_Tables_number   1
_chemical_formula_structural   Rb2Bi8Se13
_chemical_formula_sum   'Rb4 Bi16 Se26'
_cell_volume   1472.79835755
_cell_formula_units_Z   2
loop_
 _symmetry_equiv_pos_site_id
 _symmetry_equiv_pos_as_xyz
  1  'x, y, z'
loop_
 _atom_site_type_symbol
 _atom_site_label
 _atom_site_symmetry_multiplicity
 _atom_site_fract_x
 _atom_site_fract_y
 _atom_site_fract_z
 _atom_site_occupancy
  Se  Se0  1  0.250000  0.612190  0.487799  1
  Se  Se1  1  0.750000  0.387810  0.512201  1
  Se  Se2  1  0.750000  0.516391  0.372628  1
  Se  Se3  1  0.250000  0.483609  0.627372  1
  Se  Se4  1  0.250000  0.553501  0.238850  1
  Se  Se5  1  0.750000  0.446499  0.761150  1
  Se  Se6  1  0.250000  0.258942  0.279673  1
  Se  Se7  1  0.750000  0.741058  0.720327  1
  Se  Se8  1  0.750000  0.323468  0.145963  1
  Se  Se9  1  0.250000  0.676532  0.854037  1
  Se  Se10  1  0.250000  0.406756  0.021241  1
  Se  Se11  1  0.750000  0.593244  0.978759  1
  Se  Se12  1  0.250000  0.103495  0.048419  1
  Se  Se13  1  0.750000  0.896505  0.951581  1
  Se  Se14  1  0.250000  0.814780  0.087806  1
  Se  Se15  1  0.750000  0.185220  0.912194  1
  Se  Se16  1  0.750000  0.753598  0.235138  1
  Se  Se17  1  0.250000  0.246402  0.764862  1
  Se  Se18  1  0.750000  0.036699  0.182457  1
  Se  Se19  1  0.250000  0.963301  0.817543  1
  Se  Se20  1  0.250000  0.099245  0.550946  1
  Se  Se21  1  0.750000  0.900755  0.449054  1
  Se  Se22  1  0.250000  0.809791  0.585566  1
  Se  Se23  1  0.750000  0.190209  0.414434  1
  Se  Se24  1  0.750000  0.026529  0.680747  1
  Se  Se25  1  0.250000  0.973471  0.319253  1
  Rb  Rb26  1  0.750000  0.581327  0.119008  1
  Rb  Rb27  1  0.250000  0.418673  0.880992  1
  Rb  Rb28  1  0.250000  0.722807  0.361722  1
  Rb  Rb29  1  0.750000  0.277193  0.638278  1
  Bi  Bi30  1  0.250000  0.428391  0.436311  1
  Bi  Bi31  1  0.750000  0.571609  0.563689  1
  Bi  Bi32  1  0.250000  0.190864  0.169329  1
  Bi  Bi33  1  0.750000  0.809136  0.830671  1
  Bi  Bi34  1  0.750000  0.953651  0.070016  1
  Bi  Bi35  1  0.250000  0.046349  0.929984  1
  Bi  Bi36  1  0.750000  0.116613  0.307598  1
  Bi  Bi37  1  0.250000  0.883387  0.692402  1
  Bi  Bi38  1  0.750000  0.436400  0.267530  1
  Bi  Bi39  1  0.250000  0.563600  0.732470  1
  Bi  Bi40  1  0.750000  0.277220  0.032089  1
  Bi  Bi41  1  0.250000  0.722780  0.967911  1
  Bi  Bi42  1  0.250000  0.875002  0.212402  1
  Bi  Bi43  1  0.750000  0.124998  0.787598  1
  Bi  Bi44  1  0.250000  0.049935  0.440476  1
  Bi  Bi45  1  0.750000  0.950065  0.559524  1
