# generated using pymatgen
data_DyGa
_symmetry_space_group_name_H-M   'P 1'
_cell_length_a   4.07852138
_cell_length_b   4.33183202
_cell_length_c   5.86659379
_cell_angle_alpha   111.66596804
_cell_angle_beta   90.00000000
_cell_angle_gamma   90.00000000
_symmetry_Int_Tables_number   1
_chemical_formula_structural   DyGa
_chemical_formula_sum   'Dy2 Ga2'
_cell_volume   96.32535512
_cell_formula_units_Z   2
loop_
 _symmetry_equiv_pos_site_id
 _symmetry_equiv_pos_as_xyz
  1  'x, y, z'
loop_
 _atom_site_type_symbol
 _atom_site_label
 _atom_site_symmetry_multiplicity
 _atom_site_fract_x
 _atom_site_fract_y
 _atom_site_fract_z
 _atom_site_occupancy
  Ga  Ga0  1  0.250000  0.576206  0.152413  1
  Ga  Ga1  1  0.750000  0.423794  0.847587  1
  Dy  Dy2  1  0.250000  0.860534  0.721069  1
  Dy  Dy3  1  0.750000  0.139466  0.278931  1
