# generated using pymatgen
data_Bi2Pd5
_symmetry_space_group_name_H-M   'P 1'
_cell_length_a   5.91394187
_cell_length_b   6.87809846
_cell_length_c   7.78610082
_cell_angle_alpha   114.94995586
_cell_angle_beta   112.31978214
_cell_angle_gamma   89.99999996
_symmetry_Int_Tables_number   1
_chemical_formula_structural   Bi2Pd5
_chemical_formula_sum   'Bi4 Pd10'
_cell_volume   260.75148467
_cell_formula_units_Z   2
loop_
 _symmetry_equiv_pos_site_id
 _symmetry_equiv_pos_as_xyz
  1  'x, y, z'
loop_
 _atom_site_type_symbol
 _atom_site_label
 _atom_site_symmetry_multiplicity
 _atom_site_fract_x
 _atom_site_fract_y
 _atom_site_fract_z
 _atom_site_occupancy
  Pd  Pd0  1  0.525769  0.234019  0.547750  1
  Pd  Pd1  1  0.978019  0.765981  0.452250  1
  Pd  Pd2  1  0.474231  0.765981  0.452250  1
  Pd  Pd3  1  0.021981  0.234019  0.547750  1
  Pd  Pd4  1  0.748955  0.500000  0.000000  1
  Pd  Pd5  1  0.251045  0.500000  0.000000  1
  Pd  Pd6  1  0.095416  0.912458  0.190833  1
  Pd  Pd7  1  0.904584  0.087542  0.809167  1
  Pd  Pd8  1  0.366724  0.639392  0.733449  1
  Pd  Pd9  1  0.633276  0.360608  0.266551  1
  Bi  Bi10  1  0.599095  0.905988  0.198190  1
  Bi  Bi11  1  0.400905  0.094012  0.801810  1
  Bi  Bi12  1  0.869133  0.643380  0.738267  1
  Bi  Bi13  1  0.130867  0.356620  0.261733  1
