# generated using pymatgen
data_K2Co2(SO4)3
_symmetry_space_group_name_H-M   'P 1'
_cell_length_a   10.06579304
_cell_length_b   10.06579304
_cell_length_c   10.06579304
_cell_angle_alpha   90.00000000
_cell_angle_beta   90.00000000
_cell_angle_gamma   90.00000000
_symmetry_Int_Tables_number   1
_chemical_formula_structural   K2Co2(SO4)3
_chemical_formula_sum   'K8 Co8 S12 O48'
_cell_volume   1019.86805852
_cell_formula_units_Z   4
loop_
 _symmetry_equiv_pos_site_id
 _symmetry_equiv_pos_as_xyz
  1  'x, y, z'
loop_
 _atom_site_type_symbol
 _atom_site_label
 _atom_site_symmetry_multiplicity
 _atom_site_fract_x
 _atom_site_fract_y
 _atom_site_fract_z
 _atom_site_occupancy
  O  O0  1  0.250821  0.594878  0.660568  1
  O  O1  1  0.750821  0.905122  0.339432  1
  O  O2  1  0.749179  0.094878  0.839432  1
  O  O3  1  0.905122  0.339432  0.750821  1
  O  O4  1  0.839432  0.749179  0.094878  1
  O  O5  1  0.339432  0.750821  0.905122  1
  O  O6  1  0.594878  0.660568  0.250821  1
  O  O7  1  0.660568  0.250821  0.594878  1
  O  O8  1  0.094878  0.839432  0.749179  1
  O  O9  1  0.405122  0.160568  0.249179  1
  O  O10  1  0.160568  0.249179  0.405122  1
  O  O11  1  0.249179  0.405122  0.160568  1
  O  O12  1  0.259354  0.498846  0.442018  1
  O  O13  1  0.759354  0.001154  0.557982  1
  O  O14  1  0.740646  0.998846  0.057982  1
  O  O15  1  0.001154  0.557982  0.759354  1
  O  O16  1  0.057982  0.740646  0.998846  1
  O  O17  1  0.557982  0.759354  0.001154  1
  O  O18  1  0.995652  0.578808  0.171003  1
  O  O19  1  0.498846  0.442018  0.259354  1
  O  O20  1  0.998846  0.057982  0.740646  1
  O  O21  1  0.501154  0.942018  0.240647  1
  O  O22  1  0.942018  0.240647  0.501154  1
  O  O23  1  0.240647  0.501154  0.942018  1
  O  O24  1  0.421192  0.671003  0.504348  1
  O  O25  1  0.921192  0.828997  0.495652  1
  O  O26  1  0.578808  0.171003  0.995652  1
  O  O27  1  0.828997  0.495652  0.921192  1
  O  O28  1  0.309700  0.275097  0.962820  1
  O  O29  1  0.962820  0.309700  0.275097  1
  O  O30  1  0.275097  0.962820  0.309700  1
  O  O31  1  0.224903  0.037180  0.809700  1
  O  O32  1  0.462820  0.190300  0.724903  1
  O  O33  1  0.724903  0.462820  0.190300  1
  O  O34  1  0.537180  0.690300  0.775097  1
  O  O35  1  0.037180  0.809700  0.224903  1
  O  O36  1  0.775097  0.537180  0.690300  1
  O  O37  1  0.809700  0.224903  0.037180  1
  O  O38  1  0.690300  0.775097  0.537180  1
  O  O39  1  0.190300  0.724903  0.462820  1
  O  O40  1  0.078808  0.328997  0.004348  1
  O  O41  1  0.004348  0.078808  0.328997  1
  O  O42  1  0.328997  0.004348  0.078808  1
  O  O43  1  0.171003  0.995652  0.578808  1
  O  O44  1  0.504348  0.421192  0.671003  1
  O  O45  1  0.671003  0.504348  0.421192  1
  O  O46  1  0.495652  0.921192  0.828997  1
  O  O47  1  0.442018  0.259354  0.498846  1
  S  S48  1  0.280965  0.623356  0.519439  1
  S  S49  1  0.780965  0.876644  0.480561  1
  S  S50  1  0.719035  0.123356  0.980561  1
  S  S51  1  0.876644  0.480561  0.780965  1
  S  S52  1  0.980561  0.719035  0.123356  1
  S  S53  1  0.480561  0.780965  0.876644  1
  S  S54  1  0.623356  0.519439  0.280965  1
  S  S55  1  0.519439  0.280965  0.623356  1
  S  S56  1  0.123356  0.980561  0.719035  1
  S  S57  1  0.219035  0.376644  0.019439  1
  S  S58  1  0.019439  0.219035  0.376644  1
  S  S59  1  0.376644  0.019439  0.219035  1
  K  K60  1  0.684584  0.184584  0.315416  1
  K  K61  1  0.315416  0.684584  0.184584  1
  K  K62  1  0.949384  0.550616  0.449384  1
  K  K63  1  0.184584  0.315416  0.684584  1
  K  K64  1  0.050616  0.050616  0.050616  1
  K  K65  1  0.449384  0.949384  0.550616  1
  K  K66  1  0.550616  0.449384  0.949384  1
  K  K67  1  0.815416  0.815416  0.815416  1
  Co  Co68  1  0.335848  0.335848  0.335848  1
  Co  Co69  1  0.164152  0.664152  0.835848  1
  Co  Co70  1  0.835848  0.164152  0.664152  1
  Co  Co71  1  0.664152  0.835848  0.164152  1
  Co  Co72  1  0.593117  0.593117  0.593117  1
  Co  Co73  1  0.093117  0.906883  0.406883  1
  Co  Co74  1  0.406883  0.093117  0.906883  1
  Co  Co75  1  0.906883  0.406883  0.093117  1
