# generated using pymatgen
data_K3Ba7Ti10(O9F)3
_symmetry_space_group_name_H-M   'P 1'
_cell_length_a   3.99204328
_cell_length_b   3.99204328
_cell_length_c   40.86762256
_cell_angle_alpha   90.00000000
_cell_angle_beta   90.00000000
_cell_angle_gamma   90.00000000
_symmetry_Int_Tables_number   1
_chemical_formula_structural   K3Ba7Ti10(O9F)3
_chemical_formula_sum   'K3 Ba7 Ti10 O27 F3'
_cell_volume   651.28317043
_cell_formula_units_Z   1
loop_
 _symmetry_equiv_pos_site_id
 _symmetry_equiv_pos_as_xyz
  1  'x, y, z'
loop_
 _atom_site_type_symbol
 _atom_site_label
 _atom_site_symmetry_multiplicity
 _atom_site_fract_x
 _atom_site_fract_y
 _atom_site_fract_z
 _atom_site_occupancy
  Ba  Ba0  1  0.000000  0.000000  0.999287  1
  Ba  Ba1  1  0.000000  0.000000  0.099985  1
  Ba  Ba2  1  0.000000  0.000000  0.200009  1
  Ba  Ba3  1  0.000000  0.000000  0.299984  1
  Ba  Ba4  1  0.000000  0.000000  0.400034  1
  Ba  Ba5  1  0.000000  0.000000  0.500740  1
  Ba  Ba6  1  0.000000  0.000000  0.699970  1
  F  F7  1  0.500000  0.500000  0.599828  1
  F  F8  1  0.500000  0.500000  0.799847  1
  F  F9  1  0.500000  0.500000  0.900336  1
  K  K10  1  0.000000  0.000000  0.600068  1
  K  K11  1  0.000000  0.000000  0.800754  1
  K  K12  1  0.000000  0.000000  0.899151  1
  O  O13  1  0.000000  0.500000  0.050480  1
  O  O14  1  0.000000  0.500000  0.150112  1
  O  O15  1  0.000000  0.500000  0.250000  1
  O  O16  1  0.000000  0.500000  0.349904  1
  O  O17  1  0.000000  0.500000  0.449594  1
  O  O18  1  0.000000  0.500000  0.548834  1
  O  O19  1  0.000000  0.500000  0.650644  1
  O  O20  1  0.000000  0.500000  0.749042  1
  O  O21  1  0.000000  0.500000  0.850064  1
  O  O22  1  0.000000  0.500000  0.951338  1
  O  O23  1  0.500000  0.000000  0.050480  1
  O  O24  1  0.500000  0.500000  1.000512  1
  O  O25  1  0.500000  0.000000  0.150112  1
  O  O26  1  0.500000  0.000000  0.250000  1
  O  O27  1  0.500000  0.500000  0.200023  1
  O  O28  1  0.500000  0.500000  0.100174  1
  O  O29  1  0.500000  0.000000  0.349904  1
  O  O30  1  0.500000  0.000000  0.449594  1
  O  O31  1  0.500000  0.500000  0.399884  1
  O  O32  1  0.500000  0.500000  0.300003  1
  O  O33  1  0.500000  0.000000  0.548834  1
  O  O34  1  0.500000  0.500000  0.499624  1
  O  O35  1  0.500000  0.000000  0.749042  1
  O  O36  1  0.500000  0.500000  0.699840  1
  O  O37  1  0.500000  0.000000  0.650644  1
  O  O38  1  0.500000  0.000000  0.850064  1
  O  O39  1  0.500000  0.000000  0.951338  1
  Ti  Ti40  1  0.500000  0.500000  0.050778  1
  Ti  Ti41  1  0.500000  0.500000  0.249984  1
  Ti  Ti42  1  0.500000  0.500000  0.150208  1
  Ti  Ti43  1  0.500000  0.500000  0.449297  1
  Ti  Ti44  1  0.500000  0.500000  0.349784  1
  Ti  Ti45  1  0.500000  0.500000  0.547369  1
  Ti  Ti46  1  0.500000  0.500000  0.747723  1
  Ti  Ti47  1  0.500000  0.500000  0.651781  1
  Ti  Ti48  1  0.500000  0.500000  0.850094  1
  Ti  Ti49  1  0.500000  0.500000  0.952903  1
