# generated using pymatgen
data_Na3(WO3)4
_symmetry_space_group_name_H-M   'P 1'
_cell_length_a   7.89128049
_cell_length_b   6.78247322
_cell_length_c   6.78247207
_cell_angle_alpha   70.39091013
_cell_angle_beta   54.42693058
_cell_angle_gamma   54.42692232
_symmetry_Int_Tables_number   1
_chemical_formula_structural   Na3(WO3)4
_chemical_formula_sum   'Na3 W4 O12'
_cell_volume   240.15988323
_cell_formula_units_Z   1
loop_
 _symmetry_equiv_pos_site_id
 _symmetry_equiv_pos_as_xyz
  1  'x, y, z'
loop_
 _atom_site_type_symbol
 _atom_site_label
 _atom_site_symmetry_multiplicity
 _atom_site_fract_x
 _atom_site_fract_y
 _atom_site_fract_z
 _atom_site_occupancy
  Na  Na0  1  0.000000  0.000000  0.500000  1
  Na  Na1  1  0.500000  0.500000  0.000000  1
  Na  Na2  1  0.500000  0.000000  0.500000  1
  W  W3  1  0.000000  0.000000  0.000000  1
  W  W4  1  0.500000  0.000000  0.000000  1
  W  W5  1  0.500000  0.500000  0.500000  1
  W  W6  1  0.000000  0.500000  0.500000  1
  O  O7  1  0.253081  0.990543  0.003294  1
  O  O8  1  0.252415  0.284883  0.215117  1
  O  O9  1  0.040908  0.210058  0.710058  1
  O  O10  1  0.746919  0.009457  0.996706  1
  O  O11  1  0.253081  0.503294  0.490543  1
  O  O12  1  0.538977  0.210058  0.710058  1
  O  O13  1  0.747585  0.284883  0.215117  1
  O  O14  1  0.252415  0.715117  0.784883  1
  O  O15  1  0.461023  0.789942  0.289942  1
  O  O16  1  0.746919  0.496706  0.509457  1
  O  O17  1  0.747585  0.715117  0.784883  1
  O  O18  1  0.959092  0.789942  0.289942  1
