# generated using pymatgen
data_Ta5N6
_symmetry_space_group_name_H-M   'P 1'
_cell_length_a   6.55768581
_cell_length_b   6.55768513
_cell_length_c   6.54989976
_cell_angle_alpha   90.00000000
_cell_angle_beta   90.00000000
_cell_angle_gamma   120.00000338
_symmetry_Int_Tables_number   1
_chemical_formula_structural   Ta5N6
_chemical_formula_sum   'Ta10 N12'
_cell_volume   243.93068513
_cell_formula_units_Z   2
loop_
 _symmetry_equiv_pos_site_id
 _symmetry_equiv_pos_as_xyz
  1  'x, y, z'
loop_
 _atom_site_type_symbol
 _atom_site_label
 _atom_site_symmetry_multiplicity
 _atom_site_fract_x
 _atom_site_fract_y
 _atom_site_fract_z
 _atom_site_occupancy
  N  N0  1  1.000000  0.670583  0.069998  1
  N  N1  1  1.000000  0.670583  0.430002  1
  N  N2  1  0.000000  0.329417  0.569998  1
  N  N3  1  0.000000  0.329417  0.930002  1
  N  N4  1  0.329417  0.329417  0.430002  1
  N  N5  1  0.329417  0.329417  0.069998  1
  N  N6  1  0.329417  0.000000  0.569998  1
  N  N7  1  0.329417  0.000000  0.930002  1
  N  N8  1  0.670583  0.670583  0.569998  1
  N  N9  1  0.670583  0.670583  0.930002  1
  N  N10  1  0.670583  0.000000  0.069998  1
  N  N11  1  0.670583  0.000000  0.430002  1
  Ta  Ta12  1  0.666667  0.333333  0.500000  1
  Ta  Ta13  1  0.758930  0.000000  0.750000  1
  Ta  Ta14  1  0.000000  0.241070  0.250000  1
  Ta  Ta15  1  0.758930  0.758930  0.250000  1
  Ta  Ta16  1  0.333333  0.666667  0.000000  1
  Ta  Ta17  1  0.666667  0.333333  0.000000  1
  Ta  Ta18  1  0.241070  0.241070  0.750000  1
  Ta  Ta19  1  1.000000  0.758930  0.750000  1
  Ta  Ta20  1  0.241070  0.000000  0.250000  1
  Ta  Ta21  1  0.333333  0.666667  0.500000  1
