# generated using pymatgen
data_Zr(Se2Cl3)2
_symmetry_space_group_name_H-M   'P 1'
_cell_length_a   11.19374841
_cell_length_b   11.09774086
_cell_length_c   11.19150087
_cell_angle_alpha   90.00000000
_cell_angle_beta   90.00000000
_cell_angle_gamma   90.00000000
_symmetry_Int_Tables_number   1
_chemical_formula_structural   Zr(Se2Cl3)2
_chemical_formula_sum   'Zr4 Se16 Cl24'
_cell_volume   1390.26776685
_cell_formula_units_Z   4
loop_
 _symmetry_equiv_pos_site_id
 _symmetry_equiv_pos_as_xyz
  1  'x, y, z'
loop_
 _atom_site_type_symbol
 _atom_site_label
 _atom_site_symmetry_multiplicity
 _atom_site_fract_x
 _atom_site_fract_y
 _atom_site_fract_z
 _atom_site_occupancy
  Cl  Cl0  1  0.357166  0.671166  0.039243  1
  Cl  Cl1  1  0.357166  0.828834  0.460757  1
  Cl  Cl2  1  0.142834  0.171166  0.960757  1
  Cl  Cl3  1  0.142834  0.328834  0.539243  1
  Cl  Cl4  1  0.642834  0.328834  0.960757  1
  Cl  Cl5  1  0.642834  0.171166  0.539243  1
  Cl  Cl6  1  0.857166  0.828834  0.039243  1
  Cl  Cl7  1  0.857166  0.671166  0.460757  1
  Cl  Cl8  1  0.371089  0.431560  0.828008  1
  Cl  Cl9  1  0.371089  0.068440  0.671992  1
  Cl  Cl10  1  0.128911  0.931560  0.171992  1
  Cl  Cl11  1  0.128911  0.568440  0.328008  1
  Cl  Cl12  1  0.628911  0.568440  0.171992  1
  Cl  Cl13  1  0.628911  0.931560  0.328008  1
  Cl  Cl14  1  0.871089  0.068440  0.828008  1
  Cl  Cl15  1  0.871089  0.431560  0.671992  1
  Cl  Cl16  1  0.616070  0.628246  0.865104  1
  Cl  Cl17  1  0.616070  0.871754  0.634896  1
  Cl  Cl18  1  0.883930  0.128246  0.134896  1
  Cl  Cl19  1  0.883930  0.371754  0.365104  1
  Cl  Cl20  1  0.116070  0.628246  0.634896  1
  Cl  Cl21  1  0.116070  0.871754  0.865104  1
  Cl  Cl22  1  0.383930  0.128246  0.365104  1
  Cl  Cl23  1  0.383930  0.371754  0.134896  1
  Se  Se24  1  0.504638  0.108333  0.899530  1
  Se  Se25  1  0.504638  0.391667  0.600470  1
  Se  Se26  1  0.995362  0.608333  0.100470  1
  Se  Se27  1  0.995362  0.891667  0.399530  1
  Se  Se28  1  0.495362  0.891667  0.100470  1
  Se  Se29  1  0.495362  0.608333  0.399530  1
  Se  Se30  1  0.004639  0.391667  0.899530  1
  Se  Se31  1  0.004639  0.108333  0.600470  1
  Se  Se32  1  0.421005  0.915305  0.906745  1
  Se  Se33  1  0.421005  0.584695  0.593255  1
  Se  Se34  1  0.078995  0.415305  0.093255  1
  Se  Se35  1  0.078995  0.084695  0.406745  1
  Se  Se36  1  0.578995  0.084695  0.093255  1
  Se  Se37  1  0.578995  0.415305  0.406745  1
  Se  Se38  1  0.921005  0.584695  0.906745  1
  Se  Se39  1  0.921005  0.915305  0.593255  1
  Zr  Zr40  1  0.500000  0.500000  0.000000  1
  Zr  Zr41  1  0.500000  0.000000  0.500000  1
  Zr  Zr42  1  0.000000  0.000000  0.000000  1
  Zr  Zr43  1  0.000000  0.500000  0.500000  1
