# generated using pymatgen
data_Nb16N13
_symmetry_space_group_name_H-M   'P 1'
_cell_length_a   17.73268931
_cell_length_b   6.26941564
_cell_length_c   8.26564404
_cell_angle_alpha   67.69373850
_cell_angle_beta   36.41586698
_cell_angle_gamma   45.00033615
_symmetry_Int_Tables_number   1
_chemical_formula_structural   Nb16N13
_chemical_formula_sum   'Nb16 N13'
_cell_volume   344.20792245
_cell_formula_units_Z   1
loop_
 _symmetry_equiv_pos_site_id
 _symmetry_equiv_pos_as_xyz
  1  'x, y, z'
loop_
 _atom_site_type_symbol
 _atom_site_label
 _atom_site_symmetry_multiplicity
 _atom_site_fract_x
 _atom_site_fract_y
 _atom_site_fract_z
 _atom_site_occupancy
  N  N0  1  0.250000  0.500000  0.000000  1
  N  N1  1  0.125214  0.249320  0.499250  1
  N  N2  1  0.126381  0.747856  0.499114  1
  N  N3  1  0.500166  0.499669  0.000000  1
  N  N4  1  0.373619  0.252144  0.500886  1
  N  N5  1  0.750000  0.000000  0.000000  1
  N  N6  1  0.374786  0.750680  0.500750  1
  N  N7  1  0.750000  0.500000  0.000000  1
  N  N8  1  0.624463  0.251325  0.500750  1
  N  N9  1  0.625495  0.748392  0.500886  1
  N  N10  1  0.999834  0.500331  0.000000  1
  N  N11  1  0.874505  0.251608  0.499114  1
  N  N12  1  0.875537  0.748675  0.499250  1
  Nb  Nb13  1  0.123992  0.002814  0.999209  1
  Nb  Nb14  1  0.123201  0.502799  0.000791  1
  Nb  Nb15  1  0.006867  0.241129  0.486267  1
  Nb  Nb16  1  0.376008  0.997186  0.000791  1
  Nb  Nb17  1  0.376799  0.497201  0.999209  1
  Nb  Nb18  1  0.259680  0.240379  0.479919  1
  Nb  Nb19  1  0.620676  0.998506  0.999353  1
  Nb  Nb20  1  0.240320  0.759621  0.520081  1
  Nb  Nb21  1  0.620029  0.520085  0.000647  1
  Nb  Nb22  1  0.499334  0.249182  0.501332  1
  Nb  Nb23  1  0.879324  0.001494  0.000647  1
  Nb  Nb24  1  0.493133  0.758871  0.513733  1
  Nb  Nb25  1  0.879971  0.479915  0.999353  1
  Nb  Nb26  1  0.760400  0.238939  0.479919  1
  Nb  Nb27  1  0.739600  0.761061  0.520081  1
  Nb  Nb28  1  0.000666  0.750818  0.498668  1
