# generated using pymatgen
data_Mn(NbS2)4
_symmetry_space_group_name_H-M   'P 1'
_cell_length_a   6.64946713
_cell_length_b   6.64946743
_cell_length_c   11.72111432
_cell_angle_alpha   90.00000000
_cell_angle_beta   90.00000000
_cell_angle_gamma   119.99999848
_symmetry_Int_Tables_number   1
_chemical_formula_structural   Mn(NbS2)4
_chemical_formula_sum   'Mn2 Nb8 S16'
_cell_volume   448.82108003
_cell_formula_units_Z   2
loop_
 _symmetry_equiv_pos_site_id
 _symmetry_equiv_pos_as_xyz
  1  'x, y, z'
loop_
 _atom_site_type_symbol
 _atom_site_label
 _atom_site_symmetry_multiplicity
 _atom_site_fract_x
 _atom_site_fract_y
 _atom_site_fract_z
 _atom_site_occupancy
  Mn  Mn0  1  0.000000  0.000000  0.000000  1
  Mn  Mn1  1  0.000000  0.000000  0.500000  1
  Nb  Nb2  1  0.495239  -0.009522  0.750000  1
  Nb  Nb3  1  -0.009522  0.495239  0.250000  1
  Nb  Nb4  1  0.504761  0.495239  0.250000  1
  Nb  Nb5  1  0.009522  0.504761  0.750000  1
  Nb  Nb6  1  0.000000  0.000000  0.250000  1
  Nb  Nb7  1  0.000000  0.000000  0.750000  1
  Nb  Nb8  1  0.495239  0.504761  0.750000  1
  Nb  Nb9  1  0.504761  0.009522  0.250000  1
  S  S10  1  0.666667  0.333333  0.386378  1
  S  S11  1  0.333333  0.666667  0.613622  1
  S  S12  1  0.835894  0.164105  0.615030  1
  S  S13  1  0.671789  0.835894  0.384970  1
  S  S14  1  0.835894  0.164105  0.884970  1
  S  S15  1  0.671789  0.835894  0.115030  1
  S  S16  1  0.333333  0.666667  0.886378  1
  S  S17  1  0.835894  0.671789  0.615030  1
  S  S18  1  0.164105  0.328211  0.115030  1
  S  S19  1  0.164105  0.328211  0.384970  1
  S  S20  1  0.835894  0.671789  0.884970  1
  S  S21  1  0.666667  0.333333  0.113622  1
  S  S22  1  0.328211  0.164105  0.884970  1
  S  S23  1  0.164105  0.835894  0.115030  1
  S  S24  1  0.164105  0.835894  0.384970  1
  S  S25  1  0.328211  0.164105  0.615030  1
