# generated using pymatgen
data_Fe2(PO4)3
_symmetry_space_group_name_H-M   'P 1'
_cell_length_a   8.71382819
_cell_length_b   12.13575987
_cell_length_c   8.76714115
_cell_angle_alpha   90.00790265
_cell_angle_beta   90.01453676
_cell_angle_gamma   90.47547224
_symmetry_Int_Tables_number   1
_chemical_formula_structural   Fe2(PO4)3
_chemical_formula_sum   'Fe8 P12 O48'
_cell_volume   927.08380313
_cell_formula_units_Z   4
loop_
 _symmetry_equiv_pos_site_id
 _symmetry_equiv_pos_as_xyz
  1  'x, y, z'
loop_
 _atom_site_type_symbol
 _atom_site_label
 _atom_site_symmetry_multiplicity
 _atom_site_fract_x
 _atom_site_fract_y
 _atom_site_fract_z
 _atom_site_occupancy
  Fe  Fe0  1  0.250289  0.382848  0.965447  1
  Fe  Fe1  1  0.750548  0.119066  0.965665  1
  Fe  Fe2  1  0.750240  0.882854  0.534578  1
  Fe  Fe3  1  0.249760  0.117146  0.465422  1
  Fe  Fe4  1  0.249452  0.880934  0.034335  1
  Fe  Fe5  1  0.749421  0.380954  0.465626  1
  Fe  Fe6  1  0.250579  0.619046  0.534374  1
  Fe  Fe7  1  0.749711  0.617152  0.034553  1
  P  P8  1  0.894325  0.146480  0.611566  1
  P  P9  1  0.966065  0.504007  0.750421  1
  P  P10  1  0.105675  0.853520  0.388434  1
  P  P11  1  0.033935  0.495993  0.249579  1
  P  P12  1  0.894174  0.855341  0.890537  1
  P  P13  1  0.394391  0.646541  0.888497  1
  P  P14  1  0.605609  0.353459  0.111504  1
  P  P15  1  0.533930  0.996011  0.250416  1
  P  P16  1  0.105826  0.144659  0.109463  1
  P  P17  1  0.394144  0.355350  0.609456  1
  P  P18  1  0.605856  0.644650  0.390544  1
  P  P19  1  0.466070  0.003989  0.749584  1
  O  O20  1  0.346550  0.263287  0.498682  1
  O  O21  1  0.060522  0.431482  0.858099  1
  O  O22  1  0.837354  0.563153  0.836833  1
  O  O23  1  0.840217  0.825045  0.728468  1
  O  O24  1  0.939478  0.568518  0.141901  1
  O  O25  1  0.151595  0.972423  0.427314  1
  O  O26  1  0.662664  0.936828  0.336828  1
  O  O27  1  0.659788  0.674962  0.228464  1
  O  O28  1  0.566634  0.666116  0.915392  1
  O  O29  1  0.931238  0.407064  0.325186  1
  O  O30  1  0.848405  0.027577  0.572686  1
  O  O31  1  0.337336  0.063172  0.663172  1
  O  O32  1  0.893793  0.428099  0.629666  1
  O  O33  1  0.070174  0.870854  0.891909  1
  O  O34  1  0.634244  0.329678  0.282400  1
  O  O35  1  0.439477  0.068516  0.358101  1
  O  O36  1  0.570208  0.370852  0.608093  1
  O  O37  1  0.365756  0.670322  0.717600  1
  O  O38  1  0.606200  0.071899  0.129670  1
  O  O39  1  0.068762  0.592936  0.674814  1
  O  O40  1  0.348438  0.527670  0.927259  1
  O  O41  1  0.568757  0.092946  0.825191  1
  O  O42  1  0.819625  0.963576  0.942461  1
  O  O43  1  0.180375  0.036424  0.057539  1
  O  O44  1  0.929826  0.129146  0.108091  1
  O  O45  1  0.651562  0.472330  0.072741  1
  O  O46  1  0.653450  0.736713  0.501318  1
  O  O47  1  0.933180  0.833824  0.415378  1
  O  O48  1  0.560523  0.931484  0.641899  1
  O  O49  1  0.801717  0.224922  0.509318  1
  O  O50  1  0.319628  0.463575  0.557543  1
  O  O51  1  0.431243  0.907054  0.174809  1
  O  O52  1  0.198283  0.775078  0.490682  1
  O  O53  1  0.846554  0.763293  0.001307  1
  O  O54  1  0.340212  0.325038  0.771536  1
  O  O55  1  0.066820  0.166176  0.584622  1
  O  O56  1  0.106207  0.571901  0.370334  1
  O  O57  1  0.865771  0.170372  0.782527  1
  O  O58  1  0.153446  0.236707  0.998693  1
  O  O59  1  0.433366  0.333884  0.084608  1
  O  O60  1  0.698183  0.275141  0.009461  1
  O  O61  1  0.134229  0.829628  0.217473  1
  O  O62  1  0.429792  0.629148  0.391907  1
  O  O63  1  0.393800  0.928101  0.870330  1
  O  O64  1  0.301817  0.724859  0.990539  1
  O  O65  1  0.159783  0.174955  0.271532  1
  O  O66  1  0.680372  0.536425  0.442457  1
  O  O67  1  0.162646  0.436847  0.163167  1
