# generated using pymatgen
data_Na3CoO3
_symmetry_space_group_name_H-M   'P 1'
_cell_length_a   5.78777886
_cell_length_b   5.94727017
_cell_length_c   6.40212135
_cell_angle_alpha   64.46750980
_cell_angle_beta   89.22055523
_cell_angle_gamma   85.37792162
_symmetry_Int_Tables_number   1
_chemical_formula_structural   Na3CoO3
_chemical_formula_sum   'Na6 Co2 O6'
_cell_volume   198.14797822
_cell_formula_units_Z   2
loop_
 _symmetry_equiv_pos_site_id
 _symmetry_equiv_pos_as_xyz
  1  'x, y, z'
loop_
 _atom_site_type_symbol
 _atom_site_label
 _atom_site_symmetry_multiplicity
 _atom_site_fract_x
 _atom_site_fract_y
 _atom_site_fract_z
 _atom_site_occupancy
  O  O0  1  0.742614  0.530594  0.655636  1
  O  O1  1  0.257386  0.469406  0.344364  1
  O  O2  1  0.754115  0.903551  0.898559  1
  O  O3  1  0.245885  0.096449  0.101441  1
  O  O4  1  0.691383  0.077857  0.373565  1
  O  O5  1  0.308617  0.922142  0.626435  1
  Na  Na6  1  0.437284  0.255398  0.744886  1
  Na  Na7  1  0.562716  0.744602  0.255114  1
  Na  Na8  1  0.936545  0.232274  0.553254  1
  Na  Na9  1  0.063455  0.767726  0.446746  1
  Na  Na10  1  0.142904  0.767346  0.978616  1
  Na  Na11  1  0.857096  0.232654  0.021384  1
  Co  Co12  1  0.640914  0.809940  0.688227  1
  Co  Co13  1  0.359086  0.190060  0.311773  1
