# generated using pymatgen
data_Mg3(Al9Cr)2
_symmetry_space_group_name_H-M   'P 1'
_cell_length_a   10.24328103
_cell_length_b   10.24328103
_cell_length_c   10.24328103
_cell_angle_alpha   59.99999998
_cell_angle_beta   59.99999998
_cell_angle_gamma   59.99999999
_symmetry_Int_Tables_number   1
_chemical_formula_structural   Mg3(Al9Cr)2
_chemical_formula_sum   'Mg6 Al36 Cr4'
_cell_volume   759.98018002
_cell_formula_units_Z   2
loop_
 _symmetry_equiv_pos_site_id
 _symmetry_equiv_pos_as_xyz
  1  'x, y, z'
loop_
 _atom_site_type_symbol
 _atom_site_label
 _atom_site_symmetry_multiplicity
 _atom_site_fract_x
 _atom_site_fract_y
 _atom_site_fract_z
 _atom_site_occupancy
  Mg  Mg0  1  0.500000  0.000000  0.500000  1
  Mg  Mg1  1  0.000000  0.500000  0.500000  1
  Mg  Mg2  1  0.500000  0.500000  0.000000  1
  Mg  Mg3  1  0.500000  0.500000  0.500000  1
  Mg  Mg4  1  0.625000  0.625000  0.625000  1
  Mg  Mg5  1  0.375000  0.375000  0.375000  1
  Al  Al6  1  0.174520  0.708902  0.174520  1
  Al  Al7  1  0.014469  0.014469  0.735531  1
  Al  Al8  1  0.735531  0.735531  0.014469  1
  Al  Al9  1  0.735531  0.014469  0.735531  1
  Al  Al10  1  0.264469  0.985531  0.985531  1
  Al  Al11  1  0.014469  0.735531  0.735531  1
  Al  Al12  1  0.174520  0.174520  0.708902  1
  Al  Al13  1  0.825480  0.291098  0.557943  1
  Al  Al14  1  0.557943  0.825480  0.825480  1
  Al  Al15  1  0.825480  0.557943  0.825480  1
  Al  Al16  1  0.291098  0.825480  0.557943  1
  Al  Al17  1  0.291098  0.557943  0.825480  1
  Al  Al18  1  0.557943  0.291098  0.825480  1
  Al  Al19  1  0.708902  0.174520  0.174520  1
  Al  Al20  1  0.442057  0.174520  0.174520  1
  Al  Al21  1  0.442057  0.174520  0.708902  1
  Al  Al22  1  0.174520  0.442057  0.708902  1
  Al  Al23  1  0.174520  0.442057  0.174520  1
  Al  Al24  1  0.708902  0.174520  0.442057  1
  Al  Al25  1  0.174520  0.708902  0.442057  1
  Al  Al26  1  0.985531  0.264469  0.985531  1
  Al  Al27  1  0.557943  0.825480  0.291098  1
  Al  Al28  1  0.825480  0.557943  0.291098  1
  Al  Al29  1  0.825480  0.825480  0.557943  1
  Al  Al30  1  0.825480  0.825480  0.291098  1
  Al  Al31  1  0.291098  0.825480  0.825480  1
  Al  Al32  1  0.825480  0.291098  0.825480  1
  Al  Al33  1  0.708902  0.442057  0.174520  1
  Al  Al34  1  0.442057  0.708902  0.174520  1
  Al  Al35  1  0.174520  0.174520  0.442057  1
  Al  Al36  1  0.735531  0.014469  0.014469  1
  Al  Al37  1  0.985531  0.985531  0.264469  1
  Al  Al38  1  0.264469  0.264469  0.985531  1
  Al  Al39  1  0.985531  0.264469  0.264469  1
  Al  Al40  1  0.264469  0.985531  0.264469  1
  Al  Al41  1  0.014469  0.735531  0.014469  1
  Cr  Cr42  1  0.000000  0.500000  0.000000  1
  Cr  Cr43  1  0.500000  0.000000  0.000000  1
  Cr  Cr44  1  0.000000  0.000000  0.500000  1
  Cr  Cr45  1  0.000000  0.000000  0.000000  1
