# generated using pymatgen
data_KBiSe2
_symmetry_space_group_name_H-M   'P 1'
_cell_length_a   8.73476143
_cell_length_b   11.70133443
_cell_length_c   7.77924866
_cell_angle_alpha   28.98697585
_cell_angle_beta   55.81888662
_cell_angle_gamma   41.64588050
_symmetry_Int_Tables_number   1
_chemical_formula_structural   KBiSe2
_chemical_formula_sum   'K2 Bi2 Se4'
_cell_volume   245.41759838
_cell_formula_units_Z   2
loop_
 _symmetry_equiv_pos_site_id
 _symmetry_equiv_pos_as_xyz
  1  'x, y, z'
loop_
 _atom_site_type_symbol
 _atom_site_label
 _atom_site_symmetry_multiplicity
 _atom_site_fract_x
 _atom_site_fract_y
 _atom_site_fract_z
 _atom_site_occupancy
  Bi  Bi0  1  0.499387  0.999944  0.001309  1
  Bi  Bi1  1  0.250613  0.500056  0.998691  1
  K  K2  1  0.000045  1.000003  0.999881  1
  K  K3  1  0.749955  0.499997  0.000119  1
  Se  Se4  1  0.272178  0.999887  0.455850  1
  Se  Se5  1  0.021100  0.500078  0.457589  1
  Se  Se6  1  0.728900  0.999922  0.542411  1
  Se  Se7  1  0.477822  0.500113  0.544150  1
