# generated using pymatgen
data_Mg3(HO3)2
_symmetry_space_group_name_H-M   'P 1'
_cell_length_a   3.14333366
_cell_length_b   10.21174585
_cell_length_c   5.42071033
_cell_angle_alpha   58.44728904
_cell_angle_beta   106.85421019
_cell_angle_gamma   117.49836175
_symmetry_Int_Tables_number   1
_chemical_formula_structural   Mg3(HO3)2
_chemical_formula_sum   'Mg3 H2 O6'
_cell_volume   131.25425319
_cell_formula_units_Z   1
loop_
 _symmetry_equiv_pos_site_id
 _symmetry_equiv_pos_as_xyz
  1  'x, y, z'
loop_
 _atom_site_type_symbol
 _atom_site_label
 _atom_site_symmetry_multiplicity
 _atom_site_fract_x
 _atom_site_fract_y
 _atom_site_fract_z
 _atom_site_occupancy
  H  H0  1  0.682009  0.935302  0.558112  1
  H  H1  1  0.317991  0.731365  0.441888  1
  Mg  Mg2  1  0.026108  0.700002  -0.047789  1
  Mg  Mg3  1  0.000000  0.333333  0.000000  1
  Mg  Mg4  1  0.973892  0.966665  1.047789  1
  O  O5  1  0.317068  0.801239  0.230418  1
  O  O6  1  0.682932  0.865428  0.769582  1
  O  O7  1  0.330892  0.517804  0.108373  1
  O  O8  1  0.763307  0.100877  0.223980  1
  O  O9  1  0.669108  0.148863  0.891627  1
  O  O10  1  0.236693  0.565789  0.776020  1
