# generated using pymatgen
data_CeSi4Ni9
_symmetry_space_group_name_H-M   'P 1'
_cell_length_a   7.80914389
_cell_length_b   7.80914389
_cell_length_c   7.93447065
_cell_angle_alpha   119.47885926
_cell_angle_beta   119.47885922
_cell_angle_gamma   90.00000002
_symmetry_Int_Tables_number   1
_chemical_formula_structural   CeSi4Ni9
_chemical_formula_sum   'Ce2 Si8 Ni18'
_cell_volume   347.46490405
_cell_formula_units_Z   2
loop_
 _symmetry_equiv_pos_site_id
 _symmetry_equiv_pos_as_xyz
  1  'x, y, z'
loop_
 _atom_site_type_symbol
 _atom_site_label
 _atom_site_symmetry_multiplicity
 _atom_site_fract_x
 _atom_site_fract_y
 _atom_site_fract_z
 _atom_site_occupancy
  Si  Si0  1  0.946821  0.446821  0.235035  1
  Si  Si1  1  0.711787  0.211787  0.764965  1
  Si  Si2  1  0.553179  0.711787  0.764965  1
  Si  Si3  1  0.788213  0.946821  0.235035  1
  Si  Si4  1  0.446821  0.288213  0.235035  1
  Si  Si5  1  0.288213  0.788213  0.235035  1
  Si  Si6  1  0.053179  0.553179  0.764965  1
  Si  Si7  1  0.211787  0.053179  0.764965  1
  Ni  Ni8  1  0.703541  0.568888  0.000000  1
  Ni  Ni9  1  0.931112  0.796459  0.000000  1
  Ni  Ni10  1  0.816989  0.316989  0.370649  1
  Ni  Ni11  1  0.053660  0.816989  0.370649  1
  Ni  Ni12  1  0.296459  0.431112  0.000000  1
  Ni  Ni13  1  0.946340  0.183011  0.629351  1
  Ni  Ni14  1  0.683011  0.446340  0.629351  1
  Ni  Ni15  1  0.446340  0.946340  0.629351  1
  Ni  Ni16  1  0.183011  0.683011  0.629351  1
  Ni  Ni17  1  0.553660  0.053660  0.370649  1
  Ni  Ni18  1  0.000000  0.500000  0.000000  1
  Ni  Ni19  1  0.500000  0.000000  0.000000  1
  Ni  Ni20  1  0.568888  0.296459  0.000000  1
  Ni  Ni21  1  0.203541  0.931112  0.000000  1
  Ni  Ni22  1  0.796459  0.068888  0.000000  1
  Ni  Ni23  1  0.068888  0.203541  0.000000  1
  Ni  Ni24  1  0.316989  0.553660  0.370649  1
  Ni  Ni25  1  0.431112  0.703541  0.000000  1
  Ce  Ce26  1  0.750000  0.750000  0.500000  1
  Ce  Ce27  1  0.250000  0.250000  0.500000  1
