# generated using pymatgen
data_Ga2Te3
_symmetry_space_group_name_H-M   'P 1'
_cell_length_a   4.17563896
_cell_length_b   17.04653566
_cell_length_c   18.74788075
_cell_angle_alpha   23.27119843
_cell_angle_beta   56.16419879
_cell_angle_gamma   60.66530017
_symmetry_Int_Tables_number   1
_chemical_formula_structural   Ga2Te3
_chemical_formula_sum   'Ga4 Te6'
_cell_volume   436.98687037
_cell_formula_units_Z   2
loop_
 _symmetry_equiv_pos_site_id
 _symmetry_equiv_pos_as_xyz
  1  'x, y, z'
loop_
 _atom_site_type_symbol
 _atom_site_label
 _atom_site_symmetry_multiplicity
 _atom_site_fract_x
 _atom_site_fract_y
 _atom_site_fract_z
 _atom_site_occupancy
  Ga  Ga0  1  0.248058  0.240611  0.108288  1
  Ga  Ga1  1  0.257354  0.688897  0.145941  1
  Ga  Ga2  1  0.247575  0.114244  0.609575  1
  Ga  Ga3  1  0.244930  0.829179  0.638685  1
  Te  Te4  1  0.001390  0.230911  0.014715  1
  Te  Te5  1  0.966151  0.510100  0.005459  1
  Te  Te6  1  0.019367  0.151894  0.470738  1
  Te  Te7  1  0.027700  0.738343  -0.001755  1
  Te  Te8  1  0.972979  0.378498  0.508010  1
  Te  Te9  1  0.014495  0.867322  0.500344  1
