# generated using pymatgen
data_Ba(GaTe2)2
_symmetry_space_group_name_H-M   'P 1'
_cell_length_a   6.80592694
_cell_length_b   6.99203343
_cell_length_c   6.99203343
_cell_angle_alpha   76.34923925
_cell_angle_beta   60.93512257
_cell_angle_gamma   60.93512257
_symmetry_Int_Tables_number   1
_chemical_formula_structural   Ba(GaTe2)2
_chemical_formula_sum   'Ba1 Ga2 Te4'
_cell_volume   254.20663789
_cell_formula_units_Z   1
loop_
 _symmetry_equiv_pos_site_id
 _symmetry_equiv_pos_as_xyz
  1  'x, y, z'
loop_
 _atom_site_type_symbol
 _atom_site_label
 _atom_site_symmetry_multiplicity
 _atom_site_fract_x
 _atom_site_fract_y
 _atom_site_fract_z
 _atom_site_occupancy
  Ba  Ba0  1  0.750000  0.999999  0.000001  1
  Ga  Ga1  1  0.250000  0.499815  0.500185  1
  Ga  Ga2  1  0.750000  0.500278  0.499722  1
  Te  Te3  1  0.168565  0.499915  0.162526  1
  Te  Te4  1  0.331435  0.837474  0.500085  1
  Te  Te5  1  0.668456  0.162592  0.500075  1
  Te  Te6  1  0.831544  0.499925  0.837408  1
