# generated using pymatgen
data_HoCo3
_symmetry_space_group_name_H-M   'P 1'
_cell_length_a   8.59536819
_cell_length_b   8.59536819
_cell_length_c   8.59536820
_cell_angle_alpha   33.60137769
_cell_angle_beta   33.60137768
_cell_angle_gamma   33.60137768
_symmetry_Int_Tables_number   1
_chemical_formula_structural   HoCo3
_chemical_formula_sum   'Ho3 Co9'
_cell_volume   173.24645538
_cell_formula_units_Z   3
loop_
 _symmetry_equiv_pos_site_id
 _symmetry_equiv_pos_as_xyz
  1  'x, y, z'
loop_
 _atom_site_type_symbol
 _atom_site_label
 _atom_site_symmetry_multiplicity
 _atom_site_fract_x
 _atom_site_fract_y
 _atom_site_fract_z
 _atom_site_occupancy
  Co  Co0  1  0.500000  0.500000  0.500000  1
  Co  Co1  1  0.334926  0.334926  0.334926  1
  Co  Co2  1  0.665074  0.665074  0.665074  1
  Co  Co3  1  0.582887  0.078284  0.582887  1
  Co  Co4  1  0.582887  0.582887  0.078284  1
  Co  Co5  1  0.078284  0.582887  0.582887  1
  Co  Co6  1  0.921716  0.417113  0.417113  1
  Co  Co7  1  0.417113  0.921716  0.417113  1
  Co  Co8  1  0.417113  0.417113  0.921716  1
  Ho  Ho9  1  0.000000  0.000000  0.000000  1
  Ho  Ho10  1  0.139728  0.139728  0.139728  1
  Ho  Ho11  1  0.860272  0.860272  0.860272  1
