# generated using pymatgen
data_BaSm4Si3SeO12
_symmetry_space_group_name_H-M   'P 1'
_cell_length_a   10.04316563
_cell_length_b   10.04316588
_cell_length_c   6.97645704
_cell_angle_alpha   90.00000000
_cell_angle_beta   90.00000000
_cell_angle_gamma   119.99999914
_symmetry_Int_Tables_number   1
_chemical_formula_structural   BaSm4Si3SeO12
_chemical_formula_sum   'Ba2 Sm8 Si6 Se2 O24'
_cell_volume   609.40613326
_cell_formula_units_Z   2
loop_
 _symmetry_equiv_pos_site_id
 _symmetry_equiv_pos_as_xyz
  1  'x, y, z'
loop_
 _atom_site_type_symbol
 _atom_site_label
 _atom_site_symmetry_multiplicity
 _atom_site_fract_x
 _atom_site_fract_y
 _atom_site_fract_z
 _atom_site_occupancy
  Ba  Ba0  1  0.333333  0.666667  0.503047  1
  Ba  Ba1  1  0.666667  0.333333  0.003047  1
  O  O2  1  0.256912  0.898535  0.435062  1
  O  O3  1  0.264012  0.915328  0.060548  1
  O  O4  1  0.156912  0.671101  0.779243  1
  O  O5  1  0.117074  0.594800  0.227035  1
  O  O6  1  0.084672  0.348683  0.060548  1
  O  O7  1  0.101465  0.358377  0.435062  1
  O  O8  1  0.477726  0.882926  0.227035  1
  O  O9  1  0.514189  0.843088  0.779243  1
  O  O10  1  0.328899  0.485811  0.779243  1
  O  O11  1  0.405200  0.522274  0.227035  1
  O  O12  1  0.348683  0.264012  0.560548  1
  O  O13  1  0.358377  0.256912  0.935062  1
  O  O14  1  0.651317  0.735988  0.060548  1
  O  O15  1  0.641623  0.743088  0.435062  1
  O  O16  1  0.594800  0.477726  0.727035  1
  O  O17  1  0.671101  0.514189  0.279243  1
  O  O18  1  0.485811  0.156912  0.279243  1
  O  O19  1  0.522274  0.117074  0.727035  1
  O  O20  1  0.915328  0.651317  0.560548  1
  O  O21  1  0.898535  0.641623  0.935062  1
  O  O22  1  0.882926  0.405200  0.727035  1
  O  O23  1  0.843088  0.328899  0.279243  1
  O  O24  1  0.743088  0.101465  0.935062  1
  O  O25  1  0.735988  0.084672  0.560548  1
  Se  Se26  1  0.000000  0.000000  -0.000797  1
  Se  Se27  1  0.000000  0.000000  0.499203  1
  Si  Si28  1  0.027714  0.404493  0.251490  1
  Si  Si29  1  0.376779  0.972286  0.251490  1
  Si  Si30  1  0.404493  0.376779  0.751490  1
  Si  Si31  1  0.595507  0.623221  0.251490  1
  Si  Si32  1  0.623221  0.027714  0.751490  1
  Si  Si33  1  0.972286  0.595507  0.751490  1
  Sm  Sm34  1  0.015360  0.757791  0.246829  1
  Sm  Sm35  1  0.333333  0.666667  0.997127  1
  Sm  Sm36  1  0.242209  0.257569  0.246829  1
  Sm  Sm37  1  0.742431  0.984640  0.246829  1
  Sm  Sm38  1  0.257569  0.015360  0.746829  1
  Sm  Sm39  1  0.757791  0.742431  0.746829  1
  Sm  Sm40  1  0.666667  0.333333  0.497127  1
  Sm  Sm41  1  0.984640  0.242209  0.746829  1
