# generated using pymatgen
data_NaClO2
_symmetry_space_group_name_H-M   'P 1'
_cell_length_a   4.67581345
_cell_length_b   4.67581344
_cell_length_c   6.53765763
_cell_angle_alpha   71.55918245
_cell_angle_beta   71.55918254
_cell_angle_gamma   89.60609398
_symmetry_Int_Tables_number   1
_chemical_formula_structural   NaClO2
_chemical_formula_sum   'Na2 Cl2 O4'
_cell_volume   127.94064065
_cell_formula_units_Z   2
loop_
 _symmetry_equiv_pos_site_id
 _symmetry_equiv_pos_as_xyz
  1  'x, y, z'
loop_
 _atom_site_type_symbol
 _atom_site_label
 _atom_site_symmetry_multiplicity
 _atom_site_fract_x
 _atom_site_fract_y
 _atom_site_fract_z
 _atom_site_occupancy
  O  O0  1  0.159260  0.569399  0.656401  1
  O  O1  1  0.430601  0.840740  0.843599  1
  O  O2  1  0.840740  0.430601  0.343599  1
  O  O3  1  0.569399  0.159260  0.156401  1
  Na  Na4  1  0.367068  0.632932  0.250000  1
  Na  Na5  1  0.632932  0.367068  0.750000  1
  Cl  Cl6  1  0.155511  0.844489  0.750000  1
  Cl  Cl7  1  0.844489  0.155511  0.250000  1
