# generated using pymatgen
data_Ba(NdS2)2
_symmetry_space_group_name_H-M   'P 1'
_cell_length_a   7.67630113
_cell_length_b   7.67630093
_cell_length_c   7.67630131
_cell_angle_alpha   109.45122298
_cell_angle_beta   109.45121859
_cell_angle_gamma   109.51122360
_symmetry_Int_Tables_number   1
_chemical_formula_structural   Ba(NdS2)2
_chemical_formula_sum   'Ba2 Nd4 S8'
_cell_volume   348.20418075
_cell_formula_units_Z   2
loop_
 _symmetry_equiv_pos_site_id
 _symmetry_equiv_pos_as_xyz
  1  'x, y, z'
loop_
 _atom_site_type_symbol
 _atom_site_label
 _atom_site_symmetry_multiplicity
 _atom_site_fract_x
 _atom_site_fract_y
 _atom_site_fract_z
 _atom_site_occupancy
  Ba  Ba0  1  0.625000  0.375000  0.250000  1
  Ba  Ba1  1  0.875000  0.125000  0.750000  1
  Nd  Nd2  1  0.127879  0.750000  0.877879  1
  Nd  Nd3  1  0.250000  0.627879  0.377879  1
  Nd  Nd4  1  0.372121  0.250000  0.622121  1
  Nd  Nd5  1  0.750000  0.872121  0.122121  1
  S  S6  1  0.017724  0.857433  0.495374  1
  S  S7  1  0.022350  0.362059  0.504626  1
  S  S8  1  0.482276  0.977650  0.839709  1
  S  S9  1  0.142567  0.137941  0.160291  1
  S  S10  1  0.357433  0.517724  0.995374  1
  S  S11  1  0.637941  0.642567  0.660291  1
  S  S12  1  0.477650  0.982276  0.339709  1
  S  S13  1  0.862059  0.522350  0.004626  1
