# generated using pymatgen
data_Li4HN
_symmetry_space_group_name_H-M   'P 1'
_cell_length_a   4.85563959
_cell_length_b   4.85563958
_cell_length_c   6.04013036
_cell_angle_alpha   113.70002919
_cell_angle_beta   113.70002926
_cell_angle_gamma   89.99999998
_symmetry_Int_Tables_number   1
_chemical_formula_structural   Li4HN
_chemical_formula_sum   'Li8 H2 N2'
_cell_volume   117.16381528
_cell_formula_units_Z   2
loop_
 _symmetry_equiv_pos_site_id
 _symmetry_equiv_pos_as_xyz
  1  'x, y, z'
loop_
 _atom_site_type_symbol
 _atom_site_label
 _atom_site_symmetry_multiplicity
 _atom_site_fract_x
 _atom_site_fract_y
 _atom_site_fract_z
 _atom_site_occupancy
  H  H0  1  0.875000  0.625000  0.750000  1
  H  H1  1  0.125000  0.375000  0.250000  1
  Li  Li2  1  0.973669  0.824895  0.566158  1
  Li  Li3  1  0.741262  0.473669  0.066158  1
  Li  Li4  1  0.324895  0.092488  0.066158  1
  Li  Li5  1  0.592488  0.241262  0.566158  1
  Li  Li6  1  0.026331  0.175105  0.433842  1
  Li  Li7  1  0.258738  0.526331  0.933842  1
  Li  Li8  1  0.675105  0.907512  0.933842  1
  Li  Li9  1  0.407512  0.758738  0.433842  1
  N  N10  1  0.375000  0.125000  0.750000  1
  N  N11  1  0.625000  0.875000  0.250000  1
