# generated using pymatgen
data_Tm2MgS4
_symmetry_space_group_name_H-M   'P 1'
_cell_length_a   7.11790526
_cell_length_b   7.11790503
_cell_length_c   7.11790509
_cell_angle_alpha   110.43438502
_cell_angle_beta   110.43438477
_cell_angle_gamma   107.56159716
_symmetry_Int_Tables_number   1
_chemical_formula_structural   Tm2MgS4
_chemical_formula_sum   'Tm4 Mg2 S8'
_cell_volume   277.37942935
_cell_formula_units_Z   2
loop_
 _symmetry_equiv_pos_site_id
 _symmetry_equiv_pos_as_xyz
  1  'x, y, z'
loop_
 _atom_site_type_symbol
 _atom_site_label
 _atom_site_symmetry_multiplicity
 _atom_site_fract_x
 _atom_site_fract_y
 _atom_site_fract_z
 _atom_site_occupancy
  Mg  Mg0  1  0.625000  0.375000  0.250000  1
  Mg  Mg1  1  0.875000  0.125000  0.750000  1
  S  S2  1  0.005008  0.884877  0.511320  1
  S  S3  1  0.494992  0.006311  0.879869  1
  S  S4  1  0.115123  0.126442  0.120131  1
  S  S5  1  0.384877  0.505008  0.011320  1
  S  S6  1  0.626442  0.615123  0.620131  1
  S  S7  1  0.506311  0.994992  0.379869  1
  S  S8  1  0.873558  0.493689  0.988680  1
  S  S9  1  0.993689  0.373558  0.488680  1
  Tm  Tm10  1  0.117194  0.750000  0.867194  1
  Tm  Tm11  1  0.250000  0.617194  0.367194  1
  Tm  Tm12  1  0.382806  0.250000  0.632806  1
  Tm  Tm13  1  0.750000  0.882806  0.132806  1
