# generated using pymatgen
data_Na3(WO3)10
_symmetry_space_group_name_H-M   'P 1'
_cell_length_a   19.44998577
_cell_length_b   8.69902855
_cell_length_c   5.50430136
_cell_angle_alpha   50.74677095
_cell_angle_beta   90.00000000
_cell_angle_gamma   63.42327973
_symmetry_Int_Tables_number   1
_chemical_formula_structural   Na3(WO3)10
_chemical_formula_sum   'Na3 W10 O30'
_cell_volume   588.61596996
_cell_formula_units_Z   1
loop_
 _symmetry_equiv_pos_site_id
 _symmetry_equiv_pos_as_xyz
  1  'x, y, z'
loop_
 _atom_site_type_symbol
 _atom_site_label
 _atom_site_symmetry_multiplicity
 _atom_site_fract_x
 _atom_site_fract_y
 _atom_site_fract_z
 _atom_site_occupancy
  Na  Na0  1  0.000000  0.000000  0.000000  1
  Na  Na1  1  0.300122  0.499875  0.000125  1
  Na  Na2  1  0.699878  0.500125  0.999875  1
  W  W3  1  0.100315  0.003474  0.496526  1
  W  W4  1  0.000000  0.500000  0.500000  1
  W  W5  1  0.301469  0.996188  0.503812  1
  W  W6  1  0.200869  0.494785  0.505215  1
  W  W7  1  0.500000  0.000000  0.500000  1
  W  W8  1  0.401770  0.498314  0.501686  1
  W  W9  1  0.698531  0.003812  0.496188  1
  W  W10  1  0.598230  0.501686  0.498314  1
  W  W11  1  0.899685  0.996526  0.503474  1
  W  W12  1  0.799131  0.505215  0.494785  1
  O  O13  1  0.049517  0.247922  -0.000078  1
  O  O14  1  0.049517  0.247922  0.504233  1
  O  O15  1  0.098891  0.504409  0.495591  1
  O  O16  1  0.000000  0.000000  0.500000  1
  O  O17  1  0.250329  0.252206  0.000033  1
  O  O18  1  0.149879  0.750131  0.499700  1
  O  O19  1  0.250329  0.252206  0.495555  1
  O  O20  1  0.149879  0.750131  0.000037  1
  O  O21  1  0.200642  0.996134  0.503866  1
  O  O22  1  0.299631  0.499990  0.500010  1
  O  O23  1  0.349472  0.748243  0.504100  1
  O  O24  1  0.448729  0.252165  0.000157  1
  O  O25  1  0.349472  0.748243  0.999415  1
  O  O26  1  0.448729  0.252165  0.495514  1
  O  O27  1  0.398888  0.004685  0.495315  1
  O  O28  1  0.500000  0.500000  0.500000  1
  O  O29  1  0.650528  0.251757  0.495900  1
  O  O30  1  0.551271  0.747835  -0.000157  1
  O  O31  1  0.551271  0.747835  0.504486  1
  O  O32  1  0.650528  0.251757  0.000585  1
  O  O33  1  0.700369  0.500010  0.499990  1
  O  O34  1  0.601112  0.995315  0.504685  1
  O  O35  1  0.850121  0.249869  0.500300  1
  O  O36  1  0.850121  0.249869  -0.000037  1
  O  O37  1  0.749671  0.747794  -0.000033  1
  O  O38  1  0.749671  0.747794  0.504445  1
  O  O39  1  0.901109  0.495591  0.504409  1
  O  O40  1  0.799358  0.003866  0.496134  1
  O  O41  1  0.950483  0.752078  0.000078  1
  O  O42  1  0.950483  0.752078  0.495767  1
