# generated using pymatgen
data_TlCr5Se8
_symmetry_space_group_name_H-M   'P 1'
_cell_length_a   3.68055294
_cell_length_b   9.08444906
_cell_length_c   9.69331067
_cell_angle_alpha   105.06751902
_cell_angle_beta   100.94403918
_cell_angle_gamma   89.99999999
_symmetry_Int_Tables_number   1
_chemical_formula_structural   TlCr5Se8
_chemical_formula_sum   'Tl1 Cr5 Se8'
_cell_volume   306.85251111
_cell_formula_units_Z   1
loop_
 _symmetry_equiv_pos_site_id
 _symmetry_equiv_pos_as_xyz
  1  'x, y, z'
loop_
 _atom_site_type_symbol
 _atom_site_label
 _atom_site_symmetry_multiplicity
 _atom_site_fract_x
 _atom_site_fract_y
 _atom_site_fract_z
 _atom_site_occupancy
  Cr  Cr0  1  0.500000  0.500000  0.000000  1
  Cr  Cr1  1  0.157730  0.474960  0.315461  1
  Cr  Cr2  1  0.204249  0.833327  0.408497  1
  Cr  Cr3  1  0.795751  0.166673  0.591503  1
  Cr  Cr4  1  0.842270  0.525040  0.684539  1
  Se  Se5  1  0.924190  0.347462  0.848380  1
  Se  Se6  1  0.329336  0.011177  0.658672  1
  Se  Se7  1  0.670664  0.988823  0.341328  1
  Se  Se8  1  0.416218  0.676347  0.832435  1
  Se  Se9  1  0.583782  0.323653  0.167565  1
  Se  Se10  1  0.738261  0.655677  0.476522  1
  Se  Se11  1  0.261739  0.344323  0.523478  1
  Se  Se12  1  0.075810  0.652538  0.151620  1
  Tl  Tl13  1  0.000000  0.000000  0.000000  1
