# generated using pymatgen
data_NaCN
_symmetry_space_group_name_H-M   'P 1'
_cell_length_a   4.99043841
_cell_length_b   3.92097848
_cell_length_c   3.92097799
_cell_angle_alpha   75.00705022
_cell_angle_beta   51.17830777
_cell_angle_gamma   51.17832982
_symmetry_Int_Tables_number   1
_chemical_formula_structural   NaCN
_chemical_formula_sum   'Na1 C1 N1'
_cell_volume   45.41670323
_cell_formula_units_Z   1
loop_
 _symmetry_equiv_pos_site_id
 _symmetry_equiv_pos_as_xyz
  1  'x, y, z'
loop_
 _atom_site_type_symbol
 _atom_site_label
 _atom_site_symmetry_multiplicity
 _atom_site_fract_x
 _atom_site_fract_y
 _atom_site_fract_z
 _atom_site_occupancy
  C  C0  1  0.500000  0.120205  0.879795  1
  N  N1  1  0.500000  0.872848  0.127152  1
  Na  Na2  1  0.000000  1.006947  -0.006947  1
