# generated using pymatgen
data_Zr7(NO2)4
_symmetry_space_group_name_H-M   'P 1'
_cell_length_a   6.28890735
_cell_length_b   6.48686720
_cell_length_c   6.23137739
_cell_angle_alpha   99.86744544
_cell_angle_beta   99.13372314
_cell_angle_gamma   100.48192180
_symmetry_Int_Tables_number   1
_chemical_formula_structural   Zr7(NO2)4
_chemical_formula_sum   'Zr7 N4 O8'
_cell_volume   241.49234520
_cell_formula_units_Z   1
loop_
 _symmetry_equiv_pos_site_id
 _symmetry_equiv_pos_as_xyz
  1  'x, y, z'
loop_
 _atom_site_type_symbol
 _atom_site_label
 _atom_site_symmetry_multiplicity
 _atom_site_fract_x
 _atom_site_fract_y
 _atom_site_fract_z
 _atom_site_occupancy
  N  N0  1  0.075278  0.682718  0.931137  1
  N  N1  1  0.406091  0.818272  0.565575  1
  N  N2  1  0.593909  0.181728  0.434425  1
  N  N3  1  0.924722  0.317282  0.068863  1
  O  O4  1  0.082450  0.952371  0.323226  1
  O  O5  1  0.169040  0.407061  0.577655  1
  O  O6  1  0.328052  0.108206  0.943980  1
  O  O7  1  0.428751  0.569521  0.184202  1
  O  O8  1  0.571249  0.430479  0.815798  1
  O  O9  1  0.671948  0.891794  0.056020  1
  O  O10  1  0.830960  0.592939  0.422345  1
  O  O11  1  0.917550  0.047629  0.676774  1
  Zr  Zr12  1  0.126845  0.619286  0.278874  1
  Zr  Zr13  1  0.000000  0.000000  0.000000  1
  Zr  Zr14  1  0.385003  0.678237  0.840799  1
  Zr  Zr15  1  0.324479  0.134377  0.604538  1
  Zr  Zr16  1  0.675521  0.865623  0.395462  1
  Zr  Zr17  1  0.614997  0.321763  0.159201  1
  Zr  Zr18  1  0.873155  0.380714  0.721126  1
