# generated using pymatgen
data_K3AsS4
_symmetry_space_group_name_H-M   'P 1'
_cell_length_a   9.25380002
_cell_length_b   9.62351332
_cell_length_c   10.72065567
_cell_angle_alpha   90.00000000
_cell_angle_beta   90.00000000
_cell_angle_gamma   90.00000000
_symmetry_Int_Tables_number   1
_chemical_formula_structural   K3AsS4
_chemical_formula_sum   'K12 As4 S16'
_cell_volume   954.71799639
_cell_formula_units_Z   4
loop_
 _symmetry_equiv_pos_site_id
 _symmetry_equiv_pos_as_xyz
  1  'x, y, z'
loop_
 _atom_site_type_symbol
 _atom_site_label
 _atom_site_symmetry_multiplicity
 _atom_site_fract_x
 _atom_site_fract_y
 _atom_site_fract_z
 _atom_site_occupancy
  S  S0  1  0.842685  0.032240  0.382350  1
  S  S1  1  0.157315  0.967760  0.882350  1
  S  S2  1  0.657315  0.532240  0.882350  1
  S  S3  1  0.342685  0.467760  0.382350  1
  S  S4  1  0.513018  0.092695  0.213089  1
  S  S5  1  0.486982  0.907305  0.713089  1
  S  S6  1  0.986982  0.592695  0.713089  1
  S  S7  1  0.013018  0.407305  0.213089  1
  S  S8  1  0.842833  0.032095  0.044069  1
  S  S9  1  0.157167  0.967905  0.544069  1
  S  S10  1  0.657167  0.532095  0.544069  1
  S  S11  1  0.342833  0.467905  0.044069  1
  S  S12  1  0.679745  0.755522  0.213211  1
  S  S13  1  0.179745  0.744478  0.213211  1
  S  S14  1  0.820255  0.255522  0.713211  1
  S  S15  1  0.320255  0.244478  0.713211  1
  K  K16  1  0.933674  0.700925  0.008105  1
  K  K17  1  0.364908  0.573820  0.713267  1
  K  K18  1  0.864908  0.926180  0.713267  1
  K  K19  1  0.135092  0.073820  0.213267  1
  K  K20  1  0.933358  0.700678  0.418111  1
  K  K21  1  0.066642  0.299322  0.918111  1
  K  K22  1  0.566642  0.200678  0.918111  1
  K  K23  1  0.433358  0.799322  0.418111  1
  K  K24  1  0.433674  0.799075  0.008105  1
  K  K25  1  0.066326  0.299075  0.508105  1
  K  K26  1  0.566326  0.200925  0.508105  1
  K  K27  1  0.635092  0.426180  0.213267  1
  As  As28  1  0.720954  0.980445  0.213197  1
  As  As29  1  0.279046  0.019555  0.713197  1
  As  As30  1  0.779046  0.480445  0.713197  1
  As  As31  1  0.220954  0.519555  0.213197  1
