# generated using pymatgen
data_CuTe2Br
_symmetry_space_group_name_H-M   'P 1'
_cell_length_a   5.22846367
_cell_length_b   8.39697291
_cell_length_c   11.90843506
_cell_angle_alpha   104.21107988
_cell_angle_beta   90.00000000
_cell_angle_gamma   90.00000000
_symmetry_Int_Tables_number   1
_chemical_formula_structural   CuTe2Br
_chemical_formula_sum   'Cu4 Te8 Br4'
_cell_volume   506.81984437
_cell_formula_units_Z   4
loop_
 _symmetry_equiv_pos_site_id
 _symmetry_equiv_pos_as_xyz
  1  'x, y, z'
loop_
 _atom_site_type_symbol
 _atom_site_label
 _atom_site_symmetry_multiplicity
 _atom_site_fract_x
 _atom_site_fract_y
 _atom_site_fract_z
 _atom_site_occupancy
  Cu  Cu0  1  0.869766  0.570094  0.749109  1
  Cu  Cu1  1  0.369766  0.929906  0.750891  1
  Cu  Cu2  1  0.130234  0.429906  0.250891  1
  Cu  Cu3  1  0.630234  0.070094  0.249109  1
  Br  Br4  1  0.876369  0.294345  0.378856  1
  Br  Br5  1  0.623631  0.794345  0.878856  1
  Br  Br6  1  0.123631  0.705655  0.621144  1
  Br  Br7  1  0.376369  0.205655  0.121144  1
  Te  Te8  1  0.969642  0.867503  0.146195  1
  Te  Te9  1  0.211831  0.438314  0.850372  1
  Te  Te10  1  0.288169  0.938314  0.350372  1
  Te  Te11  1  0.788169  0.561686  0.149628  1
  Te  Te12  1  0.469642  0.632497  0.353805  1
  Te  Te13  1  0.030358  0.132497  0.853805  1
  Te  Te14  1  0.530358  0.367503  0.646195  1
  Te  Te15  1  0.711831  0.061686  0.649628  1
