# generated using pymatgen
data_NdO3
_symmetry_space_group_name_H-M   'P 1'
_cell_length_a   3.67038840
_cell_length_b   9.02258383
_cell_length_c   7.13111822
_cell_angle_alpha   27.11364355
_cell_angle_beta   104.91288613
_cell_angle_gamma   114.00398272
_symmetry_Int_Tables_number   1
_chemical_formula_structural   NdO3
_chemical_formula_sum   'Nd2 O6'
_cell_volume   95.15951200
_cell_formula_units_Z   2
loop_
 _symmetry_equiv_pos_site_id
 _symmetry_equiv_pos_as_xyz
  1  'x, y, z'
loop_
 _atom_site_type_symbol
 _atom_site_label
 _atom_site_symmetry_multiplicity
 _atom_site_fract_x
 _atom_site_fract_y
 _atom_site_fract_z
 _atom_site_occupancy
  Nd  Nd0  1  0.437088  0.903445  0.067286  1
  Nd  Nd1  1  0.562912  0.596555  0.932714  1
  O  O2  1  0.290835  0.962877  0.655917  1
  O  O3  1  0.000000  0.250000  0.500000  1
  O  O4  1  0.770864  0.259756  0.022215  1
  O  O5  1  0.229136  0.240244  0.977785  1
  O  O6  1  0.000000  0.750000  0.500000  1
  O  O7  1  0.709165  0.537123  0.344083  1
