# generated using pymatgen
data_Sm(BiTe2)2
_symmetry_space_group_name_H-M   'P 1'
_cell_length_a   8.40497552
_cell_length_b   8.40497565
_cell_length_c   8.40497498
_cell_angle_alpha   108.21009335
_cell_angle_beta   112.02402851
_cell_angle_gamma   108.21009603
_symmetry_Int_Tables_number   1
_chemical_formula_structural   Sm(BiTe2)2
_chemical_formula_sum   'Sm2 Bi4 Te8'
_cell_volume   456.39113640
_cell_formula_units_Z   2
loop_
 _symmetry_equiv_pos_site_id
 _symmetry_equiv_pos_as_xyz
  1  'x, y, z'
loop_
 _atom_site_type_symbol
 _atom_site_label
 _atom_site_symmetry_multiplicity
 _atom_site_fract_x
 _atom_site_fract_y
 _atom_site_fract_z
 _atom_site_occupancy
  Sm  Sm0  1  0.125000  0.750000  0.875000  1
  Sm  Sm1  1  0.375000  0.250000  0.625000  1
  Bi  Bi2  1  0.250000  0.656459  0.406459  1
  Bi  Bi3  1  0.593541  0.343541  0.250000  1
  Bi  Bi4  1  0.750000  0.843541  0.093541  1
  Bi  Bi5  1  0.906459  0.156459  0.750000  1
  Te  Te6  1  0.006819  0.874354  0.506998  1
  Te  Te7  1  0.006998  0.374354  0.506819  1
  Te  Te8  1  0.132466  0.125646  0.132644  1
  Te  Te9  1  0.493002  0.999821  0.367356  1
  Te  Te10  1  0.367534  0.500179  0.993181  1
  Te  Te11  1  0.493181  0.000179  0.867534  1
  Te  Te12  1  0.632644  0.625646  0.632466  1
  Te  Te13  1  0.867356  0.499821  0.993002  1
