# generated using pymatgen
data_PNF2
_symmetry_space_group_name_H-M   'P 1'
_cell_length_a   5.29350262
_cell_length_b   7.78824601
_cell_length_c   14.68003036
_cell_angle_alpha   90.00000000
_cell_angle_beta   90.00000000
_cell_angle_gamma   109.54607087
_symmetry_Int_Tables_number   1
_chemical_formula_structural   PNF2
_chemical_formula_sum   'P8 N8 F16'
_cell_volume   570.33822351
_cell_formula_units_Z   8
loop_
 _symmetry_equiv_pos_site_id
 _symmetry_equiv_pos_as_xyz
  1  'x, y, z'
loop_
 _atom_site_type_symbol
 _atom_site_label
 _atom_site_symmetry_multiplicity
 _atom_site_fract_x
 _atom_site_fract_y
 _atom_site_fract_z
 _atom_site_occupancy
  N  N0  1  0.499543  0.742466  0.500707  1
  N  N1  1  0.319853  0.460621  0.379196  1
  N  N2  1  0.180147  0.039379  0.879196  1
  N  N3  1  0.680147  0.539379  0.620804  1
  N  N4  1  0.819853  0.960621  0.120804  1
  N  N5  1  0.000457  0.757534  0.000707  1
  N  N6  1  0.500457  0.257534  0.499293  1
  N  N7  1  0.999543  0.242466  0.999293  1
  F  F8  1  0.037806  0.729864  0.169595  1
  F  F9  1  0.462194  0.770136  0.669595  1
  F  F10  1  0.962194  0.270136  0.830405  1
  F  F11  1  0.101013  0.123747  0.395272  1
  F  F12  1  0.537806  0.229864  0.330405  1
  F  F13  1  0.601013  0.623747  0.104728  1
  F  F14  1  0.898987  0.876253  0.604728  1
  F  F15  1  0.398987  0.376253  0.895272  1
  F  F16  1  0.150813  0.270781  0.164660  1
  F  F17  1  0.349187  0.229219  0.664660  1
  F  F18  1  0.849187  0.729219  0.835340  1
  F  F19  1  0.650813  0.770781  0.335340  1
  F  F20  1  0.699576  0.243681  0.130203  1
  F  F21  1  0.800424  0.256319  0.630203  1
  F  F22  1  0.300424  0.756319  0.869797  1
  F  F23  1  0.199576  0.743681  0.369797  1
  P  P24  1  0.372367  0.282120  0.406979  1
  P  P25  1  0.127633  0.217880  0.906979  1
  P  P26  1  0.627633  0.717880  0.593021  1
  P  P27  1  0.872367  0.782120  0.093021  1
  P  P28  1  0.421582  0.667902  0.402707  1
  P  P29  1  0.078418  0.832098  0.902707  1
  P  P30  1  0.578418  0.332098  0.597293  1
  P  P31  1  0.921582  0.167902  0.097293  1
