# generated using pymatgen
data_CaTiFe(PO4)3
_symmetry_space_group_name_H-M   'P 1'
_cell_length_a   8.86057236
_cell_length_b   8.86057273
_cell_length_c   8.86057219
_cell_angle_alpha   58.53616623
_cell_angle_beta   58.53616479
_cell_angle_gamma   58.53616386
_symmetry_Int_Tables_number   1
_chemical_formula_structural   CaTiFe(PO4)3
_chemical_formula_sum   'Ca2 Ti2 Fe2 P6 O24'
_cell_volume   475.42425163
_cell_formula_units_Z   2
loop_
 _symmetry_equiv_pos_site_id
 _symmetry_equiv_pos_as_xyz
  1  'x, y, z'
loop_
 _atom_site_type_symbol
 _atom_site_label
 _atom_site_symmetry_multiplicity
 _atom_site_fract_x
 _atom_site_fract_y
 _atom_site_fract_z
 _atom_site_occupancy
  Ca  Ca0  1  0.997781  0.997781  0.997781  1
  Ca  Ca1  1  0.497781  0.497781  0.497781  1
  Ti  Ti2  1  0.147489  0.147489  0.147489  1
  Ti  Ti3  1  0.647489  0.647489  0.647489  1
  Fe  Fe4  1  0.352228  0.352228  0.352228  1
  Fe  Fe5  1  0.852228  0.852228  0.852228  1
  P  P6  1  0.041541  0.459763  0.750866  1
  P  P7  1  0.459763  0.750866  0.041541  1
  P  P8  1  0.750866  0.041541  0.459763  1
  P  P9  1  0.250866  0.959763  0.541541  1
  P  P10  1  0.541541  0.250866  0.959763  1
  P  P11  1  0.959763  0.541541  0.250866  1
  O  O12  1  0.120757  0.507087  0.296790  1
  O  O13  1  0.296790  0.120757  0.507087  1
  O  O14  1  0.058318  0.271797  0.921572  1
  O  O15  1  0.507087  0.296790  0.120757  1
  O  O16  1  0.007087  0.620757  0.796790  1
  O  O17  1  0.226750  0.436935  0.582998  1
  O  O18  1  0.271797  0.921572  0.058318  1
  O  O19  1  0.436935  0.582998  0.226750  1
  O  O20  1  0.206429  0.998631  0.372269  1
  O  O21  1  0.582998  0.226750  0.436935  1
  O  O22  1  0.082998  0.936935  0.726750  1
  O  O23  1  0.372269  0.206429  0.998631  1
  O  O24  1  0.620757  0.796790  0.007087  1
  O  O25  1  0.921572  0.058318  0.271797  1
  O  O26  1  0.421572  0.771797  0.558318  1
  O  O27  1  0.796790  0.007087  0.620757  1
  O  O28  1  0.558318  0.421572  0.771797  1
  O  O29  1  0.726750  0.082998  0.936935  1
  O  O30  1  0.771797  0.558318  0.421572  1
  O  O31  1  0.998631  0.372269  0.206429  1
  O  O32  1  0.498631  0.706429  0.872269  1
  O  O33  1  0.936935  0.726750  0.082998  1
  O  O34  1  0.706429  0.872269  0.498631  1
  O  O35  1  0.872269  0.498631  0.706429  1
