# generated using pymatgen
data_Ce2SmS4
_symmetry_space_group_name_H-M   'P 1'
_cell_length_a   7.38780938
_cell_length_b   7.38780874
_cell_length_c   7.38780919
_cell_angle_alpha   109.69739628
_cell_angle_beta   109.01981211
_cell_angle_gamma   109.69739248
_symmetry_Int_Tables_number   1
_chemical_formula_structural   Ce2SmS4
_chemical_formula_sum   'Ce4 Sm2 S8'
_cell_volume   310.38799442
_cell_formula_units_Z   2
loop_
 _symmetry_equiv_pos_site_id
 _symmetry_equiv_pos_as_xyz
  1  'x, y, z'
loop_
 _atom_site_type_symbol
 _atom_site_label
 _atom_site_symmetry_multiplicity
 _atom_site_fract_x
 _atom_site_fract_y
 _atom_site_fract_z
 _atom_site_occupancy
  Ce  Ce0  1  0.250000  0.625927  0.375927  1
  Ce  Ce1  1  0.624073  0.374073  0.250000  1
  Ce  Ce2  1  0.750000  0.874073  0.124073  1
  Ce  Ce3  1  0.875927  0.125927  0.750000  1
  Sm  Sm4  1  0.125000  0.750000  0.875000  1
  Sm  Sm5  1  0.375000  0.250000  0.625000  1
  S  S6  1  0.003654  0.850918  0.503180  1
  S  S7  1  0.003180  0.350918  0.503654  1
  S  S8  1  0.152737  0.149082  0.152263  1
  S  S9  1  0.347263  0.499526  0.996346  1
  S  S10  1  0.652263  0.649082  0.652737  1
  S  S11  1  0.496346  0.999526  0.847263  1
  S  S12  1  0.496820  0.000474  0.347737  1
  S  S13  1  0.847737  0.500474  0.996820  1
