# generated using pymatgen
data_Zr4N2O5
_symmetry_space_group_name_H-M   'P 1'
_cell_length_a   8.91289713
_cell_length_b   8.90680788
_cell_length_c   8.89590848
_cell_angle_alpha   109.36763890
_cell_angle_beta   109.39859906
_cell_angle_gamma   109.70653914
_symmetry_Int_Tables_number   1
_chemical_formula_structural   Zr4N2O5
_chemical_formula_sum   'Zr16 N8 O20'
_cell_volume   543.23614658
_cell_formula_units_Z   4
loop_
 _symmetry_equiv_pos_site_id
 _symmetry_equiv_pos_as_xyz
  1  'x, y, z'
loop_
 _atom_site_type_symbol
 _atom_site_label
 _atom_site_symmetry_multiplicity
 _atom_site_fract_x
 _atom_site_fract_y
 _atom_site_fract_z
 _atom_site_occupancy
  N  N0  1  0.022734  0.522115  0.772647  1
  N  N1  1  0.498110  0.996165  0.284121  1
  N  N2  1  0.495757  0.465310  0.731105  1
  N  N3  1  0.262820  0.233898  0.266132  1
  N  N4  1  0.965502  0.998691  0.735428  1
  N  N5  1  0.713152  0.214132  0.717733  1
  N  N6  1  0.999028  0.717084  0.497690  1
  N  N7  1  0.748210  0.247932  0.226887  1
  O  O8  1  0.238635  0.962035  0.965661  1
  O  O9  1  0.006183  0.765897  0.029766  1
  O  O10  1  0.217140  0.500893  0.500248  1
  O  O11  1  0.200510  0.701742  0.261548  1
  O  O12  1  0.441068  0.938649  0.738296  1
  O  O13  1  0.465902  0.737558  0.966787  1
  O  O14  1  0.231275  0.259955  0.753827  1
  O  O15  1  0.252008  0.022560  0.500635  1
  O  O16  1  0.473615  0.234276  0.967981  1
  O  O17  1  0.266526  0.504285  0.029472  1
  O  O18  1  0.737813  0.975886  0.970596  1
  O  O19  1  0.516706  0.746690  0.499255  1
  O  O20  1  0.759967  0.730900  0.753898  1
  O  O21  1  0.510858  0.481218  0.246220  1
  O  O22  1  0.732292  0.766509  0.269210  1
  O  O23  1  0.705467  0.443883  0.500925  1
  O  O24  1  0.769260  0.500542  0.037190  1
  O  O25  1  0.947101  0.206009  0.499172  1
  O  O26  1  0.997474  0.276066  0.037349  1
  O  O27  1  0.973675  0.998833  0.246318  1
  Zr  Zr28  1  0.000546  0.270582  0.783210  1
  Zr  Zr29  1  0.212573  0.252140  0.497566  1
  Zr  Zr30  1  0.465193  0.964857  0.500831  1
  Zr  Zr31  1  0.208813  0.002882  0.734657  1
  Zr  Zr32  1  0.243418  0.744005  0.042667  1
  Zr  Zr33  1  0.005566  0.005532  0.001369  1
  Zr  Zr34  1  0.274861  0.477552  0.260742  1
  Zr  Zr35  1  0.512143  0.716968  0.739799  1
  Zr  Zr36  1  0.720658  0.996311  0.219183  1
  Zr  Zr37  1  0.698866  0.199558  0.956032  1
  Zr  Zr38  1  0.493958  0.493306  0.985280  1
  Zr  Zr39  1  0.487074  0.220769  0.216358  1
  Zr  Zr40  1  0.772227  0.502427  0.784187  1
  Zr  Zr41  1  0.759834  0.714079  0.505716  1
  Zr  Zr42  1  0.981011  0.768709  0.265194  1
  Zr  Zr43  1  0.955270  0.461410  0.501113  1
