# generated using pymatgen
data_Er2Ru2O7
_symmetry_space_group_name_H-M   'P 1'
_cell_length_a   7.18879958
_cell_length_b   7.18879920
_cell_length_c   7.18879873
_cell_angle_alpha   59.99999752
_cell_angle_beta   59.99999925
_cell_angle_gamma   59.99999777
_symmetry_Int_Tables_number   1
_chemical_formula_structural   Er2Ru2O7
_chemical_formula_sum   'Er4 Ru4 O14'
_cell_volume   262.69634931
_cell_formula_units_Z   2
loop_
 _symmetry_equiv_pos_site_id
 _symmetry_equiv_pos_as_xyz
  1  'x, y, z'
loop_
 _atom_site_type_symbol
 _atom_site_label
 _atom_site_symmetry_multiplicity
 _atom_site_fract_x
 _atom_site_fract_y
 _atom_site_fract_z
 _atom_site_occupancy
  Er  Er0  1  0.500000  0.500000  0.500000  1
  Er  Er1  1  0.500000  0.500000  0.000000  1
  Er  Er2  1  0.000000  0.500000  0.500000  1
  Er  Er3  1  0.500000  0.000000  0.500000  1
  Ru  Ru4  1  0.000000  0.000000  0.000000  1
  Ru  Ru5  1  0.000000  0.000000  0.500000  1
  Ru  Ru6  1  0.500000  0.000000  0.000000  1
  Ru  Ru7  1  0.000000  0.500000  0.000000  1
  O  O8  1  0.913465  0.336535  0.336535  1
  O  O9  1  0.663465  0.663465  0.086535  1
  O  O10  1  0.086535  0.086535  0.663465  1
  O  O11  1  0.663465  0.086535  0.086535  1
  O  O12  1  0.663465  0.086535  0.663465  1
  O  O13  1  0.086535  0.663465  0.086535  1
  O  O14  1  0.336535  0.913465  0.336535  1
  O  O15  1  0.336535  0.336535  0.913465  1
  O  O16  1  0.913465  0.913465  0.336535  1
  O  O17  1  0.913465  0.336535  0.913465  1
  O  O18  1  0.086535  0.663465  0.663465  1
  O  O19  1  0.336535  0.913465  0.913465  1
  O  O20  1  0.375000  0.375000  0.375000  1
  O  O21  1  0.625000  0.625000  0.625000  1
