# generated using pymatgen
data_KBH4
_symmetry_space_group_name_H-M   'P 1'
_cell_length_a   4.71649985
_cell_length_b   4.71649985
_cell_length_c   6.68654687
_cell_angle_alpha   90.00000000
_cell_angle_beta   90.00000000
_cell_angle_gamma   90.00000000
_symmetry_Int_Tables_number   1
_chemical_formula_structural   KBH4
_chemical_formula_sum   'K2 B2 H8'
_cell_volume   148.74471473
_cell_formula_units_Z   2
loop_
 _symmetry_equiv_pos_site_id
 _symmetry_equiv_pos_as_xyz
  1  'x, y, z'
loop_
 _atom_site_type_symbol
 _atom_site_label
 _atom_site_symmetry_multiplicity
 _atom_site_fract_x
 _atom_site_fract_y
 _atom_site_fract_z
 _atom_site_occupancy
  K  K0  1  0.500000  0.500000  0.500000  1
  K  K1  1  0.000000  0.000000  0.000000  1
  B  B2  1  0.500000  0.500000  0.000000  1
  B  B3  1  0.000000  0.000000  0.500000  1
  H  H4  1  0.000000  0.786454  0.394148  1
  H  H5  1  0.213545  0.000000  0.605852  1
  H  H6  1  0.000000  0.213545  0.394148  1
  H  H7  1  0.286455  0.500000  0.894148  1
  H  H8  1  0.713546  0.500000  0.894148  1
  H  H9  1  0.786454  0.000000  0.605852  1
  H  H10  1  0.500000  0.713546  0.105852  1
  H  H11  1  0.500000  0.286455  0.105852  1
