# generated using pymatgen
data_La2SmS4
_symmetry_space_group_name_H-M   'P 1'
_cell_length_a   7.50226989
_cell_length_b   7.50227052
_cell_length_c   7.50227064
_cell_angle_alpha   109.41802615
_cell_angle_beta   109.57765486
_cell_angle_gamma   109.41803340
_symmetry_Int_Tables_number   1
_chemical_formula_structural   La2SmS4
_chemical_formula_sum   'La4 Sm2 S8'
_cell_volume   325.05370110
_cell_formula_units_Z   2
loop_
 _symmetry_equiv_pos_site_id
 _symmetry_equiv_pos_as_xyz
  1  'x, y, z'
loop_
 _atom_site_type_symbol
 _atom_site_label
 _atom_site_symmetry_multiplicity
 _atom_site_fract_x
 _atom_site_fract_y
 _atom_site_fract_z
 _atom_site_occupancy
  La  La0  1  0.250000  0.630169  0.380169  1
  La  La1  1  0.750000  0.869831  0.119831  1
  La  La2  1  0.619831  0.369831  0.250000  1
  La  La3  1  0.880169  0.130169  0.750000  1
  Sm  Sm4  1  0.125000  0.750000  0.875000  1
  Sm  Sm5  1  0.375000  0.250000  0.625000  1
  S  S6  1  0.004886  0.855328  0.505280  1
  S  S7  1  0.005280  0.355328  0.504886  1
  S  S8  1  0.494720  0.999606  0.350047  1
  S  S9  1  0.149559  0.144672  0.149953  1
  S  S10  1  0.350441  0.500394  0.995114  1
  S  S11  1  0.649953  0.644672  0.649559  1
  S  S12  1  0.495114  0.000394  0.850441  1
  S  S13  1  0.850047  0.499606  0.994720  1
