# generated using pymatgen
data_KBiO2
_symmetry_space_group_name_H-M   'P 1'
_cell_length_a   5.68814923
_cell_length_b   5.68817051
_cell_length_c   6.07955239
_cell_angle_alpha   113.75424054
_cell_angle_beta   113.75419628
_cell_angle_gamma   90.97388179
_symmetry_Int_Tables_number   1
_chemical_formula_structural   KBiO2
_chemical_formula_sum   'K2 Bi2 O4'
_cell_volume   160.97109404
_cell_formula_units_Z   2
loop_
 _symmetry_equiv_pos_site_id
 _symmetry_equiv_pos_as_xyz
  1  'x, y, z'
loop_
 _atom_site_type_symbol
 _atom_site_label
 _atom_site_symmetry_multiplicity
 _atom_site_fract_x
 _atom_site_fract_y
 _atom_site_fract_z
 _atom_site_occupancy
  O  O0  1  0.258776  0.124423  0.722056  1
  Bi  Bi1  1  0.101309  0.898692  0.250001  1
  O  O2  1  0.741225  0.875579  0.277944  1
  K  K3  1  0.370133  0.629863  0.749999  1
  O  O4  1  0.875579  0.741225  0.777945  1
  Bi  Bi5  1  0.898691  0.101309  0.750000  1
  K  K6  1  0.629866  0.370133  0.250000  1
  O  O7  1  0.124421  0.258776  0.222055  1
