# generated using pymatgen
data_Sr(GdSe2)2
_symmetry_space_group_name_H-M   'P 1'
_cell_length_a   7.76076775
_cell_length_b   7.76076752
_cell_length_c   7.76076798
_cell_angle_alpha   109.36277641
_cell_angle_beta   109.68833356
_cell_angle_gamma   109.36276963
_symmetry_Int_Tables_number   1
_chemical_formula_structural   Sr(GdSe2)2
_chemical_formula_sum   'Sr2 Gd4 Se8'
_cell_volume   359.82181881
_cell_formula_units_Z   2
loop_
 _symmetry_equiv_pos_site_id
 _symmetry_equiv_pos_as_xyz
  1  'x, y, z'
loop_
 _atom_site_type_symbol
 _atom_site_label
 _atom_site_symmetry_multiplicity
 _atom_site_fract_x
 _atom_site_fract_y
 _atom_site_fract_z
 _atom_site_occupancy
  Gd  Gd0  1  0.250000  0.624032  0.374032  1
  Gd  Gd1  1  0.750000  0.875968  0.125968  1
  Gd  Gd2  1  0.625968  0.375968  0.250000  1
  Gd  Gd3  1  0.874032  0.124032  0.750000  1
  Se  Se4  1  0.985591  0.848780  0.488322  1
  Se  Se5  1  0.988322  0.348780  0.485591  1
  Se  Se6  1  0.514409  0.002731  0.863189  1
  Se  Se7  1  0.511678  0.997269  0.360458  1
  Se  Se8  1  0.136811  0.151220  0.139542  1
  Se  Se9  1  0.363189  0.502731  0.014409  1
  Se  Se10  1  0.639542  0.651220  0.636811  1
  Se  Se11  1  0.860458  0.497269  0.011678  1
  Sr  Sr12  1  0.125000  0.750000  0.875000  1
  Sr  Sr13  1  0.375000  0.250000  0.625000  1
