# generated using pymatgen
data_Ti9O10
_symmetry_space_group_name_H-M   'P 1'
_cell_length_a   14.78019265
_cell_length_b   5.52391071
_cell_length_c   11.25025636
_cell_angle_alpha   51.85309057
_cell_angle_beta   19.92697425
_cell_angle_gamma   42.82523130
_symmetry_Int_Tables_number   1
_chemical_formula_structural   Ti9O10
_chemical_formula_sum   'Ti9 O10'
_cell_volume   202.31308297
_cell_formula_units_Z   1
loop_
 _symmetry_equiv_pos_site_id
 _symmetry_equiv_pos_as_xyz
  1  'x, y, z'
loop_
 _atom_site_type_symbol
 _atom_site_label
 _atom_site_symmetry_multiplicity
 _atom_site_fract_x
 _atom_site_fract_y
 _atom_site_fract_z
 _atom_site_occupancy
  O  O0  1  0.966571  0.224325  0.569365  1
  O  O1  1  0.546188  1.003619  0.095252  1
  O  O2  1  0.492184  0.541211  0.198812  1
  O  O3  1  0.953812  -0.003619  0.904748  1
  O  O4  1  0.347901  0.288438  0.695522  1
  O  O5  1  0.007816  0.458789  0.801188  1
  O  O6  1  0.533429  0.775675  0.430635  1
  O  O7  1  0.865329  0.225622  0.341511  1
  O  O8  1  0.634671  0.774378  0.658489  1
  O  O9  1  0.152099  0.711562  0.304478  1
  Ti  Ti10  1  0.949632  0.437346  0.696650  1
  Ti  Ti11  1  0.381530  0.846498  0.097303  1
  Ti  Ti12  1  0.118470  0.153502  0.902697  1
  Ti  Ti13  1  0.550368  0.562654  0.303350  1
  Ti  Ti14  1  0.750000  0.000000  0.000000  1
  Ti  Ti15  1  0.480997  0.343403  0.680206  1
  Ti  Ti16  1  0.830506  0.744210  0.260593  1
  Ti  Ti17  1  0.669494  0.255790  0.739407  1
  Ti  Ti18  1  0.019003  0.656597  0.319794  1
