# generated using pymatgen
data_Ca21(Mn2Sb9)2
_symmetry_space_group_name_H-M   'P 1'
_cell_length_a   12.15947702
_cell_length_b   12.15947724
_cell_length_c   16.85025873
_cell_angle_alpha   88.08667986
_cell_angle_beta   88.08667980
_cell_angle_gamma   90.14561238
_symmetry_Int_Tables_number   1
_chemical_formula_structural   Ca21(Mn2Sb9)2
_chemical_formula_sum   'Ca42 Mn8 Sb36'
_cell_volume   2488.56549552
_cell_formula_units_Z   2
loop_
 _symmetry_equiv_pos_site_id
 _symmetry_equiv_pos_as_xyz
  1  'x, y, z'
loop_
 _atom_site_type_symbol
 _atom_site_label
 _atom_site_symmetry_multiplicity
 _atom_site_fract_x
 _atom_site_fract_y
 _atom_site_fract_z
 _atom_site_occupancy
  Ca  Ca0  1  0.089000  0.577559  0.240407  1
  Ca  Ca1  1  0.422441  0.911000  0.259593  1
  Ca  Ca2  1  0.911000  0.422441  0.759593  1
  Ca  Ca3  1  0.577559  0.089000  0.740407  1
  Ca  Ca4  1  0.316525  0.487795  0.064201  1
  Ca  Ca5  1  0.512205  0.683475  0.435799  1
  Ca  Ca6  1  0.683475  0.512205  0.935799  1
  Ca  Ca7  1  0.487795  0.316525  0.564201  1
  Ca  Ca8  1  0.747781  0.263470  0.422199  1
  Ca  Ca9  1  0.736530  0.252219  0.077801  1
  Ca  Ca10  1  0.252219  0.736530  0.577801  1
  Ca  Ca11  1  0.263470  0.747781  0.922199  1
  Ca  Ca12  1  0.405714  0.230248  0.156125  1
  Ca  Ca13  1  0.769752  0.594286  0.343875  1
  Ca  Ca14  1  0.594286  0.769752  0.843875  1
  Ca  Ca15  1  0.230248  0.405714  0.656125  1
  Ca  Ca16  1  0.423213  0.189081  0.377628  1
  Ca  Ca17  1  0.810919  0.576787  0.122372  1
  Ca  Ca18  1  0.576787  0.810919  0.622372  1
  Ca  Ca19  1  0.189081  0.423213  0.877628  1
  Ca  Ca20  1  0.080202  0.257809  0.340989  1
  Ca  Ca21  1  0.742191  0.919798  0.159011  1
  Ca  Ca22  1  0.919798  0.742191  0.659011  1
  Ca  Ca23  1  0.257809  0.080202  0.840989  1
  Ca  Ca24  1  0.315228  0.060588  0.618466  1
  Ca  Ca25  1  0.939412  0.684772  0.881534  1
  Ca  Ca26  1  0.684772  0.939412  0.381534  1
  Ca  Ca27  1  0.060588  0.315228  0.118466  1
  Ca  Ca28  1  0.242370  0.480802  0.432845  1
  Ca  Ca29  1  0.519198  0.757630  0.067155  1
  Ca  Ca30  1  0.757630  0.519198  0.567155  1
  Ca  Ca31  1  0.480802  0.242370  0.932845  1
  Ca  Ca32  1  0.998341  0.265881  0.562777  1
  Ca  Ca33  1  0.734119  0.001659  0.937223  1
  Ca  Ca34  1  0.001659  0.734119  0.437223  1
  Ca  Ca35  1  0.265881  0.998341  0.062777  1
  Ca  Ca36  1  0.176638  0.995269  0.429069  1
  Ca  Ca37  1  0.004731  0.823362  0.070931  1
  Ca  Ca38  1  0.823362  0.004731  0.570931  1
  Ca  Ca39  1  0.995269  0.176638  0.929069  1
  Ca  Ca40  1  0.427709  0.572291  0.250000  1
  Ca  Ca41  1  0.572291  0.427709  0.750000  1
  Mn  Mn42  1  0.640035  0.359965  0.250000  1
  Mn  Mn43  1  0.359965  0.640035  0.750000  1
  Mn  Mn44  1  0.842405  0.157595  0.250000  1
  Mn  Mn45  1  0.157595  0.842405  0.750000  1
  Mn  Mn46  1  0.001145  0.998855  0.250000  1
  Mn  Mn47  1  0.998855  0.001145  0.750000  1
  Mn  Mn48  1  0.161584  0.838416  0.250000  1
  Mn  Mn49  1  0.838416  0.161584  0.750000  1
  Sb  Sb50  1  0.553549  0.433272  0.393681  1
  Sb  Sb51  1  0.566728  0.446451  0.106319  1
  Sb  Sb52  1  0.446451  0.566728  0.606319  1
  Sb  Sb53  1  0.433272  0.553549  0.893681  1
  Sb  Sb54  1  0.869099  0.382559  0.243089  1
  Sb  Sb55  1  0.617441  0.130901  0.256911  1
  Sb  Sb56  1  0.130901  0.617441  0.756911  1
  Sb  Sb57  1  0.382559  0.869099  0.743089  1
  Sb  Sb58  1  0.919348  0.068402  0.397425  1
  Sb  Sb59  1  0.931598  0.080652  0.102574  1
  Sb  Sb60  1  0.080652  0.931598  0.602575  1
  Sb  Sb61  1  0.068402  0.919348  0.897425  1
  Sb  Sb62  1  0.219108  0.066846  0.246924  1
  Sb  Sb63  1  0.933154  0.780892  0.253076  1
  Sb  Sb64  1  0.780892  0.933154  0.753076  1
  Sb  Sb65  1  0.066846  0.219108  0.746924  1
  Sb  Sb66  1  0.253755  0.729184  0.375550  1
  Sb  Sb67  1  0.270816  0.746245  0.124450  1
  Sb  Sb68  1  0.746245  0.270816  0.624450  1
  Sb  Sb69  1  0.729184  0.253755  0.875550  1
  Sb  Sb70  1  0.077087  0.575537  0.035787  1
  Sb  Sb71  1  0.424463  0.922913  0.464213  1
  Sb  Sb72  1  0.922913  0.424463  0.964213  1
  Sb  Sb73  1  0.575537  0.077087  0.535787  1
  Sb  Sb74  1  0.960630  0.461787  0.423227  1
  Sb  Sb75  1  0.538213  0.039370  0.076773  1
  Sb  Sb76  1  0.039370  0.538213  0.576773  1
  Sb  Sb77  1  0.461787  0.960630  0.923227  1
  Sb  Sb78  1  0.239772  0.242691  0.500028  1
  Sb  Sb79  1  0.757309  0.760228  0.999972  1
  Sb  Sb80  1  0.760228  0.757309  0.499972  1
  Sb  Sb81  1  0.242691  0.239772  0.000028  1
  Sb  Sb82  1  0.609571  0.744843  0.253847  1
  Sb  Sb83  1  0.255157  0.390429  0.246153  1
  Sb  Sb84  1  0.390429  0.255157  0.746153  1
  Sb  Sb85  1  0.744843  0.609571  0.753847  1
