# generated using pymatgen
data_Tm2S3
_symmetry_space_group_name_H-M   'P 1'
_cell_length_a   21.35186337
_cell_length_b   8.22598416
_cell_length_c   8.22598446
_cell_angle_alpha   90.00000333
_cell_angle_beta   54.69790177
_cell_angle_gamma   54.69790029
_symmetry_Int_Tables_number   1
_chemical_formula_structural   Tm2S3
_chemical_formula_sum   'Tm16 S24'
_cell_volume   832.60829257
_cell_formula_units_Z   8
loop_
 _symmetry_equiv_pos_site_id
 _symmetry_equiv_pos_as_xyz
  1  'x, y, z'
loop_
 _atom_site_type_symbol
 _atom_site_label
 _atom_site_symmetry_multiplicity
 _atom_site_fract_x
 _atom_site_fract_y
 _atom_site_fract_z
 _atom_site_occupancy
  S  S0  1  0.129593  0.486340  0.990131  1
  S  S1  1  0.047288  0.360764  0.492977  1
  S  S2  1  0.286046  0.139236  0.134840  1
  S  S3  1  0.047288  0.997372  0.365160  1
  S  S4  1  0.286046  0.502628  0.007023  1
  S  S5  1  0.203740  0.013660  0.878909  1
  S  S6  1  0.129593  0.624883  0.621091  1
  S  S7  1  0.203740  0.875117  0.509869  1
  S  S8  1  0.451976  0.493496  0.997834  1
  S  S9  1  0.381357  0.353761  0.506504  1
  S  S10  1  0.381357  0.002166  0.349424  1
  S  S11  1  0.629593  0.121091  0.124883  1
  S  S12  1  0.629593  0.490131  0.986340  1
  S  S13  1  0.547288  0.992977  0.860764  1
  S  S14  1  0.451976  0.650576  0.646239  1
  S  S15  1  0.547288  0.865160  0.497372  1
  S  S16  1  0.786046  0.507023  0.002628  1
  S  S17  1  0.703740  0.378909  0.513660  1
  S  S18  1  0.703740  0.009869  0.375117  1
  S  S19  1  0.951976  0.146239  0.150576  1
  S  S20  1  0.951976  0.497834  0.993496  1
  S  S21  1  0.881357  0.006504  0.853761  1
  S  S22  1  0.786046  0.634840  0.639236  1
  S  S23  1  0.881357  0.849424  0.502166  1
  Tm  Tm24  1  0.993652  0.398835  0.248862  1
  Tm  Tm25  1  0.993652  0.120210  0.770183  1
  Tm  Tm26  1  0.086991  0.619513  0.369513  1
  Tm  Tm27  1  0.166667  0.250000  0.633036  1
  Tm  Tm28  1  0.246342  0.880487  0.130487  1
  Tm  Tm29  1  0.339681  0.379790  0.251138  1
  Tm  Tm30  1  0.166667  0.750000  0.866964  1
  Tm  Tm31  1  0.339681  0.101165  0.729817  1
  Tm  Tm32  1  0.493652  0.270183  0.620210  1
  Tm  Tm33  1  0.666667  0.366964  0.250000  1
  Tm  Tm34  1  0.586991  0.869513  0.119513  1
  Tm  Tm35  1  0.493652  0.748862  0.898835  1
  Tm  Tm36  1  0.666667  0.133036  0.750000  1
  Tm  Tm37  1  0.746342  0.630487  0.380487  1
  Tm  Tm38  1  0.839681  0.229817  0.601165  1
  Tm  Tm39  1  0.839681  0.751138  0.879790  1
