# generated using pymatgen
data_Ca2P2O7
_symmetry_space_group_name_H-M   'P 1'
_cell_length_a   6.77239949
_cell_length_b   6.77239949
_cell_length_c   24.50461652
_cell_angle_alpha   90.00000000
_cell_angle_beta   90.00000000
_cell_angle_gamma   90.00000000
_symmetry_Int_Tables_number   1
_chemical_formula_structural   Ca2P2O7
_chemical_formula_sum   'Ca16 P16 O56'
_cell_volume   1123.91391239
_cell_formula_units_Z   8
loop_
 _symmetry_equiv_pos_site_id
 _symmetry_equiv_pos_as_xyz
  1  'x, y, z'
loop_
 _atom_site_type_symbol
 _atom_site_label
 _atom_site_symmetry_multiplicity
 _atom_site_fract_x
 _atom_site_fract_y
 _atom_site_fract_z
 _atom_site_occupancy
  O  O0  1  0.847620  0.226829  0.657515  1
  O  O1  1  0.773171  0.847620  0.907515  1
  O  O2  1  0.226829  0.152380  0.407515  1
  O  O3  1  0.152380  0.773171  0.157515  1
  O  O4  1  0.531041  0.221826  0.603480  1
  O  O5  1  0.778174  0.531041  0.853480  1
  O  O6  1  0.221826  0.468959  0.353480  1
  O  O7  1  0.468959  0.778174  0.103480  1
  O  O8  1  0.651690  0.546067  0.647532  1
  O  O9  1  0.453933  0.651690  0.897532  1
  O  O10  1  0.546067  0.348310  0.397532  1
  O  O11  1  0.348310  0.453933  0.147532  1
  O  O12  1  0.831571  0.408975  0.566930  1
  O  O13  1  0.591025  0.831571  0.816930  1
  O  O14  1  0.408975  0.168429  0.316930  1
  O  O15  1  0.168429  0.591025  0.066930  1
  O  O16  1  0.961271  0.443881  0.475064  1
  O  O17  1  0.556119  0.961271  0.725064  1
  O  O18  1  0.443881  0.038729  0.225064  1
  O  O19  1  0.038729  0.556119  0.975064  1
  O  O20  1  0.806324  0.116460  0.500167  1
  O  O21  1  0.942637  0.819871  0.595648  1
  O  O22  1  0.883540  0.806324  0.750167  1
  O  O23  1  0.193676  0.883540  0.000167  1
  O  O24  1  0.138581  0.211621  0.542624  1
  O  O25  1  0.788379  0.138581  0.792624  1
  O  O26  1  0.211621  0.861419  0.292624  1
  O  O27  1  0.861419  0.788379  0.042624  1
  O  O28  1  0.097711  0.583296  0.667945  1
  O  O29  1  0.416704  0.097711  0.917945  1
  O  O30  1  0.583296  0.902289  0.417945  1
  O  O31  1  0.902289  0.416704  0.167945  1
  O  O32  1  0.467082  0.160857  0.041448  1
  O  O33  1  0.839143  0.467082  0.291448  1
  O  O34  1  0.160857  0.532918  0.791448  1
  O  O35  1  0.532918  0.839143  0.541448  1
  O  O36  1  0.778351  0.201908  0.986352  1
  O  O37  1  0.798092  0.778351  0.236352  1
  O  O38  1  0.201908  0.221649  0.736352  1
  O  O39  1  0.221649  0.798092  0.486352  1
  O  O40  1  0.540089  0.496615  0.000375  1
  O  O41  1  0.503385  0.540089  0.250375  1
  O  O42  1  0.496615  0.459911  0.750375  1
  O  O43  1  0.459911  0.503385  0.500375  1
  O  O44  1  0.744066  0.376519  0.078758  1
  O  O45  1  0.623481  0.744066  0.328758  1
  O  O46  1  0.376519  0.255934  0.828758  1
  O  O47  1  0.255934  0.623481  0.578758  1
  O  O48  1  0.743812  0.089504  0.147686  1
  O  O49  1  0.910496  0.743812  0.397686  1
  O  O50  1  0.089504  0.256188  0.897686  1
  O  O51  1  0.256188  0.910496  0.647686  1
  O  O52  1  0.057363  0.180129  0.095648  1
  O  O53  1  0.819871  0.057363  0.345648  1
  O  O54  1  0.180129  0.942637  0.845648  1
  O  O55  1  0.116460  0.193676  0.250167  1
  P  P56  1  0.706944  0.351055  0.621533  1
  P  P57  1  0.648945  0.706944  0.871533  1
  P  P58  1  0.351055  0.293056  0.371533  1
  P  P59  1  0.293056  0.648945  0.121533  1
  P  P60  1  0.943206  0.283266  0.518656  1
  P  P61  1  0.716734  0.943206  0.768656  1
  P  P62  1  0.283266  0.056794  0.268656  1
  P  P63  1  0.056794  0.716734  0.018656  1
  P  P64  1  0.127000  0.742392  0.624338  1
  P  P65  1  0.257608  0.127000  0.874338  1
  P  P66  1  0.742392  0.873000  0.374338  1
  P  P67  1  0.873000  0.257608  0.124338  1
  P  P68  1  0.372412  0.690245  0.522850  1
  P  P69  1  0.309755  0.372412  0.772850  1
  P  P70  1  0.690245  0.627588  0.272850  1
  P  P71  1  0.627588  0.309755  0.022850  1
  Ca  Ca72  1  0.630103  0.889955  0.634571  1
  Ca  Ca73  1  0.110045  0.630103  0.884571  1
  Ca  Ca74  1  0.889955  0.369897  0.384571  1
  Ca  Ca75  1  0.369897  0.110045  0.134571  1
  Ca  Ca76  1  0.201859  0.259781  0.637501  1
  Ca  Ca77  1  0.740219  0.201859  0.887501  1
  Ca  Ca78  1  0.259781  0.798141  0.387501  1
  Ca  Ca79  1  0.798141  0.740219  0.137501  1
  Ca  Ca80  1  0.839966  0.448304  0.741918  1
  Ca  Ca81  1  0.551696  0.839966  0.991918  1
  Ca  Ca82  1  0.448304  0.160034  0.491918  1
  Ca  Ca83  1  0.160034  0.551696  0.241918  1
  Ca  Ca84  1  0.860448  0.769720  0.500159  1
  Ca  Ca85  1  0.230280  0.860448  0.750159  1
  Ca  Ca86  1  0.769720  0.139552  0.250159  1
  Ca  Ca87  1  0.139552  0.230280  0.000159  1
