# generated using pymatgen
data_SbPO4
_symmetry_space_group_name_H-M   'P 1'
_cell_length_a   4.87339245
_cell_length_b   5.28824505
_cell_length_c   6.88489953
_cell_angle_alpha   90.00000000
_cell_angle_beta   90.00000000
_cell_angle_gamma   96.61444538
_symmetry_Int_Tables_number   1
_chemical_formula_structural   SbPO4
_chemical_formula_sum   'Sb2 P2 O8'
_cell_volume   176.25446651
_cell_formula_units_Z   2
loop_
 _symmetry_equiv_pos_site_id
 _symmetry_equiv_pos_as_xyz
  1  'x, y, z'
loop_
 _atom_site_type_symbol
 _atom_site_label
 _atom_site_symmetry_multiplicity
 _atom_site_fract_x
 _atom_site_fract_y
 _atom_site_fract_z
 _atom_site_occupancy
  O  O0  1  0.824477  0.769601  0.429133  1
  O  O1  1  0.175523  0.230399  0.929133  1
  O  O2  1  0.175523  0.230399  0.570867  1
  O  O3  1  0.824477  0.769601  0.070867  1
  O  O4  1  0.825453  0.339588  0.250000  1
  O  O5  1  0.174547  0.660412  0.750000  1
  O  O6  1  0.401709  0.554781  0.250000  1
  O  O7  1  0.598291  0.445219  0.750000  1
  P  P8  1  0.275507  0.387998  0.750000  1
  P  P9  1  0.724493  0.612002  0.250000  1
  Sb  Sb10  1  0.808748  0.808323  0.750000  1
  Sb  Sb11  1  0.191252  0.191677  0.250000  1
