# generated using pymatgen
data_Na(ScI3)2
_symmetry_space_group_name_H-M   'P 1'
_cell_length_a   7.79552326
_cell_length_b   7.79552326
_cell_length_c   13.76840563
_cell_angle_alpha   90.00000000
_cell_angle_beta   90.00000000
_cell_angle_gamma   120.00000000
_symmetry_Int_Tables_number   1
_chemical_formula_structural   Na(ScI3)2
_chemical_formula_sum   'Na2 Sc4 I12'
_cell_volume   724.61084122
_cell_formula_units_Z   2
loop_
 _symmetry_equiv_pos_site_id
 _symmetry_equiv_pos_as_xyz
  1  'x, y, z'
loop_
 _atom_site_type_symbol
 _atom_site_label
 _atom_site_symmetry_multiplicity
 _atom_site_fract_x
 _atom_site_fract_y
 _atom_site_fract_z
 _atom_site_occupancy
  I  I0  1  0.992151  0.691434  0.001440  1
  I  I1  1  0.297138  0.985734  0.250694  1
  I  I2  1  0.014266  0.311404  0.250694  1
  I  I3  1  0.308566  0.300718  0.001440  1
  I  I4  1  0.300718  0.308566  0.501440  1
  I  I5  1  0.699282  0.007849  0.001440  1
  I  I6  1  0.311404  0.014266  0.750694  1
  I  I7  1  0.688596  0.702862  0.250694  1
  I  I8  1  0.702862  0.688596  0.750694  1
  I  I9  1  0.007849  0.699282  0.501440  1
  I  I10  1  0.691434  0.992151  0.501440  1
  I  I11  1  0.985734  0.297138  0.750694  1
  Na  Na12  1  0.333333  0.666667  0.870995  1
  Na  Na13  1  0.666667  0.333333  0.370995  1
  Sc  Sc14  1  0.000000  0.000000  0.125897  1
  Sc  Sc15  1  0.000000  0.000000  0.376435  1
  Sc  Sc16  1  0.000000  0.000000  0.625897  1
  Sc  Sc17  1  0.000000  0.000000  0.876435  1
