# generated using pymatgen
data_Sb2BrF15
_symmetry_space_group_name_H-M   'P 1'
_cell_length_a   5.37698033
_cell_length_b   14.58872315
_cell_length_c   14.87229748
_cell_angle_alpha   90.00000000
_cell_angle_beta   90.00000000
_cell_angle_gamma   88.00212504
_symmetry_Int_Tables_number   1
_chemical_formula_structural   Sb2BrF15
_chemical_formula_sum   'Sb8 Br4 F60'
_cell_volume   1165.92258497
_cell_formula_units_Z   4
loop_
 _symmetry_equiv_pos_site_id
 _symmetry_equiv_pos_as_xyz
  1  'x, y, z'
loop_
 _atom_site_type_symbol
 _atom_site_label
 _atom_site_symmetry_multiplicity
 _atom_site_fract_x
 _atom_site_fract_y
 _atom_site_fract_z
 _atom_site_occupancy
  F  F0  1  0.954418  0.392723  0.424941  1
  F  F1  1  0.045581  0.107277  0.924941  1
  F  F2  1  0.045581  0.607277  0.575059  1
  F  F3  1  0.954418  0.892723  0.075059  1
  F  F4  1  0.210288  0.241496  0.430368  1
  F  F5  1  0.789712  0.258504  0.930368  1
  F  F6  1  0.789712  0.758504  0.569632  1
  F  F7  1  0.210288  0.741496  0.069632  1
  F  F8  1  0.364152  0.378263  0.355457  1
  F  F9  1  0.635848  0.121737  0.855457  1
  F  F10  1  0.635848  0.621737  0.644543  1
  F  F11  1  0.364152  0.878263  0.144543  1
  F  F12  1  0.331854  0.731226  0.440451  1
  F  F13  1  0.668146  0.768774  0.940451  1
  F  F14  1  0.668146  0.268774  0.559549  1
  F  F15  1  0.331854  0.231226  0.059549  1
  F  F16  1  0.302018  0.716326  0.253461  1
  F  F17  1  0.697982  0.783674  0.753461  1
  F  F18  1  0.697982  0.283674  0.746539  1
  F  F19  1  0.302018  0.216326  0.246539  1
  F  F20  1  0.189619  0.572586  0.355604  1
  F  F21  1  0.810381  0.927414  0.855604  1
  F  F22  1  0.810381  0.427414  0.644396  1
  F  F23  1  0.189619  0.072586  0.144396  1
  F  F24  1  0.644309  0.573253  0.435599  1
  F  F25  1  0.355691  0.926747  0.935599  1
  F  F26  1  0.355691  0.426747  0.564401  1
  F  F27  1  0.644309  0.073253  0.064401  1
  F  F28  1  0.749294  0.719202  0.330995  1
  F  F29  1  0.250706  0.780798  0.830995  1
  F  F30  1  0.250706  0.280798  0.669005  1
  F  F31  1  0.749294  0.219202  0.169005  1
  F  F32  1  0.601548  0.562722  0.253775  1
  F  F33  1  0.398452  0.937278  0.753775  1
  F  F34  1  0.398452  0.437278  0.746225  1
  F  F35  1  0.601548  0.062722  0.246225  1
  F  F36  1  0.894654  0.409702  0.057785  1
  F  F37  1  0.105346  0.090298  0.557785  1
  F  F38  1  0.105346  0.590298  0.942215  1
  F  F39  1  0.894654  0.909702  0.442215  1
  F  F40  1  0.465070  0.414848  0.162828  1
  F  F41  1  0.534930  0.085152  0.662828  1
  F  F42  1  0.534930  0.585152  0.837172  1
  F  F43  1  0.465070  0.914848  0.337172  1
  F  F44  1  0.577979  0.570685  0.070592  1
  F  F45  1  0.422021  0.929315  0.570592  1
  F  F46  1  0.422021  0.429315  0.929408  1
  F  F47  1  0.577979  0.070685  0.429408  1
  F  F48  1  0.023289  0.562359  0.157983  1
  F  F49  1  0.976711  0.937641  0.657983  1
  F  F50  1  0.976711  0.437641  0.842017  1
  F  F51  1  0.023289  0.062359  0.342017  1
  F  F52  1  0.903888  0.411275  0.244490  1
  F  F53  1  0.096112  0.088725  0.744490  1
  F  F54  1  0.096112  0.588725  0.755510  1
  F  F55  1  0.903888  0.911275  0.255510  1
  F  F56  1  0.802653  0.752999  0.142420  1
  F  F57  1  0.197347  0.747001  0.642420  1
  F  F58  1  0.197347  0.247001  0.857580  1
  F  F59  1  0.802653  0.252999  0.357580  1
  Br  Br60  1  0.084746  0.314653  0.348644  1
  Br  Br61  1  0.915254  0.185347  0.848644  1
  Br  Br62  1  0.915254  0.685347  0.651356  1
  Br  Br63  1  0.084746  0.814653  0.151356  1
  Sb  Sb64  1  0.748347  0.986148  0.353466  1
  Sb  Sb65  1  0.251653  0.513852  0.853466  1
  Sb  Sb66  1  0.251653  0.013852  0.646534  1
  Sb  Sb67  1  0.748347  0.486148  0.146534  1
  Sb  Sb68  1  0.465353  0.149379  0.146691  1
  Sb  Sb69  1  0.534647  0.350621  0.646691  1
  Sb  Sb70  1  0.534647  0.850621  0.853309  1
  Sb  Sb71  1  0.465353  0.649379  0.353309  1
