# generated using pymatgen
data_Sm2F
_symmetry_space_group_name_H-M   'P 1'
_cell_length_a   3.88768157
_cell_length_b   19.26371985
_cell_length_c   16.83972727
_cell_angle_alpha   23.18733366
_cell_angle_beta   54.74901032
_cell_angle_gamma   59.69956476
_symmetry_Int_Tables_number   1
_chemical_formula_structural   Sm2F
_chemical_formula_sum   'Sm10 F5'
_cell_volume   404.18045214
_cell_formula_units_Z   5
loop_
 _symmetry_equiv_pos_site_id
 _symmetry_equiv_pos_as_xyz
  1  'x, y, z'
loop_
 _atom_site_type_symbol
 _atom_site_label
 _atom_site_symmetry_multiplicity
 _atom_site_fract_x
 _atom_site_fract_y
 _atom_site_fract_z
 _atom_site_occupancy
  F  F0  1  0.744843  0.324002  0.378061  1
  F  F1  1  0.256066  0.775843  0.121731  1
  F  F2  1  0.743122  0.225338  0.877413  1
  F  F3  1  0.749016  0.426439  0.873954  1
  F  F4  1  0.257962  0.876573  0.620242  1
  Sm  Sm5  1  0.001665  0.998799  0.000535  1
  Sm  Sm6  1  0.997266  0.191960  0.009134  1
  Sm  Sm7  1  0.988136  0.399386  0.005360  1
  Sm  Sm8  1  0.998527  0.099612  0.500977  1
  Sm  Sm9  1  0.001285  0.599954  0.999532  1
  Sm  Sm10  1  0.990860  0.301338  0.502318  1
  Sm  Sm11  1  0.009414  0.799128  0.997107  1
  Sm  Sm12  1  0.999456  0.500133  0.500084  1
  Sm  Sm13  1  0.005284  0.705636  0.492251  1
  Sm  Sm14  1  0.007100  0.900859  0.496302  1
