# generated using pymatgen
data_Ga9Rh2
_symmetry_space_group_name_H-M   'P 1'
_cell_length_a   6.46152672
_cell_length_b   6.50160896
_cell_length_c   8.91719184
_cell_angle_alpha   93.07046866
_cell_angle_beta   90.00000000
_cell_angle_gamma   90.00000000
_symmetry_Int_Tables_number   1
_chemical_formula_structural   Ga9Rh2
_chemical_formula_sum   'Ga18 Rh4'
_cell_volume   374.07629104
_cell_formula_units_Z   2
loop_
 _symmetry_equiv_pos_site_id
 _symmetry_equiv_pos_as_xyz
  1  'x, y, z'
loop_
 _atom_site_type_symbol
 _atom_site_label
 _atom_site_symmetry_multiplicity
 _atom_site_fract_x
 _atom_site_fract_y
 _atom_site_fract_z
 _atom_site_occupancy
  Ga  Ga0  1  0.761304  0.032989  0.530853  1
  Ga  Ga1  1  0.238696  0.032989  0.030853  1
  Ga  Ga2  1  0.634523  0.801360  0.956413  1
  Ga  Ga3  1  0.365477  0.801360  0.456413  1
  Ga  Ga4  1  0.760731  0.399118  0.767661  1
  Ga  Ga5  1  0.239269  0.399118  0.267661  1
  Ga  Ga6  1  0.740073  0.599846  0.226027  1
  Ga  Ga7  1  0.259927  0.599846  0.726027  1
  Ga  Ga8  1  0.552652  0.401886  0.491813  1
  Ga  Ga9  1  0.447348  0.401886  0.991813  1
  Ga  Ga10  1  0.945524  0.613358  0.501975  1
  Ga  Ga11  1  0.054476  0.613358  0.001975  1
  Ga  Ga12  1  0.452278  0.090708  0.732801  1
  Ga  Ga13  1  0.547722  0.090708  0.232801  1
  Ga  Ga14  1  0.027851  0.893791  0.283487  1
  Ga  Ga15  1  0.972149  0.893791  0.783487  1
  Ga  Ga16  1  0.156724  0.218064  0.539168  1
  Ga  Ga17  1  0.843276  0.218064  0.039168  1
  Rh  Rh18  1  0.623262  0.739199  0.668713  1
  Rh  Rh19  1  0.376738  0.739199  0.168713  1
  Rh  Rh20  1  0.879195  0.259592  0.331599  1
  Rh  Rh21  1  0.120805  0.259592  0.831599  1
