# generated using pymatgen
data_Sm5AgSe8
_symmetry_space_group_name_H-M   'P 1'
_cell_length_a   7.66975931
_cell_length_b   7.66975959
_cell_length_c   7.66975923
_cell_angle_alpha   109.84617097
_cell_angle_beta   109.84616958
_cell_angle_gamma   108.72389735
_symmetry_Int_Tables_number   1
_chemical_formula_structural   Sm5AgSe8
_chemical_formula_sum   'Sm5 Ag1 Se8'
_cell_volume   347.27057776
_cell_formula_units_Z   1
loop_
 _symmetry_equiv_pos_site_id
 _symmetry_equiv_pos_as_xyz
  1  'x, y, z'
loop_
 _atom_site_type_symbol
 _atom_site_label
 _atom_site_symmetry_multiplicity
 _atom_site_fract_x
 _atom_site_fract_y
 _atom_site_fract_z
 _atom_site_occupancy
  Ag  Ag0  1  0.875000  0.125000  0.750000  1
  Se  Se1  1  0.992157  0.853958  0.501176  1
  Se  Se2  1  0.007679  0.364630  0.492178  1
  Se  Se3  1  0.146042  0.147218  0.138199  1
  Se  Se4  1  0.372451  0.515501  0.007822  1
  Se  Se5  1  0.484499  0.992321  0.856950  1
  Se  Se6  1  0.635370  0.627549  0.643050  1
  Se  Se7  1  0.509019  0.007843  0.361801  1
  Se  Se8  1  0.852782  0.490981  0.998824  1
  Sm  Sm9  1  0.113506  0.747121  0.871525  1
  Sm  Sm10  1  0.252879  0.624404  0.366385  1
  Sm  Sm11  1  0.375596  0.241981  0.628475  1
  Sm  Sm12  1  0.625000  0.375000  0.250000  1
  Sm  Sm13  1  0.758019  0.886494  0.133615  1
