# generated using pymatgen
data_YPS4
_symmetry_space_group_name_H-M   'P 1'
_cell_length_a   10.81537153
_cell_length_b   10.81537153
_cell_length_c   12.24994162
_cell_angle_alpha   116.19616784
_cell_angle_beta   116.19616782
_cell_angle_gamma   90.00000002
_symmetry_Int_Tables_number   1
_chemical_formula_structural   YPS4
_chemical_formula_sum   'Y8 P8 S32'
_cell_volume   1119.36366430
_cell_formula_units_Z   8
loop_
 _symmetry_equiv_pos_site_id
 _symmetry_equiv_pos_as_xyz
  1  'x, y, z'
loop_
 _atom_site_type_symbol
 _atom_site_label
 _atom_site_symmetry_multiplicity
 _atom_site_fract_x
 _atom_site_fract_y
 _atom_site_fract_z
 _atom_site_occupancy
  P  P0  1  0.287562  0.250000  0.500000  1
  P  P1  1  0.787562  0.250000  0.500000  1
  P  P2  1  0.750000  0.787562  0.000000  1
  P  P3  1  0.250000  0.712438  0.000000  1
  P  P4  1  0.712438  0.750000  0.500000  1
  P  P5  1  0.212438  0.750000  0.500000  1
  P  P6  1  0.250000  0.212438  0.000000  1
  P  P7  1  0.750000  0.287562  0.000000  1
  S  S8  1  0.084870  0.611432  0.994166  1
  S  S9  1  0.909296  0.882734  0.994166  1
  S  S10  1  0.611432  0.909296  0.494166  1
  S  S11  1  0.882734  0.084870  0.494166  1
  S  S12  1  0.415130  0.617266  0.005834  1
  S  S13  1  0.590704  0.888568  0.005834  1
  S  S14  1  0.888568  0.415130  0.505834  1
  S  S15  1  0.617266  0.590704  0.505834  1
  S  S16  1  0.343490  0.404797  0.179387  1
  S  S17  1  0.274590  0.343490  0.679387  1
  S  S18  1  0.404797  0.835897  0.679387  1
  S  S19  1  0.664103  0.095203  0.820613  1
  S  S20  1  0.156510  0.225410  0.820613  1
  S  S21  1  0.225410  0.664103  0.320613  1
  S  S22  1  0.095203  0.156510  0.320613  1
  S  S23  1  0.835897  0.274590  0.179387  1
  S  S24  1  0.656510  0.595203  0.820613  1
  S  S25  1  0.725410  0.656510  0.320613  1
  S  S26  1  0.595203  0.164103  0.320613  1
  S  S27  1  0.335897  0.904797  0.179387  1
  S  S28  1  0.843490  0.774590  0.179387  1
  S  S29  1  0.774590  0.335897  0.679387  1
  S  S30  1  0.904797  0.843490  0.679387  1
  S  S31  1  0.164103  0.725410  0.820613  1
  S  S32  1  0.090704  0.117266  0.005834  1
  S  S33  1  0.388568  0.090704  0.505834  1
  S  S34  1  0.117266  0.915130  0.505834  1
  S  S35  1  0.584870  0.382734  0.994166  1
  S  S36  1  0.409296  0.111432  0.994166  1
  S  S37  1  0.111432  0.584870  0.494166  1
  S  S38  1  0.382734  0.409296  0.494166  1
  S  S39  1  0.915130  0.388568  0.005834  1
  Y  Y40  1  0.875000  0.125000  0.750000  1
  Y  Y41  1  0.125000  0.875000  0.250000  1
  Y  Y42  1  0.625000  0.375000  0.250000  1
  Y  Y43  1  0.375000  0.625000  0.750000  1
  Y  Y44  1  0.625000  0.875000  0.250000  1
  Y  Y45  1  0.875000  0.625000  0.750000  1
  Y  Y46  1  0.375000  0.125000  0.750000  1
  Y  Y47  1  0.125000  0.375000  0.250000  1
