# generated using pymatgen
data_Rb4Cl2O
_symmetry_space_group_name_H-M   'P 1'
_cell_length_a   8.36642914
_cell_length_b   8.36642908
_cell_length_c   8.36642933
_cell_angle_alpha   112.22507115
_cell_angle_beta   104.09368975
_cell_angle_gamma   112.22507196
_symmetry_Int_Tables_number   1
_chemical_formula_structural   Rb4Cl2O
_chemical_formula_sum   'Rb8 Cl4 O2'
_cell_volume   447.87435142
_cell_formula_units_Z   2
loop_
 _symmetry_equiv_pos_site_id
 _symmetry_equiv_pos_as_xyz
  1  'x, y, z'
loop_
 _atom_site_type_symbol
 _atom_site_label
 _atom_site_symmetry_multiplicity
 _atom_site_fract_x
 _atom_site_fract_y
 _atom_site_fract_z
 _atom_site_occupancy
  Cl  Cl0  1  0.250000  0.607921  0.357921  1
  Cl  Cl1  1  0.642079  0.392079  0.250000  1
  Cl  Cl2  1  0.750000  0.892079  0.142079  1
  Cl  Cl3  1  0.857921  0.107921  0.750000  1
  O  O4  1  0.125000  0.750000  0.875000  1
  O  O5  1  0.375000  0.250000  0.625000  1
  Rb  Rb6  1  0.043393  0.904551  0.512344  1
  Rb  Rb7  1  0.012344  0.404551  0.543393  1
  Rb  Rb8  1  0.456607  0.968950  0.861158  1
  Rb  Rb9  1  0.138842  0.095449  0.107793  1
  Rb  Rb10  1  0.361158  0.468950  0.956607  1
  Rb  Rb11  1  0.607793  0.595449  0.638842  1
  Rb  Rb12  1  0.487656  0.031050  0.392207  1
  Rb  Rb13  1  0.892207  0.531050  0.987656  1
