# generated using pymatgen
data_K(IrO2)4
_symmetry_space_group_name_H-M   'P 1'
_cell_length_a   3.20869734
_cell_length_b   7.50733768
_cell_length_c   7.29659780
_cell_angle_alpha   90.41502096
_cell_angle_beta   77.29823448
_cell_angle_gamma   77.66049054
_symmetry_Int_Tables_number   1
_chemical_formula_structural   K(IrO2)4
_chemical_formula_sum   'K1 Ir4 O8'
_cell_volume   167.23216608
_cell_formula_units_Z   1
loop_
 _symmetry_equiv_pos_site_id
 _symmetry_equiv_pos_as_xyz
  1  'x, y, z'
loop_
 _atom_site_type_symbol
 _atom_site_label
 _atom_site_symmetry_multiplicity
 _atom_site_fract_x
 _atom_site_fract_y
 _atom_site_fract_z
 _atom_site_occupancy
  O  O0  1  0.849514  0.937670  0.363302  1
  O  O1  1  0.545304  0.599810  0.309581  1
  O  O2  1  0.454696  0.400190  0.690419  1
  O  O3  1  0.176504  0.279072  0.367920  1
  O  O4  1  0.799736  0.360262  0.040267  1
  O  O5  1  0.200264  0.639738  0.959733  1
  O  O6  1  0.150486  0.062330  0.636698  1
  O  O7  1  0.823496  0.720928  0.632080  1
  K  K8  1  0.000000  0.000000  0.000000  1
  Ir  Ir9  1  0.652008  0.186371  0.509612  1
  Ir  Ir10  1  0.347992  0.813629  0.490388  1
  Ir  Ir11  1  0.167739  0.477240  0.187281  1
  Ir  Ir12  1  0.832261  0.522760  0.812719  1
