# generated using pymatgen
data_Tm2Se3
_symmetry_space_group_name_H-M   'P 1'
_cell_length_a   22.37296838
_cell_length_b   8.60927275
_cell_length_c   8.60927347
_cell_angle_alpha   90.00000389
_cell_angle_beta   54.74542891
_cell_angle_gamma   54.74542555
_symmetry_Int_Tables_number   1
_chemical_formula_structural   Tm2Se3
_chemical_formula_sum   'Tm16 Se24'
_cell_volume   957.86934236
_cell_formula_units_Z   8
loop_
 _symmetry_equiv_pos_site_id
 _symmetry_equiv_pos_as_xyz
  1  'x, y, z'
loop_
 _atom_site_type_symbol
 _atom_site_label
 _atom_site_symmetry_multiplicity
 _atom_site_fract_x
 _atom_site_fract_y
 _atom_site_fract_z
 _atom_site_occupancy
  Se  Se0  1  0.047112  0.997895  0.366832  1
  Se  Se1  1  0.129044  0.488044  0.990304  1
  Se  Se2  1  0.047112  0.360767  0.491831  1
  Se  Se3  1  0.286221  0.139233  0.133168  1
  Se  Se4  1  0.286221  0.502105  0.008169  1
  Se  Se5  1  0.204289  0.011956  0.877437  1
  Se  Se6  1  0.129044  0.624822  0.622563  1
  Se  Se7  1  0.381527  -0.001121  0.348760  1
  Se  Se8  1  0.204289  0.875178  0.509696  1
  Se  Se9  1  0.451807  0.493339  1.001121  1
  Se  Se10  1  0.381527  0.356542  0.506661  1
  Se  Se11  1  0.629044  0.122563  0.124822  1
  Se  Se12  1  0.629044  0.490304  0.988044  1
  Se  Se13  1  0.547112  0.991831  0.860767  1
  Se  Se14  1  0.451807  0.651240  0.643458  1
  Se  Se15  1  0.704289  0.009696  0.375178  1
  Se  Se16  1  0.547112  0.866832  0.497895  1
  Se  Se17  1  0.786221  0.508169  0.002105  1
  Se  Se18  1  0.704289  0.377437  0.511956  1
  Se  Se19  1  0.951807  0.143458  0.151240  1
  Se  Se20  1  0.951807  0.501121  0.993339  1
  Se  Se21  1  0.786221  0.633168  0.639233  1
  Se  Se22  1  0.881527  0.006661  0.856542  1
  Se  Se23  1  0.881527  0.848760  0.498879  1
  Tm  Tm24  1  0.993941  0.393741  0.247977  1
  Tm  Tm25  1  0.993941  0.124436  0.770201  1
  Tm  Tm26  1  0.086064  0.620903  0.370903  1
  Tm  Tm27  1  0.166667  0.250000  0.635812  1
  Tm  Tm28  1  0.339392  0.375564  0.252023  1
  Tm  Tm29  1  0.247269  0.879097  0.129097  1
  Tm  Tm30  1  0.166667  0.750000  0.864188  1
  Tm  Tm31  1  0.339392  0.106259  0.729799  1
  Tm  Tm32  1  0.493941  0.270201  0.624436  1
  Tm  Tm33  1  0.666667  0.364188  0.250000  1
  Tm  Tm34  1  0.586064  0.870903  0.120903  1
  Tm  Tm35  1  0.666667  0.135812  0.750000  1
  Tm  Tm36  1  0.493941  0.747977  0.893741  1
  Tm  Tm37  1  0.747269  0.629097  0.379097  1
  Tm  Tm38  1  0.839392  0.229799  0.606259  1
  Tm  Tm39  1  0.839392  0.752023  0.875564  1
