# generated using pymatgen
data_U16N25
_symmetry_space_group_name_H-M   'P 1'
_cell_length_a   9.20512153
_cell_length_b   9.23648117
_cell_length_c   9.23648181
_cell_angle_alpha   109.53989173
_cell_angle_beta   109.40245913
_cell_angle_gamma   109.40246052
_symmetry_Int_Tables_number   1
_chemical_formula_structural   U16N25
_chemical_formula_sum   'U16 N25'
_cell_volume   605.04630712
_cell_formula_units_Z   1
loop_
 _symmetry_equiv_pos_site_id
 _symmetry_equiv_pos_as_xyz
  1  'x, y, z'
loop_
 _atom_site_type_symbol
 _atom_site_label
 _atom_site_symmetry_multiplicity
 _atom_site_fract_x
 _atom_site_fract_y
 _atom_site_fract_z
 _atom_site_occupancy
  N  N0  1  0.022800  0.498282  0.762532  1
  N  N1  1  0.240459  0.976922  0.506201  1
  N  N2  1  0.264824  0.764272  0.737145  1
  N  N3  1  0.238742  0.270354  0.743791  1
  N  N4  1  0.005891  0.028757  0.270428  1
  N  N5  1  0.237240  0.468734  0.469937  1
  N  N6  1  0.260268  0.737468  0.235750  1
  N  N7  1  0.024518  0.264250  0.001718  1
  N  N8  1  0.734258  0.993799  0.970720  1
  N  N9  1  0.527679  0.762855  0.527127  1
  N  N10  1  0.519863  0.532739  0.750565  1
  N  N11  1  0.487124  0.217825  0.967261  1
  N  N12  1  0.494951  0.756209  0.026563  1
  N  N13  1  0.468388  0.473437  0.229646  1
  N  N14  1  0.477134  0.241670  0.471243  1
  N  N15  1  0.268506  0.001203  0.031266  1
  N  N16  1  0.731015  0.246082  0.750733  1
  N  N17  1  0.980282  0.749267  0.995349  1
  N  N18  1  0.763538  0.529280  0.523078  1
  N  N19  1  1.000552  0.972873  0.735728  1
  N  N20  1  0.769298  0.749435  0.282175  1
  N  N21  1  0.732612  0.500000  1.000000  1
  N  N22  1  0.735464  0.229572  0.258330  1
  N  N23  1  0.767303  0.030063  0.498797  1
  N  N24  1  0.984933  0.504651  0.253918  1
  U  U25  1  0.021368  0.748702  0.770436  1
  U  U26  1  0.230898  0.980653  0.252841  1
  U  U27  1  0.979166  0.500000  0.000000  1
  U  U28  1  0.248243  0.226450  0.979470  1
  U  U29  1  0.268773  0.520530  0.746981  1
  U  U30  1  0.250932  0.729564  0.478266  1
  U  U31  1  0.493746  0.267328  0.744673  1
  U  U32  1  0.499615  0.498713  0.495151  1
  U  U33  1  0.521793  0.753019  0.273550  1
  U  U34  1  0.750245  0.272188  0.519347  1
  U  U35  1  0.726418  0.477345  0.232672  1
  U  U36  1  0.749073  0.755327  0.022655  1
  U  U37  1  0.500902  0.996438  0.001287  1
  U  U38  1  0.772666  0.021734  0.751298  1
  U  U39  1  0.978057  0.247159  0.227812  1
  U  U40  1  0.004464  0.004849  0.503562  1
