# generated using pymatgen
data_Rb2ZnI3
_symmetry_space_group_name_H-M   'P 1'
_cell_length_a   7.13413566
_cell_length_b   8.62358431
_cell_length_c   10.96760156
_cell_angle_alpha   90.00000000
_cell_angle_beta   113.79980695
_cell_angle_gamma   90.00000000
_symmetry_Int_Tables_number   1
_chemical_formula_structural   Rb2ZnI3
_chemical_formula_sum   'Rb4 Zn2 I6'
_cell_volume   617.36703742
_cell_formula_units_Z   2
loop_
 _symmetry_equiv_pos_site_id
 _symmetry_equiv_pos_as_xyz
  1  'x, y, z'
loop_
 _atom_site_type_symbol
 _atom_site_label
 _atom_site_symmetry_multiplicity
 _atom_site_fract_x
 _atom_site_fract_y
 _atom_site_fract_z
 _atom_site_occupancy
  Rb  Rb0  1  0.305486  0.750000  0.966484  1
  Rb  Rb1  1  0.234101  0.750000  0.409060  1
  Rb  Rb2  1  0.765899  0.250000  0.590940  1
  Rb  Rb3  1  0.694514  0.250000  0.033516  1
  Zn  Zn4  1  0.280831  0.250000  0.217367  1
  Zn  Zn5  1  0.719169  0.750000  0.782633  1
  I  I6  1  0.133198  0.250000  0.937600  1
  I  I7  1  0.445381  0.998771  0.710643  1
  I  I8  1  0.445381  0.501229  0.710643  1
  I  I9  1  0.554619  0.498771  0.289357  1
  I  I10  1  0.554619  0.001229  0.289357  1
  I  I11  1  0.866802  0.750000  0.062400  1
