# generated using pymatgen
data_Li31Zr2As13
_symmetry_space_group_name_H-M   'P 1'
_cell_length_a   4.32347362
_cell_length_b   4.32347357
_cell_length_c   56.89392500
_cell_angle_alpha   60.36725671
_cell_angle_beta   60.36725695
_cell_angle_gamma   60.05530493
_symmetry_Int_Tables_number   1
_chemical_formula_structural   Li31Zr2As13
_chemical_formula_sum   'Li31 Zr2 As13'
_cell_volume   756.46411710
_cell_formula_units_Z   1
loop_
 _symmetry_equiv_pos_site_id
 _symmetry_equiv_pos_as_xyz
  1  'x, y, z'
loop_
 _atom_site_type_symbol
 _atom_site_label
 _atom_site_symmetry_multiplicity
 _atom_site_fract_x
 _atom_site_fract_y
 _atom_site_fract_z
 _atom_site_occupancy
  As  As0  1  0.004219  0.004219  0.998983  1
  As  As1  1  0.990868  0.990868  0.079012  1
  As  As2  1  0.994276  0.994276  0.155153  1
  As  As3  1  0.009437  0.009437  0.228570  1
  As  As4  1  0.009394  0.009394  0.305552  1
  As  As5  1  0.013744  0.013744  0.381388  1
  As  As6  1  0.996302  0.996302  0.462302  1
  As  As7  1  -0.000214  -0.000214  0.538480  1
  As  As8  1  0.003515  0.003515  0.614611  1
  As  As9  1  0.986078  0.986078  0.695559  1
  As  As10  1  0.990169  0.990169  0.771558  1
  As  As11  1  0.994948  0.994948  0.924191  1
  As  As12  1  0.992400  0.992400  0.847886  1
  Li  Li13  1  0.264293  0.264293  0.169785  1
  Li  Li14  1  0.744346  0.744346  0.059016  1
  Li  Li15  1  0.739855  0.739855  0.136930  1
  Li  Li16  1  0.488111  0.488111  0.195048  1
  Li  Li17  1  0.251064  0.251064  0.249754  1
  Li  Li18  1  0.253327  0.253327  0.326155  1
  Li  Li19  1  0.746879  0.746879  0.212259  1
  Li  Li20  1  0.493092  0.493092  0.270861  1
  Li  Li21  1  0.488337  0.488337  0.348872  1
  Li  Li22  1  0.749804  0.749804  0.288522  1
  Li  Li23  1  0.240615  0.240615  0.406049  1
  Li  Li24  1  0.248803  0.248803  0.481037  1
  Li  Li25  1  0.735084  0.735084  0.368705  1
  Li  Li26  1  0.758385  0.758385  0.440407  1
  Li  Li27  1  0.246493  0.246493  0.558441  1
  Li  Li28  1  0.752870  0.752870  0.518625  1
  Li  Li29  1  0.242032  0.242032  0.636428  1
  Li  Li30  1  0.265374  0.265374  0.708113  1
  Li  Li31  1  0.750503  0.750503  0.596034  1
  Li  Li32  1  0.759847  0.759847  0.670784  1
  Li  Li33  1  0.512542  0.512542  0.727859  1
  Li  Li34  1  0.251143  0.251143  0.788219  1
  Li  Li35  1  0.252237  0.252237  0.864870  1
  Li  Li36  1  0.747046  0.747046  0.750714  1
  Li  Li37  1  0.508481  0.508481  0.805735  1
  Li  Li38  1  0.749405  0.749405  0.827067  1
  Li  Li39  1  0.511429  0.511429  0.881986  1
  Li  Li40  1  0.259411  0.259411  0.940119  1
  Li  Li41  1  0.755419  0.755419  0.902597  1
  Li  Li42  1  0.522828  0.522828  0.956273  1
  Li  Li43  1  0.747797  0.747797  0.981271  1
  Zr  Zr44  1  0.237802  0.237802  0.022056  1
  Zr  Zr45  1  0.240213  0.240213  0.098469  1
