# generated using pymatgen
data_LiMn2(PO3)5
_symmetry_space_group_name_H-M   'P 1'
_cell_length_a   12.46159525
_cell_length_b   9.03898157
_cell_length_c   5.34416447
_cell_angle_alpha   90.00000000
_cell_angle_beta   91.94630790
_cell_angle_gamma   90.00000000
_symmetry_Int_Tables_number   1
_chemical_formula_structural   LiMn2(PO3)5
_chemical_formula_sum   'Li2 Mn4 P10 O30'
_cell_volume   601.62010006
_cell_formula_units_Z   2
loop_
 _symmetry_equiv_pos_site_id
 _symmetry_equiv_pos_as_xyz
  1  'x, y, z'
loop_
 _atom_site_type_symbol
 _atom_site_label
 _atom_site_symmetry_multiplicity
 _atom_site_fract_x
 _atom_site_fract_y
 _atom_site_fract_z
 _atom_site_occupancy
  Li  Li0  1  0.970699  0.986640  0.055131  1
  Li  Li1  1  0.470699  0.013360  0.555131  1
  Mn  Mn2  1  0.427304  0.692311  0.381538  1
  Mn  Mn3  1  0.575422  0.311260  0.617396  1
  Mn  Mn4  1  0.927304  0.307690  0.881538  1
  Mn  Mn5  1  0.075422  0.688740  0.117396  1
  P  P6  1  0.579014  0.808766  0.915940  1
  P  P7  1  0.079014  0.191234  0.415940  1
  P  P8  1  0.419571  0.187309  0.083198  1
  P  P9  1  0.854096  0.518393  0.395430  1
  P  P10  1  0.646902  0.517040  0.102752  1
  P  P11  1  0.354096  0.481607  0.895430  1
  P  P12  1  0.919571  0.812691  0.583198  1
  P  P13  1  0.249486  0.976632  0.253731  1
  P  P14  1  0.749486  0.023368  0.753731  1
  P  P15  1  0.146902  0.482960  0.602752  1
  O  O16  1  0.059522  0.491578  0.793437  1
  O  O17  1  0.974465  0.835486  0.339804  1
  O  O18  1  0.831843  0.099696  0.921793  1
  O  O19  1  0.671782  0.111493  0.595024  1
  O  O20  1  0.516555  0.826662  0.672333  1
  O  O21  1  0.942427  0.510308  0.207398  1
  O  O22  1  0.671428  0.380973  0.953275  1
  O  O23  1  0.750786  0.583679  0.247013  1
  O  O24  1  0.522855  0.828978  0.156430  1
  O  O25  1  0.482810  0.171447  0.326171  1
  O  O26  1  0.442427  0.489692  0.707398  1
  O  O27  1  0.016555  0.173338  0.172333  1
  O  O28  1  0.329049  0.616603  0.047251  1
  O  O29  1  0.685516  0.909538  0.929845  1
  O  O30  1  0.022855  0.171022  0.656430  1
  O  O31  1  0.871641  0.648323  0.595180  1
  O  O32  1  0.171428  0.619027  0.453275  1
  O  O33  1  0.812413  0.911965  0.568923  1
  O  O34  1  0.474465  0.164514  0.839804  1
  O  O35  1  0.628816  0.645228  0.900007  1
  O  O36  1  0.250786  0.416321  0.747013  1
  O  O37  1  0.312413  0.088035  0.068923  1
  O  O38  1  0.829049  0.383397  0.547251  1
  O  O39  1  0.171782  0.888507  0.095024  1
  O  O40  1  0.331843  0.900304  0.421793  1
  O  O41  1  0.559523  0.508422  0.293437  1
  O  O42  1  0.982810  0.828553  0.826171  1
  O  O43  1  0.371641  0.351677  0.095180  1
  O  O44  1  0.185516  0.090462  0.429845  1
  O  O45  1  0.128816  0.354772  0.400007  1
