# generated using pymatgen
data_Sm(CuSi)2
_symmetry_space_group_name_H-M   'P 1'
_cell_length_a   4.02855982
_cell_length_b   4.02855982
_cell_length_c   5.75365201
_cell_angle_alpha   110.49264857
_cell_angle_beta   110.49264857
_cell_angle_gamma   90.00000003
_symmetry_Int_Tables_number   1
_chemical_formula_structural   Sm(CuSi)2
_chemical_formula_sum   'Sm1 Si2 Cu2'
_cell_volume   81.13002008
_cell_formula_units_Z   1
loop_
 _symmetry_equiv_pos_site_id
 _symmetry_equiv_pos_as_xyz
  1  'x, y, z'
loop_
 _atom_site_type_symbol
 _atom_site_label
 _atom_site_symmetry_multiplicity
 _atom_site_fract_x
 _atom_site_fract_y
 _atom_site_fract_z
 _atom_site_occupancy
  Si  Si0  1  0.619192  0.619192  0.238384  1
  Si  Si1  1  0.380808  0.380808  0.761616  1
  Cu  Cu2  1  0.250000  0.750000  0.500000  1
  Cu  Cu3  1  0.750000  0.250000  0.500000  1
  Sm  Sm4  1  0.000000  0.000000  0.000000  1
