# generated using pymatgen
data_CaScAlSiO6
_symmetry_space_group_name_H-M   'P 1'
_cell_length_a   5.51265327
_cell_length_b   13.53162423
_cell_length_c   10.02813988
_cell_angle_alpha   42.17572202
_cell_angle_beta   73.99704232
_cell_angle_gamma   78.21097024
_symmetry_Int_Tables_number   1
_chemical_formula_structural   CaScAlSiO6
_chemical_formula_sum   'Ca4 Sc4 Al4 Si4 O24'
_cell_volume   482.78283597
_cell_formula_units_Z   4
loop_
 _symmetry_equiv_pos_site_id
 _symmetry_equiv_pos_as_xyz
  1  'x, y, z'
loop_
 _atom_site_type_symbol
 _atom_site_label
 _atom_site_symmetry_multiplicity
 _atom_site_fract_x
 _atom_site_fract_y
 _atom_site_fract_z
 _atom_site_occupancy
  Al  Al0  1  0.266737  0.409929  0.378551  1
  Al  Al1  1  0.766737  0.090071  0.198408  1
  Al  Al2  1  0.233263  0.909929  0.801592  1
  Al  Al3  1  0.733263  0.590071  0.621449  1
  Ca  Ca4  1  0.251621  0.189328  0.307615  1
  Ca  Ca5  1  0.248379  0.689328  0.313728  1
  Ca  Ca6  1  0.751621  0.310672  0.686272  1
  Ca  Ca7  1  0.748379  0.810672  0.692385  1
  O  O8  1  0.015641  0.015821  0.334965  1
  O  O9  1  0.993049  0.525539  0.329430  1
  O  O10  1  0.161320  0.244244  0.626548  1
  O  O11  1  0.358777  0.408970  0.197208  1
  O  O12  1  0.138124  0.408270  0.970350  1
  O  O13  1  0.172833  0.747857  0.615503  1
  O  O14  1  0.506951  0.025539  0.619493  1
  O  O15  1  0.327167  0.247857  0.888783  1
  O  O16  1  0.361876  0.908270  0.213111  1
  O  O17  1  0.661320  0.255756  0.115036  1
  O  O18  1  0.515641  0.484179  0.366607  1
  O  O19  1  0.141223  0.908970  0.984852  1
  O  O20  1  0.858777  0.091030  0.015148  1
  O  O21  1  0.484359  0.515821  0.633393  1
  O  O22  1  0.338680  0.744244  0.884964  1
  O  O23  1  0.638124  0.091730  0.786889  1
  O  O24  1  0.672833  0.752143  0.111217  1
  O  O25  1  0.493049  0.974461  0.380507  1
  O  O26  1  0.827167  0.252143  0.384497  1
  O  O27  1  0.861876  0.591730  0.029650  1
  O  O28  1  0.641223  0.591030  0.802792  1
  O  O29  1  0.838680  0.755756  0.373452  1
  O  O30  1  0.006951  0.474461  0.670570  1
  O  O31  1  0.984359  0.984179  0.665035  1
  Sc  Sc32  1  0.241804  0.097509  0.900199  1
  Sc  Sc33  1  0.258196  0.597509  0.904783  1
  Sc  Sc34  1  0.741804  0.402491  0.095217  1
  Sc  Sc35  1  0.758196  0.902491  0.099801  1
  Si  Si36  1  0.233493  0.407333  0.799752  1
  Si  Si37  1  0.266507  0.907333  0.385582  1
  Si  Si38  1  0.733493  0.092667  0.614418  1
  Si  Si39  1  0.766507  0.592667  0.200248  1
