# generated using pymatgen
data_Li3ErBr6
_symmetry_space_group_name_H-M   'P 1'
_cell_length_a   13.88066365
_cell_length_b   6.88794071
_cell_length_c   6.88794085
_cell_angle_alpha   119.58740650
_cell_angle_beta   99.77921981
_cell_angle_gamma   99.77922002
_symmetry_Int_Tables_number   1
_chemical_formula_structural   Li3ErBr6
_chemical_formula_sum   'Li6 Er2 Br12'
_cell_volume   539.05544081
_cell_formula_units_Z   2
loop_
 _symmetry_equiv_pos_site_id
 _symmetry_equiv_pos_as_xyz
  1  'x, y, z'
loop_
 _atom_site_type_symbol
 _atom_site_label
 _atom_site_symmetry_multiplicity
 _atom_site_fract_x
 _atom_site_fract_y
 _atom_site_fract_z
 _atom_site_occupancy
  Br  Br0  1  0.119698  0.753555  0.743976  1
  Br  Br1  1  0.121420  0.405888  0.068760  1
  Br  Br2  1  0.119047  0.079085  0.417313  1
  Br  Br3  1  0.380953  0.582687  0.920915  1
  Br  Br4  1  0.378580  0.931240  0.594112  1
  Br  Br5  1  0.380302  0.256024  0.246445  1
  Br  Br6  1  0.619698  0.743976  0.753555  1
  Br  Br7  1  0.619047  0.417313  0.079085  1
  Br  Br8  1  0.621420  0.068760  0.405888  1
  Br  Br9  1  0.880953  0.920915  0.582687  1
  Br  Br10  1  0.878580  0.594112  0.931240  1
  Br  Br11  1  0.880302  0.246445  0.256024  1
  Er  Er12  1  0.000000  0.000000  0.000000  1
  Er  Er13  1  0.500000  0.000000  0.000000  1
  Li  Li14  1  0.000310  0.325787  0.662725  1
  Li  Li15  1  0.250000  0.157114  0.842886  1
  Li  Li16  1  0.499690  0.337275  0.674213  1
  Li  Li17  1  0.500310  0.662725  0.325787  1
  Li  Li18  1  0.750000  0.842886  0.157114  1
  Li  Li19  1  0.999690  0.674213  0.337275  1
