# generated using pymatgen
data_Li2Co(PO3)4
_symmetry_space_group_name_H-M   'P 1'
_cell_length_a   8.57245474
_cell_length_b   8.57245473
_cell_length_c   7.64465557
_cell_angle_alpha   83.20224503
_cell_angle_beta   96.79775500
_cell_angle_gamma   65.54721006
_symmetry_Int_Tables_number   1
_chemical_formula_structural   Li2Co(PO3)4
_chemical_formula_sum   'Li4 Co2 P8 O24'
_cell_volume   499.01715246
_cell_formula_units_Z   2
loop_
 _symmetry_equiv_pos_site_id
 _symmetry_equiv_pos_as_xyz
  1  'x, y, z'
loop_
 _atom_site_type_symbol
 _atom_site_label
 _atom_site_symmetry_multiplicity
 _atom_site_fract_x
 _atom_site_fract_y
 _atom_site_fract_z
 _atom_site_occupancy
  Li  Li0  1  0.489235  0.816042  0.754601  1
  Li  Li1  1  0.510765  0.183958  0.245399  1
  Li  Li2  1  0.816043  0.489235  0.745398  1
  Li  Li3  1  0.183958  0.510765  0.254601  1
  O  O4  1  0.619981  0.920211  0.310784  1
  O  O5  1  0.827277  0.107355  0.330696  1
  O  O6  1  0.172723  0.892645  0.669304  1
  O  O7  1  0.107355  0.827277  0.169304  1
  O  O8  1  0.019589  0.727963  0.508918  1
  O  O9  1  0.272037  0.980410  0.008918  1
  O  O10  1  0.164318  0.631373  0.840133  1
  O  O11  1  0.368627  0.835682  0.340133  1
  O  O12  1  0.079789  0.380019  0.810784  1
  O  O13  1  0.109748  0.109748  0.250001  1
  O  O14  1  0.633336  0.687709  0.570005  1
  O  O15  1  0.369966  0.369967  0.750000  1
  O  O16  1  0.890252  0.890252  0.750000  1
  O  O17  1  0.980411  0.272037  0.491082  1
  O  O18  1  0.687710  0.633336  0.929995  1
  O  O19  1  0.892645  0.172723  0.830696  1
  O  O20  1  0.630034  0.630034  0.250001  1
  O  O21  1  0.366664  0.312290  0.429995  1
  O  O22  1  0.380019  0.079789  0.689217  1
  O  O23  1  0.920210  0.619981  0.189216  1
  O  O24  1  0.631373  0.164318  0.659866  1
  O  O25  1  0.835682  0.368627  0.159866  1
  O  O26  1  0.727963  0.019589  0.991082  1
  O  O27  1  0.312291  0.366663  0.070005  1
  P  P28  1  0.773835  0.573730  0.123383  1
  P  P29  1  0.791605  0.064615  0.826782  1
  P  P30  1  0.064614  0.791605  0.673219  1
  P  P31  1  0.208395  0.935385  0.173219  1
  P  P32  1  0.226164  0.426271  0.876617  1
  P  P33  1  0.573730  0.773835  0.376617  1
  P  P34  1  0.426270  0.226165  0.623383  1
  P  P35  1  0.935385  0.208395  0.326781  1
  Co  Co36  1  0.871865  0.871866  0.250001  1
  Co  Co37  1  0.128134  0.128134  0.750000  1
