# generated using pymatgen
data_KGaCl4
_symmetry_space_group_name_H-M   'P 1'
_cell_length_a   7.39083604
_cell_length_b   9.60175546
_cell_length_c   10.67196156
_cell_angle_alpha   90.00000000
_cell_angle_beta   90.00000000
_cell_angle_gamma   93.35406231
_symmetry_Int_Tables_number   1
_chemical_formula_structural   KGaCl4
_chemical_formula_sum   'K4 Ga4 Cl16'
_cell_volume   756.03848201
_cell_formula_units_Z   4
loop_
 _symmetry_equiv_pos_site_id
 _symmetry_equiv_pos_as_xyz
  1  'x, y, z'
loop_
 _atom_site_type_symbol
 _atom_site_label
 _atom_site_symmetry_multiplicity
 _atom_site_fract_x
 _atom_site_fract_y
 _atom_site_fract_z
 _atom_site_occupancy
  Cl  Cl0  1  0.307018  0.934410  0.121050  1
  Cl  Cl1  1  0.192982  0.565590  0.621050  1
  Cl  Cl2  1  0.692982  0.065590  0.878950  1
  Cl  Cl3  1  0.807018  0.434410  0.378950  1
  Cl  Cl4  1  0.481514  0.193568  0.534582  1
  Cl  Cl5  1  0.018486  0.306432  0.034582  1
  Cl  Cl6  1  0.518486  0.806432  0.465418  1
  Cl  Cl7  1  0.981514  0.693568  0.965418  1
  Cl  Cl8  1  0.535668  0.326407  0.079408  1
  Cl  Cl9  1  0.964332  0.173593  0.579408  1
  Cl  Cl10  1  0.464332  0.673593  0.920592  1
  Cl  Cl11  1  0.035668  0.826407  0.420592  1
  Cl  Cl12  1  0.283791  0.548666  0.283870  1
  Cl  Cl13  1  0.216209  0.951334  0.783870  1
  Cl  Cl14  1  0.716209  0.451334  0.716130  1
  Cl  Cl15  1  0.783791  0.048666  0.216130  1
  K  K16  1  0.813412  0.798780  0.696730  1
  K  K17  1  0.686588  0.701220  0.196730  1
  K  K18  1  0.186588  0.201220  0.303270  1
  K  K19  1  0.313412  0.298780  0.803270  1
  Ga  Ga20  1  0.256306  0.683876  0.449055  1
  Ga  Ga21  1  0.243694  0.816124  0.949055  1
  Ga  Ga22  1  0.743694  0.316124  0.550945  1
  Ga  Ga23  1  0.756306  0.183876  0.050945  1
