# generated using pymatgen
data_SrLa4TiAl4O15
_symmetry_space_group_name_H-M   'P 1'
_cell_length_a   3.84749883
_cell_length_b   38.34429782
_cell_length_c   5.41785790
_cell_angle_alpha   45.05191596
_cell_angle_beta   90.00000000
_cell_angle_gamma   90.00000000
_symmetry_Int_Tables_number   1
_chemical_formula_structural   SrLa4TiAl4O15
_chemical_formula_sum   'Sr2 La8 Ti2 Al8 O30'
_cell_volume   565.69853977
_cell_formula_units_Z   2
loop_
 _symmetry_equiv_pos_site_id
 _symmetry_equiv_pos_as_xyz
  1  'x, y, z'
loop_
 _atom_site_type_symbol
 _atom_site_label
 _atom_site_symmetry_multiplicity
 _atom_site_fract_x
 _atom_site_fract_y
 _atom_site_fract_z
 _atom_site_occupancy
  Al  Al0  1  0.500000  0.203318  0.483385  1
  Al  Al1  1  0.500000  0.302193  0.488949  1
  Al  Al2  1  0.500000  0.400955  0.495215  1
  Al  Al3  1  0.500000  0.500325  0.498383  1
  Al  Al4  1  0.500000  0.599675  0.501617  1
  Al  Al5  1  0.500000  0.699045  0.504785  1
  Al  Al6  1  0.500000  0.797807  0.511051  1
  Al  Al7  1  0.500000  0.896682  0.516615  1
  La  La8  1  0.000000  0.204181  0.979071  1
  La  La9  1  0.000000  0.301478  0.992563  1
  La  La10  1  0.000000  0.401000  0.994998  1
  La  La11  1  0.000000  0.500150  0.999258  1
  La  La12  1  0.000000  0.599850  0.000742  1
  La  La13  1  0.000000  0.699000  0.005002  1
  La  La14  1  0.000000  0.798522  0.007437  1
  La  La15  1  0.000000  0.895819  0.020929  1
  O  O16  1  0.000000  0.996179  0.519142  1
  O  O17  1  0.000000  0.103821  0.480858  1
  O  O18  1  0.000000  0.205033  0.474815  1
  O  O19  1  0.000000  0.301745  0.491262  1
  O  O20  1  0.000000  0.401053  0.494726  1
  O  O21  1  0.000000  0.500170  0.499151  1
  O  O22  1  0.000000  0.599830  0.500849  1
  O  O23  1  0.500000  0.050000  0.500000  1
  O  O24  1  0.500000  0.154178  0.478525  1
  O  O25  1  0.500000  0.252558  0.488618  1
  O  O26  1  0.500000  0.351500  0.492198  1
  O  O27  1  0.500000  0.450646  0.496734  1
  O  O28  1  0.500000  0.550000  0.500000  1
  O  O29  1  0.500000  0.649354  0.503266  1
  O  O30  1  0.500000  0.748500  0.507802  1
  O  O31  1  0.500000  0.154187  0.979675  1
  O  O32  1  0.500000  0.847442  0.511382  1
  O  O33  1  0.500000  0.050000  0.000000  1
  O  O34  1  0.500000  0.945822  0.521475  1
  O  O35  1  0.500000  0.351501  0.992725  1
  O  O36  1  0.500000  0.252545  0.985701  1
  O  O37  1  0.500000  0.450655  0.996843  1
  O  O38  1  0.500000  0.649345  0.003157  1
  O  O39  1  0.500000  0.550000  0.000000  1
  O  O40  1  0.500000  0.847455  0.014299  1
  O  O41  1  0.500000  0.748499  0.007275  1
  O  O42  1  0.500000  0.945813  0.020325  1
  O  O43  1  0.000000  0.698947  0.505274  1
  O  O44  1  0.000000  0.798255  0.508738  1
  O  O45  1  0.000000  0.894967  0.525185  1
  Sr  Sr46  1  0.000000  0.997031  0.014845  1
  Sr  Sr47  1  0.000000  0.102969  0.985155  1
  Ti  Ti48  1  0.500000  0.997844  0.510726  1
  Ti  Ti49  1  0.500000  0.102156  0.489274  1
