# generated using pymatgen
data_Ag2S
_symmetry_space_group_name_H-M   'P 1'
_cell_length_a   4.49469607
_cell_length_b   4.45681487
_cell_length_c   8.80564926
_cell_angle_alpha   118.90427085
_cell_angle_beta   119.19881340
_cell_angle_gamma   92.55830228
_symmetry_Int_Tables_number   1
_chemical_formula_structural   Ag2S
_chemical_formula_sum   'Ag4 S2'
_cell_volume   125.39480092
_cell_formula_units_Z   2
loop_
 _symmetry_equiv_pos_site_id
 _symmetry_equiv_pos_as_xyz
  1  'x, y, z'
loop_
 _atom_site_type_symbol
 _atom_site_label
 _atom_site_symmetry_multiplicity
 _atom_site_fract_x
 _atom_site_fract_y
 _atom_site_fract_z
 _atom_site_occupancy
  Ag  Ag0  1  0.576525  0.271862  0.849423  1
  Ag  Ag1  1  0.226440  0.641799  0.316033  1
  Ag  Ag2  1  0.877680  0.573017  0.650577  1
  Ag  Ag3  1  0.594374  0.009733  0.183967  1
  S  S4  1  0.926977  0.941281  0.501986  1
  S  S5  1  0.923005  0.937309  0.998014  1
