# generated using pymatgen
data_RbMnSb
_symmetry_space_group_name_H-M   'P 1'
_cell_length_a   4.76288706
_cell_length_b   4.76288706
_cell_length_c   8.68731822
_cell_angle_alpha   90.00000000
_cell_angle_beta   90.00000000
_cell_angle_gamma   90.00000000
_symmetry_Int_Tables_number   1
_chemical_formula_structural   RbMnSb
_chemical_formula_sum   'Rb2 Mn2 Sb2'
_cell_volume   197.07262301
_cell_formula_units_Z   2
loop_
 _symmetry_equiv_pos_site_id
 _symmetry_equiv_pos_as_xyz
  1  'x, y, z'
loop_
 _atom_site_type_symbol
 _atom_site_label
 _atom_site_symmetry_multiplicity
 _atom_site_fract_x
 _atom_site_fract_y
 _atom_site_fract_z
 _atom_site_occupancy
  Mn  Mn0  1  0.250000  0.750000  0.000000  1
  Mn  Mn1  1  0.750000  0.250000  0.000000  1
  Rb  Rb2  1  0.250000  0.250000  0.656498  1
  Rb  Rb3  1  0.750000  0.750000  0.343502  1
  Sb  Sb4  1  0.250000  0.250000  0.173666  1
  Sb  Sb5  1  0.750000  0.750000  0.826334  1
