# generated using pymatgen
data_Nd(Sb3Os)4
_symmetry_space_group_name_H-M   'P 1'
_cell_length_a   8.15781992
_cell_length_b   8.15781992
_cell_length_c   8.15781992
_cell_angle_alpha   109.47122066
_cell_angle_beta   109.47122066
_cell_angle_gamma   109.47122062
_symmetry_Int_Tables_number   1
_chemical_formula_structural   Nd(Sb3Os)4
_chemical_formula_sum   'Nd1 Sb12 Os4'
_cell_volume   417.92702150
_cell_formula_units_Z   1
loop_
 _symmetry_equiv_pos_site_id
 _symmetry_equiv_pos_as_xyz
  1  'x, y, z'
loop_
 _atom_site_type_symbol
 _atom_site_label
 _atom_site_symmetry_multiplicity
 _atom_site_fract_x
 _atom_site_fract_y
 _atom_site_fract_z
 _atom_site_occupancy
  Sb  Sb0  1  0.503608  0.660540  0.843067  1
  Sb  Sb1  1  0.817473  0.660540  0.156933  1
  Sb  Sb2  1  0.182527  0.339460  0.843067  1
  Sb  Sb3  1  0.339460  0.156933  0.496392  1
  Sb  Sb4  1  0.156933  0.496392  0.339460  1
  Sb  Sb5  1  0.496392  0.339460  0.156933  1
  Sb  Sb6  1  0.339460  0.843067  0.182527  1
  Sb  Sb7  1  0.156933  0.817473  0.660540  1
  Sb  Sb8  1  0.660540  0.843067  0.503608  1
  Sb  Sb9  1  0.843067  0.182527  0.339460  1
  Sb  Sb10  1  0.660540  0.156933  0.817473  1
  Sb  Sb11  1  0.843067  0.503608  0.660540  1
  Nd  Nd12  1  0.000000  0.000000  0.000000  1
  Os  Os13  1  0.000000  0.000000  0.500000  1
  Os  Os14  1  0.000000  0.500000  0.000000  1
  Os  Os15  1  0.500000  0.500000  0.500000  1
  Os  Os16  1  0.500000  0.000000  0.000000  1
