# generated using pymatgen
data_ErAgSe2
_symmetry_space_group_name_H-M   'P 1'
_cell_length_a   8.05159896
_cell_length_b   10.84391335
_cell_length_c   7.26470535
_cell_angle_alpha   28.87823280
_cell_angle_beta   56.34704842
_cell_angle_gamma   42.05815655
_symmetry_Int_Tables_number   1
_chemical_formula_structural   ErAgSe2
_chemical_formula_sum   'Er2 Ag2 Se4'
_cell_volume   195.96708351
_cell_formula_units_Z   2
loop_
 _symmetry_equiv_pos_site_id
 _symmetry_equiv_pos_as_xyz
  1  'x, y, z'
loop_
 _atom_site_type_symbol
 _atom_site_label
 _atom_site_symmetry_multiplicity
 _atom_site_fract_x
 _atom_site_fract_y
 _atom_site_fract_z
 _atom_site_occupancy
  Ag  Ag0  1  0.750008  0.000026  0.499958  1
  Ag  Ag1  1  0.499992  0.499974  0.500042  1
  Er  Er2  1  0.249945  1.000089  0.499917  1
  Er  Er3  1  0.000055  0.499911  0.500083  1
  Se  Se4  1  0.013671  1.000041  0.972551  1
  Se  Se5  1  0.486338  -0.000047  0.027460  1
  Se  Se6  1  0.236329  0.499959  0.027449  1
  Se  Se7  1  0.763662  0.500047  0.972540  1
