# generated using pymatgen
data_Li2PS3
_symmetry_space_group_name_H-M   'P 1'
_cell_length_a   6.16365275
_cell_length_b   12.31863328
_cell_length_c   6.43985521
_cell_angle_alpha   90.00000000
_cell_angle_beta   90.00000000
_cell_angle_gamma   120.02329061
_symmetry_Int_Tables_number   1
_chemical_formula_structural   Li2PS3
_chemical_formula_sum   'Li8 P4 S12'
_cell_volume   423.35573914
_cell_formula_units_Z   4
loop_
 _symmetry_equiv_pos_site_id
 _symmetry_equiv_pos_as_xyz
  1  'x, y, z'
loop_
 _atom_site_type_symbol
 _atom_site_label
 _atom_site_symmetry_multiplicity
 _atom_site_fract_x
 _atom_site_fract_y
 _atom_site_fract_z
 _atom_site_occupancy
  Li  Li0  1  0.339457  0.833256  0.999737  1
  Li  Li1  1  0.327055  0.833256  0.499737  1
  Li  Li2  1  0.672945  0.666744  0.500262  1
  Li  Li3  1  0.327055  0.333256  0.000263  1
  Li  Li4  1  0.660543  0.666744  0.000263  1
  Li  Li5  1  0.339457  0.333256  0.500262  1
  Li  Li6  1  0.660543  0.166744  0.499737  1
  Li  Li7  1  0.672945  0.166744  0.999737  1
  P  P8  1  0.000060  0.500000  0.796140  1
  P  P9  1  0.999940  0.000000  0.203860  1
  P  P10  1  0.000060  0.000000  0.703860  1
  P  P11  1  0.999940  0.500000  0.296140  1
  S  S12  1  0.000084  0.664092  0.250213  1
  S  S13  1  0.328100  0.664092  0.750213  1
  S  S14  1  0.999916  0.335908  0.750213  1
  S  S15  1  0.328260  0.500000  0.254974  1
  S  S16  1  0.671900  0.835908  0.249787  1
  S  S17  1  0.000084  0.164092  0.249787  1
  S  S18  1  0.328100  0.164092  0.749787  1
  S  S19  1  0.999916  0.835908  0.749787  1
  S  S20  1  0.671740  0.500000  0.754974  1
  S  S21  1  0.328260  0.000000  0.245026  1
  S  S22  1  0.671900  0.335908  0.250213  1
  S  S23  1  0.671740  0.000000  0.745026  1
