# generated using pymatgen
data_Th5Sn4
_symmetry_space_group_name_H-M   'P 1'
_cell_length_a   9.70102593
_cell_length_b   9.70102593
_cell_length_c   6.57983849
_cell_angle_alpha   90.00000000
_cell_angle_beta   90.00000000
_cell_angle_gamma   119.99999997
_symmetry_Int_Tables_number   1
_chemical_formula_structural   Th5Sn4
_chemical_formula_sum   'Th10 Sn8'
_cell_volume   536.26715222
_cell_formula_units_Z   2
loop_
 _symmetry_equiv_pos_site_id
 _symmetry_equiv_pos_as_xyz
  1  'x, y, z'
loop_
 _atom_site_type_symbol
 _atom_site_label
 _atom_site_symmetry_multiplicity
 _atom_site_fract_x
 _atom_site_fract_y
 _atom_site_fract_z
 _atom_site_occupancy
  Sn  Sn0  1  0.000000  0.000000  0.000000  1
  Sn  Sn1  1  0.000000  0.000000  0.500000  1
  Sn  Sn2  1  0.618976  0.000000  0.250000  1
  Sn  Sn3  1  0.618976  0.618976  0.750000  1
  Sn  Sn4  1  0.000000  0.381024  0.750000  1
  Sn  Sn5  1  0.000000  0.618976  0.250000  1
  Sn  Sn6  1  0.381024  0.381024  0.250000  1
  Sn  Sn7  1  0.381024  0.000000  0.750000  1
  Th  Th8  1  0.333333  0.666667  0.000000  1
  Th  Th9  1  0.666667  0.333333  0.500000  1
  Th  Th10  1  0.666667  0.333333  0.000000  1
  Th  Th11  1  0.333333  0.666667  0.500000  1
  Th  Th12  1  0.279618  0.000000  0.250000  1
  Th  Th13  1  0.279618  0.279618  0.750000  1
  Th  Th14  1  0.000000  0.720382  0.750000  1
  Th  Th15  1  0.000000  0.279618  0.250000  1
  Th  Th16  1  0.720382  0.720382  0.250000  1
  Th  Th17  1  0.720382  0.000000  0.750000  1
