# generated using pymatgen
data_Ba5Nb4O15
_symmetry_space_group_name_H-M   'P 1'
_cell_length_a   5.90010371
_cell_length_b   5.90010371
_cell_length_c   12.02799630
_cell_angle_alpha   90.00000000
_cell_angle_beta   90.00000000
_cell_angle_gamma   120.00000003
_symmetry_Int_Tables_number   1
_chemical_formula_structural   Ba5Nb4O15
_chemical_formula_sum   'Ba5 Nb4 O15'
_cell_volume   362.61286558
_cell_formula_units_Z   1
loop_
 _symmetry_equiv_pos_site_id
 _symmetry_equiv_pos_as_xyz
  1  'x, y, z'
loop_
 _atom_site_type_symbol
 _atom_site_label
 _atom_site_symmetry_multiplicity
 _atom_site_fract_x
 _atom_site_fract_y
 _atom_site_fract_z
 _atom_site_occupancy
  O  O0  1  0.835838  0.164161  0.387369  1
  O  O1  1  0.835838  0.671675  0.387369  1
  O  O2  1  0.328324  0.164161  0.387369  1
  O  O3  1  0.671676  0.835838  0.612630  1
  O  O4  1  0.164162  0.328325  0.612630  1
  O  O5  1  0.164162  0.835838  0.612630  1
  O  O6  1  0.831171  0.168830  0.808235  1
  O  O7  1  0.831171  0.662342  0.808235  1
  O  O8  1  0.337659  0.168830  0.808235  1
  O  O9  1  0.500000  0.000000  0.000000  1
  O  O10  1  1.000000  0.500000  0.000000  1
  O  O11  1  0.500000  0.500000  0.000000  1
  O  O12  1  0.662342  0.831172  0.191765  1
  O  O13  1  0.168829  0.337658  0.191765  1
  O  O14  1  0.168830  0.831172  0.191765  1
  Nb  Nb15  1  0.666667  0.333334  0.895662  1
  Nb  Nb16  1  0.333333  0.666666  0.104339  1
  Nb  Nb17  1  0.000000  0.000000  0.315812  1
  Nb  Nb18  1  0.000000  0.000000  0.684188  1
  Ba  Ba19  1  0.666667  0.333334  0.569791  1
  Ba  Ba20  1  0.333333  0.666666  0.430208  1
  Ba  Ba21  1  0.666667  0.333334  0.210219  1
  Ba  Ba22  1  0.333333  0.666666  0.789781  1
  Ba  Ba23  1  0.000000  0.000000  0.000000  1
