# generated using pymatgen
data_Mg2PtO4
_symmetry_space_group_name_H-M   'P 1'
_cell_length_a   6.10474483
_cell_length_b   6.10474491
_cell_length_c   5.99711115
_cell_angle_alpha   60.58154336
_cell_angle_beta   60.58154536
_cell_angle_gamma   61.13547789
_symmetry_Int_Tables_number   1
_chemical_formula_structural   Mg2PtO4
_chemical_formula_sum   'Mg4 Pt2 O8'
_cell_volume   160.76015282
_cell_formula_units_Z   2
loop_
 _symmetry_equiv_pos_site_id
 _symmetry_equiv_pos_as_xyz
  1  'x, y, z'
loop_
 _atom_site_type_symbol
 _atom_site_label
 _atom_site_symmetry_multiplicity
 _atom_site_fract_x
 _atom_site_fract_y
 _atom_site_fract_z
 _atom_site_occupancy
  Mg  Mg0  1  0.018859  0.018859  0.981141  1
  Mg  Mg1  1  0.231141  0.231141  0.268859  1
  Mg  Mg2  1  0.625000  0.625000  0.125000  1
  Mg  Mg3  1  0.625000  0.625000  0.625000  1
  O  O4  1  0.377598  0.377598  0.396146  1
  O  O5  1  0.383217  0.842481  0.387151  1
  O  O6  1  0.377598  0.377598  0.848658  1
  O  O7  1  0.842481  0.383217  0.387151  1
  O  O8  1  0.407519  0.866783  0.862849  1
  O  O9  1  0.872402  0.872402  0.401342  1
  O  O10  1  0.866783  0.407519  0.862849  1
  O  O11  1  0.872402  0.872402  0.853854  1
  Pt  Pt12  1  0.125000  0.625000  0.625000  1
  Pt  Pt13  1  0.625000  0.125000  0.625000  1
