# generated using pymatgen
data_Nd2Se3
_symmetry_space_group_name_H-M   'P 1'
_cell_length_a   23.23938988
_cell_length_b   8.95015305
_cell_length_c   8.95015253
_cell_angle_alpha   89.99999819
_cell_angle_beta   54.71156611
_cell_angle_gamma   54.71156847
_symmetry_Int_Tables_number   1
_chemical_formula_structural   Nd2Se3
_chemical_formula_sum   'Nd16 Se24'
_cell_volume   1073.51682747
_cell_formula_units_Z   8
loop_
 _symmetry_equiv_pos_site_id
 _symmetry_equiv_pos_as_xyz
  1  'x, y, z'
loop_
 _atom_site_type_symbol
 _atom_site_label
 _atom_site_symmetry_multiplicity
 _atom_site_fract_x
 _atom_site_fract_y
 _atom_site_fract_z
 _atom_site_occupancy
  Nd  Nd0  1  0.996639  0.121093  0.762343  1
  Nd  Nd1  1  0.082930  0.625604  0.375604  1
  Nd  Nd2  1  0.166667  0.250000  0.630299  1
  Nd  Nd3  1  0.336694  0.378907  0.252259  1
  Nd  Nd4  1  0.250403  0.874396  0.124396  1
  Nd  Nd5  1  0.166667  0.750000  0.869701  1
  Nd  Nd6  1  0.336694  0.111009  0.737657  1
  Nd  Nd7  1  0.496639  0.262343  0.621093  1
  Nd  Nd8  1  0.666667  0.369701  0.250000  1
  Nd  Nd9  1  0.582930  0.875604  0.125604  1
  Nd  Nd10  1  0.496639  0.747741  0.888991  1
  Nd  Nd11  1  0.666667  0.130299  0.750000  1
  Nd  Nd12  1  0.750403  0.624396  0.374396  1
  Nd  Nd13  1  0.836694  0.237657  0.611009  1
  Nd  Nd14  1  0.996639  0.388991  0.247741  1
  Nd  Nd15  1  0.836694  0.752259  0.878907  1
  Se  Se16  1  0.050671  -0.000523  0.351394  1
  Se  Se17  1  0.123566  0.491117  0.994284  1
  Se  Se18  1  0.050671  0.348510  0.496593  1
  Se  Se19  1  0.282662  0.151490  0.148606  1
  Se  Se20  1  0.282662  0.500523  0.003407  1
  Se  Se21  1  0.123566  0.638183  0.635016  1
  Se  Se22  1  0.209767  0.008883  0.864984  1
  Se  Se23  1  0.384405  0.001829  0.342844  1
  Se  Se24  1  0.209767  0.861817  0.505716  1
  Se  Se25  1  0.448929  0.496059  0.998171  1
  Se  Se26  1  0.384405  0.344956  0.503941  1
  Se  Se27  1  0.623566  0.135016  0.138183  1
  Se  Se28  1  0.623566  0.494284  0.991117  1
  Se  Se29  1  0.550671  0.996593  0.848510  1
  Se  Se30  1  0.448929  0.657156  0.655044  1
  Se  Se31  1  0.709767  0.005716  0.361817  1
  Se  Se32  1  0.550671  0.851394  0.499477  1
  Se  Se33  1  0.782662  0.503407  1.000523  1
  Se  Se34  1  0.709767  0.364984  0.508883  1
  Se  Se35  1  0.948929  0.155044  0.157156  1
  Se  Se36  1  0.948929  0.498171  0.996059  1
  Se  Se37  1  0.782662  0.648606  0.651490  1
  Se  Se38  1  0.884405  0.003941  0.844956  1
  Se  Se39  1  0.884405  0.842844  0.501829  1
