# generated using pymatgen
data_CuI4
_symmetry_space_group_name_H-M   'P 1'
_cell_length_a   7.98702998
_cell_length_b   10.52427032
_cell_length_c   6.89792509
_cell_angle_alpha   29.06411307
_cell_angle_beta   54.62366957
_cell_angle_gamma   40.63133202
_symmetry_Int_Tables_number   1
_chemical_formula_structural   CuI4
_chemical_formula_sum   'Cu1 I4'
_cell_volume   176.77165026
_cell_formula_units_Z   1
loop_
 _symmetry_equiv_pos_site_id
 _symmetry_equiv_pos_as_xyz
  1  'x, y, z'
loop_
 _atom_site_type_symbol
 _atom_site_label
 _atom_site_symmetry_multiplicity
 _atom_site_fract_x
 _atom_site_fract_y
 _atom_site_fract_z
 _atom_site_occupancy
  Cu  Cu0  1  0.375202  0.500608  0.248380  1
  I  I1  1  0.983425  0.024892  0.983366  1
  I  I2  1  0.508293  0.976525  0.030363  1
  I  I3  1  0.244256  0.498988  0.993946  1
  I  I4  1  0.763823  0.498988  0.993946  1
