# generated using pymatgen
data_LaSb5O12
_symmetry_space_group_name_H-M   'P 1'
_cell_length_a   7.02748248
_cell_length_b   7.02748247
_cell_length_c   7.02748247
_cell_angle_alpha   63.43965216
_cell_angle_beta   63.43965220
_cell_angle_gamma   63.43965213
_symmetry_Int_Tables_number   1
_chemical_formula_structural   LaSb5O12
_chemical_formula_sum   'La1 Sb5 O12'
_cell_volume   264.08058568
_cell_formula_units_Z   1
loop_
 _symmetry_equiv_pos_site_id
 _symmetry_equiv_pos_as_xyz
  1  'x, y, z'
loop_
 _atom_site_type_symbol
 _atom_site_label
 _atom_site_symmetry_multiplicity
 _atom_site_fract_x
 _atom_site_fract_y
 _atom_site_fract_z
 _atom_site_occupancy
  O  O0  1  0.651024  0.048675  0.651024  1
  O  O1  1  0.048675  0.651024  0.651024  1
  O  O2  1  0.651024  0.651024  0.048675  1
  O  O3  1  0.348976  0.951325  0.348976  1
  O  O4  1  0.951325  0.348976  0.348976  1
  O  O5  1  0.348976  0.348976  0.951325  1
  O  O6  1  0.618067  0.241933  0.241933  1
  O  O7  1  0.241933  0.618067  0.241933  1
  O  O8  1  0.241933  0.241933  0.618067  1
  O  O9  1  0.758067  0.381933  0.758067  1
  O  O10  1  0.758067  0.758067  0.381933  1
  O  O11  1  0.381933  0.758067  0.758067  1
  Sb  Sb12  1  0.500000  0.000000  0.500000  1
  Sb  Sb13  1  0.000000  0.500000  0.500000  1
  Sb  Sb14  1  0.500000  0.500000  0.000000  1
  Sb  Sb15  1  0.846997  0.846997  0.846997  1
  Sb  Sb16  1  0.153003  0.153003  0.153003  1
  La  La17  1  0.500000  0.500000  0.500000  1
