# generated using pymatgen
data_NbIrS4
_symmetry_space_group_name_H-M   'P 1'
_cell_length_a   3.52022755
_cell_length_b   6.63335500
_cell_length_c   6.96456180
_cell_angle_alpha   60.31335023
_cell_angle_beta   104.63878814
_cell_angle_gamma   122.05180486
_symmetry_Int_Tables_number   1
_chemical_formula_structural   NbIrS4
_chemical_formula_sum   'Nb1 Ir1 S4'
_cell_volume   119.73608591
_cell_formula_units_Z   1
loop_
 _symmetry_equiv_pos_site_id
 _symmetry_equiv_pos_as_xyz
  1  'x, y, z'
loop_
 _atom_site_type_symbol
 _atom_site_label
 _atom_site_symmetry_multiplicity
 _atom_site_fract_x
 _atom_site_fract_y
 _atom_site_fract_z
 _atom_site_occupancy
  Nb  Nb0  1  0.000000  0.000000  -0.000000  1
  Ir  Ir1  1  0.000000  0.500000  -0.000000  1
  S  S2  1  0.650063  0.769482  0.761161  1
  S  S3  1  0.330299  0.705373  0.249851  1
  S  S4  1  0.349937  0.230518  0.238839  1
  S  S5  1  0.669701  0.294627  0.750149  1
