# generated using pymatgen
data_MnHO2
_symmetry_space_group_name_H-M   'P 1'
_cell_length_a   5.36134053
_cell_length_b   5.37580508
_cell_length_c   5.38382511
_cell_angle_alpha   113.16729683
_cell_angle_beta   90.00000000
_cell_angle_gamma   90.00000000
_symmetry_Int_Tables_number   1
_chemical_formula_structural   MnHO2
_chemical_formula_sum   'Mn4 H4 O8'
_cell_volume   142.65712733
_cell_formula_units_Z   4
loop_
 _symmetry_equiv_pos_site_id
 _symmetry_equiv_pos_as_xyz
  1  'x, y, z'
loop_
 _atom_site_type_symbol
 _atom_site_label
 _atom_site_symmetry_multiplicity
 _atom_site_fract_x
 _atom_site_fract_y
 _atom_site_fract_z
 _atom_site_occupancy
  H  H0  1  0.523100  0.720783  0.766849  1
  H  H1  1  0.023100  0.279217  0.733151  1
  H  H2  1  0.476900  0.279217  0.233151  1
  H  H3  1  0.976900  0.720783  0.266849  1
  O  O4  1  0.877253  0.626668  0.369674  1
  O  O5  1  0.377253  0.373332  0.130326  1
  O  O6  1  0.122747  0.373332  0.630326  1
  O  O7  1  0.622747  0.626668  0.869674  1
  O  O8  1  0.874371  0.126609  0.878500  1
  O  O9  1  0.374371  0.873391  0.621500  1
  O  O10  1  0.125629  0.873391  0.121500  1
  O  O11  1  0.625629  0.126609  0.378500  1
  Mn  Mn12  1  0.511929  0.238099  0.748108  1
  Mn  Mn13  1  0.011929  0.761901  0.751892  1
  Mn  Mn14  1  0.488071  0.761901  0.251892  1
  Mn  Mn15  1  0.988071  0.238099  0.248108  1
