# generated using pymatgen
data_YGa6
_symmetry_space_group_name_H-M   'P 1'
_cell_length_a   5.98434308
_cell_length_b   5.98434308
_cell_length_c   7.61536550
_cell_angle_alpha   90.00000000
_cell_angle_beta   90.00000000
_cell_angle_gamma   90.00000000
_symmetry_Int_Tables_number   1
_chemical_formula_structural   YGa6
_chemical_formula_sum   'Y2 Ga12'
_cell_volume   272.72422680
_cell_formula_units_Z   2
loop_
 _symmetry_equiv_pos_site_id
 _symmetry_equiv_pos_as_xyz
  1  'x, y, z'
loop_
 _atom_site_type_symbol
 _atom_site_label
 _atom_site_symmetry_multiplicity
 _atom_site_fract_x
 _atom_site_fract_y
 _atom_site_fract_z
 _atom_site_occupancy
  Ga  Ga0  1  0.250000  0.250000  0.161495  1
  Ga  Ga1  1  0.250000  0.250000  0.838505  1
  Ga  Ga2  1  0.750000  0.750000  0.838505  1
  Ga  Ga3  1  0.750000  0.750000  0.161495  1
  Ga  Ga4  1  0.929048  0.429048  0.351357  1
  Ga  Ga5  1  0.070952  0.929048  0.351357  1
  Ga  Ga6  1  0.429048  0.570952  0.351357  1
  Ga  Ga7  1  0.929048  0.070952  0.648643  1
  Ga  Ga8  1  0.570952  0.429048  0.648643  1
  Ga  Ga9  1  0.570952  0.070952  0.351357  1
  Ga  Ga10  1  0.429048  0.929048  0.648643  1
  Ga  Ga11  1  0.070952  0.570952  0.648643  1
  Y  Y12  1  0.250000  0.750000  0.000000  1
  Y  Y13  1  0.750000  0.250000  0.000000  1
