# generated using pymatgen
data_Ga2Ir
_symmetry_space_group_name_H-M   'P 1'
_cell_length_a   3.93735931
_cell_length_b   6.85871658
_cell_length_c   11.00719018
_cell_angle_alpha   90.00000000
_cell_angle_beta   90.00000000
_cell_angle_gamma   106.68042368
_symmetry_Int_Tables_number   1
_chemical_formula_structural   Ga2Ir
_chemical_formula_sum   'Ga12 Ir6'
_cell_volume   284.74355228
_cell_formula_units_Z   6
loop_
 _symmetry_equiv_pos_site_id
 _symmetry_equiv_pos_as_xyz
  1  'x, y, z'
loop_
 _atom_site_type_symbol
 _atom_site_label
 _atom_site_symmetry_multiplicity
 _atom_site_fract_x
 _atom_site_fract_y
 _atom_site_fract_z
 _atom_site_occupancy
  Ga  Ga0  1  0.441239  0.882478  0.605853  1
  Ga  Ga1  1  0.558761  0.117522  0.394147  1
  Ga  Ga2  1  0.558761  0.117522  0.105853  1
  Ga  Ga3  1  0.441239  0.882478  0.894147  1
  Ga  Ga4  1  0.821512  0.643024  0.517642  1
  Ga  Ga5  1  0.178488  0.356976  0.482358  1
  Ga  Ga6  1  0.233746  0.467492  0.750000  1
  Ga  Ga7  1  0.766254  0.532508  0.250000  1
  Ga  Ga8  1  0.040405  0.080809  0.750000  1
  Ga  Ga9  1  0.959595  0.919191  0.250000  1
  Ga  Ga10  1  0.821512  0.643024  0.982358  1
  Ga  Ga11  1  0.178488  0.356976  0.017642  1
  Ir  Ir12  1  0.640295  0.280590  0.622814  1
  Ir  Ir13  1  0.359705  0.719410  0.377186  1
  Ir  Ir14  1  0.359705  0.719410  0.122814  1
  Ir  Ir15  1  0.640295  0.280590  0.877186  1
  Ir  Ir16  1  0.148684  0.297368  0.250000  1
  Ir  Ir17  1  0.851316  0.702632  0.750000  1
