# generated using pymatgen
data_NdPO4
_symmetry_space_group_name_H-M   'P 1'
_cell_length_a   6.45372029
_cell_length_b   6.85125175
_cell_length_c   7.04245201
_cell_angle_alpha   90.00000000
_cell_angle_beta   90.00000000
_cell_angle_gamma   103.95763283
_symmetry_Int_Tables_number   1
_chemical_formula_structural   NdPO4
_chemical_formula_sum   'Nd4 P4 O16'
_cell_volume   302.19552031
_cell_formula_units_Z   4
loop_
 _symmetry_equiv_pos_site_id
 _symmetry_equiv_pos_as_xyz
  1  'x, y, z'
loop_
 _atom_site_type_symbol
 _atom_site_label
 _atom_site_symmetry_multiplicity
 _atom_site_fract_x
 _atom_site_fract_y
 _atom_site_fract_z
 _atom_site_occupancy
  O  O0  1  0.209516  0.624707  0.289481  1
  O  O1  1  0.290484  0.875293  0.789481  1
  O  O2  1  0.790484  0.375293  0.710519  1
  O  O3  1  0.709516  0.124707  0.210519  1
  O  O4  1  0.308699  0.970039  0.398721  1
  O  O5  1  0.191301  0.529961  0.898721  1
  O  O6  1  0.691301  0.029961  0.601279  1
  O  O7  1  0.808699  0.470039  0.101279  1
  O  O8  1  0.437484  0.249644  0.004167  1
  O  O9  1  0.062516  0.250356  0.504167  1
  O  O10  1  0.562516  0.750356  0.995833  1
  O  O11  1  0.937484  0.749644  0.495833  1
  O  O12  1  0.498943  0.381639  0.331289  1
  O  O13  1  0.001057  0.118361  0.831289  1
  O  O14  1  0.501057  0.618361  0.668711  1
  O  O15  1  0.998943  0.881639  0.168711  1
  P  P16  1  0.110993  0.802623  0.339298  1
  P  P17  1  0.389007  0.697377  0.839298  1
  P  P18  1  0.889007  0.197377  0.660702  1
  P  P19  1  0.610993  0.302623  0.160702  1
  Nd  Nd20  1  0.597165  0.784439  0.343370  1
  Nd  Nd21  1  0.902835  0.715561  0.843370  1
  Nd  Nd22  1  0.402835  0.215561  0.656630  1
  Nd  Nd23  1  0.097165  0.284439  0.156630  1
