# generated using pymatgen
data_Li2NiF4
_symmetry_space_group_name_H-M   'P 1'
_cell_length_a   5.92233143
_cell_length_b   5.92233186
_cell_length_c   5.88205179
_cell_angle_alpha   60.22473412
_cell_angle_beta   60.22473176
_cell_angle_gamma   61.01177676
_symmetry_Int_Tables_number   1
_chemical_formula_structural   Li2NiF4
_chemical_formula_sum   'Li4 Ni2 F8'
_cell_volume   147.46880111
_cell_formula_units_Z   2
loop_
 _symmetry_equiv_pos_site_id
 _symmetry_equiv_pos_as_xyz
  1  'x, y, z'
loop_
 _atom_site_type_symbol
 _atom_site_label
 _atom_site_symmetry_multiplicity
 _atom_site_fract_x
 _atom_site_fract_y
 _atom_site_fract_z
 _atom_site_occupancy
  Li  Li0  1  0.116322  0.116322  0.133678  1
  Li  Li1  1  0.500000  0.500000  0.000000  1
  Li  Li2  1  0.500000  0.500000  0.500000  1
  Li  Li3  1  0.883678  0.883678  0.866322  1
  Ni  Ni4  1  0.500000  0.000000  0.500000  1
  Ni  Ni5  1  0.000000  0.500000  0.500000  1
  F  F6  1  0.253812  0.253812  0.262484  1
  F  F7  1  0.253812  0.253812  0.729892  1
  F  F8  1  0.253595  0.723650  0.261378  1
  F  F9  1  0.723650  0.253595  0.261378  1
  F  F10  1  0.276350  0.746405  0.738622  1
  F  F11  1  0.746188  0.746188  0.270108  1
  F  F12  1  0.746405  0.276350  0.738622  1
  F  F13  1  0.746188  0.746188  0.737516  1
