# generated using pymatgen
data_La6OsI10
_symmetry_space_group_name_H-M   'P 1'
_cell_length_a   8.17987856
_cell_length_b   10.03762700
_cell_length_c   10.30006078
_cell_angle_alpha   108.43936727
_cell_angle_beta   97.65526863
_cell_angle_gamma   105.66260330
_symmetry_Int_Tables_number   1
_chemical_formula_structural   La6OsI10
_chemical_formula_sum   'La6 Os1 I10'
_cell_volume   750.04462122
_cell_formula_units_Z   1
loop_
 _symmetry_equiv_pos_site_id
 _symmetry_equiv_pos_as_xyz
  1  'x, y, z'
loop_
 _atom_site_type_symbol
 _atom_site_label
 _atom_site_symmetry_multiplicity
 _atom_site_fract_x
 _atom_site_fract_y
 _atom_site_fract_z
 _atom_site_occupancy
  La  La0  1  0.471915  0.274306  0.581252  1
  La  La1  1  0.528085  0.725694  0.418748  1
  La  La2  1  0.867104  0.140678  0.679138  1
  La  La3  1  0.132896  0.859322  0.320862  1
  La  La4  1  0.380998  0.957632  0.748113  1
  La  La5  1  0.619002  0.042368  0.251887  1
  Os  Os6  1  0.500000  -0.000000  0.500000  1
  I  I7  1  0.586526  0.369781  0.321288  1
  I  I8  1  0.232686  0.912677  0.038956  1
  I  I9  1  0.301936  0.268894  0.854216  1
  I  I10  1  0.413474  0.630219  0.678712  1
  I  I11  1  0.137302  0.532501  0.224924  1
  I  I12  1  0.767314  0.087323  0.961044  1
  I  I13  1  0.862698  0.467500  0.775076  1
  I  I14  1  0.951107  0.819013  0.587409  1
  I  I15  1  0.048893  0.180987  0.412591  1
  I  I16  1  0.698064  0.731106  0.145784  1
