# generated using pymatgen
data_HoFe3
_symmetry_space_group_name_H-M   'P 1'
_cell_length_a   8.58659317
_cell_length_b   8.58659316
_cell_length_c   8.58659317
_cell_angle_alpha   34.39244833
_cell_angle_beta   34.39244840
_cell_angle_gamma   34.39244834
_symmetry_Int_Tables_number   1
_chemical_formula_structural   HoFe3
_chemical_formula_sum   'Ho3 Fe9'
_cell_volume   180.17218775
_cell_formula_units_Z   3
loop_
 _symmetry_equiv_pos_site_id
 _symmetry_equiv_pos_as_xyz
  1  'x, y, z'
loop_
 _atom_site_type_symbol
 _atom_site_label
 _atom_site_symmetry_multiplicity
 _atom_site_fract_x
 _atom_site_fract_y
 _atom_site_fract_z
 _atom_site_occupancy
  Fe  Fe0  1  0.500000  0.500000  0.500000  1
  Fe  Fe1  1  0.332807  0.332807  0.332807  1
  Fe  Fe2  1  0.667193  0.667193  0.667193  1
  Fe  Fe3  1  0.581382  0.081569  0.581382  1
  Fe  Fe4  1  0.581382  0.581382  0.081569  1
  Fe  Fe5  1  0.081569  0.581382  0.581382  1
  Fe  Fe6  1  0.918431  0.418618  0.418618  1
  Fe  Fe7  1  0.418618  0.918431  0.418618  1
  Fe  Fe8  1  0.418618  0.418618  0.918431  1
  Ho  Ho9  1  0.000000  0.000000  0.000000  1
  Ho  Ho10  1  0.141857  0.141857  0.141857  1
  Ho  Ho11  1  0.858143  0.858143  0.858143  1
