# generated using pymatgen
data_Fe3(SiO4)2
_symmetry_space_group_name_H-M   'P 1'
_cell_length_a   4.89060055
_cell_length_b   5.88488906
_cell_length_c   10.32220264
_cell_angle_alpha   91.08825480
_cell_angle_beta   90.00000000
_cell_angle_gamma   90.00000000
_symmetry_Int_Tables_number   1
_chemical_formula_structural   Fe3(SiO4)2
_chemical_formula_sum   'Fe6 Si4 O16'
_cell_volume   297.02603004
_cell_formula_units_Z   2
loop_
 _symmetry_equiv_pos_site_id
 _symmetry_equiv_pos_as_xyz
  1  'x, y, z'
loop_
 _atom_site_type_symbol
 _atom_site_label
 _atom_site_symmetry_multiplicity
 _atom_site_fract_x
 _atom_site_fract_y
 _atom_site_fract_z
 _atom_site_occupancy
  O  O0  1  0.724520  0.968633  0.169614  1
  O  O1  1  0.224522  0.031367  0.330386  1
  O  O2  1  0.275479  0.031368  0.830387  1
  O  O3  1  0.775478  0.968632  0.669614  1
  O  O4  1  0.196767  0.455587  0.319842  1
  O  O5  1  0.696766  0.544413  0.180157  1
  O  O6  1  0.803233  0.544414  0.680157  1
  O  O7  1  0.303234  0.455587  0.819843  1
  O  O8  1  0.725828  0.235138  0.392161  1
  O  O9  1  0.225829  0.764861  0.107838  1
  O  O10  1  0.666859  0.759841  0.946109  1
  O  O11  1  0.166858  0.240160  0.553891  1
  O  O12  1  0.333141  0.240159  0.053890  1
  O  O13  1  0.274172  0.764862  0.607838  1
  O  O14  1  0.774170  0.235137  0.892162  1
  O  O15  1  0.833142  0.759841  0.446109  1
  Si  Si16  1  0.557392  0.750844  0.095929  1
  Si  Si17  1  0.057391  0.249157  0.404070  1
  Si  Si18  1  0.442610  0.249156  0.904071  1
  Si  Si19  1  0.942608  0.750843  0.595929  1
  Fe  Fe20  1  0.004832  0.740227  0.272595  1
  Fe  Fe21  1  0.504833  0.259773  0.227405  1
  Fe  Fe22  1  0.495166  0.740227  0.772596  1
  Fe  Fe23  1  0.995167  0.259774  0.727404  1
  Fe  Fe24  1  0.500001  0.000001  0.500000  1
  Fe  Fe25  1  0.000000  0.000000  0.000000  1
