# generated using pymatgen
data_LiHS
_symmetry_space_group_name_H-M   'P 1'
_cell_length_a   6.19037982
_cell_length_b   7.89406898
_cell_length_c   7.89406898
_cell_angle_alpha   90.00000000
_cell_angle_beta   90.00000000
_cell_angle_gamma   90.00000000
_symmetry_Int_Tables_number   1
_chemical_formula_structural   LiHS
_chemical_formula_sum   'Li8 H8 S8'
_cell_volume   385.76172111
_cell_formula_units_Z   8
loop_
 _symmetry_equiv_pos_site_id
 _symmetry_equiv_pos_as_xyz
  1  'x, y, z'
loop_
 _atom_site_type_symbol
 _atom_site_label
 _atom_site_symmetry_multiplicity
 _atom_site_fract_x
 _atom_site_fract_y
 _atom_site_fract_z
 _atom_site_occupancy
  S  S0  1  0.500000  0.250159  0.515596  1
  S  S1  1  0.000000  0.484404  0.250159  1
  S  S2  1  0.000000  0.515596  0.749841  1
  S  S3  1  0.500000  0.749841  0.484404  1
  S  S4  1  0.500000  0.750159  0.984404  1
  S  S5  1  0.500000  0.249841  0.015596  1
  S  S6  1  0.000000  0.015596  0.750159  1
  S  S7  1  0.000000  0.984404  0.249841  1
  H  H8  1  0.000000  0.313265  0.248868  1
  H  H9  1  0.500000  0.751132  0.313265  1
  H  H10  1  0.500000  0.248868  0.686735  1
  H  H11  1  0.000000  0.686735  0.751132  1
  H  H12  1  0.000000  0.813265  0.251132  1
  H  H13  1  0.000000  0.186735  0.748868  1
  H  H14  1  0.500000  0.748868  0.813265  1
  H  H15  1  0.500000  0.251132  0.186735  1
  Li  Li16  1  0.250000  0.000000  0.500000  1
  Li  Li17  1  0.750000  0.500000  0.000000  1
  Li  Li18  1  0.750000  0.000000  0.500000  1
  Li  Li19  1  0.250000  0.500000  0.000000  1
  Li  Li20  1  0.250000  0.000000  0.000000  1
  Li  Li21  1  0.750000  0.000000  0.000000  1
  Li  Li22  1  0.750000  0.500000  0.500000  1
  Li  Li23  1  0.250000  0.500000  0.500000  1
