# generated using pymatgen
data_CeSiRh2
_symmetry_space_group_name_H-M   'P 1'
_cell_length_a   3.99073123
_cell_length_b   4.03719985
_cell_length_c   9.36881109
_cell_angle_alpha   90.00000000
_cell_angle_beta   102.29702169
_cell_angle_gamma   90.00000000
_symmetry_Int_Tables_number   1
_chemical_formula_structural   CeSiRh2
_chemical_formula_sum   'Ce2 Si2 Rh4'
_cell_volume   147.48129875
_cell_formula_units_Z   2
loop_
 _symmetry_equiv_pos_site_id
 _symmetry_equiv_pos_as_xyz
  1  'x, y, z'
loop_
 _atom_site_type_symbol
 _atom_site_label
 _atom_site_symmetry_multiplicity
 _atom_site_fract_x
 _atom_site_fract_y
 _atom_site_fract_z
 _atom_site_occupancy
  Si  Si0  1  0.320807  0.750000  0.641615  1
  Si  Si1  1  0.679193  0.250000  0.358385  1
  Rh  Rh2  1  0.549838  0.250000  0.099675  1
  Rh  Rh3  1  0.450162  0.750000  0.900325  1
  Rh  Rh4  1  0.250130  0.250000  0.500260  1
  Rh  Rh5  1  0.749870  0.750000  0.499740  1
  Ce  Ce6  1  0.099268  0.750000  0.198536  1
  Ce  Ce7  1  0.900732  0.250000  0.801464  1
