# generated using pymatgen
data_B10H13I
_symmetry_space_group_name_H-M   'P 1'
_cell_length_a   12.31926410
_cell_length_b   14.47897347
_cell_length_c   14.39028351
_cell_angle_alpha   119.16324562
_cell_angle_beta   90.00000000
_cell_angle_gamma   90.00000000
_symmetry_Int_Tables_number   1
_chemical_formula_structural   B10H13I
_chemical_formula_sum   'B80 H104 I8'
_cell_volume   2241.41848508
_cell_formula_units_Z   8
loop_
 _symmetry_equiv_pos_site_id
 _symmetry_equiv_pos_as_xyz
  1  'x, y, z'
loop_
 _atom_site_type_symbol
 _atom_site_label
 _atom_site_symmetry_multiplicity
 _atom_site_fract_x
 _atom_site_fract_y
 _atom_site_fract_z
 _atom_site_occupancy
  H  H0  1  0.145225  0.232840  0.678697  1
  H  H1  1  0.645225  0.267160  0.821303  1
  H  H2  1  0.854775  0.767160  0.321303  1
  H  H3  1  0.354775  0.732840  0.178697  1
  H  H4  1  0.196018  0.358144  0.675338  1
  H  H5  1  0.696018  0.141856  0.824662  1
  H  H6  1  0.803982  0.641856  0.324662  1
  H  H7  1  0.303982  0.858144  0.175338  1
  H  H8  1  0.222400  0.427966  0.834794  1
  H  H9  1  0.722400  0.072034  0.665206  1
  H  H10  1  0.777600  0.572034  0.165206  1
  H  H11  1  0.277600  0.927966  0.334794  1
  H  H12  1  0.172616  0.301829  0.837273  1
  H  H13  1  0.672616  0.198171  0.662727  1
  H  H14  1  0.827384  0.698171  0.162727  1
  H  H15  1  0.327384  0.801829  0.337273  1
  H  H16  1  0.189903  0.082755  0.625694  1
  H  H17  1  0.689903  0.417245  0.874306  1
  H  H18  1  0.810097  0.917245  0.374306  1
  H  H19  1  0.310097  0.582755  0.125694  1
  H  H20  1  0.140001  0.234194  0.537861  1
  H  H21  1  0.640001  0.265806  0.962139  1
  H  H22  1  0.859999  0.765806  0.462139  1
  H  H23  1  0.359999  0.734194  0.037861  1
  H  H24  1  0.320874  0.402715  0.617432  1
  H  H25  1  0.820874  0.097285  0.882568  1
  H  H26  1  0.679126  0.597285  0.382568  1
  H  H27  1  0.179126  0.902715  0.117432  1
  H  H28  1  0.359476  0.510050  0.857149  1
  H  H29  1  0.859476  0.989950  0.642851  1
  H  H30  1  0.640524  0.489950  0.142851  1
  H  H31  1  0.140524  0.010050  0.357149  1
  H  H32  1  0.214528  0.430067  0.977324  1
  H  H33  1  0.714528  0.069933  0.522676  1
  H  H34  1  0.785472  0.569933  0.022676  1
  H  H35  1  0.285472  0.930067  0.477324  1
  H  H36  1  0.233362  0.186779  0.861047  1
  H  H37  1  0.733362  0.313221  0.638953  1
  H  H38  1  0.766638  0.813221  0.138953  1
  H  H39  1  0.266638  0.686779  0.361047  1
  H  H40  1  0.378404  0.160196  0.527408  1
  H  H41  1  0.878404  0.339804  0.972592  1
  H  H42  1  0.621596  0.839804  0.472592  1
  H  H43  1  0.121596  0.660196  0.027408  1
  H  H44  1  0.494933  0.335439  0.706553  1
  H  H45  1  0.994933  0.164561  0.793447  1
  H  H46  1  0.505067  0.664561  0.293447  1
  H  H47  1  0.152658  0.633794  0.804436  1
  H  H48  1  0.005067  0.835439  0.206553  1
  H  H49  1  0.943227  0.170333  0.595459  1
  H  H50  1  0.556773  0.670333  0.095459  1
  H  H51  1  0.056773  0.829667  0.404541  1
  H  H52  1  0.228837  0.826147  0.769141  1
  H  H53  1  0.728837  0.673853  0.730859  1
  H  H54  1  0.771163  0.173853  0.230859  1
  H  H55  1  0.271163  0.326147  0.269141  1
  H  H56  1  0.175806  0.833913  0.646084  1
  H  H57  1  0.675806  0.666087  0.853916  1
  H  H58  1  0.824194  0.166087  0.353916  1
  H  H59  1  0.324194  0.333913  0.146084  1
  H  H60  1  0.159229  0.674514  0.570406  1
  H  H61  1  0.659229  0.825486  0.929594  1
  H  H62  1  0.840771  0.325486  0.429594  1
  H  H63  1  0.340771  0.174514  0.070406  1
  H  H64  1  0.210755  0.666448  0.693702  1
  H  H65  1  0.710755  0.833552  0.806298  1
  H  H66  1  0.789245  0.333552  0.306298  1
  H  H67  1  0.289245  0.166448  0.193702  1
  H  H68  1  0.183408  0.870712  0.918819  1
  H  H69  1  0.683408  0.629288  0.581181  1
  H  H70  1  0.816592  0.129288  0.081181  1
  H  H71  1  0.316592  0.370712  0.418819  1
  H  H72  1  0.225306  0.969995  0.775401  1
  H  H73  1  0.725306  0.530005  0.724599  1
  H  H74  1  0.774694  0.030005  0.224599  1
  H  H75  1  0.274694  0.469995  0.275401  1
  H  H76  1  0.046518  0.888212  0.603728  1
  H  H77  1  0.546518  0.611788  0.896272  1
  H  H78  1  0.953482  0.111788  0.396272  1
  H  H79  1  0.453482  0.388212  0.103728  1
  H  H80  1  0.023455  0.647986  0.485106  1
  H  H81  1  0.523455  0.852014  0.014894  1
  H  H82  1  0.976545  0.352014  0.514894  1
  H  H83  1  0.476545  0.147986  0.985106  1
  H  H84  1  0.174907  0.529031  0.558973  1
  H  H85  1  0.674907  0.970969  0.941027  1
  H  H86  1  0.825093  0.470969  0.441027  1
  H  H87  1  0.325093  0.029031  0.058973  1
  H  H88  1  0.555885  0.085735  0.158014  1
  H  H89  1  0.055885  0.414265  0.341986  1
  H  H90  1  0.444115  0.914265  0.841986  1
  H  H91  1  0.944115  0.585735  0.658014  1
  H  H92  1  0.619976  0.284163  0.161838  1
  H  H93  1  0.119976  0.215837  0.338162  1
  H  H94  1  0.380024  0.715837  0.838162  1
  H  H95  1  0.880024  0.784163  0.661838  1
  H  H96  1  0.512083  0.463869  0.344948  1
  H  H97  1  0.012083  0.036131  0.155052  1
  H  H98  1  0.487917  0.536131  0.655052  1
  H  H99  1  0.987917  0.963869  0.844948  1
  H  H100  1  0.347342  0.133794  0.304436  1
  H  H101  1  0.847342  0.366206  0.195564  1
  H  H102  1  0.652658  0.866206  0.695564  1
  H  H103  1  0.443227  0.329667  0.904541  1
  B  B104  1  0.228505  0.169045  0.664760  1
  B  B105  1  0.728505  0.330955  0.835240  1
  B  B106  1  0.771495  0.830955  0.335240  1
  B  B107  1  0.271495  0.669045  0.164760  1
  B  B108  1  0.199780  0.253137  0.609886  1
  B  B109  1  0.699780  0.246863  0.890114  1
  B  B110  1  0.800220  0.746863  0.390114  1
  B  B111  1  0.300220  0.753137  0.109886  1
  B  B112  1  0.302708  0.351922  0.660516  1
  B  B113  1  0.802708  0.148078  0.839484  1
  B  B114  1  0.697292  0.648078  0.339484  1
  B  B115  1  0.197292  0.851922  0.160516  1
  B  B116  1  0.328346  0.420859  0.815190  1
  B  B117  1  0.828346  0.079141  0.684810  1
  B  B118  1  0.671654  0.579141  0.184810  1
  B  B119  1  0.171654  0.920859  0.315190  1
  B  B120  1  0.247530  0.377321  0.889115  1
  B  B121  1  0.747530  0.122679  0.610885  1
  B  B122  1  0.752470  0.622679  0.110885  1
  B  B123  1  0.252470  0.877321  0.389115  1
  B  B124  1  0.255833  0.236989  0.818192  1
  B  B125  1  0.755833  0.263011  0.681808  1
  B  B126  1  0.744167  0.763011  0.181808  1
  B  B127  1  0.244167  0.736989  0.318192  1
  B  B128  1  0.332313  0.214515  0.609054  1
  B  B129  1  0.832313  0.285485  0.890946  1
  B  B130  1  0.667687  0.785485  0.390946  1
  B  B131  1  0.167687  0.714515  0.109054  1
  B  B132  1  0.404623  0.314384  0.720168  1
  B  B133  1  0.904623  0.185616  0.779832  1
  B  B134  1  0.595377  0.685616  0.279832  1
  B  B135  1  0.095377  0.814384  0.220168  1
  B  B136  1  0.372805  0.319673  0.843565  1
  B  B137  1  0.872805  0.180327  0.656435  1
  B  B138  1  0.627195  0.680327  0.156435  1
  B  B139  1  0.127195  0.819673  0.343565  1
  B  B140  1  0.358597  0.199428  0.722068  1
  B  B141  1  0.858597  0.300572  0.777932  1
  B  B142  1  0.641403  0.800572  0.277932  1
  B  B143  1  0.141403  0.699428  0.222068  1
  B  B144  1  0.146052  0.833047  0.831548  1
  B  B145  1  0.646052  0.666953  0.668452  1
  B  B146  1  0.853948  0.166953  0.168452  1
  B  B147  1  0.353948  0.333047  0.331548  1
  B  B148  1  0.169753  0.894649  0.752420  1
  B  B149  1  0.669753  0.605351  0.747580  1
  B  B150  1  0.830247  0.105351  0.247580  1
  B  B151  1  0.330247  0.394649  0.252420  1
  B  B152  1  0.068538  0.842745  0.651453  1
  B  B153  1  0.568538  0.657255  0.848547  1
  B  B154  1  0.931462  0.157255  0.348547  1
  B  B155  1  0.431462  0.342745  0.151453  1
  B  B156  1  0.052213  0.687695  0.575540  1
  B  B157  1  0.552213  0.812305  0.924460  1
  B  B158  1  0.947787  0.312305  0.424460  1
  B  B159  1  0.447787  0.187695  0.075540  1
  B  B160  1  0.137926  0.614350  0.615612  1
  B  B161  1  0.637926  0.885650  0.884388  1
  B  B162  1  0.862074  0.385650  0.384388  1
  B  B163  1  0.362074  0.114350  0.115612  1
  B  B164  1  0.127187  0.678562  0.756774  1
  B  B165  1  0.627187  0.821438  0.743226  1
  B  B166  1  0.872813  0.321438  0.243226  1
  B  B167  1  0.372813  0.178562  0.256774  1
  B  B168  1  0.038000  0.886188  0.788089  1
  B  B169  1  0.538000  0.613812  0.711911  1
  B  B170  1  0.962000  0.113812  0.211911  1
  B  B171  1  0.462000  0.386188  0.288089  1
  B  B172  1  0.971491  0.774400  0.683325  1
  B  B173  1  0.471491  0.725600  0.816675  1
  B  B174  1  0.028509  0.225600  0.316675  1
  B  B175  1  0.528509  0.274400  0.183325  1
  B  B176  1  0.010852  0.650952  0.672275  1
  B  B177  1  0.510852  0.849048  0.827725  1
  B  B178  1  0.989148  0.349048  0.327725  1
  B  B179  1  0.489148  0.150952  0.172275  1
  B  B180  1  0.019452  0.769143  0.796670  1
  B  B181  1  0.519452  0.730857  0.703330  1
  B  B182  1  0.980548  0.230857  0.203330  1
  B  B183  1  0.480548  0.269143  0.296670  1
  I  I184  1  0.458267  0.063990  0.698184  1
  I  I185  1  0.958267  0.436010  0.801816  1
  I  I186  1  0.541733  0.936010  0.301816  1
  I  I187  1  0.041733  0.563990  0.198184  1
  I  I188  1  0.920084  0.781702  0.929000  1
  I  I189  1  0.420084  0.718298  0.571000  1
  I  I190  1  0.079916  0.218298  0.071000  1
  I  I191  1  0.579916  0.281702  0.429000  1
