# generated using pymatgen
data_Ta9(FeS3)2
_symmetry_space_group_name_H-M   'P 1'
_cell_length_a   10.43576013
_cell_length_b   10.43576013
_cell_length_c   6.59228489
_cell_angle_alpha   90.00000000
_cell_angle_beta   90.00000000
_cell_angle_gamma   119.99999998
_symmetry_Int_Tables_number   1
_chemical_formula_structural   Ta9(FeS3)2
_chemical_formula_sum   'Ta18 Fe4 S12'
_cell_volume   621.74854172
_cell_formula_units_Z   2
loop_
 _symmetry_equiv_pos_site_id
 _symmetry_equiv_pos_as_xyz
  1  'x, y, z'
loop_
 _atom_site_type_symbol
 _atom_site_label
 _atom_site_symmetry_multiplicity
 _atom_site_fract_x
 _atom_site_fract_y
 _atom_site_fract_z
 _atom_site_occupancy
  S  S0  1  0.701160  0.000000  0.766458  1
  S  S1  1  0.298840  0.298840  0.233542  1
  S  S2  1  0.000000  0.701160  0.233542  1
  S  S3  1  0.000000  0.701160  0.766458  1
  S  S4  1  0.298840  0.298840  0.766458  1
  S  S5  1  0.701160  0.000000  0.233542  1
  S  S6  1  0.000000  0.279102  0.500000  1
  S  S7  1  0.720898  0.720898  0.500000  1
  S  S8  1  0.279102  0.000000  0.500000  1
  S  S9  1  0.000000  0.276733  0.000000  1
  S  S10  1  0.723267  0.723267  0.000000  1
  S  S11  1  0.276733  0.000000  0.000000  1
  Fe  Fe12  1  0.666667  0.333333  0.283163  1
  Fe  Fe13  1  0.666667  0.333333  0.716837  1
  Fe  Fe14  1  0.333333  0.666667  0.716837  1
  Fe  Fe15  1  0.333333  0.666667  0.283163  1
  Ta  Ta16  1  0.783062  0.527066  0.000000  1
  Ta  Ta17  1  0.744004  0.216938  0.000000  1
  Ta  Ta18  1  0.472934  0.255996  0.000000  1
  Ta  Ta19  1  0.255996  0.472934  0.000000  1
  Ta  Ta20  1  0.527066  0.783062  0.000000  1
  Ta  Ta21  1  0.216938  0.744004  0.000000  1
  Ta  Ta22  1  0.735318  0.190743  0.500000  1
  Ta  Ta23  1  0.809257  0.544575  0.500000  1
  Ta  Ta24  1  0.455425  0.264682  0.500000  1
  Ta  Ta25  1  0.264682  0.455425  0.500000  1
  Ta  Ta26  1  0.544575  0.809257  0.500000  1
  Ta  Ta27  1  0.190743  0.735318  0.500000  1
  Ta  Ta28  1  0.459890  0.000000  0.753986  1
  Ta  Ta29  1  0.540110  0.540110  0.246014  1
  Ta  Ta30  1  0.000000  0.459890  0.246014  1
  Ta  Ta31  1  0.000000  0.459890  0.753986  1
  Ta  Ta32  1  0.540110  0.540110  0.753986  1
  Ta  Ta33  1  0.459890  0.000000  0.246014  1
