# generated using pymatgen
data_Li3Cr2(PO4)3
_symmetry_space_group_name_H-M   'P 1'
_cell_length_a   8.94568915
_cell_length_b   8.94568915
_cell_length_c   8.94568915
_cell_angle_alpha   56.10329041
_cell_angle_beta   56.10329048
_cell_angle_gamma   56.10329040
_symmetry_Int_Tables_number   1
_chemical_formula_structural   Li3Cr2(PO4)3
_chemical_formula_sum   'Li6 Cr4 P6 O24'
_cell_volume   460.52857807
_cell_formula_units_Z   2
loop_
 _symmetry_equiv_pos_site_id
 _symmetry_equiv_pos_as_xyz
  1  'x, y, z'
loop_
 _atom_site_type_symbol
 _atom_site_label
 _atom_site_symmetry_multiplicity
 _atom_site_fract_x
 _atom_site_fract_y
 _atom_site_fract_z
 _atom_site_occupancy
  Li  Li0  1  0.078835  0.332480  0.735949  1
  Li  Li1  1  0.921166  0.667520  0.264051  1
  Li  Li2  1  0.667520  0.264052  0.921165  1
  Li  Li3  1  0.264051  0.921166  0.667520  1
  Li  Li4  1  0.735948  0.078835  0.332481  1
  Li  Li5  1  0.332480  0.735949  0.078835  1
  O  O6  1  0.131728  0.877899  0.254494  1
  O  O7  1  0.461915  0.843012  0.788452  1
  O  O8  1  0.788452  0.461915  0.843013  1
  O  O9  1  0.843012  0.788453  0.461915  1
  O  O10  1  0.156988  0.211548  0.538085  1
  O  O11  1  0.211547  0.538086  0.156988  1
  O  O12  1  0.538085  0.156989  0.211547  1
  O  O13  1  0.168849  0.533761  0.493639  1
  O  O14  1  0.122101  0.745506  0.868272  1
  O  O15  1  0.004338  0.804433  0.613698  1
  O  O16  1  0.254494  0.131728  0.877899  1
  O  O17  1  0.868272  0.122101  0.745505  1
  O  O18  1  0.533761  0.493638  0.168849  1
  O  O19  1  0.195568  0.386302  0.995661  1
  O  O20  1  0.831150  0.466240  0.506361  1
  O  O21  1  0.386302  0.995662  0.195567  1
  O  O22  1  0.613698  0.004339  0.804432  1
  O  O23  1  0.877899  0.254495  0.131728  1
  O  O24  1  0.804432  0.613698  0.004339  1
  O  O25  1  0.466239  0.506361  0.831151  1
  O  O26  1  0.506361  0.831151  0.466239  1
  O  O27  1  0.745506  0.868271  0.122101  1
  O  O28  1  0.995662  0.195568  0.386302  1
  O  O29  1  0.493639  0.168850  0.533761  1
  P  P30  1  0.461840  0.039700  0.749548  1
  P  P31  1  0.749549  0.461839  0.039701  1
  P  P32  1  0.250452  0.538160  0.960300  1
  P  P33  1  0.538159  0.960301  0.250451  1
  P  P34  1  0.039700  0.749549  0.461840  1
  P  P35  1  0.960300  0.250452  0.538160  1
  Cr  Cr36  1  0.855524  0.855523  0.855523  1
  Cr  Cr37  1  0.651337  0.651336  0.651336  1
  Cr  Cr38  1  0.348664  0.348663  0.348664  1
  Cr  Cr39  1  0.144477  0.144476  0.144477  1
