# generated using pymatgen
data_Na5TlSn3
_symmetry_space_group_name_H-M   'P 1'
_cell_length_a   7.28445005
_cell_length_b   11.50870690
_cell_length_c   13.78342045
_cell_angle_alpha   90.00000000
_cell_angle_beta   90.00000000
_cell_angle_gamma   105.10044661
_symmetry_Int_Tables_number   1
_chemical_formula_structural   Na5TlSn3
_chemical_formula_sum   'Na20 Tl4 Sn12'
_cell_volume   1115.62787413
_cell_formula_units_Z   4
loop_
 _symmetry_equiv_pos_site_id
 _symmetry_equiv_pos_as_xyz
  1  'x, y, z'
loop_
 _atom_site_type_symbol
 _atom_site_label
 _atom_site_symmetry_multiplicity
 _atom_site_fract_x
 _atom_site_fract_y
 _atom_site_fract_z
 _atom_site_occupancy
  Na  Na0  1  0.367468  0.025347  0.892046  1
  Na  Na1  1  0.632532  0.474653  0.392047  1
  Na  Na2  1  0.632532  0.974653  0.107953  1
  Na  Na3  1  0.367468  0.525347  0.607954  1
  Na  Na4  1  0.445964  0.370797  0.813874  1
  Na  Na5  1  0.554036  0.129203  0.313874  1
  Na  Na6  1  0.554036  0.629203  0.186126  1
  Na  Na7  1  0.445964  0.870797  0.686126  1
  Na  Na8  1  0.655282  0.336535  0.053421  1
  Na  Na9  1  0.344718  0.163465  0.553421  1
  Na  Na10  1  0.344718  0.663465  0.946579  1
  Na  Na11  1  0.655282  0.836535  0.446579  1
  Na  Na12  1  0.943107  0.465048  0.812857  1
  Na  Na13  1  0.056893  0.034952  0.312857  1
  Na  Na14  1  0.056893  0.534952  0.187143  1
  Na  Na15  1  0.943107  0.965048  0.687143  1
  Na  Na16  1  0.959986  0.654632  0.588549  1
  Na  Na17  1  0.040014  0.845368  0.088549  1
  Na  Na18  1  0.040014  0.345368  0.411451  1
  Na  Na19  1  0.959986  0.154632  0.911451  1
  Sn  Sn20  1  0.659529  0.168493  0.735114  1
  Sn  Sn21  1  0.340471  0.331507  0.235114  1
  Sn  Sn22  1  0.340471  0.831507  0.264886  1
  Sn  Sn23  1  0.659529  0.668493  0.764886  1
  Sn  Sn24  1  0.737593  0.369194  0.593747  1
  Sn  Sn25  1  0.262407  0.130806  0.093747  1
  Sn  Sn26  1  0.262407  0.630806  0.406253  1
  Sn  Sn27  1  0.737593  0.869194  0.906253  1
  Sn  Sn28  1  0.938005  0.222500  0.171974  1
  Sn  Sn29  1  0.061995  0.277500  0.671974  1
  Sn  Sn30  1  0.061995  0.777500  0.828026  1
  Sn  Sn31  1  0.938005  0.722500  0.328026  1
  Tl  Tl32  1  0.779310  0.111499  0.522107  1
  Tl  Tl33  1  0.220690  0.388501  0.022107  1
  Tl  Tl34  1  0.220690  0.888501  0.477893  1
  Tl  Tl35  1  0.779310  0.611499  0.977893  1
