# generated using pymatgen
data_Ta2NiO6
_symmetry_space_group_name_H-M   'P 1'
_cell_length_a   4.78067461
_cell_length_b   4.78067461
_cell_length_c   9.18411953
_cell_angle_alpha   90.00000000
_cell_angle_beta   90.00000000
_cell_angle_gamma   90.00000000
_symmetry_Int_Tables_number   1
_chemical_formula_structural   Ta2NiO6
_chemical_formula_sum   'Ta4 Ni2 O12'
_cell_volume   209.90167173
_cell_formula_units_Z   2
loop_
 _symmetry_equiv_pos_site_id
 _symmetry_equiv_pos_as_xyz
  1  'x, y, z'
loop_
 _atom_site_type_symbol
 _atom_site_label
 _atom_site_symmetry_multiplicity
 _atom_site_fract_x
 _atom_site_fract_y
 _atom_site_fract_z
 _atom_site_occupancy
  O  O0  1  0.702962  0.702962  0.675046  1
  O  O1  1  0.297040  0.297040  0.675046  1
  O  O2  1  0.702962  0.702962  0.324954  1
  O  O3  1  0.202961  0.797039  0.175046  1
  O  O4  1  0.797039  0.202961  0.175046  1
  O  O5  1  0.797039  0.202961  0.824954  1
  O  O6  1  0.310477  0.310477  0.000000  1
  O  O7  1  0.189522  0.810478  0.500000  1
  O  O8  1  0.810478  0.189522  0.500000  1
  O  O9  1  0.202961  0.797039  0.824954  1
  O  O10  1  0.297040  0.297040  0.324954  1
  O  O11  1  0.689523  0.689523  0.000000  1
  Ni  Ni12  1  0.000000  0.000000  0.000000  1
  Ni  Ni13  1  0.500001  0.500001  0.500000  1
  Ta  Ta14  1  0.000000  0.000000  0.331281  1
  Ta  Ta15  1  0.500001  0.500001  0.831281  1
  Ta  Ta16  1  0.500001  0.500001  0.168719  1
  Ta  Ta17  1  0.000000  0.000000  0.668719  1
