# generated using pymatgen
data_Sm3Sb5O12
_symmetry_space_group_name_H-M   'P 1'
_cell_length_a   9.57315390
_cell_length_b   9.57315390
_cell_length_c   9.57315390
_cell_angle_alpha   109.47122063
_cell_angle_beta   109.47122064
_cell_angle_gamma   109.47122064
_symmetry_Int_Tables_number   1
_chemical_formula_structural   Sm3Sb5O12
_chemical_formula_sum   'Sm6 Sb10 O24'
_cell_volume   675.37228009
_cell_formula_units_Z   2
loop_
 _symmetry_equiv_pos_site_id
 _symmetry_equiv_pos_as_xyz
  1  'x, y, z'
loop_
 _atom_site_type_symbol
 _atom_site_label
 _atom_site_symmetry_multiplicity
 _atom_site_fract_x
 _atom_site_fract_y
 _atom_site_fract_z
 _atom_site_occupancy
  O  O0  1  0.275698  0.801030  0.801030  1
  O  O1  1  0.525332  0.525332  0.724302  1
  O  O2  1  0.525332  0.724302  0.525332  1
  O  O3  1  0.198970  0.000000  0.474668  1
  O  O4  1  0.198970  0.474668  0.000000  1
  O  O5  1  0.000000  0.198970  0.474668  1
  O  O6  1  0.000000  0.474668  0.198970  1
  O  O7  1  0.474668  0.198970  0.000000  1
  O  O8  1  0.801030  0.801030  0.275698  1
  O  O9  1  0.801030  0.275698  0.801030  1
  O  O10  1  0.474668  0.000000  0.198970  1
  O  O11  1  0.724302  0.525332  0.525332  1
  O  O12  1  0.800274  0.293427  0.293427  1
  O  O13  1  0.493152  0.493152  0.199726  1
  O  O14  1  0.493152  0.199726  0.493152  1
  O  O15  1  0.706573  0.000000  0.506848  1
  O  O16  1  0.199726  0.493152  0.493152  1
  O  O17  1  0.506848  0.000000  0.706573  1
  O  O18  1  0.293427  0.800274  0.293427  1
  O  O19  1  0.293427  0.293427  0.800274  1
  O  O20  1  0.506848  0.706573  0.000000  1
  O  O21  1  0.000000  0.506848  0.706573  1
  O  O22  1  0.000000  0.706573  0.506848  1
  O  O23  1  0.706573  0.506848  0.000000  1
  Sb  Sb24  1  0.000000  0.000000  0.508983  1
  Sb  Sb25  1  0.000000  0.508983  0.000000  1
  Sb  Sb26  1  0.508983  0.000000  0.000000  1
  Sb  Sb27  1  0.491017  0.491017  0.491017  1
  Sb  Sb28  1  0.717999  0.000000  0.717999  1
  Sb  Sb29  1  0.282001  0.000000  0.282001  1
  Sb  Sb30  1  0.000000  0.282001  0.282001  1
  Sb  Sb31  1  0.000000  0.717999  0.717999  1
  Sb  Sb32  1  0.717999  0.717999  0.000000  1
  Sb  Sb33  1  0.282001  0.282001  0.000000  1
  Sm  Sm34  1  0.500000  0.750000  0.250000  1
  Sm  Sm35  1  0.250000  0.750000  0.500000  1
  Sm  Sm36  1  0.750000  0.250000  0.500000  1
  Sm  Sm37  1  0.250000  0.500000  0.750000  1
  Sm  Sm38  1  0.750000  0.500000  0.250000  1
  Sm  Sm39  1  0.500000  0.250000  0.750000  1
