# generated using pymatgen
data_Li3V(PO4)2
_symmetry_space_group_name_H-M   'P 1'
_cell_length_a   8.21151791
_cell_length_b   5.47593141
_cell_length_c   6.28559256
_cell_angle_alpha   90.00000000
_cell_angle_beta   90.34381288
_cell_angle_gamma   90.00000000
_symmetry_Int_Tables_number   1
_chemical_formula_structural   Li3V(PO4)2
_chemical_formula_sum   'Li6 V2 P4 O16'
_cell_volume   282.63103664
_cell_formula_units_Z   2
loop_
 _symmetry_equiv_pos_site_id
 _symmetry_equiv_pos_as_xyz
  1  'x, y, z'
loop_
 _atom_site_type_symbol
 _atom_site_label
 _atom_site_symmetry_multiplicity
 _atom_site_fract_x
 _atom_site_fract_y
 _atom_site_fract_z
 _atom_site_occupancy
  Li  Li0  1  0.075876  0.750000  0.273843  1
  Li  Li1  1  0.250255  0.250000  0.499539  1
  Li  Li2  1  0.423966  0.750000  0.726866  1
  Li  Li3  1  0.576033  0.250000  0.273134  1
  Li  Li4  1  0.749744  0.750000  0.500461  1
  Li  Li5  1  0.924123  0.250000  0.726158  1
  O  O6  1  0.283521  0.521152  0.231117  1
  O  O7  1  0.004636  0.250000  0.435977  1
  O  O8  1  0.216472  0.521203  0.768969  1
  O  O9  1  0.216472  0.978798  0.768969  1
  O  O10  1  0.008015  0.250000  0.033349  1
  O  O11  1  0.283521  0.978849  0.231117  1
  O  O12  1  0.491859  0.250000  0.966140  1
  O  O13  1  0.495690  0.250000  0.563431  1
  O  O14  1  0.991986  0.750000  0.966651  1
  O  O15  1  0.508141  0.750000  0.033860  1
  O  O16  1  0.716478  0.021151  0.768884  1
  O  O17  1  0.716478  0.478848  0.768884  1
  O  O18  1  0.783528  0.021202  0.231031  1
  O  O19  1  0.783528  0.478797  0.231031  1
  O  O20  1  0.995364  0.750000  0.564023  1
  O  O21  1  0.504310  0.750000  0.436571  1
  P  P22  1  0.100331  0.750000  0.762697  1
  P  P23  1  0.399610  0.750000  0.237665  1
  P  P24  1  0.600390  0.250000  0.762335  1
  P  P25  1  0.899669  0.250000  0.237303  1
  V  V26  1  0.249960  0.250000  0.999929  1
  V  V27  1  0.750041  0.750000  0.000071  1
