# generated using pymatgen
data_Pr4Se3O4
_symmetry_space_group_name_H-M   'P 1'
_cell_length_a   4.07259238
_cell_length_b   6.88949395
_cell_length_c   8.54234117
_cell_angle_alpha   90.00000000
_cell_angle_beta   90.00000000
_cell_angle_gamma   107.19144567
_symmetry_Int_Tables_number   1
_chemical_formula_structural   Pr4Se3O4
_chemical_formula_sum   'Pr4 Se3 O4'
_cell_volume   228.97348116
_cell_formula_units_Z   1
loop_
 _symmetry_equiv_pos_site_id
 _symmetry_equiv_pos_as_xyz
  1  'x, y, z'
loop_
 _atom_site_type_symbol
 _atom_site_label
 _atom_site_symmetry_multiplicity
 _atom_site_fract_x
 _atom_site_fract_y
 _atom_site_fract_z
 _atom_site_occupancy
  O  O0  1  0.088825  0.177650  0.755681  1
  O  O1  1  0.589422  0.178843  0.000000  1
  O  O2  1  0.088825  0.177650  0.244319  1
  O  O3  1  0.614361  0.228723  0.500000  1
  Se  Se4  1  0.355994  0.711989  0.351156  1
  Se  Se5  1  0.314947  0.629895  0.000000  1
  Se  Se6  1  0.355994  0.711989  0.648844  1
  Pr  Pr7  1  0.683987  0.367974  0.761988  1
  Pr  Pr8  1  0.683987  0.367974  0.238012  1
  Pr  Pr9  1  0.016388  0.032776  0.500000  1
  Pr  Pr10  1  1.001948  1.003897  0.000000  1
