# generated using pymatgen
data_Ti3P
_symmetry_space_group_name_H-M   'P 1'
_cell_length_a   4.97903587
_cell_length_b   9.95669186
_cell_length_c   9.95669186
_cell_angle_alpha   90.00000000
_cell_angle_beta   90.00000000
_cell_angle_gamma   90.00000000
_symmetry_Int_Tables_number   1
_chemical_formula_structural   Ti3P
_chemical_formula_sum   'Ti24 P8'
_cell_volume   493.60027000
_cell_formula_units_Z   8
loop_
 _symmetry_equiv_pos_site_id
 _symmetry_equiv_pos_as_xyz
  1  'x, y, z'
loop_
 _atom_site_type_symbol
 _atom_site_label
 _atom_site_symmetry_multiplicity
 _atom_site_fract_x
 _atom_site_fract_y
 _atom_site_fract_z
 _atom_site_occupancy
  P  P0  1  0.963935  0.543189  0.708601  1
  P  P1  1  0.463935  0.291399  0.043189  1
  P  P2  1  0.463935  0.208601  0.456811  1
  P  P3  1  0.963935  0.956811  0.791399  1
  P  P4  1  0.036065  0.456811  0.291399  1
  P  P5  1  0.536065  0.708601  0.956811  1
  P  P6  1  0.536065  0.791399  0.543189  1
  P  P7  1  0.036065  0.043189  0.208601  1
  Ti  Ti8  1  0.530900  0.110700  0.221663  1
  Ti  Ti9  1  0.030900  0.778337  0.610700  1
  Ti  Ti10  1  0.030900  0.721663  0.889300  1
  Ti  Ti11  1  0.530900  0.389300  0.278337  1
  Ti  Ti12  1  0.469100  0.889300  0.778337  1
  Ti  Ti13  1  0.969100  0.221663  0.389300  1
  Ti  Ti14  1  0.969100  0.278337  0.110700  1
  Ti  Ti15  1  0.469100  0.610700  0.721663  1
  Ti  Ti16  1  0.259993  0.533662  0.069047  1
  Ti  Ti17  1  0.759993  0.930953  0.033662  1
  Ti  Ti18  1  0.759993  0.569047  0.466338  1
  Ti  Ti19  1  0.259993  0.966338  0.430953  1
  Ti  Ti20  1  0.740007  0.466338  0.930953  1
  Ti  Ti21  1  0.240007  0.069047  0.966338  1
  Ti  Ti22  1  0.240007  0.430953  0.533662  1
  Ti  Ti23  1  0.740007  0.033662  0.569047  1
  Ti  Ti24  1  0.784963  0.643078  0.166833  1
  Ti  Ti25  1  0.284963  0.833167  0.143078  1
  Ti  Ti26  1  0.284963  0.666833  0.356922  1
  Ti  Ti27  1  0.784963  0.856922  0.333167  1
  Ti  Ti28  1  0.215037  0.356922  0.833167  1
  Ti  Ti29  1  0.715037  0.166833  0.856922  1
  Ti  Ti30  1  0.715037  0.333167  0.643078  1
  Ti  Ti31  1  0.215037  0.143078  0.666833  1
