# generated using pymatgen
data_Na3CeF7
_symmetry_space_group_name_H-M   'P 1'
_cell_length_a   5.60284350
_cell_length_b   5.60284350
_cell_length_c   6.59856618
_cell_angle_alpha   114.38632814
_cell_angle_beta   114.38632814
_cell_angle_gamma   88.79949810
_symmetry_Int_Tables_number   1
_chemical_formula_structural   Na3CeF7
_chemical_formula_sum   'Na3 Ce1 F7'
_cell_volume   169.01415474
_cell_formula_units_Z   1
loop_
 _symmetry_equiv_pos_site_id
 _symmetry_equiv_pos_as_xyz
  1  'x, y, z'
loop_
 _atom_site_type_symbol
 _atom_site_label
 _atom_site_symmetry_multiplicity
 _atom_site_fract_x
 _atom_site_fract_y
 _atom_site_fract_z
 _atom_site_occupancy
  Ce  Ce0  1  0.958389  0.958389  0.976326  1
  F  F1  1  0.166069  0.166069  0.853893  1
  F  F2  1  0.106443  0.632568  0.748947  1
  F  F3  1  0.346218  0.934724  0.243846  1
  F  F4  1  0.632568  0.106443  0.748947  1
  F  F5  1  0.612015  0.612015  0.709054  1
  F  F6  1  0.934724  0.346218  0.243846  1
  F  F7  1  0.855219  0.855219  0.231141  1
  Na  Na8  1  0.237830  0.777047  0.513742  1
  Na  Na9  1  0.498477  0.498477  0.966517  1
  Na  Na10  1  0.777047  0.237830  0.513742  1
