# generated using pymatgen
data_SmPO4
_symmetry_space_group_name_H-M   'P 1'
_cell_length_a   6.40164888
_cell_length_b   6.78709401
_cell_length_c   6.96476520
_cell_angle_alpha   90.00000000
_cell_angle_beta   90.00000000
_cell_angle_gamma   104.10940699
_symmetry_Int_Tables_number   1
_chemical_formula_structural   SmPO4
_chemical_formula_sum   'Sm4 P4 O16'
_cell_volume   293.48013286
_cell_formula_units_Z   4
loop_
 _symmetry_equiv_pos_site_id
 _symmetry_equiv_pos_as_xyz
  1  'x, y, z'
loop_
 _atom_site_type_symbol
 _atom_site_label
 _atom_site_symmetry_multiplicity
 _atom_site_fract_x
 _atom_site_fract_y
 _atom_site_fract_z
 _atom_site_occupancy
  O  O0  1  0.210776  0.622532  0.290440  1
  O  O1  1  0.289224  0.877468  0.790440  1
  O  O2  1  0.789224  0.377468  0.709560  1
  O  O3  1  0.710776  0.122532  0.209560  1
  O  O4  1  0.311895  0.970216  0.399821  1
  O  O5  1  0.188105  0.529784  0.899821  1
  O  O6  1  0.688105  0.029784  0.600179  1
  O  O7  1  0.811895  0.470216  0.100179  1
  O  O8  1  0.435276  0.250357  0.003014  1
  O  O9  1  0.064724  0.249643  0.503014  1
  O  O10  1  0.564724  0.749643  0.996986  1
  O  O11  1  0.935276  0.750357  0.496986  1
  O  O12  1  0.500705  0.382596  0.333597  1
  O  O13  1  0.999295  0.117404  0.833597  1
  O  O14  1  0.499295  0.617404  0.666403  1
  O  O15  1  0.000705  0.882596  0.166403  1
  P  P16  1  0.111414  0.802215  0.339505  1
  P  P17  1  0.388586  0.697785  0.839505  1
  P  P18  1  0.888586  0.197785  0.660495  1
  P  P19  1  0.611414  0.302215  0.160495  1
  Sm  Sm20  1  0.596038  0.784417  0.344783  1
  Sm  Sm21  1  0.903962  0.715583  0.844783  1
  Sm  Sm22  1  0.403962  0.215583  0.655217  1
  Sm  Sm23  1  0.096038  0.284417  0.155217  1
