# generated using pymatgen
data_Er3Al2
_symmetry_space_group_name_H-M   'P 1'
_cell_length_a   7.53665444
_cell_length_b   8.15944410
_cell_length_c   8.15944410
_cell_angle_alpha   90.00000000
_cell_angle_beta   90.00000000
_cell_angle_gamma   90.00000000
_symmetry_Int_Tables_number   1
_chemical_formula_structural   Er3Al2
_chemical_formula_sum   'Er12 Al8'
_cell_volume   501.76428551
_cell_formula_units_Z   4
loop_
 _symmetry_equiv_pos_site_id
 _symmetry_equiv_pos_as_xyz
  1  'x, y, z'
loop_
 _atom_site_type_symbol
 _atom_site_label
 _atom_site_symmetry_multiplicity
 _atom_site_fract_x
 _atom_site_fract_y
 _atom_site_fract_z
 _atom_site_occupancy
  Al  Al0  1  0.196977  0.380665  0.380665  1
  Al  Al1  1  0.696977  0.119335  0.880665  1
  Al  Al2  1  0.696977  0.880665  0.119335  1
  Al  Al3  1  0.196977  0.619335  0.619335  1
  Al  Al4  1  0.303023  0.880665  0.119335  1
  Al  Al5  1  0.303023  0.119335  0.880665  1
  Al  Al6  1  0.803023  0.380665  0.380665  1
  Al  Al7  1  0.803023  0.619335  0.619335  1
  Er  Er8  1  0.250000  0.000000  0.500000  1
  Er  Er9  1  0.750000  0.000000  0.500000  1
  Er  Er10  1  0.250000  0.500000  0.000000  1
  Er  Er11  1  0.750000  0.500000  0.000000  1
  Er  Er12  1  0.000000  0.150914  0.150914  1
  Er  Er13  1  0.500000  0.349086  0.650914  1
  Er  Er14  1  0.500000  0.650914  0.349086  1
  Er  Er15  1  0.000000  0.849086  0.849086  1
  Er  Er16  1  0.000000  0.701360  0.298640  1
  Er  Er17  1  0.500000  0.201360  0.201360  1
  Er  Er18  1  0.500000  0.798640  0.798640  1
  Er  Er19  1  0.000000  0.298640  0.701360  1
