# generated using pymatgen
data_Cs2PdSe8
_symmetry_space_group_name_H-M   'P 1'
_cell_length_a   12.79849516
_cell_length_b   12.79849516
_cell_length_c   12.79849516
_cell_angle_alpha   106.13068057
_cell_angle_beta   106.13068057
_cell_angle_gamma   116.38123650
_symmetry_Int_Tables_number   1
_chemical_formula_structural   Cs2PdSe8
_chemical_formula_sum   'Cs8 Pd4 Se32'
_cell_volume   1596.00985935
_cell_formula_units_Z   4
loop_
 _symmetry_equiv_pos_site_id
 _symmetry_equiv_pos_as_xyz
  1  'x, y, z'
loop_
 _atom_site_type_symbol
 _atom_site_label
 _atom_site_symmetry_multiplicity
 _atom_site_fract_x
 _atom_site_fract_y
 _atom_site_fract_z
 _atom_site_occupancy
  Se  Se0  1  0.845632  0.932811  0.099909  1
  Se  Se1  1  0.745723  0.845632  0.412821  1
  Se  Se2  1  0.932811  0.332903  0.087179  1
  Se  Se3  1  0.332903  0.745723  0.400091  1
  Se  Se4  1  0.567189  0.654368  0.400091  1
  Se  Se5  1  0.654368  0.754277  0.087179  1
  Se  Se6  1  0.167097  0.567189  0.412821  1
  Se  Se7  1  0.754277  0.167097  0.099909  1
  Se  Se8  1  0.154368  0.067189  0.900091  1
  Se  Se9  1  0.254277  0.154368  0.587179  1
  Se  Se10  1  0.067189  0.667097  0.912821  1
  Se  Se11  1  0.667097  0.254277  0.599909  1
  Se  Se12  1  0.411403  0.790225  0.936885  1
  Se  Se13  1  0.790225  0.353340  0.378822  1
  Se  Se14  1  0.474518  0.411403  0.121178  1
  Se  Se15  1  0.353340  0.474518  0.563115  1
  Se  Se16  1  0.709775  0.088597  0.563115  1
  Se  Se17  1  0.146660  0.709775  0.121178  1
  Se  Se18  1  0.088597  0.025482  0.378822  1
  Se  Se19  1  0.025482  0.146660  0.936885  1
  Se  Se20  1  0.588597  0.209775  0.063115  1
  Se  Se21  1  0.209775  0.646660  0.621178  1
  Se  Se22  1  0.525482  0.588597  0.878822  1
  Se  Se23  1  0.646660  0.525482  0.436885  1
  Se  Se24  1  0.290225  0.911403  0.436885  1
  Se  Se25  1  0.853340  0.290225  0.878822  1
  Se  Se26  1  0.911403  0.974518  0.621178  1
  Se  Se27  1  0.974518  0.853340  0.063115  1
  Se  Se28  1  0.245723  0.832903  0.900091  1
  Se  Se29  1  0.832903  0.432811  0.587179  1
  Se  Se30  1  0.345632  0.245723  0.912821  1
  Se  Se31  1  0.432811  0.345632  0.599909  1
  Pd  Pd32  1  0.375000  0.625000  0.750000  1
  Pd  Pd33  1  0.625000  0.375000  0.250000  1
  Pd  Pd34  1  0.875000  0.125000  0.750000  1
  Pd  Pd35  1  0.125000  0.875000  0.250000  1
  Cs  Cs36  1  0.741409  0.758591  0.750000  1
  Cs  Cs37  1  0.758591  0.508591  0.017181  1
  Cs  Cs38  1  0.991409  0.741409  0.482819  1
  Cs  Cs39  1  0.508591  0.991409  0.750000  1
  Cs  Cs40  1  0.491409  0.008591  0.250000  1
  Cs  Cs41  1  0.008591  0.258591  0.517181  1
  Cs  Cs42  1  0.241409  0.491409  0.982819  1
  Cs  Cs43  1  0.258591  0.241409  0.250000  1
