# generated using pymatgen
data_RbNbO3
_symmetry_space_group_name_H-M   'P 1'
_cell_length_a   5.21371632
_cell_length_b   8.59979227
_cell_length_c   9.15454721
_cell_angle_alpha   114.66867881
_cell_angle_beta   93.78160285
_cell_angle_gamma   94.55812931
_symmetry_Int_Tables_number   1
_chemical_formula_structural   RbNbO3
_chemical_formula_sum   'Rb4 Nb4 O12'
_cell_volume   369.58875863
_cell_formula_units_Z   4
loop_
 _symmetry_equiv_pos_site_id
 _symmetry_equiv_pos_as_xyz
  1  'x, y, z'
loop_
 _atom_site_type_symbol
 _atom_site_label
 _atom_site_symmetry_multiplicity
 _atom_site_fract_x
 _atom_site_fract_y
 _atom_site_fract_z
 _atom_site_occupancy
  O  O0  1  0.149653  0.439443  0.231536  1
  O  O1  1  0.850348  0.560557  0.768464  1
  O  O2  1  0.597244  0.890838  0.314331  1
  O  O3  1  0.402756  0.109163  0.685670  1
  O  O4  1  0.219338  0.782787  0.040496  1
  O  O5  1  0.780662  0.217214  0.959504  1
  O  O6  1  0.716522  0.219751  0.275150  1
  O  O7  1  0.283477  0.780248  0.724849  1
  O  O8  1  0.795269  0.874643  0.704248  1
  O  O9  1  0.204731  0.125356  0.295753  1
  O  O10  1  0.262248  0.074287  0.990981  1
  O  O11  1  0.737753  0.925714  0.009020  1
  Rb  Rb12  1  0.500000  0.500000  1.000000  1
  Rb  Rb13  1  0.499999  0.500000  0.500000  1
  Rb  Rb14  1  0.910282  0.202749  0.597678  1
  Rb  Rb15  1  0.089718  0.797252  0.402323  1
  Nb  Nb16  1  0.998372  0.784531  0.854518  1
  Nb  Nb17  1  0.001628  0.215469  0.145481  1
  Nb  Nb18  1  0.474409  0.988763  0.185318  1
  Nb  Nb19  1  0.525591  0.011236  0.814681  1
