# generated using pymatgen
data_Li3Mn3(PO4)4
_symmetry_space_group_name_H-M   'P 1'
_cell_length_a   7.71108848
_cell_length_b   8.20532814
_cell_length_c   10.05413936
_cell_angle_alpha   90.00000000
_cell_angle_beta   92.62253599
_cell_angle_gamma   90.00000000
_symmetry_Int_Tables_number   1
_chemical_formula_structural   Li3Mn3(PO4)4
_chemical_formula_sum   'Li6 Mn6 P8 O32'
_cell_volume   635.47935179
_cell_formula_units_Z   2
loop_
 _symmetry_equiv_pos_site_id
 _symmetry_equiv_pos_as_xyz
  1  'x, y, z'
loop_
 _atom_site_type_symbol
 _atom_site_label
 _atom_site_symmetry_multiplicity
 _atom_site_fract_x
 _atom_site_fract_y
 _atom_site_fract_z
 _atom_site_occupancy
  Li  Li0  1  0.083632  0.369823  0.299906  1
  Li  Li1  1  0.416368  0.869823  0.950094  1
  Li  Li2  1  0.598377  0.141713  0.549053  1
  Li  Li3  1  0.588525  0.135562  0.047955  1
  Li  Li4  1  0.901623  0.641713  0.700948  1
  Li  Li5  1  0.911475  0.635562  0.202045  1
  O  O6  1  0.257729  0.855981  0.773277  1
  O  O7  1  0.951526  0.859581  0.588435  1
  O  O8  1  0.882427  0.816010  0.343165  1
  O  O9  1  0.843817  0.432857  0.272582  1
  O  O10  1  0.902205  0.814154  0.847791  1
  O  O11  1  0.852433  0.422846  0.762134  1
  O  O12  1  0.047573  0.150752  0.903460  1
  O  O13  1  0.037561  0.129544  0.410439  1
  O  O14  1  0.111685  0.178557  0.654296  1
  O  O15  1  0.157289  0.563685  0.737791  1
  O  O16  1  0.095587  0.192043  0.154469  1
  O  O17  1  0.159867  0.567476  0.224140  1
  O  O18  1  0.955674  0.878347  0.090810  1
  O  O19  1  0.242928  0.359907  0.973555  1
  O  O20  1  0.257073  0.859907  0.276445  1
  O  O21  1  0.242272  0.355981  0.476723  1
  O  O22  1  0.342711  0.063685  0.512209  1
  O  O23  1  0.388316  0.678557  0.595704  1
  O  O24  1  0.340133  0.067476  0.025860  1
  O  O25  1  0.462441  0.629544  0.839561  1
  O  O26  1  0.768394  0.642527  0.022896  1
  O  O27  1  0.452427  0.650752  0.346540  1
  O  O28  1  0.548473  0.359581  0.661565  1
  O  O29  1  0.544326  0.378347  0.159191  1
  O  O30  1  0.617572  0.316010  0.906835  1
  O  O31  1  0.656183  0.932857  0.977419  1
  O  O32  1  0.597796  0.314154  0.402209  1
  O  O33  1  0.647568  0.922846  0.487865  1
  O  O34  1  0.753049  0.632685  0.521702  1
  O  O35  1  0.746950  0.132685  0.728298  1
  O  O36  1  0.731606  0.142527  0.227104  1
  O  O37  1  0.404412  0.692043  0.095531  1
  P  P38  1  0.806905  0.805622  0.484153  1
  P  P39  1  0.810384  0.820310  0.985511  1
  P  P40  1  0.689617  0.320310  0.264489  1
  P  P41  1  0.693096  0.305622  0.765847  1
  P  P42  1  0.309045  0.683245  0.226381  1
  P  P43  1  0.315053  0.683749  0.740065  1
  P  P44  1  0.184946  0.183749  0.509935  1
  P  P45  1  0.190954  0.183245  0.023620  1
  Mn  Mn46  1  0.092276  0.361011  0.812255  1
  Mn  Mn47  1  0.407724  0.861011  0.437744  1
  Mn  Mn48  1  0.504151  0.492293  0.502290  1
  Mn  Mn49  1  0.526423  0.509717  0.001736  1
  Mn  Mn50  1  0.995848  0.992293  0.747711  1
  Mn  Mn51  1  0.973577  0.009717  0.248264  1
