# generated using pymatgen
data_SrNb8O14
_symmetry_space_group_name_H-M   'P 1'
_cell_length_a   6.05374248
_cell_length_b   9.42206637
_cell_length_c   10.45814773
_cell_angle_alpha   90.00000000
_cell_angle_beta   90.00000000
_cell_angle_gamma   90.00000000
_symmetry_Int_Tables_number   1
_chemical_formula_structural   SrNb8O14
_chemical_formula_sum   'Sr2 Nb16 O28'
_cell_volume   596.51981432
_cell_formula_units_Z   2
loop_
 _symmetry_equiv_pos_site_id
 _symmetry_equiv_pos_as_xyz
  1  'x, y, z'
loop_
 _atom_site_type_symbol
 _atom_site_label
 _atom_site_symmetry_multiplicity
 _atom_site_fract_x
 _atom_site_fract_y
 _atom_site_fract_z
 _atom_site_occupancy
  O  O0  1  0.746306  0.505421  0.753724  1
  O  O1  1  0.746306  0.494579  0.246276  1
  O  O2  1  0.253694  0.005420  0.746276  1
  O  O3  1  0.253694  0.994580  0.253724  1
  O  O4  1  0.253694  0.494579  0.246276  1
  O  O5  1  0.253694  0.505421  0.753724  1
  O  O6  1  0.746306  0.994580  0.253724  1
  O  O7  1  0.746306  0.005420  0.746276  1
  O  O8  1  0.253618  0.738680  0.913789  1
  O  O9  1  0.253618  0.261320  0.086212  1
  O  O10  1  0.746381  0.238679  0.586211  1
  O  O11  1  0.746381  0.761321  0.413789  1
  O  O12  1  0.746381  0.261320  0.086212  1
  O  O13  1  0.746381  0.738680  0.913789  1
  O  O14  1  0.253618  0.761321  0.413789  1
  O  O15  1  0.253618  0.238679  0.586211  1
  O  O16  1  0.000000  0.500000  0.000000  1
  O  O17  1  0.000000  0.000000  0.500000  1
  O  O18  1  0.000000  0.233422  0.820722  1
  O  O19  1  0.000000  0.766579  0.179279  1
  O  O20  1  0.000000  0.733421  0.679278  1
  O  O21  1  0.000000  0.266578  0.320722  1
  O  O22  1  0.500000  0.235533  0.348474  1
  O  O23  1  0.000000  0.500000  0.500000  1
  O  O24  1  0.500000  0.735533  0.151527  1
  O  O25  1  0.500000  0.264468  0.848473  1
  O  O26  1  0.000000  0.000000  0.000000  1
  O  O27  1  0.500000  0.764467  0.651527  1
  Sr  Sr28  1  0.500000  0.500000  0.000000  1
  Sr  Sr29  1  0.500000  0.000000  0.500000  1
  Nb  Nb30  1  0.500000  0.119989  0.164806  1
  Nb  Nb31  1  0.000000  0.616589  0.837056  1
  Nb  Nb32  1  0.000000  0.883411  0.337056  1
  Nb  Nb33  1  0.000000  0.116589  0.662944  1
  Nb  Nb34  1  0.500000  0.380010  0.664806  1
  Nb  Nb35  1  0.500000  0.619990  0.335194  1
  Nb  Nb36  1  0.500000  0.880011  0.835194  1
  Nb  Nb37  1  0.000000  0.383411  0.162943  1
  Nb  Nb38  1  0.731470  0.625374  0.576824  1
  Nb  Nb39  1  0.731470  0.374626  0.423176  1
  Nb  Nb40  1  0.268530  0.125374  0.923176  1
  Nb  Nb41  1  0.268530  0.874626  0.076824  1
  Nb  Nb42  1  0.268530  0.374626  0.423176  1
  Nb  Nb43  1  0.268530  0.625374  0.576824  1
  Nb  Nb44  1  0.731470  0.874626  0.076824  1
  Nb  Nb45  1  0.731470  0.125374  0.923176  1
