# generated using pymatgen
data_GaPS4
_symmetry_space_group_name_H-M   'P 1'
_cell_length_a   8.20691729
_cell_length_b   8.64432294
_cell_length_c   9.17571450
_cell_angle_alpha   94.66345410
_cell_angle_beta   90.00000000
_cell_angle_gamma   90.00000000
_symmetry_Int_Tables_number   1
_chemical_formula_structural   GaPS4
_chemical_formula_sum   'Ga4 P4 S16'
_cell_volume   648.79992696
_cell_formula_units_Z   4
loop_
 _symmetry_equiv_pos_site_id
 _symmetry_equiv_pos_as_xyz
  1  'x, y, z'
loop_
 _atom_site_type_symbol
 _atom_site_label
 _atom_site_symmetry_multiplicity
 _atom_site_fract_x
 _atom_site_fract_y
 _atom_site_fract_z
 _atom_site_occupancy
  P  P0  1  0.272522  0.979130  0.347651  1
  P  P1  1  0.227478  0.479130  0.847651  1
  P  P2  1  0.727478  0.020870  0.652349  1
  P  P3  1  0.772522  0.520870  0.152349  1
  S  S4  1  0.513438  0.038344  0.770824  1
  S  S5  1  0.013438  0.461656  0.729176  1
  S  S6  1  0.486562  0.961656  0.229176  1
  S  S7  1  0.986562  0.538344  0.270824  1
  S  S8  1  0.718539  0.205171  0.522577  1
  S  S9  1  0.218539  0.294829  0.977423  1
  S  S10  1  0.281461  0.794829  0.477423  1
  S  S11  1  0.781461  0.705171  0.022577  1
  S  S12  1  0.237429  0.193737  0.461204  1
  S  S13  1  0.737429  0.306263  0.038796  1
  S  S14  1  0.762571  0.806263  0.538796  1
  S  S15  1  0.262571  0.693737  0.961204  1
  S  S16  1  0.064567  0.980470  0.220033  1
  S  S17  1  0.435433  0.480470  0.720033  1
  S  S18  1  0.935433  0.019530  0.779967  1
  S  S19  1  0.564567  0.519530  0.279967  1
  Ga  Ga20  1  0.455842  0.229498  0.616304  1
  Ga  Ga21  1  0.955842  0.270502  0.883696  1
  Ga  Ga22  1  0.544158  0.770502  0.383696  1
  Ga  Ga23  1  0.044158  0.729498  0.116304  1
