# generated using pymatgen
data_BaAs2
_symmetry_space_group_name_H-M   'P 1'
_cell_length_a   6.68505848
_cell_length_b   6.69286844
_cell_length_c   12.77320834
_cell_angle_alpha   90.00000000
_cell_angle_beta   90.00000000
_cell_angle_gamma   104.23749404
_symmetry_Int_Tables_number   1
_chemical_formula_structural   BaAs2
_chemical_formula_sum   'Ba6 As12'
_cell_volume   553.94776421
_cell_formula_units_Z   6
loop_
 _symmetry_equiv_pos_site_id
 _symmetry_equiv_pos_as_xyz
  1  'x, y, z'
loop_
 _atom_site_type_symbol
 _atom_site_label
 _atom_site_symmetry_multiplicity
 _atom_site_fract_x
 _atom_site_fract_y
 _atom_site_fract_z
 _atom_site_occupancy
  As  As0  1  0.169574  0.841901  0.576340  1
  As  As1  1  0.669574  0.341901  0.423660  1
  As  As2  1  0.257055  0.788131  0.390072  1
  As  As3  1  0.757055  0.288131  0.609928  1
  As  As4  1  0.113836  0.497823  0.656111  1
  As  As5  1  0.613836  0.997823  0.343889  1
  As  As6  1  0.003607  0.008216  0.015483  1
  As  As7  1  0.503607  0.508216  0.984517  1
  As  As8  1  0.329366  0.536576  0.151906  1
  As  As9  1  0.829366  0.036576  0.848094  1
  As  As10  1  0.990608  0.250751  0.158183  1
  As  As11  1  0.490608  0.750751  0.841817  1
  Ba  Ba12  1  0.352478  0.179075  0.772538  1
  Ba  Ba13  1  0.852478  0.679075  0.227462  1
  Ba  Ba14  1  0.992582  0.547048  0.918080  1
  Ba  Ba15  1  0.492582  0.047048  0.081920  1
  Ba  Ba16  1  0.644196  0.749877  0.575932  1
  Ba  Ba17  1  0.144196  0.249877  0.424068  1
