# generated using pymatgen
data_Dy3GaO6
_symmetry_space_group_name_H-M   'P 1'
_cell_length_a   5.44207189
_cell_length_b   7.14544948
_cell_length_c   7.14544951
_cell_angle_alpha   102.81250414
_cell_angle_beta   90.00000000
_cell_angle_gamma   90.00000000
_symmetry_Int_Tables_number   1
_chemical_formula_structural   Dy3GaO6
_chemical_formula_sum   'Dy6 Ga2 O12'
_cell_volume   270.93990585
_cell_formula_units_Z   2
loop_
 _symmetry_equiv_pos_site_id
 _symmetry_equiv_pos_as_xyz
  1  'x, y, z'
loop_
 _atom_site_type_symbol
 _atom_site_label
 _atom_site_symmetry_multiplicity
 _atom_site_fract_x
 _atom_site_fract_y
 _atom_site_fract_z
 _atom_site_occupancy
  Dy  Dy0  1  0.529828  0.298654  0.087712  1
  Dy  Dy1  1  0.029828  0.701346  0.912288  1
  Dy  Dy2  1  0.529828  0.912288  0.701346  1
  Dy  Dy3  1  0.029828  0.087712  0.298654  1
  Dy  Dy4  1  0.576805  0.397919  0.602081  1
  Dy  Dy5  1  0.076805  0.602081  0.397919  1
  Ga  Ga6  1  -0.000134  0.193787  0.806213  1
  Ga  Ga7  1  0.499866  0.806213  0.193787  1
  O  O8  1  0.819836  0.422212  0.893911  1
  O  O9  1  0.319836  0.577788  0.106089  1
  O  O10  1  0.819836  0.106089  0.577788  1
  O  O11  1  0.319836  0.893911  0.422212  1
  O  O12  1  0.801708  0.355758  0.323733  1
  O  O13  1  0.301708  0.644242  0.676267  1
  O  O14  1  0.801708  0.676267  0.644242  1
  O  O15  1  0.301708  0.323733  0.355758  1
  O  O16  1  0.863118  0.038408  0.961592  1
  O  O17  1  0.363118  0.961592  0.038408  1
  O  O18  1  0.337596  0.216178  0.783822  1
  O  O19  1  0.837596  0.783822  0.216178  1
