# generated using pymatgen
data_Mg(GaO2)2
_symmetry_space_group_name_H-M   'P 1'
_cell_length_a   5.93330013
_cell_length_b   5.98204261
_cell_length_c   17.80951072
_cell_angle_alpha   59.73916623
_cell_angle_beta   59.75917551
_cell_angle_gamma   59.70137151
_symmetry_Int_Tables_number   1
_chemical_formula_structural   Mg(GaO2)2
_chemical_formula_sum   'Mg6 Ga12 O24'
_cell_volume   444.26645297
_cell_formula_units_Z   6
loop_
 _symmetry_equiv_pos_site_id
 _symmetry_equiv_pos_as_xyz
  1  'x, y, z'
loop_
 _atom_site_type_symbol
 _atom_site_label
 _atom_site_symmetry_multiplicity
 _atom_site_fract_x
 _atom_site_fract_y
 _atom_site_fract_z
 _atom_site_occupancy
  Ga  Ga0  1  0.133379  0.113870  0.379521  1
  Ga  Ga1  1  0.496960  0.003287  0.167523  1
  Ga  Ga2  1  0.495136  0.495796  0.004447  1
  Ga  Ga3  1  0.497019  0.497119  0.167505  1
  Ga  Ga4  1  0.500293  0.000532  0.499703  1
  Ga  Ga5  1  0.137640  0.117603  0.709057  1
  Ga  Ga6  1  0.500285  0.500147  0.499682  1
  Ga  Ga7  1  0.498914  0.006242  0.831721  1
  Ga  Ga8  1  0.865309  0.884749  0.288523  1
  Ga  Ga9  1  0.498901  0.499708  0.831711  1
  Ga  Ga10  1  0.865224  0.884990  0.621666  1
  Ga  Ga11  1  0.860397  0.881161  0.959141  1
  Mg  Mg12  1  0.135422  0.120147  0.041338  1
  Mg  Mg13  1  0.001488  0.497846  0.167619  1
  Mg  Mg14  1  0.000188  0.500179  0.499837  1
  Mg  Mg15  1  0.499946  0.500449  0.333026  1
  Mg  Mg16  1  0.002934  0.500479  0.832039  1
  Mg  Mg17  1  0.500191  0.500598  0.666193  1
  O  O18  1  0.271788  0.254093  0.086398  1
  O  O19  1  0.258112  0.248296  0.248412  1
  O  O20  1  0.271742  0.714607  0.086487  1
  O  O21  1  0.720801  0.257687  0.087848  1
  O  O22  1  0.262229  0.247147  0.420856  1
  O  O23  1  0.264541  0.750418  0.244919  1
  O  O24  1  0.737633  0.747073  0.089400  1
  O  O25  1  0.738703  0.270797  0.245538  1
  O  O26  1  0.264310  0.252138  0.577140  1
  O  O27  1  0.262205  0.727811  0.420923  1
  O  O28  1  0.734148  0.250974  0.421264  1
  O  O29  1  0.738670  0.753958  0.245626  1
  O  O30  1  0.260314  0.247626  0.752873  1
  O  O31  1  0.264345  0.749055  0.579216  1
  O  O32  1  0.738059  0.270938  0.579469  1
  O  O33  1  0.737198  0.748864  0.421709  1
  O  O34  1  0.260267  0.733382  0.752908  1
  O  O35  1  0.276634  0.256861  0.903220  1
  O  O36  1  0.738002  0.752604  0.579544  1
  O  O37  1  0.741204  0.249943  0.752955  1
  O  O38  1  0.266444  0.743636  0.915447  1
  O  O39  1  0.733898  0.748903  0.756107  1
  O  O40  1  0.734565  0.273535  0.915727  1
  O  O41  1  0.734565  0.744752  0.915762  1
