# generated using pymatgen
data_Bi2(MoO4)3
_symmetry_space_group_name_H-M   'P 1'
_cell_length_a   7.83609426
_cell_length_b   11.45331711
_cell_length_c   11.63430603
_cell_angle_alpha   90.00000000
_cell_angle_beta   90.00000000
_cell_angle_gamma   105.54537795
_symmetry_Int_Tables_number   1
_chemical_formula_structural   Bi2(MoO4)3
_chemical_formula_sum   'Bi8 Mo12 O48'
_cell_volume   1005.97317770
_cell_formula_units_Z   4
loop_
 _symmetry_equiv_pos_site_id
 _symmetry_equiv_pos_as_xyz
  1  'x, y, z'
loop_
 _atom_site_type_symbol
 _atom_site_label
 _atom_site_symmetry_multiplicity
 _atom_site_fract_x
 _atom_site_fract_y
 _atom_site_fract_z
 _atom_site_occupancy
  O  O0  1  0.909958  0.596173  0.028628  1
  O  O1  1  0.590042  0.903827  0.528628  1
  O  O2  1  0.090042  0.403827  0.971372  1
  O  O3  1  0.409958  0.096173  0.471372  1
  O  O4  1  0.003162  0.845259  0.064427  1
  O  O5  1  0.496838  0.654741  0.564427  1
  O  O6  1  0.996838  0.154741  0.935573  1
  O  O7  1  0.503162  0.345259  0.435573  1
  O  O8  1  0.432840  0.574599  0.046990  1
  O  O9  1  0.067160  0.925401  0.546990  1
  O  O10  1  0.567160  0.425401  0.953010  1
  O  O11  1  0.932840  0.074599  0.453010  1
  O  O12  1  0.674023  0.976768  0.062099  1
  O  O13  1  0.825977  0.523232  0.562099  1
  O  O14  1  0.325977  0.023232  0.937901  1
  O  O15  1  0.174023  0.476768  0.437901  1
  O  O16  1  0.744512  0.696241  0.207630  1
  O  O17  1  0.200916  0.710802  0.192021  1
  O  O18  1  0.799084  0.289198  0.807979  1
  O  O19  1  0.700916  0.210802  0.307979  1
  O  O20  1  0.680872  0.218076  0.044013  1
  O  O21  1  0.819128  0.281924  0.544014  1
  O  O22  1  0.319128  0.781924  0.955986  1
  O  O23  1  0.180872  0.718076  0.455987  1
  O  O24  1  0.321164  0.260255  0.051612  1
  O  O25  1  0.178836  0.239745  0.551612  1
  O  O26  1  0.678836  0.739745  0.948388  1
  O  O27  1  0.821164  0.760255  0.448388  1
  O  O28  1  0.929726  0.146067  0.194178  1
  O  O29  1  0.570274  0.353933  0.694178  1
  O  O30  1  0.070274  0.853933  0.805822  1
  O  O31  1  0.429726  0.646067  0.305822  1
  O  O32  1  0.549903  0.427123  0.210794  1
  O  O33  1  0.950097  0.072877  0.710794  1
  O  O34  1  0.450097  0.572877  0.789206  1
  O  O35  1  0.049903  0.927123  0.289206  1
  O  O36  1  0.195131  0.423016  0.204574  1
  O  O37  1  0.304869  0.076984  0.704574  1
  O  O38  1  0.804869  0.576984  0.795426  1
  O  O39  1  0.695131  0.923016  0.295426  1
  O  O40  1  0.447996  0.075497  0.207980  1
  O  O41  1  0.052004  0.424503  0.707980  1
  O  O42  1  0.552004  0.924503  0.792020  1
  O  O43  1  0.947996  0.575497  0.292020  1
  O  O44  1  0.244512  0.196241  0.292370  1
  O  O45  1  0.255488  0.303759  0.792370  1
  O  O46  1  0.755488  0.803759  0.707630  1
  O  O47  1  0.299084  0.789198  0.692021  1
  Mo  Mo48  1  0.968238  0.703215  0.136085  1
  Mo  Mo49  1  0.531762  0.796785  0.636085  1
  Mo  Mo50  1  0.031762  0.296785  0.863915  1
  Mo  Mo51  1  0.468238  0.203215  0.363915  1
  Mo  Mo52  1  0.184867  0.609098  0.352018  1
  Mo  Mo53  1  0.315133  0.890902  0.852018  1
  Mo  Mo54  1  0.815133  0.390902  0.647982  1
  Mo  Mo55  1  0.684867  0.109098  0.147982  1
  Mo  Mo56  1  0.873155  0.918057  0.386566  1
  Mo  Mo57  1  0.626845  0.581943  0.886566  1
  Mo  Mo58  1  0.126845  0.081943  0.613434  1
  Mo  Mo59  1  0.373155  0.418057  0.113434  1
  Bi  Bi60  1  0.671491  0.579454  0.368024  1
  Bi  Bi61  1  0.828509  0.920546  0.868024  1
  Bi  Bi62  1  0.328509  0.420546  0.631976  1
  Bi  Bi63  1  0.171491  0.079454  0.131976  1
  Bi  Bi64  1  0.501340  0.754811  0.133030  1
  Bi  Bi65  1  0.998660  0.745189  0.633030  1
  Bi  Bi66  1  0.498660  0.245189  0.866970  1
  Bi  Bi67  1  0.001340  0.254811  0.366970  1
