# generated using pymatgen
data_ThCo
_symmetry_space_group_name_H-M   'P 1'
_cell_length_a   3.72566099
_cell_length_b   3.98461380
_cell_length_c   5.89502225
_cell_angle_alpha   90.00000000
_cell_angle_beta   108.42122884
_cell_angle_gamma   90.00000000
_symmetry_Int_Tables_number   1
_chemical_formula_structural   ThCo
_chemical_formula_sum   'Th2 Co2'
_cell_volume   83.02921344
_cell_formula_units_Z   2
loop_
 _symmetry_equiv_pos_site_id
 _symmetry_equiv_pos_as_xyz
  1  'x, y, z'
loop_
 _atom_site_type_symbol
 _atom_site_label
 _atom_site_symmetry_multiplicity
 _atom_site_fract_x
 _atom_site_fract_y
 _atom_site_fract_z
 _atom_site_occupancy
  Co  Co0  1  0.592467  0.250000  0.184934  1
  Co  Co1  1  0.407533  0.750000  0.815066  1
  Th  Th2  1  0.866586  0.250000  0.733172  1
  Th  Th3  1  0.133414  0.750000  0.266828  1
