# generated using pymatgen
data_ZrUN2
_symmetry_space_group_name_H-M   'P 1'
_cell_length_a   6.69917099
_cell_length_b   8.85922683
_cell_length_c   5.79715312
_cell_angle_alpha   29.21159998
_cell_angle_beta   54.70416190
_cell_angle_gamma   40.87139549
_symmetry_Int_Tables_number   1
_chemical_formula_structural   ZrUN2
_chemical_formula_sum   'Zr2 U2 N4'
_cell_volume   106.17263074
_cell_formula_units_Z   2
loop_
 _symmetry_equiv_pos_site_id
 _symmetry_equiv_pos_as_xyz
  1  'x, y, z'
loop_
 _atom_site_type_symbol
 _atom_site_label
 _atom_site_symmetry_multiplicity
 _atom_site_fract_x
 _atom_site_fract_y
 _atom_site_fract_z
 _atom_site_occupancy
  Zr  Zr0  1  0.000000  -0.000000  -0.000000  1
  Zr  Zr1  1  0.750000  0.500000  -0.000000  1
  U  U2  1  0.500000  -0.000000  -0.000000  1
  U  U3  1  0.250000  0.500000  -0.000000  1
  N  N4  1  0.246965  0.000000  0.506070  1
  N  N5  1  0.753035  1.000000  0.493930  1
  N  N6  1  0.503035  0.500000  0.493930  1
  N  N7  1  0.996965  0.500000  0.506070  1
