# generated using pymatgen
data_Li3Mn2(PO4)3
_symmetry_space_group_name_H-M   'P 1'
_cell_length_a   8.50426482
_cell_length_b   8.72346380
_cell_length_c   12.20891016
_cell_angle_alpha   90.00000000
_cell_angle_beta   86.88013239
_cell_angle_gamma   90.00000000
_symmetry_Int_Tables_number   1
_chemical_formula_structural   Li3Mn2(PO4)3
_chemical_formula_sum   'Li12 Mn8 P12 O48'
_cell_volume   904.39566751
_cell_formula_units_Z   4
loop_
 _symmetry_equiv_pos_site_id
 _symmetry_equiv_pos_as_xyz
  1  'x, y, z'
loop_
 _atom_site_type_symbol
 _atom_site_label
 _atom_site_symmetry_multiplicity
 _atom_site_fract_x
 _atom_site_fract_y
 _atom_site_fract_z
 _atom_site_occupancy
  Li  Li0  1  0.939047  0.487017  0.343201  1
  Li  Li1  1  0.322578  0.284661  0.675746  1
  Li  Li2  1  0.060953  0.512983  0.656799  1
  Li  Li3  1  0.822578  0.215339  0.175746  1
  Li  Li4  1  0.583498  0.415599  0.811986  1
  Li  Li5  1  0.916502  0.915599  0.688014  1
  Li  Li6  1  0.439047  0.012983  0.843201  1
  Li  Li7  1  0.177422  0.784661  0.824254  1
  Li  Li8  1  0.560953  0.987017  0.156799  1
  Li  Li9  1  0.677422  0.715339  0.324254  1
  Li  Li10  1  0.416502  0.584401  0.188014  1
  Li  Li11  1  0.083498  0.084401  0.311986  1
  Mn  Mn12  1  0.753219  0.536059  0.107904  1
  Mn  Mn13  1  0.254860  0.531888  0.396960  1
  Mn  Mn14  1  0.754860  0.968112  0.896960  1
  Mn  Mn15  1  0.246781  0.463941  0.892096  1
  Mn  Mn16  1  0.245140  0.031888  0.103040  1
  Mn  Mn17  1  0.745140  0.468112  0.603040  1
  Mn  Mn18  1  0.746781  0.036059  0.392096  1
  Mn  Mn19  1  0.253219  0.963941  0.607904  1
  P  P20  1  0.885279  0.889465  0.152345  1
  P  P21  1  0.884893  0.620982  0.852004  1
  P  P22  1  0.047157  0.250042  0.509793  1
  P  P23  1  0.614721  0.389465  0.347655  1
  P  P24  1  0.547157  0.249958  0.009793  1
  P  P25  1  0.385279  0.610535  0.652345  1
  P  P26  1  0.384893  0.879018  0.352004  1
  P  P27  1  0.114721  0.110535  0.847655  1
  P  P28  1  0.952843  0.749958  0.490207  1
  P  P29  1  0.452843  0.750042  0.990207  1
  P  P30  1  0.615107  0.120982  0.647996  1
  P  P31  1  0.115107  0.379018  0.147996  1
  O  O32  1  0.193123  0.180313  0.562555  1
  O  O33  1  0.622186  0.300574  0.667746  1
  O  O34  1  0.671810  0.227604  0.310070  1
  O  O35  1  0.443959  0.391408  0.394442  1
  O  O36  1  0.693123  0.319687  0.062555  1
  O  O37  1  0.105868  0.365670  0.418234  1
  O  O38  1  0.944619  0.333598  0.600614  1
  O  O39  1  0.621931  0.501307  0.244380  1
  O  O40  1  0.366730  0.906408  0.476713  1
  O  O41  1  0.878069  0.001307  0.255620  1
  O  O42  1  0.121931  0.998693  0.744380  1
  O  O43  1  0.042661  0.868838  0.554024  1
  O  O44  1  0.828190  0.727604  0.189930  1
  O  O45  1  0.555381  0.833598  0.899386  1
  O  O46  1  0.877814  0.800574  0.832254  1
  O  O47  1  0.942504  0.415208  0.189848  1
  O  O48  1  0.731528  0.031281  0.713420  1
  O  O49  1  0.733879  0.458182  0.425610  1
  O  O50  1  0.233879  0.041818  0.925610  1
  O  O51  1  0.557496  0.915208  0.310152  1
  O  O52  1  0.768472  0.531281  0.786580  1
  O  O53  1  0.444619  0.166402  0.100614  1
  O  O54  1  0.055381  0.666402  0.399386  1
  O  O55  1  0.457339  0.368838  0.945976  1
  O  O56  1  0.943959  0.108592  0.894442  1
  O  O57  1  0.806877  0.819687  0.437445  1
  O  O58  1  0.328190  0.772396  0.689930  1
  O  O59  1  0.866730  0.593592  0.976713  1
  O  O60  1  0.378069  0.498693  0.755620  1
  O  O61  1  0.894132  0.634330  0.581766  1
  O  O62  1  0.231528  0.468719  0.213420  1
  O  O63  1  0.766121  0.958182  0.074390  1
  O  O64  1  0.442504  0.084792  0.689848  1
  O  O65  1  0.122186  0.199426  0.167746  1
  O  O66  1  0.957339  0.131162  0.445976  1
  O  O67  1  0.394132  0.865670  0.081766  1
  O  O68  1  0.556041  0.608592  0.605558  1
  O  O69  1  0.542661  0.631162  0.054024  1
  O  O70  1  0.171810  0.272396  0.810070  1
  O  O71  1  0.133270  0.406408  0.023287  1
  O  O72  1  0.268472  0.968719  0.286580  1
  O  O73  1  0.306877  0.680313  0.937445  1
  O  O74  1  0.266121  0.541818  0.574390  1
  O  O75  1  0.056041  0.891408  0.105558  1
  O  O76  1  0.057496  0.584792  0.810152  1
  O  O77  1  0.377814  0.699426  0.332254  1
  O  O78  1  0.605868  0.134330  0.918234  1
  O  O79  1  0.633270  0.093592  0.523287  1
