# generated using pymatgen
data_BaLaTiCrO6
_symmetry_space_group_name_H-M   'P 1'
_cell_length_a   3.98400865
_cell_length_b   31.87030498
_cell_length_c   5.65729575
_cell_angle_alpha   44.76185660
_cell_angle_beta   90.00000000
_cell_angle_gamma   90.00000000
_symmetry_Int_Tables_number   1
_chemical_formula_structural   BaLaTiCrO6
_chemical_formula_sum   'Ba4 La4 Ti4 Cr4 O24'
_cell_volume   505.81040426
_cell_formula_units_Z   4
loop_
 _symmetry_equiv_pos_site_id
 _symmetry_equiv_pos_as_xyz
  1  'x, y, z'
loop_
 _atom_site_type_symbol
 _atom_site_label
 _atom_site_symmetry_multiplicity
 _atom_site_fract_x
 _atom_site_fract_y
 _atom_site_fract_z
 _atom_site_occupancy
  Ba  Ba0  1  0.000000  0.995597  0.017612  1
  Ba  Ba1  1  0.000000  0.123477  0.006093  1
  Ba  Ba2  1  0.000000  0.251523  0.993907  1
  Ba  Ba3  1  0.000000  0.379403  0.982388  1
  La  La4  1  0.000000  0.506967  0.972132  1
  La  La5  1  0.000000  0.750850  0.996599  1
  La  La6  1  0.000000  0.624150  0.003401  1
  La  La7  1  0.000000  0.868033  0.027868  1
  Ti  Ti8  1  0.500000  0.123449  0.506203  1
  Ti  Ti9  1  0.500000  0.380433  0.478267  1
  Ti  Ti10  1  0.500000  0.251551  0.493797  1
  Ti  Ti11  1  0.500000  0.994567  0.521733  1
  Cr  Cr12  1  0.500000  0.626632  0.493473  1
  Cr  Cr13  1  0.500000  0.503292  0.486832  1
  Cr  Cr14  1  0.500000  0.748368  0.506527  1
  Cr  Cr15  1  0.500000  0.871708  0.513168  1
  O  O16  1  0.500000  0.059436  0.512910  1
  O  O17  1  0.500000  0.187500  0.500000  1
  O  O18  1  0.500000  0.315564  0.487090  1
  O  O19  1  0.500000  0.564754  0.491350  1
  O  O20  1  0.500000  0.443703  0.460898  1
  O  O21  1  0.500000  0.687500  0.500000  1
  O  O22  1  0.500000  0.810246  0.508650  1
  O  O23  1  0.500000  0.931297  0.539102  1
  O  O24  1  0.500000  0.059436  0.011606  1
  O  O25  1  0.500000  0.187500  0.000000  1
  O  O26  1  0.500000  0.315564  0.988394  1
  O  O27  1  0.500000  0.443703  0.989476  1
  O  O28  1  0.500000  0.564754  0.990615  1
  O  O29  1  0.500000  0.810246  0.009385  1
  O  O30  1  0.500000  0.687500  0.000000  1
  O  O31  1  0.500000  0.931297  0.010524  1
  O  O32  1  0.000000  0.123781  0.504878  1
  O  O33  1  0.000000  0.251219  0.495122  1
  O  O34  1  0.000000  0.382714  0.469145  1
  O  O35  1  0.000000  0.510847  0.456614  1
  O  O36  1  0.000000  0.623414  0.506346  1
  O  O37  1  0.000000  0.751586  0.493654  1
  O  O38  1  0.000000  0.864153  0.543386  1
  O  O39  1  0.000000  0.992286  0.530855  1
