# generated using pymatgen
data_Lu2S3
_symmetry_space_group_name_H-M   'P 1'
_cell_length_a   21.22161039
_cell_length_b   8.17577408
_cell_length_c   8.17577359
_cell_angle_alpha   89.99999343
_cell_angle_beta   54.69803836
_cell_angle_gamma   54.69804076
_symmetry_Int_Tables_number   1
_chemical_formula_structural   Lu2S3
_chemical_formula_sum   'Lu16 S24'
_cell_volume   817.46342327
_cell_formula_units_Z   8
loop_
 _symmetry_equiv_pos_site_id
 _symmetry_equiv_pos_as_xyz
  1  'x, y, z'
loop_
 _atom_site_type_symbol
 _atom_site_label
 _atom_site_symmetry_multiplicity
 _atom_site_fract_x
 _atom_site_fract_y
 _atom_site_fract_z
 _atom_site_occupancy
  Lu  Lu0  1  0.993465  0.399407  0.248599  1
  Lu  Lu1  1  0.993465  0.120198  0.771006  1
  Lu  Lu2  1  0.086582  0.620126  0.370126  1
  Lu  Lu3  1  0.166667  0.250000  0.633357  1
  Lu  Lu4  1  0.339868  0.379802  0.251401  1
  Lu  Lu5  1  0.246751  0.879874  0.129874  1
  Lu  Lu6  1  0.339868  0.100593  0.728994  1
  Lu  Lu7  1  0.166667  0.750000  0.866643  1
  Lu  Lu8  1  0.493465  0.271006  0.620198  1
  Lu  Lu9  1  0.666667  0.366643  0.250000  1
  Lu  Lu10  1  0.586582  0.870126  0.120126  1
  Lu  Lu11  1  0.666667  0.133357  0.750000  1
  Lu  Lu12  1  0.493465  0.748599  0.899407  1
  Lu  Lu13  1  0.746751  0.629874  0.379874  1
  Lu  Lu14  1  0.839868  0.228994  0.600593  1
  Lu  Lu15  1  0.839868  0.751401  0.879802  1
  S  S16  1  0.130512  0.486219  0.989806  1
  S  S17  1  0.046308  0.363737  0.492309  1
  S  S18  1  0.287025  0.136263  0.131233  1
  S  S19  1  0.046308  0.997339  0.368767  1
  S  S20  1  0.287025  0.502661  0.007691  1
  S  S21  1  0.130512  0.622244  0.618657  1
  S  S22  1  0.202821  0.013781  0.881343  1
  S  S23  1  0.202821  0.877756  0.510194  1
  S  S24  1  0.452767  0.492676  0.998076  1
  S  S25  1  0.380567  0.356377  0.507324  1
  S  S26  1  0.630512  0.118657  0.122244  1
  S  S27  1  0.380567  0.001924  0.350977  1
  S  S28  1  0.630512  0.489806  0.986219  1
  S  S29  1  0.546308  0.992309  0.863737  1
  S  S30  1  0.452767  0.649023  0.643623  1
  S  S31  1  0.546308  0.868767  0.497339  1
  S  S32  1  0.787025  0.507691  0.002661  1
  S  S33  1  0.702821  0.381343  0.513781  1
  S  S34  1  0.702821  0.010194  0.377756  1
  S  S35  1  0.952767  0.143623  0.149023  1
  S  S36  1  0.952767  0.498076  0.992676  1
  S  S37  1  0.880567  0.007324  0.856377  1
  S  S38  1  0.787025  0.631233  0.636263  1
  S  S39  1  0.880567  0.850977  0.501924  1
