# generated using pymatgen
data_Ho3Ge3Ru2
_symmetry_space_group_name_H-M   'P 1'
_cell_length_a   4.26263739
_cell_length_b   5.81425284
_cell_length_c   13.92064598
_cell_angle_alpha   90.00000000
_cell_angle_beta   90.00000000
_cell_angle_gamma   111.50410834
_symmetry_Int_Tables_number   1
_chemical_formula_structural   Ho3Ge3Ru2
_chemical_formula_sum   'Ho6 Ge6 Ru4'
_cell_volume   320.99430482
_cell_formula_units_Z   2
loop_
 _symmetry_equiv_pos_site_id
 _symmetry_equiv_pos_as_xyz
  1  'x, y, z'
loop_
 _atom_site_type_symbol
 _atom_site_label
 _atom_site_symmetry_multiplicity
 _atom_site_fract_x
 _atom_site_fract_y
 _atom_site_fract_z
 _atom_site_occupancy
  Ge  Ge0  1  0.836067  0.672135  0.250000  1
  Ge  Ge1  1  0.163933  0.327865  0.750000  1
  Ge  Ge2  1  0.884326  0.768653  0.540562  1
  Ge  Ge3  1  0.115674  0.231347  0.459438  1
  Ge  Ge4  1  0.115674  0.231347  0.040562  1
  Ge  Ge5  1  0.884326  0.768653  0.959438  1
  Ru  Ru6  1  0.286668  0.573337  0.582671  1
  Ru  Ru7  1  0.713332  0.426663  0.417329  1
  Ru  Ru8  1  0.713332  0.426663  0.082671  1
  Ru  Ru9  1  0.286668  0.573337  0.917329  1
  Ho  Ho10  1  0.146580  0.293160  0.250000  1
  Ho  Ho11  1  0.853420  0.706840  0.750000  1
  Ho  Ho12  1  0.578202  0.156404  0.886877  1
  Ho  Ho13  1  0.421798  0.843596  0.113123  1
  Ho  Ho14  1  0.421798  0.843596  0.386877  1
  Ho  Ho15  1  0.578202  0.156404  0.613123  1
