# generated using pymatgen
data_BaAgBi
_symmetry_space_group_name_H-M   'P 1'
_cell_length_a   5.84359309
_cell_length_b   5.84359410
_cell_length_c   7.07751712
_cell_angle_alpha   90.00000000
_cell_angle_beta   90.00000000
_cell_angle_gamma   120.03213214
_symmetry_Int_Tables_number   1
_chemical_formula_structural   BaAgBi
_chemical_formula_sum   'Ba2 Ag2 Bi2'
_cell_volume   209.23332649
_cell_formula_units_Z   2
loop_
 _symmetry_equiv_pos_site_id
 _symmetry_equiv_pos_as_xyz
  1  'x, y, z'
loop_
 _atom_site_type_symbol
 _atom_site_label
 _atom_site_symmetry_multiplicity
 _atom_site_fract_x
 _atom_site_fract_y
 _atom_site_fract_z
 _atom_site_occupancy
  Ba  Ba0  1  0.333360  0.666641  0.249999  1
  Ba  Ba1  1  0.666639  0.333360  0.749999  1
  Ag  Ag2  1  0.000000  0.000000  0.000000  1
  Ag  Ag3  1  0.000000  0.000000  0.500000  1
  Bi  Bi4  1  0.333415  0.666586  0.749999  1
  Bi  Bi5  1  0.666586  0.333415  0.249999  1
