# generated using pymatgen
data_TaGaO4
_symmetry_space_group_name_H-M   'P 1'
_cell_length_a   9.37572828
_cell_length_b   5.00373026
_cell_length_c   5.64099319
_cell_angle_alpha   90.00000000
_cell_angle_beta   90.00000000
_cell_angle_gamma   90.00000000
_symmetry_Int_Tables_number   1
_chemical_formula_structural   TaGaO4
_chemical_formula_sum   'Ta4 Ga4 O16'
_cell_volume   264.63938445
_cell_formula_units_Z   4
loop_
 _symmetry_equiv_pos_site_id
 _symmetry_equiv_pos_as_xyz
  1  'x, y, z'
loop_
 _atom_site_type_symbol
 _atom_site_label
 _atom_site_symmetry_multiplicity
 _atom_site_fract_x
 _atom_site_fract_y
 _atom_site_fract_z
 _atom_site_occupancy
  Ga  Ga0  1  0.254765  0.245321  0.684854  1
  Ga  Ga1  1  0.495235  0.745321  0.815146  1
  Ga  Ga2  1  0.754765  0.745321  0.315146  1
  Ga  Ga3  1  0.995235  0.245321  0.184854  1
  O  O4  1  0.115454  0.075374  0.895213  1
  O  O5  1  0.112235  0.575706  0.126213  1
  O  O6  1  0.134546  0.075374  0.395213  1
  O  O7  1  0.137765  0.575706  0.626213  1
  O  O8  1  0.366644  0.423322  0.387492  1
  O  O9  1  0.361764  0.917581  0.608457  1
  O  O10  1  0.383356  0.923322  0.112508  1
  O  O11  1  0.388236  0.417581  0.891543  1
  O  O12  1  0.612235  0.075706  0.873787  1
  O  O13  1  0.615454  0.575374  0.104787  1
  O  O14  1  0.637765  0.075706  0.373787  1
  O  O15  1  0.634546  0.575374  0.604787  1
  O  O16  1  0.861764  0.417581  0.391543  1
  O  O17  1  0.866644  0.923322  0.612508  1
  O  O18  1  0.883356  0.423322  0.887492  1
  O  O19  1  0.888236  0.917581  0.108457  1
  Ta  Ta20  1  0.002259  0.762696  0.830366  1
  Ta  Ta21  1  0.247741  0.762696  0.330366  1
  Ta  Ta22  1  0.502259  0.262696  0.169634  1
  Ta  Ta23  1  0.747741  0.262696  0.669634  1
