# generated using pymatgen
data_Li2NiP2O7
_symmetry_space_group_name_H-M   'P 1'
_cell_length_a   6.51245498
_cell_length_b   10.27594155
_cell_length_c   9.19160350
_cell_angle_alpha   66.41507323
_cell_angle_beta   107.02652980
_cell_angle_gamma   92.80799082
_symmetry_Int_Tables_number   1
_chemical_formula_structural   Li2NiP2O7
_chemical_formula_sum   'Li8 Ni4 P8 O28'
_cell_volume   537.39260822
_cell_formula_units_Z   4
loop_
 _symmetry_equiv_pos_site_id
 _symmetry_equiv_pos_as_xyz
  1  'x, y, z'
loop_
 _atom_site_type_symbol
 _atom_site_label
 _atom_site_symmetry_multiplicity
 _atom_site_fract_x
 _atom_site_fract_y
 _atom_site_fract_z
 _atom_site_occupancy
  Li  Li0  1  0.580035  0.032308  0.499555  1
  Li  Li1  1  0.346327  0.618219  0.929805  1
  Li  Li2  1  0.929580  0.491398  0.832263  1
  Li  Li3  1  0.873191  0.089977  0.891525  1
  Li  Li4  1  0.158746  0.961452  0.487550  1
  Li  Li5  1  0.048306  0.481921  0.231888  1
  Li  Li6  1  0.647347  0.380279  0.072183  1
  Li  Li7  1  0.183836  0.875356  0.120412  1
  Ni  Ni8  1  0.283929  0.222213  0.894498  1
  Ni  Ni9  1  0.367851  0.258468  0.505772  1
  Ni  Ni10  1  0.625116  0.752908  0.484325  1
  Ni  Ni11  1  0.723692  0.780218  0.095033  1
  P  P12  1  0.111729  0.704881  0.437578  1
  P  P13  1  0.566527  0.537978  0.294759  1
  P  P14  1  0.428924  0.468584  0.702549  1
  P  P15  1  0.315003  0.948590  0.805081  1
  P  P16  1  0.084069  0.203219  0.181814  1
  P  P17  1  0.692075  0.053258  0.185097  1
  P  P18  1  0.918912  0.803938  0.803852  1
  P  P19  1  0.878247  0.301515  0.546277  1
  O  O20  1  0.224801  0.545021  0.544270  1
  O  O21  1  0.739018  0.980696  0.080814  1
  O  O22  1  0.708977  0.830922  0.665490  1
  O  O23  1  0.023293  0.708197  0.260566  1
  O  O24  1  0.926590  0.093650  0.279919  1
  O  O25  1  0.290908  0.807920  0.445747  1
  O  O26  1  0.631587  0.538819  0.144857  1
  O  O27  1  0.390618  0.043090  0.657247  1
  O  O28  1  0.603327  0.961926  0.325127  1
  O  O29  1  0.370961  0.459322  0.858166  1
  O  O30  1  0.109341  0.143478  0.059280  1
  O  O31  1  0.288504  0.177616  0.325753  1
  O  O32  1  0.445746  0.805161  0.912038  1
  O  O33  1  0.028052  0.652916  0.889899  1
  O  O34  1  0.549077  0.694390  0.275494  1
  O  O35  1  0.442785  0.315435  0.711068  1
  O  O36  1  0.970745  0.354384  0.093717  1
  O  O37  1  0.082894  0.908742  0.708109  1
  O  O38  1  0.626536  0.549943  0.678024  1
  O  O39  1  0.273159  0.018641  0.913048  1
  O  O40  1  0.977916  0.276273  0.729834  1
  O  O41  1  0.765286  0.463770  0.458949  1
  O  O42  1  0.904218  0.864896  0.929350  1
  O  O43  1  0.946841  0.725921  0.514061  1
  O  O44  1  0.039152  0.304326  0.453443  1
  O  O45  1  0.366884  0.459398  0.318916  1
  O  O46  1  0.693181  0.206264  0.525233  1
  O  O47  1  0.565014  0.197446  0.075570  1
