# generated using pymatgen
data_EuCd2
_symmetry_space_group_name_H-M   'P 1'
_cell_length_a   5.07887448
_cell_length_b   6.34259312
_cell_length_c   6.34259312
_cell_angle_alpha   77.63800679
_cell_angle_beta   66.39816416
_cell_angle_gamma   66.39816420
_symmetry_Int_Tables_number   1
_chemical_formula_structural   EuCd2
_chemical_formula_sum   'Eu2 Cd4'
_cell_volume   171.21079213
_cell_formula_units_Z   2
loop_
 _symmetry_equiv_pos_site_id
 _symmetry_equiv_pos_as_xyz
  1  'x, y, z'
loop_
 _atom_site_type_symbol
 _atom_site_label
 _atom_site_symmetry_multiplicity
 _atom_site_fract_x
 _atom_site_fract_y
 _atom_site_fract_z
 _atom_site_occupancy
  Cd  Cd0  1  0.669619  0.770607  0.890154  1
  Cd  Cd1  1  0.330381  0.229393  0.109846  1
  Cd  Cd2  1  0.330381  0.609846  0.729393  1
  Cd  Cd3  1  0.669619  0.390154  0.270607  1
  Eu  Eu4  1  0.950026  0.799974  0.299974  1
  Eu  Eu5  1  0.049974  0.200026  0.700026  1
