# generated using pymatgen
data_SiO
_symmetry_space_group_name_H-M   'P 1'
_cell_length_a   4.53296000
_cell_length_b   4.53295955
_cell_length_c   9.56626700
_cell_angle_alpha   90.00000000
_cell_angle_beta   90.00000000
_cell_angle_gamma   120.00000325
_symmetry_Int_Tables_number   1
_chemical_formula_structural   SiO
_chemical_formula_sum   'Si6 O6'
_cell_volume   170.23029290
_cell_formula_units_Z   6
loop_
 _symmetry_equiv_pos_site_id
 _symmetry_equiv_pos_as_xyz
  1  'x, y, z'
loop_
 _atom_site_type_symbol
 _atom_site_label
 _atom_site_symmetry_multiplicity
 _atom_site_fract_x
 _atom_site_fract_y
 _atom_site_fract_z
 _atom_site_occupancy
  Si  Si0  1  0.000000  0.500000  0.357358  1
  Si  Si1  1  0.000000  0.500000  0.809308  1
  Si  Si2  1  0.500000  0.500000  0.142642  1
  Si  Si3  1  0.500000  0.500000  0.690692  1
  Si  Si4  1  0.500000  0.000000  0.024025  1
  Si  Si5  1  0.500000  0.000000  0.475975  1
  O  O6  1  0.168758  0.831242  0.916667  1
  O  O7  1  0.168758  0.337515  0.250000  1
  O  O8  1  0.662485  0.831242  0.583333  1
  O  O9  1  0.337515  0.168758  0.583333  1
  O  O10  1  0.831242  0.662485  0.250000  1
  O  O11  1  0.831242  0.168758  0.916667  1
