# generated using pymatgen
data_Nd2SmS4
_symmetry_space_group_name_H-M   'P 1'
_cell_length_a   7.40254011
_cell_length_b   7.40032559
_cell_length_c   7.40254028
_cell_angle_alpha   109.50040328
_cell_angle_beta   109.43129545
_cell_angle_gamma   109.50039747
_symmetry_Int_Tables_number   1
_chemical_formula_structural   Nd2SmS4
_chemical_formula_sum   'Nd4 Sm2 S8'
_cell_volume   312.09835827
_cell_formula_units_Z   2
loop_
 _symmetry_equiv_pos_site_id
 _symmetry_equiv_pos_as_xyz
  1  'x, y, z'
loop_
 _atom_site_type_symbol
 _atom_site_label
 _atom_site_symmetry_multiplicity
 _atom_site_fract_x
 _atom_site_fract_y
 _atom_site_fract_z
 _atom_site_occupancy
  Nd  Nd0  1  0.250000  0.624931  0.374935  1
  Nd  Nd1  1  0.750003  0.875068  0.125067  1
  Nd  Nd2  1  0.625067  0.375068  0.250003  1
  Nd  Nd3  1  0.874935  0.124931  0.750000  1
  S  S4  1  0.003099  0.852801  0.502625  1
  S  S5  1  0.002625  0.352801  0.503099  1
  S  S6  1  0.497370  0.000475  0.350181  1
  S  S7  1  0.150292  0.147194  0.149816  1
  S  S8  1  0.349707  0.499528  0.996898  1
  S  S9  1  0.496898  0.999528  0.849707  1
  S  S10  1  0.649816  0.647194  0.650292  1
  S  S11  1  0.850181  0.500475  0.997370  1
  Sm  Sm12  1  0.125003  0.750003  0.875004  1
  Sm  Sm13  1  0.375004  0.250003  0.625003  1
