# generated using pymatgen
data_P2PbAu2
_symmetry_space_group_name_H-M   'P 1'
_cell_length_a   3.28934988
_cell_length_b   6.00523127
_cell_length_c   11.41903230
_cell_angle_alpha   90.00000000
_cell_angle_beta   90.00000000
_cell_angle_gamma   105.89490562
_symmetry_Int_Tables_number   1
_chemical_formula_structural   P2PbAu2
_chemical_formula_sum   'P4 Pb2 Au4'
_cell_volume   216.93937160
_cell_formula_units_Z   2
loop_
 _symmetry_equiv_pos_site_id
 _symmetry_equiv_pos_as_xyz
  1  'x, y, z'
loop_
 _atom_site_type_symbol
 _atom_site_label
 _atom_site_symmetry_multiplicity
 _atom_site_fract_x
 _atom_site_fract_y
 _atom_site_fract_z
 _atom_site_occupancy
  P  P0  1  0.798345  0.596691  0.456215  1
  P  P1  1  0.798345  0.596691  0.043785  1
  P  P2  1  0.201655  0.403309  0.956215  1
  P  P3  1  0.201655  0.403309  0.543785  1
  Pb  Pb4  1  0.477351  0.954703  0.750000  1
  Pb  Pb5  1  0.522649  0.045297  0.250000  1
  Au  Au6  1  0.000000  0.000000  0.000000  1
  Au  Au7  1  0.776248  0.552495  0.250000  1
  Au  Au8  1  0.000000  0.000000  0.500000  1
  Au  Au9  1  0.223752  0.447505  0.750000  1
