# generated using pymatgen
data_Tb2Se2O7
_symmetry_space_group_name_H-M   'P 1'
_cell_length_a   5.28585827
_cell_length_b   10.70874342
_cell_length_c   10.70874342
_cell_angle_alpha   90.00000000
_cell_angle_beta   90.00000000
_cell_angle_gamma   90.00000000
_symmetry_Int_Tables_number   1
_chemical_formula_structural   Tb2Se2O7
_chemical_formula_sum   'Tb8 Se8 O28'
_cell_volume   606.16735007
_cell_formula_units_Z   4
loop_
 _symmetry_equiv_pos_site_id
 _symmetry_equiv_pos_as_xyz
  1  'x, y, z'
loop_
 _atom_site_type_symbol
 _atom_site_label
 _atom_site_symmetry_multiplicity
 _atom_site_fract_x
 _atom_site_fract_y
 _atom_site_fract_z
 _atom_site_occupancy
  O  O0  1  0.128098  0.680305  0.002769  1
  O  O1  1  0.128098  0.819695  0.497231  1
  O  O2  1  0.628098  0.002769  0.819695  1
  O  O3  1  0.628098  0.497231  0.680305  1
  O  O4  1  0.871902  0.502769  0.180305  1
  O  O5  1  0.371902  0.319695  0.502769  1
  O  O6  1  0.371902  0.180305  0.997231  1
  O  O7  1  0.871902  0.997231  0.319695  1
  O  O8  1  0.871902  0.319695  0.997231  1
  O  O9  1  0.871902  0.180305  0.502769  1
  O  O10  1  0.371902  0.997231  0.180305  1
  O  O11  1  0.371902  0.502769  0.319695  1
  O  O12  1  0.128098  0.497231  0.819695  1
  O  O13  1  0.628098  0.680305  0.497231  1
  O  O14  1  0.628098  0.819695  0.002769  1
  O  O15  1  0.128098  0.002769  0.680305  1
  O  O16  1  0.750000  0.750000  0.250000  1
  O  O17  1  0.250000  0.250000  0.750000  1
  O  O18  1  0.750000  0.250000  0.750000  1
  O  O19  1  0.250000  0.750000  0.250000  1
  O  O20  1  0.809762  0.064185  0.064185  1
  O  O21  1  0.309762  0.435815  0.064185  1
  O  O22  1  0.309762  0.064185  0.435815  1
  O  O23  1  0.809762  0.435815  0.435815  1
  O  O24  1  0.690238  0.564185  0.935815  1
  O  O25  1  0.690238  0.935815  0.564185  1
  O  O26  1  0.190238  0.564185  0.564185  1
  O  O27  1  0.190238  0.935815  0.935815  1
  Se  Se28  1  0.463958  0.872275  0.872275  1
  Se  Se29  1  0.463958  0.627725  0.627725  1
  Se  Se30  1  0.963958  0.872275  0.627725  1
  Se  Se31  1  0.963958  0.627725  0.872275  1
  Se  Se32  1  0.536042  0.372275  0.372275  1
  Se  Se33  1  0.036042  0.127725  0.372275  1
  Se  Se34  1  0.036042  0.372275  0.127725  1
  Se  Se35  1  0.536042  0.127725  0.127725  1
  Tb  Tb36  1  0.000000  0.628223  0.371777  1
  Tb  Tb37  1  0.500000  0.128223  0.628223  1
  Tb  Tb38  1  0.500000  0.371777  0.871777  1
  Tb  Tb39  1  0.000000  0.871777  0.128223  1
  Tb  Tb40  1  0.000000  0.371777  0.628223  1
  Tb  Tb41  1  0.500000  0.871777  0.371777  1
  Tb  Tb42  1  0.500000  0.628223  0.128223  1
  Tb  Tb43  1  0.000000  0.128223  0.871777  1
