# generated using pymatgen
data_Li3Mn2(PO4)3
_symmetry_space_group_name_H-M   'P 1'
_cell_length_a   8.82301328
_cell_length_b   8.82301328
_cell_length_c   9.03495622
_cell_angle_alpha   55.64242461
_cell_angle_beta   124.35757539
_cell_angle_gamma   119.47442455
_symmetry_Int_Tables_number   1
_chemical_formula_structural   Li3Mn2(PO4)3
_chemical_formula_sum   'Li6 Mn4 P6 O24'
_cell_volume   463.52161388
_cell_formula_units_Z   2
loop_
 _symmetry_equiv_pos_site_id
 _symmetry_equiv_pos_as_xyz
  1  'x, y, z'
loop_
 _atom_site_type_symbol
 _atom_site_label
 _atom_site_symmetry_multiplicity
 _atom_site_fract_x
 _atom_site_fract_y
 _atom_site_fract_z
 _atom_site_occupancy
  Li  Li0  1  0.213637  0.835585  0.756931  1
  Li  Li1  1  0.164415  0.786362  0.256931  1
  Li  Li2  1  1.000000  0.500001  1.000000  1
  Li  Li3  1  0.835584  0.213637  0.743068  1
  Li  Li4  1  0.500000  0.000000  0.499999  1
  Li  Li5  1  0.786362  0.164415  0.243068  1
  O  O6  1  0.192263  0.579659  0.522837  1
  O  O7  1  0.006899  0.125453  0.564934  1
  O  O8  1  0.903414  0.436340  0.242625  1
  O  O9  1  0.590801  0.238667  0.267636  1
  O  O10  1  0.125454  0.006899  0.935066  1
  O  O11  1  0.993101  0.874546  0.435066  1
  O  O12  1  0.096587  0.563660  0.757375  1
  O  O13  1  0.409197  0.761332  0.732364  1
  O  O14  1  0.874547  0.993102  0.064934  1
  O  O15  1  0.330702  0.395299  0.890007  1
  O  O16  1  0.776206  0.967046  0.721180  1
  O  O17  1  0.436340  0.903413  0.257375  1
  O  O18  1  0.238669  0.590802  0.232365  1
  O  O19  1  0.420340  0.807736  0.022837  1
  O  O20  1  0.807736  0.420341  0.477163  1
  O  O21  1  0.604701  0.669297  0.390007  1
  O  O22  1  0.395299  0.330702  0.609993  1
  O  O23  1  0.032953  0.223794  0.221180  1
  O  O24  1  0.579659  0.192264  0.977163  1
  O  O25  1  0.761332  0.409199  0.767635  1
  O  O26  1  0.563660  0.096587  0.742625  1
  O  O27  1  0.223794  0.032953  0.278820  1
  O  O28  1  0.669297  0.604702  0.109992  1
  O  O29  1  0.967047  0.776206  0.778820  1
  P  P30  1  0.742647  0.430333  0.276139  1
  P  P31  1  0.035021  0.035020  0.250001  1
  P  P32  1  0.569667  0.257354  0.776139  1
  P  P33  1  0.430333  0.742646  0.223861  1
  P  P34  1  0.257354  0.569667  0.723861  1
  P  P35  1  0.964980  0.964980  0.750000  1
  Mn  Mn36  1  0.629977  0.851407  0.935759  1
  Mn  Mn37  1  0.148594  0.370023  0.435759  1
  Mn  Mn38  1  0.851407  0.629976  0.564241  1
  Mn  Mn39  1  0.370024  0.148594  0.064241  1
