# generated using pymatgen
data_GaCuSe2
_symmetry_space_group_name_H-M   'P 1'
_cell_length_a   7.49566081
_cell_length_b   9.94948589
_cell_length_c   6.52342562
_cell_angle_alpha   29.19810075
_cell_angle_beta   54.93413427
_cell_angle_gamma   40.97148916
_symmetry_Int_Tables_number   1
_chemical_formula_structural   GaCuSe2
_chemical_formula_sum   'Ga2 Cu2 Se4'
_cell_volume   150.07512550
_cell_formula_units_Z   2
loop_
 _symmetry_equiv_pos_site_id
 _symmetry_equiv_pos_as_xyz
  1  'x, y, z'
loop_
 _atom_site_type_symbol
 _atom_site_label
 _atom_site_symmetry_multiplicity
 _atom_site_fract_x
 _atom_site_fract_y
 _atom_site_fract_z
 _atom_site_occupancy
  Cu  Cu0  1  0.249995  0.499999  1.000013  1
  Cu  Cu1  1  0.500005  1.000002  -0.000015  1
  Ga  Ga2  1  0.999974  0.000025  0.999978  1
  Ga  Ga3  1  0.750026  0.499975  0.000023  1
  Se  Se4  1  0.250238  0.000023  0.499450  1
  Se  Se5  1  0.749935  0.999964  0.500234  1
  Se  Se6  1  0.499769  0.499977  0.500536  1
  Se  Se7  1  1.000058  0.500035  0.499781  1
