# generated using pymatgen
data_MnSiN2
_symmetry_space_group_name_H-M   'P 1'
_cell_length_a   5.12270048
_cell_length_b   5.32169824
_cell_length_c   6.53147868
_cell_angle_alpha   90.00000000
_cell_angle_beta   90.00000000
_cell_angle_gamma   90.00000000
_symmetry_Int_Tables_number   1
_chemical_formula_structural   MnSiN2
_chemical_formula_sum   'Mn4 Si4 N8'
_cell_volume   178.05768480
_cell_formula_units_Z   4
loop_
 _symmetry_equiv_pos_site_id
 _symmetry_equiv_pos_as_xyz
  1  'x, y, z'
loop_
 _atom_site_type_symbol
 _atom_site_label
 _atom_site_symmetry_multiplicity
 _atom_site_fract_x
 _atom_site_fract_y
 _atom_site_fract_z
 _atom_site_occupancy
  N  N0  1  0.347329  0.548092  0.407602  1
  N  N1  1  0.847329  0.451908  0.592398  1
  N  N2  1  0.847329  0.951908  0.907602  1
  N  N3  1  0.347329  0.048092  0.092398  1
  N  N4  1  0.418545  0.613552  0.841123  1
  N  N5  1  0.418545  0.113552  0.658877  1
  N  N6  1  0.918545  0.886448  0.341123  1
  N  N7  1  0.918545  0.386448  0.158877  1
  Si  Si8  1  0.006605  0.068114  0.125263  1
  Si  Si9  1  0.506605  0.431886  0.625263  1
  Si  Si10  1  0.506605  0.931886  0.874737  1
  Si  Si11  1  0.006605  0.568114  0.374737  1
  Mn  Mn12  1  0.001521  0.580350  0.876102  1
  Mn  Mn13  1  0.501521  0.419650  0.123898  1
  Mn  Mn14  1  0.501521  0.919650  0.376102  1
  Mn  Mn15  1  0.001521  0.080350  0.623898  1
