# generated using pymatgen
data_TaS3
_symmetry_space_group_name_H-M   'P 1'
_cell_length_a   3.36403813
_cell_length_b   10.05729712
_cell_length_c   15.13112142
_cell_angle_alpha   109.63093166
_cell_angle_beta   90.00000000
_cell_angle_gamma   90.00000000
_symmetry_Int_Tables_number   1
_chemical_formula_structural   TaS3
_chemical_formula_sum   'Ta6 S18'
_cell_volume   482.17771899
_cell_formula_units_Z   6
loop_
 _symmetry_equiv_pos_site_id
 _symmetry_equiv_pos_as_xyz
  1  'x, y, z'
loop_
 _atom_site_type_symbol
 _atom_site_label
 _atom_site_symmetry_multiplicity
 _atom_site_fract_x
 _atom_site_fract_y
 _atom_site_fract_z
 _atom_site_occupancy
  Ta  Ta0  1  0.250000  0.481331  0.116823  1
  Ta  Ta1  1  0.750000  0.518669  0.883177  1
  Ta  Ta2  1  0.250000  0.114045  0.795319  1
  Ta  Ta3  1  0.750000  0.885955  0.204681  1
  Ta  Ta4  1  0.250000  0.152366  0.459603  1
  Ta  Ta5  1  0.750000  0.847634  0.540397  1
  S  S6  1  0.250000  0.376042  0.935181  1
  S  S7  1  0.750000  0.623958  0.064819  1
  S  S8  1  0.250000  0.715917  0.903315  1
  S  S9  1  0.750000  0.284083  0.096685  1
  S  S10  1  0.250000  0.557061  0.769484  1
  S  S11  1  0.750000  0.442939  0.230516  1
  S  S12  1  0.250000  0.902107  0.088841  1
  S  S13  1  0.750000  0.097893  0.911159  1
  S  S14  1  0.250000  0.080528  0.279266  1
  S  S15  1  0.750000  0.919472  0.720734  1
  S  S16  1  0.250000  0.728138  0.246462  1
  S  S17  1  0.750000  0.271862  0.753538  1
  S  S18  1  0.250000  0.677082  0.567533  1
  S  S19  1  0.750000  0.322918  0.432467  1
  S  S20  1  0.250000  0.041686  0.593051  1
  S  S21  1  0.750000  0.958314  0.406949  1
  S  S22  1  0.250000  0.683438  0.431552  1
  S  S23  1  0.750000  0.316561  0.568448  1
