# generated using pymatgen
data_Tb6Br7
_symmetry_space_group_name_H-M   'P 1'
_cell_length_a   3.78936153
_cell_length_b   10.78304009
_cell_length_c   10.90957188
_cell_angle_alpha   65.72815235
_cell_angle_beta   79.99864181
_cell_angle_gamma   79.88006040
_symmetry_Int_Tables_number   1
_chemical_formula_structural   Tb6Br7
_chemical_formula_sum   'Tb6 Br7'
_cell_volume   397.48385658
_cell_formula_units_Z   1
loop_
 _symmetry_equiv_pos_site_id
 _symmetry_equiv_pos_as_xyz
  1  'x, y, z'
loop_
 _atom_site_type_symbol
 _atom_site_label
 _atom_site_symmetry_multiplicity
 _atom_site_fract_x
 _atom_site_fract_y
 _atom_site_fract_z
 _atom_site_occupancy
  Tb  Tb0  1  0.226205  0.699075  0.848515  1
  Tb  Tb1  1  0.773795  0.300925  0.151485  1
  Tb  Tb2  1  0.681909  0.997230  0.638952  1
  Tb  Tb3  1  0.318091  0.002770  0.361048  1
  Tb  Tb4  1  0.870992  0.698533  0.559482  1
  Tb  Tb5  1  0.129008  0.301467  0.440518  1
  Br  Br6  1  0.605552  0.846323  0.942573  1
  Br  Br7  1  0.394448  0.153677  0.057427  1
  Br  Br8  1  0.834596  0.485991  0.844818  1
  Br  Br9  1  0.165404  0.514009  0.155182  1
  Br  Br10  1  0.946983  0.831467  0.274567  1
  Br  Br11  1  0.053017  0.168533  0.725433  1
  Br  Br12  1  0.500000  0.500000  0.500000  1
