# generated using pymatgen
data_Na2SO3
_symmetry_space_group_name_H-M   'P 1'
_cell_length_a   5.58944956
_cell_length_b   5.58944932
_cell_length_c   7.14373962
_cell_angle_alpha   90.00000000
_cell_angle_beta   90.00000000
_cell_angle_gamma   116.14666868
_symmetry_Int_Tables_number   1
_chemical_formula_structural   Na2SO3
_chemical_formula_sum   'Na4 S2 O6'
_cell_volume   200.34563197
_cell_formula_units_Z   2
loop_
 _symmetry_equiv_pos_site_id
 _symmetry_equiv_pos_as_xyz
  1  'x, y, z'
loop_
 _atom_site_type_symbol
 _atom_site_label
 _atom_site_symmetry_multiplicity
 _atom_site_fract_x
 _atom_site_fract_y
 _atom_site_fract_z
 _atom_site_occupancy
  Na  Na0  1  0.329250  0.670750  0.750000  1
  Na  Na1  1  0.948644  0.948644  -0.000000  1
  Na  Na2  1  0.051356  0.051356  0.500000  1
  Na  Na3  1  0.670750  0.329250  0.250000  1
  S  S4  1  0.307657  0.692343  0.250000  1
  S  S5  1  0.692343  0.307657  0.750000  1
  O  O6  1  0.145551  0.854449  0.250000  1
  O  O7  1  0.093029  0.446138  0.376443  1
  O  O8  1  0.553862  0.906971  0.123557  1
  O  O9  1  0.446138  0.093029  0.623557  1
  O  O10  1  0.906971  0.553862  0.876443  1
  O  O11  1  0.854449  0.145551  0.750000  1
