# generated using pymatgen
data_Ca(TbS2)2
_symmetry_space_group_name_H-M   'P 1'
_cell_length_a   7.27587105
_cell_length_b   7.27587107
_cell_length_c   7.27587113
_cell_angle_alpha   109.52387302
_cell_angle_beta   109.52386731
_cell_angle_gamma   109.36596965
_symmetry_Int_Tables_number   1
_chemical_formula_structural   Ca(TbS2)2
_chemical_formula_sum   'Ca2 Tb4 S8'
_cell_volume   296.50499487
_cell_formula_units_Z   2
loop_
 _symmetry_equiv_pos_site_id
 _symmetry_equiv_pos_as_xyz
  1  'x, y, z'
loop_
 _atom_site_type_symbol
 _atom_site_label
 _atom_site_symmetry_multiplicity
 _atom_site_fract_x
 _atom_site_fract_y
 _atom_site_fract_z
 _atom_site_occupancy
  Ca  Ca0  1  0.625000  0.375000  0.250000  1
  Ca  Ca1  1  0.875000  0.125000  0.750000  1
  S  S2  1  0.006206  0.861146  0.500613  1
  S  S3  1  0.493794  0.994407  0.854940  1
  S  S4  1  0.138854  0.139466  0.145060  1
  S  S5  1  0.494407  0.993794  0.354940  1
  S  S6  1  0.361146  0.506206  0.000613  1
  S  S7  1  0.639466  0.638854  0.645060  1
  S  S8  1  0.860534  0.505593  0.999387  1
  S  S9  1  0.005593  0.360534  0.499387  1
  Tb  Tb10  1  0.122435  0.750000  0.872435  1
  Tb  Tb11  1  0.250000  0.622435  0.372435  1
  Tb  Tb12  1  0.377565  0.250000  0.627565  1
  Tb  Tb13  1  0.750000  0.877565  0.127565  1
