# generated using pymatgen
data_Ce2Te3
_symmetry_space_group_name_H-M   'P 1'
_cell_length_a   24.71046924
_cell_length_b   9.49559420
_cell_length_c   9.49559457
_cell_angle_alpha   89.99999883
_cell_angle_beta   54.80147948
_cell_angle_gamma   54.80147787
_symmetry_Int_Tables_number   1
_chemical_formula_structural   Ce2Te3
_chemical_formula_sum   'Ce16 Te24'
_cell_volume   1290.54068149
_cell_formula_units_Z   8
loop_
 _symmetry_equiv_pos_site_id
 _symmetry_equiv_pos_as_xyz
  1  'x, y, z'
loop_
 _atom_site_type_symbol
 _atom_site_label
 _atom_site_symmetry_multiplicity
 _atom_site_fract_x
 _atom_site_fract_y
 _atom_site_fract_z
 _atom_site_occupancy
  Ce  Ce0  1  0.997630  0.383422  0.249063  1
  Ce  Ce1  1  0.082070  0.626894  0.376894  1
  Ce  Ce2  1  0.166667  0.250000  0.629341  1
  Ce  Ce3  1  0.251263  0.873106  0.123106  1
  Ce  Ce4  1  0.335703  0.376312  0.250937  1
  Ce  Ce5  1  0.335703  0.116578  0.741953  1
  Ce  Ce6  1  0.166667  0.750000  0.870659  1
  Ce  Ce7  1  0.497630  0.258047  0.623688  1
  Ce  Ce8  1  0.582070  0.876894  0.126894  1
  Ce  Ce9  1  0.666667  0.370659  0.250000  1
  Ce  Ce10  1  0.666667  0.129341  0.750000  1
  Ce  Ce11  1  0.497630  0.749063  0.883422  1
  Ce  Ce12  1  0.751263  0.623106  0.373106  1
  Ce  Ce13  1  0.835703  0.241953  0.616578  1
  Ce  Ce14  1  0.835703  0.750937  0.876312  1
  Ce  Ce15  1  0.997630  0.123688  0.758047  1
  Te  Te16  1  0.051328  0.000114  0.347510  1
  Te  Te17  1  0.120825  0.493327  0.996200  1
  Te  Te18  1  0.051328  0.345902  0.498506  1
  Te  Te19  1  0.282005  0.154098  0.152490  1
  Te  Te20  1  0.282005  0.499886  0.001494  1
  Te  Te21  1  0.120825  0.644198  0.641325  1
  Te  Te22  1  0.385153  -0.002103  0.343157  1
  Te  Te23  1  0.212508  0.855802  0.503800  1
  Te  Te24  1  0.448181  0.498616  1.002103  1
  Te  Te25  1  0.385153  0.346645  0.501384  1
  Te  Te26  1  0.212508  0.006673  0.858675  1
  Te  Te27  1  0.620825  0.141325  0.144198  1
  Te  Te28  1  0.620825  0.496200  0.993327  1
  Te  Te29  1  0.448181  0.656843  0.653355  1
  Te  Te30  1  0.712508  0.003800  0.355802  1
  Te  Te31  1  0.551328  0.847510  0.500114  1
  Te  Te32  1  0.782005  0.501494  0.999886  1
  Te  Te33  1  0.712508  0.358675  0.506673  1
  Te  Te34  1  0.551328  0.998506  0.845902  1
  Te  Te35  1  0.948181  0.153355  0.156843  1
  Te  Te36  1  0.948181  0.502103  0.998616  1
  Te  Te37  1  0.782005  0.652490  0.654098  1
  Te  Te38  1  0.885153  0.843157  0.497897  1
  Te  Te39  1  0.885153  0.001384  0.846645  1
