# generated using pymatgen
data_Er3Pb4F17
_symmetry_space_group_name_H-M   'P 1'
_cell_length_a   9.20292913
_cell_length_b   9.15295216
_cell_length_c   9.15156199
_cell_angle_alpha   73.15224747
_cell_angle_beta   73.21584598
_cell_angle_gamma   72.97385938
_symmetry_Int_Tables_number   1
_chemical_formula_structural   Er3Pb4F17
_chemical_formula_sum   'Er6 Pb8 F34'
_cell_volume   687.71496516
_cell_formula_units_Z   2
loop_
 _symmetry_equiv_pos_site_id
 _symmetry_equiv_pos_as_xyz
  1  'x, y, z'
loop_
 _atom_site_type_symbol
 _atom_site_label
 _atom_site_symmetry_multiplicity
 _atom_site_fract_x
 _atom_site_fract_y
 _atom_site_fract_z
 _atom_site_occupancy
  Er  Er0  1  0.162659  0.607095  0.469765  1
  Er  Er1  1  0.468872  0.160600  0.607804  1
  Er  Er2  1  0.604774  0.474157  0.185374  1
  Er  Er3  1  0.392383  0.529788  0.839260  1
  Er  Er4  1  0.533903  0.815180  0.394529  1
  Er  Er5  1  0.822643  0.398453  0.524863  1
  F  F6  1  0.990756  0.010218  -0.001827  1
  F  F7  1  0.137718  0.135429  0.139466  1
  F  F8  1  0.018349  0.180351  0.455535  1
  F  F9  1  0.043772  0.489990  0.358473  1
  F  F10  1  0.180504  0.452336  0.019329  1
  F  F11  1  0.082165  0.789519  0.255503  1
  F  F12  1  0.255198  0.086042  0.789061  1
  F  F13  1  0.356772  0.036105  0.493174  1
  F  F14  1  0.265589  0.348077  0.542064  1
  F  F15  1  0.450773  0.018931  0.184357  1
  F  F16  1  0.343879  0.549461  0.259219  1
  F  F17  1  0.215056  0.586321  0.696212  1
  F  F18  1  0.488907  0.356573  0.047269  1
  F  F19  1  0.297893  0.792096  0.408318  1
  F  F20  1  0.544599  0.256519  0.349069  1
  F  F21  1  0.210635  0.744799  0.916784  1
  F  F22  1  0.420369  0.301727  0.785510  1
  F  F23  1  0.593324  0.722070  0.177590  1
  F  F24  1  0.553383  0.524996  0.441361  1
  F  F25  1  0.781084  0.259646  0.088952  1
  F  F26  1  0.457122  0.735618  0.654709  1
  F  F27  1  0.701045  0.205593  0.579234  1
  F  F28  1  0.507517  0.640987  0.961307  1
  F  F29  1  0.820708  0.409179  0.280359  1
  F  F30  1  0.651110  0.458246  0.738703  1
  F  F31  1  0.544941  0.978755  0.821307  1
  F  F32  1  0.758433  0.661975  0.451855  1
  F  F33  1  0.640852  0.953462  0.510068  1
  F  F34  1  0.741866  0.915758  0.213450  1
  F  F35  1  0.908236  0.215936  0.741056  1
  F  F36  1  0.818347  0.546985  0.979989  1
  F  F37  1  0.957928  0.506496  0.644901  1
  F  F38  1  0.980661  0.819097  0.548621  1
  F  F39  1  0.863126  0.862129  0.861914  1
  Pb  Pb40  1  0.032749  0.306256  0.901385  1
  Pb  Pb41  1  0.263988  0.260183  0.266321  1
  Pb  Pb42  1  0.316084  0.893497  0.046160  1
  Pb  Pb43  1  0.099757  0.962947  0.689688  1
  Pb  Pb44  1  0.893568  0.040861  0.310976  1
  Pb  Pb45  1  0.689735  0.103577  0.964447  1
  Pb  Pb46  1  0.735791  0.732710  0.739746  1
  Pb  Pb47  1  0.958480  0.687273  0.102790  1
