# generated using pymatgen
data_Li3Co2P5O16
_symmetry_space_group_name_H-M   'P 1'
_cell_length_a   18.23901451
_cell_length_b   6.93275758
_cell_length_c   5.05629931
_cell_angle_alpha   90.00000000
_cell_angle_beta   92.50112448
_cell_angle_gamma   90.00000000
_symmetry_Int_Tables_number   1
_chemical_formula_structural   Li3Co2P5O16
_chemical_formula_sum   'Li6 Co4 P10 O32'
_cell_volume   638.74312137
_cell_formula_units_Z   2
loop_
 _symmetry_equiv_pos_site_id
 _symmetry_equiv_pos_as_xyz
  1  'x, y, z'
loop_
 _atom_site_type_symbol
 _atom_site_label
 _atom_site_symmetry_multiplicity
 _atom_site_fract_x
 _atom_site_fract_y
 _atom_site_fract_z
 _atom_site_occupancy
  Li  Li0  1  0.033544  0.322260  0.261401  1
  Li  Li1  1  0.966456  0.677740  0.738598  1
  Li  Li2  1  0.750000  0.020080  0.500001  1
  Li  Li3  1  0.533545  0.677740  0.261401  1
  Li  Li4  1  0.466455  0.322260  0.738598  1
  Li  Li5  1  0.250000  0.979920  0.500001  1
  O  O6  1  0.294845  0.612047  0.193079  1
  O  O7  1  0.929126  0.920438  0.938605  1
  O  O8  1  0.931689  0.379235  0.085001  1
  O  O9  1  0.982162  0.796708  0.382044  1
  O  O10  1  0.017838  0.203293  0.617955  1
  O  O11  1  0.068311  0.620766  0.914999  1
  O  O12  1  0.070874  0.079562  0.061394  1
  O  O13  1  0.108226  0.551218  0.442599  1
  O  O14  1  0.129717  0.978518  0.619713  1
  O  O15  1  0.142109  0.312420  0.804829  1
  O  O16  1  0.201154  0.865360  0.177682  1
  O  O17  1  0.205155  0.612047  0.806922  1
  O  O18  1  0.517838  0.796708  0.617955  1
  O  O19  1  0.298846  0.865360  0.822317  1
  O  O20  1  0.357890  0.312420  0.195173  1
  O  O21  1  0.370283  0.978518  0.380287  1
  O  O22  1  0.391775  0.551218  0.557403  1
  O  O23  1  0.870283  0.021482  0.380287  1
  O  O24  1  0.431688  0.620766  0.085001  1
  O  O25  1  0.482163  0.203293  0.382044  1
  O  O26  1  0.891774  0.448782  0.557403  1
  O  O27  1  0.568312  0.379235  0.914999  1
  O  O28  1  0.570874  0.920438  0.061394  1
  O  O29  1  0.608225  0.448782  0.442599  1
  O  O30  1  0.629717  0.021482  0.619713  1
  O  O31  1  0.642110  0.687581  0.804829  1
  O  O32  1  0.701154  0.134640  0.177684  1
  O  O33  1  0.705155  0.387953  0.806922  1
  O  O34  1  0.794845  0.387953  0.193079  1
  O  O35  1  0.798846  0.134640  0.822317  1
  O  O36  1  0.857890  0.687581  0.195173  1
  O  O37  1  0.429126  0.079562  0.938605  1
  P  P38  1  0.586012  0.874460  0.772933  1
  P  P39  1  0.624156  0.467756  0.737913  1
  P  P40  1  0.750000  0.245632  0.000001  1
  P  P41  1  0.875844  0.467756  0.262087  1
  P  P42  1  0.086012  0.125540  0.772933  1
  P  P43  1  0.124157  0.532245  0.737913  1
  P  P44  1  0.250000  0.754368  0.000001  1
  P  P45  1  0.375844  0.532245  0.262087  1
  P  P46  1  0.413988  0.125540  0.227067  1
  P  P47  1  0.913988  0.874460  0.227067  1
  Co  Co48  1  0.910285  0.174641  0.734262  1
  Co  Co49  1  0.589715  0.174641  0.265737  1
  Co  Co50  1  0.410285  0.825359  0.734262  1
  Co  Co51  1  0.089715  0.825359  0.265737  1
