# generated using pymatgen
data_P2S2O3
_symmetry_space_group_name_H-M   'P 1'
_cell_length_a   9.68895847
_cell_length_b   9.68895847
_cell_length_c   9.91577633
_cell_angle_alpha   119.24616083
_cell_angle_beta   119.24616081
_cell_angle_gamma   90.00000000
_symmetry_Int_Tables_number   1
_chemical_formula_structural   P2S2O3
_chemical_formula_sum   'P8 S8 O12'
_cell_volume   672.93162975
_cell_formula_units_Z   4
loop_
 _symmetry_equiv_pos_site_id
 _symmetry_equiv_pos_as_xyz
  1  'x, y, z'
loop_
 _atom_site_type_symbol
 _atom_site_label
 _atom_site_symmetry_multiplicity
 _atom_site_fract_x
 _atom_site_fract_y
 _atom_site_fract_z
 _atom_site_occupancy
  O  O0  1  0.125077  0.625077  0.250154  1
  O  O1  1  0.841012  0.089092  0.499371  1
  O  O2  1  0.658359  0.410279  0.499371  1
  O  O3  1  0.589721  0.158988  0.500629  1
  O  O4  1  0.341012  0.910279  0.499371  1
  O  O5  1  0.158359  0.589092  0.499371  1
  O  O6  1  0.910908  0.341641  0.500629  1
  O  O7  1  0.410908  0.658988  0.500629  1
  O  O8  1  0.374923  0.874923  0.749846  1
  O  O9  1  0.874923  0.374923  0.749846  1
  O  O10  1  0.625077  0.125077  0.250154  1
  O  O11  1  0.089721  0.841641  0.500629  1
  P  P12  1  0.034840  0.639571  0.357502  1
  P  P13  1  0.322662  0.717931  0.357502  1
  P  P14  1  0.534840  0.217931  0.357502  1
  P  P15  1  0.282069  0.965160  0.642498  1
  P  P16  1  0.360429  0.677338  0.642498  1
  P  P17  1  0.782069  0.177338  0.642498  1
  P  P18  1  0.860429  0.465160  0.642498  1
  P  P19  1  0.822662  0.139571  0.357502  1
  S  S20  1  0.806960  0.522696  0.206103  1
  S  S21  1  0.899144  0.022696  0.206103  1
  S  S22  1  0.316592  0.193040  0.793897  1
  S  S23  1  0.477304  0.600856  0.793897  1
  S  S24  1  0.816592  0.100856  0.793897  1
  S  S25  1  0.977304  0.693040  0.793897  1
  S  S26  1  0.306960  0.183408  0.206103  1
  S  S27  1  0.399144  0.683408  0.206103  1
