# generated using pymatgen
data_K4Ge9O20
_symmetry_space_group_name_H-M   'P 1'
_cell_length_a   7.63990498
_cell_length_b   11.92853459
_cell_length_c   11.92853459
_cell_angle_alpha   84.11388762
_cell_angle_beta   71.32277037
_cell_angle_gamma   71.32277036
_symmetry_Int_Tables_number   1
_chemical_formula_structural   K4Ge9O20
_chemical_formula_sum   'K8 Ge18 O40'
_cell_volume   975.59982490
_cell_formula_units_Z   2
loop_
 _symmetry_equiv_pos_site_id
 _symmetry_equiv_pos_as_xyz
  1  'x, y, z'
loop_
 _atom_site_type_symbol
 _atom_site_label
 _atom_site_symmetry_multiplicity
 _atom_site_fract_x
 _atom_site_fract_y
 _atom_site_fract_z
 _atom_site_occupancy
  O  O0  1  0.921432  0.127254  0.280188  1
  O  O1  1  0.328874  0.372746  0.219812  1
  O  O2  1  0.078568  0.872746  0.719812  1
  O  O3  1  0.798380  0.780188  0.872746  1
  O  O4  1  0.451314  0.719812  0.627254  1
  O  O5  1  0.671126  0.627254  0.780188  1
  O  O6  1  0.375959  0.774152  0.971114  1
  O  O7  1  0.347073  0.528886  0.774152  1
  O  O8  1  0.198906  0.981296  0.094384  1
  O  O9  1  0.293289  0.405616  0.981296  1
  O  O10  1  0.680202  0.094384  0.518704  1
  O  O11  1  0.274586  0.518704  0.405616  1
  O  O12  1  0.801094  0.018704  0.905616  1
  O  O13  1  0.706711  0.594384  0.018704  1
  O  O14  1  0.319798  0.905616  0.481296  1
  O  O15  1  0.725414  0.481296  0.594384  1
  O  O16  1  0.337464  0.132187  0.689205  1
  O  O17  1  0.201620  0.219812  0.127254  1
  O  O18  1  0.030350  0.310795  0.632187  1
  O  O19  1  0.662536  0.867813  0.310795  1
  O  O20  1  0.841145  0.632187  0.189205  1
  O  O21  1  0.973332  0.189205  0.867813  1
  O  O22  1  0.969650  0.689205  0.367813  1
  O  O23  1  0.650112  0.971114  0.725848  1
  O  O24  1  0.158855  0.367813  0.810795  1
  O  O25  1  0.026668  0.810795  0.132187  1
  O  O26  1  0.526993  0.307568  0.650013  1
  O  O27  1  0.177006  0.849987  0.307568  1
  O  O28  1  0.334561  0.650013  0.192432  1
  O  O29  1  0.484574  0.192432  0.849987  1
  O  O30  1  0.473007  0.692432  0.349987  1
  O  O31  1  0.822994  0.150013  0.692432  1
  O  O32  1  0.665439  0.349987  0.807568  1
  O  O33  1  0.515426  0.807568  0.150013  1
  O  O34  1  0.878775  0.274152  0.471114  1
  O  O35  1  0.349888  0.028886  0.274152  1
  O  O36  1  0.652927  0.471114  0.225848  1
  O  O37  1  0.624041  0.225848  0.028886  1
  O  O38  1  0.121225  0.725848  0.528886  1
  O  O39  1  0.548686  0.280188  0.372746  1
  K  K40  1  0.928581  0.470781  0.356745  1
  K  K41  1  0.285326  0.143255  0.470781  1
  K  K42  1  0.899362  0.356745  0.029219  1
  K  K43  1  0.756107  0.029219  0.143255  1
  K  K44  1  0.071419  0.529219  0.643255  1
  K  K45  1  0.714674  0.856745  0.529219  1
  K  K46  1  0.100639  0.643255  0.970781  1
  K  K47  1  0.243893  0.970781  0.856745  1
  Ge  Ge48  1  0.626014  0.698268  0.915963  1
  Ge  Ge49  1  0.373986  0.301732  0.084037  1
  Ge  Ge50  1  0.759754  0.198268  0.415963  1
  Ge  Ge51  1  0.458022  0.415963  0.301732  1
  Ge  Ge52  1  0.824283  0.915963  0.801732  1
  Ge  Ge53  1  0.175717  0.084037  0.198268  1
  Ge  Ge54  1  0.240246  0.801732  0.584037  1
  Ge  Ge55  1  0.541978  0.584037  0.698268  1
  Ge  Ge56  1  0.265315  0.818367  0.134192  1
  Ge  Ge57  1  0.399507  0.365808  0.818367  1
  Ge  Ge58  1  0.583682  0.134192  0.681633  1
  Ge  Ge59  1  0.217874  0.681633  0.365808  1
  Ge  Ge60  1  0.734685  0.181633  0.865808  1
  Ge  Ge61  1  0.600493  0.634192  0.181633  1
  Ge  Ge62  1  0.416318  0.865808  0.318367  1
  Ge  Ge63  1  0.782126  0.318367  0.634192  1
  Ge  Ge64  1  0.875000  0.750000  0.250000  1
  Ge  Ge65  1  0.125000  0.250000  0.750000  1
