# generated using pymatgen
data_Sm(SbTe2)2
_symmetry_space_group_name_H-M   'P 1'
_cell_length_a   8.36544622
_cell_length_b   8.36544701
_cell_length_c   8.36544615
_cell_angle_alpha   107.38097805
_cell_angle_beta   113.73781226
_cell_angle_gamma   107.38098295
_symmetry_Int_Tables_number   1
_chemical_formula_structural   Sm(SbTe2)2
_chemical_formula_sum   'Sm2 Sb4 Te8'
_cell_volume   448.76750392
_cell_formula_units_Z   2
loop_
 _symmetry_equiv_pos_site_id
 _symmetry_equiv_pos_as_xyz
  1  'x, y, z'
loop_
 _atom_site_type_symbol
 _atom_site_label
 _atom_site_symmetry_multiplicity
 _atom_site_fract_x
 _atom_site_fract_y
 _atom_site_fract_z
 _atom_site_occupancy
  Sm  Sm0  1  0.125000  0.750000  0.875000  1
  Sm  Sm1  1  0.375000  0.250000  0.625000  1
  Sb  Sb2  1  0.250000  0.681946  0.431946  1
  Sb  Sb3  1  0.568054  0.318054  0.250000  1
  Sb  Sb4  1  0.750000  0.818054  0.068054  1
  Sb  Sb5  1  0.931946  0.181946  0.750000  1
  Te  Te6  1  0.494899  0.002116  0.879370  1
  Te  Te7  1  0.120630  0.115529  0.122746  1
  Te  Te8  1  0.379370  0.502116  0.994899  1
  Te  Te9  1  0.622746  0.615529  0.620630  1
  Te  Te10  1  0.492783  0.997884  0.377254  1
  Te  Te11  1  0.005101  0.884471  0.507217  1
  Te  Te12  1  0.877254  0.497884  0.992783  1
  Te  Te13  1  0.007217  0.384471  0.505101  1
