# generated using pymatgen
data_Sr4Ti3O10
_symmetry_space_group_name_H-M   'P 1'
_cell_length_a   3.94301143
_cell_length_b   3.94301144
_cell_length_c   14.46952951
_cell_angle_alpha   97.83103669
_cell_angle_beta   97.83103669
_cell_angle_gamma   89.99999997
_symmetry_Int_Tables_number   1
_chemical_formula_structural   Sr4Ti3O10
_chemical_formula_sum   'Sr4 Ti3 O10'
_cell_volume   220.74682163
_cell_formula_units_Z   1
loop_
 _symmetry_equiv_pos_site_id
 _symmetry_equiv_pos_as_xyz
  1  'x, y, z'
loop_
 _atom_site_type_symbol
 _atom_site_label
 _atom_site_symmetry_multiplicity
 _atom_site_fract_x
 _atom_site_fract_y
 _atom_site_fract_z
 _atom_site_occupancy
  O  O0  1  0.138887  0.638887  0.277775  1
  O  O1  1  0.790666  0.790666  0.581333  1
  O  O2  1  0.209334  0.209334  0.418667  1
  O  O3  1  0.500000  0.000000  0.000000  1
  O  O4  1  0.000000  0.500000  0.000000  1
  O  O5  1  0.069410  0.069410  0.138820  1
  O  O6  1  0.930590  0.930590  0.861180  1
  O  O7  1  0.638887  0.138887  0.277775  1
  O  O8  1  0.361113  0.861113  0.722225  1
  O  O9  1  0.861113  0.361113  0.722225  1
  Ti  Ti10  1  0.000000  0.000000  0.000000  1
  Ti  Ti11  1  0.859846  0.859846  0.719693  1
  Ti  Ti12  1  0.140154  0.140154  0.280307  1
  Sr  Sr13  1  0.568332  0.568332  0.136664  1
  Sr  Sr14  1  0.431668  0.431668  0.863336  1
  Sr  Sr15  1  0.297738  0.297738  0.595476  1
  Sr  Sr16  1  0.702262  0.702262  0.404524  1
