# generated using pymatgen
data_Ag2Se
_symmetry_space_group_name_H-M   'P 1'
_cell_length_a   4.40168030
_cell_length_b   4.40168017
_cell_length_c   8.75989499
_cell_angle_alpha   108.59884368
_cell_angle_beta   108.59884300
_cell_angle_gamma   111.42413840
_symmetry_Int_Tables_number   1
_chemical_formula_structural   Ag2Se
_chemical_formula_sum   'Ag4 Se2'
_cell_volume   130.23488665
_cell_formula_units_Z   2
loop_
 _symmetry_equiv_pos_site_id
 _symmetry_equiv_pos_as_xyz
  1  'x, y, z'
loop_
 _atom_site_type_symbol
 _atom_site_label
 _atom_site_symmetry_multiplicity
 _atom_site_fract_x
 _atom_site_fract_y
 _atom_site_fract_z
 _atom_site_occupancy
  Ag  Ag0  1  0.210405  0.509168  0.359787  1
  Ag  Ag1  1  0.509168  0.210405  0.859787  1
  Ag  Ag2  1  0.490832  0.789595  0.140213  1
  Ag  Ag3  1  0.789595  0.490832  0.640213  1
  Se  Se4  1  -0.000000  -0.000000  0.500000  1
  Se  Se5  1  -0.000000  -0.000000  -0.000000  1
