# generated using pymatgen
data_Sn(NO3)4
_symmetry_space_group_name_H-M   'P 1'
_cell_length_a   8.07013965
_cell_length_b   9.08098588
_cell_length_c   14.30038515
_cell_angle_alpha   90.00000000
_cell_angle_beta   90.00000000
_cell_angle_gamma   103.07853537
_symmetry_Int_Tables_number   1
_chemical_formula_structural   Sn(NO3)4
_chemical_formula_sum   'Sn4 N16 O48'
_cell_volume   1020.81690867
_cell_formula_units_Z   4
loop_
 _symmetry_equiv_pos_site_id
 _symmetry_equiv_pos_as_xyz
  1  'x, y, z'
loop_
 _atom_site_type_symbol
 _atom_site_label
 _atom_site_symmetry_multiplicity
 _atom_site_fract_x
 _atom_site_fract_y
 _atom_site_fract_z
 _atom_site_occupancy
  N  N0  1  0.667580  0.158966  0.065631  1
  N  N1  1  0.082675  0.947725  0.242139  1
  N  N2  1  0.417325  0.552275  0.742139  1
  N  N3  1  0.917325  0.052275  0.757861  1
  N  N4  1  0.582675  0.447725  0.257861  1
  N  N5  1  0.832420  0.341034  0.565631  1
  N  N6  1  0.332420  0.841034  0.934369  1
  N  N7  1  0.167580  0.658966  0.434369  1
  N  N8  1  0.633191  0.031213  0.324661  1
  N  N9  1  0.866809  0.468787  0.824661  1
  N  N10  1  0.366809  0.968787  0.675339  1
  N  N11  1  0.133191  0.531213  0.175339  1
  N  N12  1  0.741602  0.735198  0.053115  1
  N  N13  1  0.758398  0.764802  0.553115  1
  N  N14  1  0.258398  0.264802  0.946885  1
  N  N15  1  0.241602  0.235198  0.446885  1
  O  O16  1  0.345598  0.269979  0.869625  1
  O  O17  1  0.215243  0.937238  0.277484  1
  O  O18  1  0.284757  0.562762  0.777484  1
  O  O19  1  0.784757  0.062762  0.722516  1
  O  O20  1  0.828525  0.175087  0.083295  1
  O  O21  1  0.671475  0.324913  0.583295  1
  O  O22  1  0.171475  0.824913  0.916705  1
  O  O23  1  0.328525  0.675087  0.416705  1
  O  O24  1  0.571598  0.035081  0.103500  1
  O  O25  1  0.928402  0.464919  0.603500  1
  O  O26  1  0.428402  0.964919  0.896500  1
  O  O27  1  0.071598  0.535081  0.396500  1
  O  O28  1  0.608543  0.246189  0.019807  1
  O  O29  1  0.891457  0.253812  0.519807  1
  O  O30  1  0.391457  0.753811  0.980193  1
  O  O31  1  0.108543  0.746189  0.480193  1
  O  O32  1  0.764957  0.122922  0.283799  1
  O  O33  1  0.735043  0.377078  0.783799  1
  O  O34  1  0.235043  0.877078  0.716201  1
  O  O35  1  0.264957  0.622922  0.216201  1
  O  O36  1  0.591091  0.899345  0.284691  1
  O  O37  1  0.908909  0.600655  0.784691  1
  O  O38  1  0.408909  0.100655  0.715309  1
  O  O39  1  0.091091  0.399345  0.215309  1
  O  O40  1  0.561387  0.069275  0.391246  1
  O  O41  1  0.938613  0.430725  0.891246  1
  O  O42  1  0.438613  0.930725  0.608754  1
  O  O43  1  0.061387  0.569275  0.108754  1
  O  O44  1  0.654402  0.730021  0.130375  1
  O  O45  1  0.845598  0.769979  0.630375  1
  O  O46  1  0.715243  0.437238  0.222516  1
  O  O47  1  0.154402  0.230021  0.369625  1
  O  O48  1  0.852202  0.866193  0.041688  1
  O  O49  1  0.647798  0.633807  0.541688  1
  O  O50  1  0.147798  0.133807  0.958312  1
  O  O51  1  0.566194  0.554886  0.315106  1
  O  O52  1  0.724657  0.633211  0.997692  1
  O  O53  1  0.775343  0.866789  0.497692  1
  O  O54  1  0.275343  0.366789  0.002308  1
  O  O55  1  0.224657  0.133211  0.502308  1
  O  O56  1  0.937429  0.849081  0.258569  1
  O  O57  1  0.562571  0.650919  0.758569  1
  O  O58  1  0.062571  0.150919  0.741431  1
  O  O59  1  0.437429  0.349081  0.241431  1
  O  O60  1  0.066194  0.054886  0.184894  1
  O  O61  1  0.433806  0.445114  0.684894  1
  O  O62  1  0.933806  0.945114  0.815106  1
  O  O63  1  0.352202  0.366193  0.458312  1
  Sn  Sn64  1  0.284672  0.465719  0.328763  1
  Sn  Sn65  1  0.215328  0.034281  0.828763  1
  Sn  Sn66  1  0.715328  0.534281  0.671237  1
  Sn  Sn67  1  0.784672  0.965719  0.171237  1
