# generated using pymatgen
data_Pr2USe4
_symmetry_space_group_name_H-M   'P 1'
_cell_length_a   7.70755881
_cell_length_b   7.70755847
_cell_length_c   7.70755821
_cell_angle_alpha   109.33885306
_cell_angle_beta   109.73626942
_cell_angle_gamma   109.33885800
_symmetry_Int_Tables_number   1
_chemical_formula_structural   Pr2USe4
_chemical_formula_sum   'Pr4 U2 Se8'
_cell_volume   352.46959608
_cell_formula_units_Z   2
loop_
 _symmetry_equiv_pos_site_id
 _symmetry_equiv_pos_as_xyz
  1  'x, y, z'
loop_
 _atom_site_type_symbol
 _atom_site_label
 _atom_site_symmetry_multiplicity
 _atom_site_fract_x
 _atom_site_fract_y
 _atom_site_fract_z
 _atom_site_occupancy
  Pr  Pr0  1  0.250000  0.626150  0.376150  1
  Pr  Pr1  1  0.750000  0.873850  0.123850  1
  Pr  Pr2  1  0.623850  0.373850  0.250000  1
  Pr  Pr3  1  0.876150  0.126150  0.750000  1
  U  U4  1  0.125000  0.750000  0.875000  1
  U  U5  1  0.375000  0.250000  0.625000  1
  Se  Se6  1  0.006025  0.851107  0.505011  1
  Se  Se7  1  0.005011  0.351107  0.506025  1
  Se  Se8  1  0.154918  0.148893  0.153904  1
  Se  Se9  1  0.494989  0.001015  0.346096  1
  Se  Se10  1  0.345082  0.498985  0.993975  1
  Se  Se11  1  0.653904  0.648893  0.654918  1
  Se  Se12  1  0.493975  0.998985  0.845082  1
  Se  Se13  1  0.846096  0.501015  0.994989  1
