# generated using pymatgen
data_BiPbF5
_symmetry_space_group_name_H-M   'P 1'
_cell_length_a   4.24825970
_cell_length_b   4.39394122
_cell_length_c   8.60657327
_cell_angle_alpha   58.29841869
_cell_angle_beta   59.09646778
_cell_angle_gamma   60.27549389
_symmetry_Int_Tables_number   1
_chemical_formula_structural   BiPbF5
_chemical_formula_sum   'Bi1 Pb1 F5'
_cell_volume   111.52185166
_cell_formula_units_Z   1
loop_
 _symmetry_equiv_pos_site_id
 _symmetry_equiv_pos_as_xyz
  1  'x, y, z'
loop_
 _atom_site_type_symbol
 _atom_site_label
 _atom_site_symmetry_multiplicity
 _atom_site_fract_x
 _atom_site_fract_y
 _atom_site_fract_z
 _atom_site_occupancy
  Bi  Bi0  1  0.017610  0.943389  0.960182  1
  F  F1  1  0.290095  0.238023  0.632060  1
  F  F2  1  0.659901  0.559138  0.181357  1
  F  F3  1  0.782364  0.772297  0.373075  1
  F  F4  1  0.411844  0.341388  0.974714  1
  F  F5  1  0.844147  0.811014  0.808559  1
  Pb  Pb6  1  0.990039  0.084751  0.445053  1
