# generated using pymatgen
data_BiTe3
_symmetry_space_group_name_H-M   'P 1'
_cell_length_a   8.65800305
_cell_length_b   8.65800373
_cell_length_c   8.65800384
_cell_angle_alpha   28.87162993
_cell_angle_beta   28.87162923
_cell_angle_gamma   28.87162765
_symmetry_Int_Tables_number   1
_chemical_formula_structural   BiTe3
_chemical_formula_sum   'Bi1 Te3'
_cell_volume   133.81008369
_cell_formula_units_Z   1
loop_
 _symmetry_equiv_pos_site_id
 _symmetry_equiv_pos_as_xyz
  1  'x, y, z'
loop_
 _atom_site_type_symbol
 _atom_site_label
 _atom_site_symmetry_multiplicity
 _atom_site_fract_x
 _atom_site_fract_y
 _atom_site_fract_z
 _atom_site_occupancy
  Bi  Bi0  1  0.392565  0.392565  0.392565  1
  Te  Te1  1  0.223477  0.223477  0.223477  1
  Te  Te2  1  0.977277  0.977277  0.977277  1
  Te  Te3  1  0.805180  0.805180  0.805180  1
