# generated using pymatgen
data_Fe3O4
_symmetry_space_group_name_H-M   'P 1'
_cell_length_a   6.09177582
_cell_length_b   6.02554109
_cell_length_c   17.25382725
_cell_angle_alpha   90.00000000
_cell_angle_beta   90.00000000
_cell_angle_gamma   90.00000000
_symmetry_Int_Tables_number   1
_chemical_formula_structural   Fe3O4
_chemical_formula_sum   'Fe24 O32'
_cell_volume   633.32321910
_cell_formula_units_Z   8
loop_
 _symmetry_equiv_pos_site_id
 _symmetry_equiv_pos_as_xyz
  1  'x, y, z'
loop_
 _atom_site_type_symbol
 _atom_site_label
 _atom_site_symmetry_multiplicity
 _atom_site_fract_x
 _atom_site_fract_y
 _atom_site_fract_z
 _atom_site_occupancy
  O  O0  1  0.496968  0.516213  0.625596  1
  O  O1  1  0.496968  0.483787  0.874404  1
  O  O2  1  0.503032  0.016214  0.374404  1
  O  O3  1  0.503032  0.983786  0.125596  1
  O  O4  1  0.503032  0.483787  0.374404  1
  O  O5  1  0.503032  0.516213  0.125596  1
  O  O6  1  0.496968  0.983786  0.625596  1
  O  O7  1  0.496968  0.016214  0.874404  1
  O  O8  1  0.997434  0.516094  0.624662  1
  O  O9  1  0.997434  0.483905  0.875338  1
  O  O10  1  0.002566  0.016095  0.375338  1
  O  O11  1  0.002566  0.983904  0.124662  1
  O  O12  1  0.002566  0.483905  0.375338  1
  O  O13  1  0.002566  0.516094  0.124662  1
  O  O14  1  0.997434  0.983904  0.624662  1
  O  O15  1  0.997434  0.016095  0.875338  1
  O  O16  1  0.758301  0.750000  0.243860  1
  O  O17  1  0.758301  0.250000  0.256140  1
  O  O18  1  0.241699  0.250000  0.756140  1
  O  O19  1  0.241699  0.750000  0.743860  1
  O  O20  1  0.249627  0.750000  0.243665  1
  O  O21  1  0.249627  0.250000  0.256334  1
  O  O22  1  0.750373  0.250000  0.756334  1
  O  O23  1  0.750373  0.750000  0.743665  1
  O  O24  1  0.744414  0.750000  0.006308  1
  O  O25  1  0.744414  0.250000  0.493693  1
  O  O26  1  0.255586  0.250000  0.993693  1
  O  O27  1  0.255586  0.750000  0.506307  1
  O  O28  1  0.747800  0.750000  0.506245  1
  O  O29  1  0.252200  0.250000  0.493755  1
  O  O30  1  0.747800  0.250000  0.993755  1
  O  O31  1  0.252200  0.750000  0.006245  1
  Fe  Fe32  1  0.753403  0.750000  0.125341  1
  Fe  Fe33  1  0.753403  0.250000  0.374660  1
  Fe  Fe34  1  0.246596  0.250000  0.874660  1
  Fe  Fe35  1  0.246596  0.750000  0.625341  1
  Fe  Fe36  1  0.253539  0.750000  0.124553  1
  Fe  Fe37  1  0.253539  0.250000  0.375446  1
  Fe  Fe38  1  0.746461  0.250000  0.875447  1
  Fe  Fe39  1  0.746461  0.750000  0.624553  1
  Fe  Fe40  1  0.995498  0.500001  0.750000  1
  Fe  Fe41  1  0.004502  0.000000  0.250000  1
  Fe  Fe42  1  0.004502  0.500001  0.250000  1
  Fe  Fe43  1  0.995498  0.000000  0.750000  1
  Fe  Fe44  1  0.500001  0.500001  0.500000  1
  Fe  Fe45  1  0.500001  0.500001  0.000000  1
  Fe  Fe46  1  0.500001  0.000000  0.500000  1
  Fe  Fe47  1  0.500001  0.000000  0.000000  1
  Fe  Fe48  1  0.503642  0.750000  0.309518  1
  Fe  Fe49  1  0.503642  0.250000  0.190482  1
  Fe  Fe50  1  0.496357  0.250000  0.690482  1
  Fe  Fe51  1  0.496357  0.750000  0.809518  1
  Fe  Fe52  1  0.000924  0.750000  0.440393  1
  Fe  Fe53  1  0.000924  0.250000  0.059607  1
  Fe  Fe54  1  0.999075  0.250000  0.559606  1
  Fe  Fe55  1  0.999075  0.750000  0.940393  1
