# generated using pymatgen
data_Na2SiF6
_symmetry_space_group_name_H-M   'P 1'
_cell_length_a   9.01998580
_cell_length_b   9.01998580
_cell_length_c   5.11475439
_cell_angle_alpha   90.00000000
_cell_angle_beta   90.00000000
_cell_angle_gamma   119.99999998
_symmetry_Int_Tables_number   1
_chemical_formula_structural   Na2SiF6
_chemical_formula_sum   'Na6 Si3 F18'
_cell_volume   360.38534607
_cell_formula_units_Z   3
loop_
 _symmetry_equiv_pos_site_id
 _symmetry_equiv_pos_as_xyz
  1  'x, y, z'
loop_
 _atom_site_type_symbol
 _atom_site_label
 _atom_site_symmetry_multiplicity
 _atom_site_fract_x
 _atom_site_fract_y
 _atom_site_fract_z
 _atom_site_occupancy
  F  F0  1  0.739723  0.226907  0.686961  1
  F  F1  1  0.773093  0.512816  0.686961  1
  F  F2  1  0.487184  0.260277  0.686961  1
  F  F3  1  0.512816  0.773093  0.313039  1
  F  F4  1  0.260277  0.487184  0.313039  1
  F  F5  1  0.226907  0.739723  0.313039  1
  F  F6  1  0.596782  0.442157  0.299639  1
  F  F7  1  0.557843  0.154625  0.299639  1
  F  F8  1  0.845375  0.403218  0.299639  1
  F  F9  1  0.084898  0.904496  0.808264  1
  F  F10  1  0.095504  0.180402  0.808264  1
  F  F11  1  0.819598  0.915102  0.808264  1
  F  F12  1  0.180402  0.095504  0.191736  1
  F  F13  1  0.915102  0.819598  0.191736  1
  F  F14  1  0.904496  0.084898  0.191736  1
  F  F15  1  0.442157  0.596782  0.700361  1
  F  F16  1  0.403218  0.845375  0.700361  1
  F  F17  1  0.154625  0.557843  0.700361  1
  Na  Na18  1  0.000000  0.288359  0.500000  1
  Na  Na19  1  0.288359  0.000000  0.500000  1
  Na  Na20  1  0.711641  0.711641  0.500000  1
  Na  Na21  1  0.000000  0.622750  0.000000  1
  Na  Na22  1  0.622750  0.000000  0.000000  1
  Na  Na23  1  0.377250  0.377250  0.000000  1
  Si  Si24  1  0.666667  0.333333  0.493487  1
  Si  Si25  1  0.333333  0.666667  0.506513  1
  Si  Si26  1  0.000000  0.000000  0.000000  1
