# generated using pymatgen
data_Ga3Ni13Ge6
_symmetry_space_group_name_H-M   'P 1'
_cell_length_a   7.89462549
_cell_length_b   7.89462586
_cell_length_c   15.11128266
_cell_angle_alpha   90.00000000
_cell_angle_beta   90.00000000
_cell_angle_gamma   119.99999850
_symmetry_Int_Tables_number   1
_chemical_formula_structural   Ga3Ni13Ge6
_chemical_formula_sum   'Ga9 Ni39 Ge18'
_cell_volume   815.63349586
_cell_formula_units_Z   3
loop_
 _symmetry_equiv_pos_site_id
 _symmetry_equiv_pos_as_xyz
  1  'x, y, z'
loop_
 _atom_site_type_symbol
 _atom_site_label
 _atom_site_symmetry_multiplicity
 _atom_site_fract_x
 _atom_site_fract_y
 _atom_site_fract_z
 _atom_site_occupancy
  Ni  Ni0  1  0.008280  0.000000  0.333333  1
  Ni  Ni1  1  1.000000  0.008280  0.666667  1
  Ni  Ni2  1  0.991720  0.991720  0.000000  1
  Ni  Ni3  1  0.491758  0.000000  0.333333  1
  Ni  Ni4  1  0.000000  0.491758  0.666667  1
  Ni  Ni5  1  0.508242  0.508242  0.000000  1
  Ni  Ni6  1  0.998236  0.000000  0.833333  1
  Ni  Ni7  1  0.000000  0.998236  0.166667  1
  Ni  Ni8  1  0.001764  0.001764  0.500000  1
  Ni  Ni9  1  0.502345  0.996719  0.998281  1
  Ni  Ni10  1  0.003281  0.505626  0.331614  1
  Ni  Ni11  1  0.494374  0.497655  0.664948  1
  Ni  Ni12  1  0.505626  0.003281  0.668386  1
  Ni  Ni13  1  0.497655  0.494374  0.335052  1
  Ni  Ni14  1  0.996719  0.502345  0.001719  1
  Ni  Ni15  1  0.496753  0.002229  0.166313  1
  Ni  Ni16  1  0.997771  0.494525  0.499647  1
  Ni  Ni17  1  0.505475  0.503247  0.832980  1
  Ni  Ni18  1  0.494525  0.997771  0.500353  1
  Ni  Ni19  1  0.503247  0.505475  0.167020  1
  Ni  Ni20  1  0.002229  0.496753  0.833687  1
  Ni  Ni21  1  0.679584  0.342155  0.246270  1
  Ni  Ni22  1  0.657845  0.337429  0.579603  1
  Ni  Ni23  1  0.662571  0.320416  0.912936  1
  Ni  Ni24  1  0.337429  0.657845  0.420397  1
  Ni  Ni25  1  0.320416  0.662571  0.087064  1
  Ni  Ni26  1  0.342155  0.679584  0.753730  1
  Ni  Ni27  1  0.340975  0.181700  0.426407  1
  Ni  Ni28  1  0.818300  0.159275  0.759740  1
  Ni  Ni29  1  0.840725  0.659025  0.093073  1
  Ni  Ni30  1  0.159275  0.818300  0.240260  1
  Ni  Ni31  1  0.659025  0.840725  0.906927  1
  Ni  Ni32  1  0.181700  0.340975  0.573593  1
  Ni  Ni33  1  0.340660  0.164820  0.750989  1
  Ni  Ni34  1  0.835180  0.175840  0.084322  1
  Ni  Ni35  1  0.824160  0.659340  0.417656  1
  Ni  Ni36  1  0.175840  0.835180  0.915678  1
  Ni  Ni37  1  0.659340  0.824160  0.582344  1
  Ni  Ni38  1  0.164820  0.340660  0.249011  1
  Ga  Ga39  1  0.489957  0.000000  0.833333  1
  Ga  Ga40  1  0.000000  0.489957  0.166667  1
  Ga  Ga41  1  0.510043  0.510043  0.500000  1
  Ga  Ga42  1  0.305503  0.194149  0.920058  1
  Ga  Ga43  1  0.805851  0.111354  0.253392  1
  Ga  Ga44  1  0.888646  0.694497  0.586725  1
  Ga  Ga45  1  0.111354  0.805851  0.746608  1
  Ga  Ga46  1  0.694497  0.888646  0.413275  1
  Ga  Ga47  1  0.194149  0.305503  0.079942  1
  Ge  Ge48  1  0.613213  0.306290  0.077724  1
  Ge  Ge49  1  0.693710  0.306923  0.411057  1
  Ge  Ge50  1  0.693077  0.386787  0.744391  1
  Ge  Ge51  1  0.306923  0.693710  0.588943  1
  Ge  Ge52  1  0.386787  0.693077  0.255609  1
  Ge  Ge53  1  0.306290  0.613213  0.922276  1
  Ge  Ge54  1  0.333874  0.167133  0.252147  1
  Ge  Ge55  1  0.832867  0.166741  0.585480  1
  Ge  Ge56  1  0.833259  0.666126  0.918813  1
  Ge  Ge57  1  0.166741  0.832867  0.414520  1
  Ge  Ge58  1  0.666126  0.833259  0.081187  1
  Ge  Ge59  1  0.167133  0.333874  0.747853  1
  Ge  Ge60  1  0.307118  0.113721  0.589484  1
  Ge  Ge61  1  0.886279  0.193396  0.922818  1
  Ge  Ge62  1  0.806604  0.692882  0.256151  1
  Ge  Ge63  1  0.193396  0.886279  0.077182  1
  Ge  Ge64  1  0.692882  0.806604  0.743849  1
  Ge  Ge65  1  0.113721  0.307118  0.410516  1
