# generated using pymatgen
data_Nd2UTe4
_symmetry_space_group_name_H-M   'P 1'
_cell_length_a   8.20592219
_cell_length_b   8.20592277
_cell_length_c   8.20592272
_cell_angle_alpha   109.34249443
_cell_angle_beta   109.72898030
_cell_angle_gamma   109.34249637
_symmetry_Int_Tables_number   1
_chemical_formula_structural   Nd2UTe4
_chemical_formula_sum   'Nd4 U2 Te8'
_cell_volume   425.35716126
_cell_formula_units_Z   2
loop_
 _symmetry_equiv_pos_site_id
 _symmetry_equiv_pos_as_xyz
  1  'x, y, z'
loop_
 _atom_site_type_symbol
 _atom_site_label
 _atom_site_symmetry_multiplicity
 _atom_site_fract_x
 _atom_site_fract_y
 _atom_site_fract_z
 _atom_site_occupancy
  Nd  Nd0  1  0.250000  0.625424  0.375424  1
  Nd  Nd1  1  0.750000  0.874576  0.124576  1
  Nd  Nd2  1  0.624576  0.374576  0.250000  1
  Nd  Nd3  1  0.875424  0.125424  0.750000  1
  Te  Te4  1  0.004522  0.849625  0.503972  1
  Te  Te5  1  0.003972  0.349625  0.504522  1
  Te  Te6  1  0.496028  0.000550  0.345652  1
  Te  Te7  1  0.154898  0.150375  0.154348  1
  Te  Te8  1  0.345102  0.499450  0.995478  1
  Te  Te9  1  0.495478  0.999450  0.845102  1
  Te  Te10  1  0.654348  0.650375  0.654898  1
  Te  Te11  1  0.845652  0.500550  0.996028  1
  U  U12  1  0.125000  0.750000  0.875000  1
  U  U13  1  0.375000  0.250000  0.625000  1
