# generated using pymatgen
data_Er(SiAu)2
_symmetry_space_group_name_H-M   'P 1'
_cell_length_a   4.25713147
_cell_length_b   4.25713147
_cell_length_c   5.94332110
_cell_angle_alpha   110.98626600
_cell_angle_beta   110.98626607
_cell_angle_gamma   90.00000005
_symmetry_Int_Tables_number   1
_chemical_formula_structural   Er(SiAu)2
_chemical_formula_sum   'Er1 Si2 Au2'
_cell_volume   92.87391158
_cell_formula_units_Z   1
loop_
 _symmetry_equiv_pos_site_id
 _symmetry_equiv_pos_as_xyz
  1  'x, y, z'
loop_
 _atom_site_type_symbol
 _atom_site_label
 _atom_site_symmetry_multiplicity
 _atom_site_fract_x
 _atom_site_fract_y
 _atom_site_fract_z
 _atom_site_occupancy
  Si  Si0  1  0.611430  0.611430  0.222860  1
  Si  Si1  1  0.388570  0.388570  0.777140  1
  Er  Er2  1  0.000000  0.000000  0.000000  1
  Au  Au3  1  0.250000  0.750000  0.500000  1
  Au  Au4  1  0.750000  0.250000  0.500000  1
