# generated using pymatgen
data_Ta2MnZn2O8
_symmetry_space_group_name_H-M   'P 1'
_cell_length_a   5.32818228
_cell_length_b   5.98703386
_cell_length_c   10.24236041
_cell_angle_alpha   106.77148068
_cell_angle_beta   89.98824404
_cell_angle_gamma   89.98108202
_symmetry_Int_Tables_number   1
_chemical_formula_structural   Ta2MnZn2O8
_chemical_formula_sum   'Ta4 Mn2 Zn4 O16'
_cell_volume   312.83325143
_cell_formula_units_Z   2
loop_
 _symmetry_equiv_pos_site_id
 _symmetry_equiv_pos_as_xyz
  1  'x, y, z'
loop_
 _atom_site_type_symbol
 _atom_site_label
 _atom_site_symmetry_multiplicity
 _atom_site_fract_x
 _atom_site_fract_y
 _atom_site_fract_z
 _atom_site_occupancy
  Ta  Ta0  1  0.731782  0.271787  0.233381  1
  Ta  Ta1  1  0.768800  0.039559  0.767248  1
  Ta  Ta2  1  0.268919  0.729407  0.767396  1
  Ta  Ta3  1  0.232276  0.960708  0.233228  1
  Mn  Mn4  1  0.750092  0.651094  0.000510  1
  Mn  Mn5  1  0.249420  0.347163  0.999295  1
  Zn  Zn6  1  0.770557  0.434971  0.564720  1
  Zn  Zn7  1  0.729862  0.870753  0.437947  1
  Zn  Zn8  1  0.228393  0.565478  0.435294  1
  Zn  Zn9  1  0.269913  0.131780  0.562168  1
  O  O10  1  0.065477  0.183964  0.143521  1
  O  O11  1  0.435346  0.040755  0.857510  1
  O  O12  1  0.936269  0.818369  0.858281  1
  O  O13  1  0.566098  0.959412  0.143686  1
  O  O14  1  0.594107  0.429784  0.119798  1
  O  O15  1  0.904591  0.312208  0.879980  1
  O  O16  1  0.405061  0.568496  0.879914  1
  O  O17  1  0.095577  0.688906  0.120462  1
  O  O18  1  0.430418  0.282392  0.356244  1
  O  O19  1  0.070275  0.929722  0.644774  1
  O  O20  1  0.359286  0.843957  0.388573  1
  O  O21  1  0.141953  0.458898  0.611992  1
  O  O22  1  0.640756  0.156679  0.612100  1
  O  O23  1  0.857508  0.543723  0.388160  1
  O  O24  1  0.932024  0.073194  0.356941  1
  O  O25  1  0.571650  0.718923  0.645292  1
