# generated using pymatgen
data_Rb6Te2O9
_symmetry_space_group_name_H-M   'P 1'
_cell_length_a   8.91209123
_cell_length_b   8.91209122
_cell_length_c   11.22966096
_cell_angle_alpha   112.06831836
_cell_angle_beta   112.06831838
_cell_angle_gamma   92.94646643
_symmetry_Int_Tables_number   1
_chemical_formula_structural   Rb6Te2O9
_chemical_formula_sum   'Rb12 Te4 O18'
_cell_volume   746.51459199
_cell_formula_units_Z   2
loop_
 _symmetry_equiv_pos_site_id
 _symmetry_equiv_pos_as_xyz
  1  'x, y, z'
loop_
 _atom_site_type_symbol
 _atom_site_label
 _atom_site_symmetry_multiplicity
 _atom_site_fract_x
 _atom_site_fract_y
 _atom_site_fract_z
 _atom_site_occupancy
  O  O0  1  0.366455  0.906919  0.284811  1
  O  O1  1  0.093081  0.633545  0.215189  1
  O  O2  1  0.633545  0.093081  0.715189  1
  O  O3  1  0.906919  0.366455  0.784811  1
  O  O4  1  0.986592  0.114543  0.907034  1
  O  O5  1  0.885457  0.013408  0.592966  1
  O  O6  1  0.013408  0.885457  0.092966  1
  O  O7  1  0.114543  0.986592  0.407034  1
  O  O8  1  0.417074  0.331204  0.255799  1
  O  O9  1  0.668796  0.582926  0.244201  1
  O  O10  1  0.582926  0.668796  0.744201  1
  O  O11  1  0.331204  0.417074  0.755799  1
  O  O12  1  0.736491  0.479589  0.457735  1
  O  O13  1  0.520411  0.263509  0.042265  1
  O  O14  1  0.263509  0.520411  0.542265  1
  O  O15  1  0.479589  0.736491  0.957735  1
  O  O16  1  0.225720  0.774280  0.750000  1
  O  O17  1  0.774280  0.225720  0.250000  1
  Rb  Rb18  1  0.303229  0.500892  0.022975  1
  Rb  Rb19  1  0.499108  0.696771  0.477025  1
  Rb  Rb20  1  0.696771  0.499108  0.977025  1
  Rb  Rb21  1  0.500892  0.303229  0.522975  1
  Rb  Rb22  1  0.294268  0.000420  0.027726  1
  Rb  Rb23  1  0.999580  0.705732  0.472274  1
  Rb  Rb24  1  0.705732  0.999580  0.972274  1
  Rb  Rb25  1  0.000420  0.294268  0.527726  1
  Rb  Rb26  1  0.675805  0.900824  0.261095  1
  Rb  Rb27  1  0.099176  0.324195  0.238905  1
  Rb  Rb28  1  0.324195  0.099176  0.738905  1
  Rb  Rb29  1  0.900824  0.675805  0.761095  1
  Te  Te30  1  0.374209  0.625791  0.750000  1
  Te  Te31  1  0.625791  0.374209  0.250000  1
  Te  Te32  1  0.145915  0.854085  0.250000  1
  Te  Te33  1  0.854085  0.145915  0.750000  1
