# generated using pymatgen
data_Ti6O11
_symmetry_space_group_name_H-M   'P 1'
_cell_length_a   7.57077155
_cell_length_b   12.14901895
_cell_length_c   13.50046195
_cell_angle_alpha   98.16036349
_cell_angle_beta   105.33291203
_cell_angle_gamma   108.06050161
_symmetry_Int_Tables_number   1
_chemical_formula_structural   Ti6O11
_chemical_formula_sum   'Ti36 O66'
_cell_volume   1104.06118430
_cell_formula_units_Z   6
loop_
 _symmetry_equiv_pos_site_id
 _symmetry_equiv_pos_as_xyz
  1  'x, y, z'
loop_
 _atom_site_type_symbol
 _atom_site_label
 _atom_site_symmetry_multiplicity
 _atom_site_fract_x
 _atom_site_fract_y
 _atom_site_fract_z
 _atom_site_occupancy
  Ti  Ti0  1  0.192257  0.294759  0.859734  1
  Ti  Ti1  1  0.807165  0.373413  0.807448  1
  Ti  Ti2  1  0.573194  0.247670  0.505353  1
  Ti  Ti3  1  0.138833  0.692797  0.610348  1
  Ti  Ti4  1  0.640023  0.526478  0.442057  1
  Ti  Ti5  1  0.860532  0.641048  0.723268  1
  Ti  Ti6  1  0.362170  0.806655  0.891635  1
  Ti  Ti7  1  0.695192  0.464583  0.024666  1
  Ti  Ti8  1  0.139468  0.358952  0.276732  1
  Ti  Ti9  1  0.428104  0.085488  0.828296  1
  Ti  Ti10  1  0.073869  0.415614  0.672315  1
  Ti  Ti11  1  0.360184  0.138195  0.225388  1
  Ti  Ti12  1  0.925645  0.251434  0.994910  1
  Ti  Ti13  1  0.926131  0.584386  0.327685  1
  Ti  Ti14  1  0.305435  0.203758  0.641096  1
  Ti  Ti15  1  0.924857  0.917450  0.659954  1
  Ti  Ti16  1  0.426806  0.752330  0.494647  1
  Ti  Ti17  1  0.304808  0.535417  0.975334  1
  Ti  Ti18  1  0.694565  0.796242  0.358904  1
  Ti  Ti19  1  0.698677  0.131692  0.692729  1
  Ti  Ti20  1  0.806130  0.037502  0.472731  1
  Ti  Ti21  1  0.139226  0.027102  0.943605  1
  Ti  Ti22  1  0.861167  0.307203  0.389652  1
  Ti  Ti23  1  0.571896  0.914512  0.171704  1
  Ti  Ti24  1  0.807743  0.705241  0.140266  1
  Ti  Ti25  1  0.301323  0.868308  0.307271  1
  Ti  Ti26  1  0.639816  0.861805  0.774612  1
  Ti  Ti27  1  0.429679  0.417370  0.161793  1
  Ti  Ti28  1  0.074355  0.748566  0.005090  1
  Ti  Ti29  1  0.359977  0.473522  0.557943  1
  Ti  Ti30  1  0.193870  0.962498  0.527269  1
  Ti  Ti31  1  0.570321  0.582630  0.838207  1
  Ti  Ti32  1  0.075143  0.082550  0.340046  1
  Ti  Ti33  1  0.860774  0.972898  0.056395  1
  Ti  Ti34  1  0.637830  0.193345  0.108365  1
  Ti  Ti35  1  0.192835  0.626587  0.192552  1
  O  O36  1  0.642688  0.162490  0.957641  1
  O  O37  1  0.906842  0.557912  0.166438  1
  O  O38  1  0.700289  0.380403  0.456837  1
  O  O39  1  0.641561  0.829935  0.623758  1
  O  O40  1  0.454405  0.437469  0.904076  1
  O  O41  1  0.358439  0.170065  0.376242  1
  O  O42  1  0.359037  0.771031  0.744410  1
  O  O43  1  0.302918  0.953786  0.877861  1
  O  O44  1  0.426459  0.321485  0.578601  1
  O  O45  1  0.736868  0.168740  0.454102  1
  O  O46  1  0.357312  0.837510  0.042359  1
  O  O47  1  0.457356  0.103866  0.571544  1
  O  O48  1  0.982282  0.108328  0.999487  1
  O  O49  1  0.301916  0.285417  0.210747  1
  O  O50  1  0.076300  0.044562  0.198268  1
  O  O51  1  0.078206  0.379638  0.530395  1
  O  O52  1  0.173205  0.943126  0.378537  1
  O  O53  1  0.923700  0.955438  0.801732  1
  O  O54  1  0.199773  0.032199  0.677092  1
  O  O55  1  0.921794  0.620362  0.469605  1
  O  O56  1  0.263132  0.831260  0.545898  1
  O  O57  1  0.094499  0.775163  0.165974  1
  O  O58  1  0.573541  0.678515  0.421399  1
  O  O59  1  0.357400  0.505719  0.709108  1
  O  O60  1  0.359167  0.437279  0.411743  1
  O  O61  1  0.544633  0.231039  0.762982  1
  O  O62  1  0.093158  0.442088  0.833562  1
  O  O63  1  0.299711  0.619597  0.543163  1
  O  O64  1  0.826795  0.056874  0.621463  1
  O  O65  1  0.262504  0.164518  0.880918  1
  O  O66  1  0.984229  0.441709  0.331599  1
  O  O67  1  0.357808  0.103504  0.078502  1
  O  O68  1  0.425666  0.655341  0.912470  1
  O  O69  1  0.093696  0.108672  0.499927  1
  O  O70  1  0.263118  0.496442  0.213300  1
  O  O71  1  0.642600  0.494281  0.290892  1
  O  O72  1  0.905501  0.224837  0.834026  1
  O  O73  1  0.921904  0.287382  0.136215  1
  O  O74  1  0.697082  0.046214  0.122139  1
  O  O75  1  0.425655  0.986918  0.245157  1
  O  O76  1  0.199487  0.698227  0.342937  1
  O  O77  1  0.800227  0.967801  0.322908  1
  O  O78  1  0.736882  0.503558  0.786700  1
  O  O79  1  0.017252  0.224960  0.334336  1
  O  O80  1  0.200099  0.364851  0.010550  1
  O  O81  1  0.737496  0.835482  0.119082  1
  O  O82  1  0.640963  0.228969  0.255590  1
  O  O83  1  0.545595  0.562531  0.095924  1
  O  O84  1  0.800513  0.301773  0.657063  1
  O  O85  1  0.574345  0.013082  0.754843  1
  O  O86  1  0.640833  0.562721  0.588257  1
  O  O87  1  0.799901  0.635149  0.989450  1
  O  O88  1  0.906304  0.891328  0.500073  1
  O  O89  1  0.542644  0.896134  0.428456  1
  O  O90  1  0.078096  0.712618  0.863785  1
  O  O91  1  0.015771  0.558291  0.668401  1
  O  O92  1  0.017718  0.891672  0.000513  1
  O  O93  1  0.982748  0.775040  0.665664  1
  O  O94  1  0.826643  0.723034  0.288720  1
  O  O95  1  0.698084  0.714583  0.789253  1
  O  O96  1  0.642192  0.896496  0.921498  1
  O  O97  1  0.827230  0.390558  0.955190  1
  O  O98  1  0.455367  0.768961  0.237018  1
  O  O99  1  0.173357  0.276966  0.711280  1
  O  O100  1  0.172770  0.609442  0.044810  1
  O  O101  1  0.574334  0.344659  0.087530  1
