# generated using pymatgen
data_Bi13O20
_symmetry_space_group_name_H-M   'P 1'
_cell_length_a   9.05107767
_cell_length_b   9.05107753
_cell_length_c   9.05107687
_cell_angle_alpha   109.47122086
_cell_angle_beta   109.47122023
_cell_angle_gamma   109.47121880
_symmetry_Int_Tables_number   1
_chemical_formula_structural   Bi13O20
_chemical_formula_sum   'Bi13 O20'
_cell_volume   570.79340968
_cell_formula_units_Z   1
loop_
 _symmetry_equiv_pos_site_id
 _symmetry_equiv_pos_as_xyz
  1  'x, y, z'
loop_
 _atom_site_type_symbol
 _atom_site_label
 _atom_site_symmetry_multiplicity
 _atom_site_fract_x
 _atom_site_fract_y
 _atom_site_fract_z
 _atom_site_occupancy
  Bi  Bi0  1  0.193441  0.856652  0.694612  1
  Bi  Bi1  1  0.498829  0.305388  0.162041  1
  Bi  Bi2  1  0.336789  0.837959  0.143348  1
  Bi  Bi3  1  0.000000  0.000000  0.000000  1
  Bi  Bi4  1  0.694612  0.193441  0.856652  1
  Bi  Bi5  1  0.837959  0.143348  0.336789  1
  Bi  Bi6  1  0.501171  0.663211  0.806559  1
  Bi  Bi7  1  0.663211  0.806559  0.501171  1
  Bi  Bi8  1  0.856652  0.694612  0.193441  1
  Bi  Bi9  1  0.162041  0.498829  0.305388  1
  Bi  Bi10  1  0.806559  0.501171  0.663211  1
  Bi  Bi11  1  0.143348  0.336789  0.837959  1
  Bi  Bi12  1  0.305388  0.162041  0.498829  1
  O  O13  1  0.253487  0.624738  0.890886  1
  O  O14  1  1.000000  0.761038  1.000000  1
  O  O15  1  0.000000  0.000000  0.761038  1
  O  O16  1  0.109114  0.733852  0.362602  1
  O  O17  1  1.000000  1.000000  0.373106  1
  O  O18  1  0.000000  0.373106  0.000000  1
  O  O19  1  0.371251  0.746513  0.637398  1
  O  O20  1  0.266148  0.375262  0.628749  1
  O  O21  1  0.362602  0.109114  0.733852  1
  O  O22  1  0.238962  0.238962  0.238962  1
  O  O23  1  0.375262  0.628749  0.266148  1
  O  O24  1  0.626894  0.626894  0.626894  1
  O  O25  1  0.624738  0.890886  0.253487  1
  O  O26  1  0.637398  0.371251  0.746513  1
  O  O27  1  0.628749  0.266148  0.375262  1
  O  O28  1  0.746513  0.637398  0.371251  1
  O  O29  1  0.733852  0.362602  0.109114  1
  O  O30  1  0.890886  0.253487  0.624738  1
  O  O31  1  0.373106  0.000000  0.000000  1
  O  O32  1  0.761038  1.000000  1.000000  1
