# generated using pymatgen
data_RbCO3
_symmetry_space_group_name_H-M   'P 1'
_cell_length_a   7.87814382
_cell_length_b   8.04467865
_cell_length_c   10.71095946
_cell_angle_alpha   90.00000000
_cell_angle_beta   90.00000000
_cell_angle_gamma   101.50483664
_symmetry_Int_Tables_number   1
_chemical_formula_structural   RbCO3
_chemical_formula_sum   'Rb8 C8 O24'
_cell_volume   665.19078928
_cell_formula_units_Z   8
loop_
 _symmetry_equiv_pos_site_id
 _symmetry_equiv_pos_as_xyz
  1  'x, y, z'
loop_
 _atom_site_type_symbol
 _atom_site_label
 _atom_site_symmetry_multiplicity
 _atom_site_fract_x
 _atom_site_fract_y
 _atom_site_fract_z
 _atom_site_occupancy
  C  C0  1  0.814284  0.036682  0.774509  1
  C  C1  1  0.314284  0.036682  0.725491  1
  C  C2  1  0.185716  0.963318  0.225491  1
  C  C3  1  0.685716  0.963318  0.274509  1
  C  C4  1  0.806131  0.552785  0.221546  1
  C  C5  1  0.693869  0.447215  0.721546  1
  C  C6  1  0.193869  0.447215  0.778454  1
  C  C7  1  0.306131  0.552785  0.278454  1
  O  O8  1  0.228159  0.827439  0.294620  1
  O  O9  1  0.271841  0.172561  0.794620  1
  O  O10  1  0.771841  0.172561  0.705380  1
  O  O11  1  0.728159  0.827439  0.205380  1
  O  O12  1  0.274271  0.693112  0.209100  1
  O  O13  1  0.225729  0.306888  0.709100  1
  O  O14  1  0.725729  0.306888  0.790900  1
  O  O15  1  0.774271  0.693112  0.290900  1
  O  O16  1  0.141913  0.066508  0.301881  1
  O  O17  1  0.358087  0.933492  0.801881  1
  O  O18  1  0.858087  0.933492  0.698119  1
  O  O19  1  0.641913  0.066508  0.198119  1
  O  O20  1  0.287997  0.547137  0.394619  1
  O  O21  1  0.212003  0.452863  0.894619  1
  O  O22  1  0.712003  0.452863  0.605381  1
  O  O23  1  0.787997  0.547137  0.105381  1
  O  O24  1  0.350545  0.448880  0.203126  1
  O  O25  1  0.149455  0.551120  0.703126  1
  O  O26  1  0.649455  0.551120  0.796874  1
  O  O27  1  0.850545  0.448880  0.296874  1
  O  O28  1  0.303369  0.032976  0.609065  1
  O  O29  1  0.803369  0.032976  0.890935  1
  O  O30  1  0.696631  0.967024  0.390935  1
  O  O31  1  0.196631  0.967024  0.109065  1
  Rb  Rb32  1  0.993895  0.251528  0.086332  1
  Rb  Rb33  1  0.506105  0.748472  0.586332  1
  Rb  Rb34  1  0.006105  0.748472  0.913668  1
  Rb  Rb35  1  0.493895  0.251528  0.413668  1
  Rb  Rb36  1  0.994363  0.254201  0.487062  1
  Rb  Rb37  1  0.505637  0.745799  0.987062  1
  Rb  Rb38  1  0.005637  0.745799  0.512938  1
  Rb  Rb39  1  0.494363  0.254201  0.012938  1
