# generated using pymatgen
data_Cr2ReO6
_symmetry_space_group_name_H-M   'P 1'
_cell_length_a   4.60862726
_cell_length_b   4.60862726
_cell_length_c   9.15670770
_cell_angle_alpha   90.00000000
_cell_angle_beta   90.00000000
_cell_angle_gamma   90.00000000
_symmetry_Int_Tables_number   1
_chemical_formula_structural   Cr2ReO6
_chemical_formula_sum   'Cr4 Re2 O12'
_cell_volume   194.48339160
_cell_formula_units_Z   2
loop_
 _symmetry_equiv_pos_site_id
 _symmetry_equiv_pos_as_xyz
  1  'x, y, z'
loop_
 _atom_site_type_symbol
 _atom_site_label
 _atom_site_symmetry_multiplicity
 _atom_site_fract_x
 _atom_site_fract_y
 _atom_site_fract_z
 _atom_site_occupancy
  O  O0  1  0.692203  0.692203  0.662030  1
  O  O1  1  0.307797  0.307797  0.662030  1
  O  O2  1  0.692203  0.692203  0.337970  1
  O  O3  1  0.192203  0.807797  0.162030  1
  O  O4  1  0.807797  0.192203  0.162030  1
  O  O5  1  0.807797  0.192203  0.837970  1
  O  O6  1  0.294910  0.294910  0.000000  1
  O  O7  1  0.205090  0.794910  0.500000  1
  O  O8  1  0.794910  0.205090  0.500000  1
  O  O9  1  0.705090  0.705090  0.000000  1
  O  O10  1  0.307797  0.307797  0.337970  1
  O  O11  1  0.192203  0.807797  0.837970  1
  Cr  Cr12  1  0.000000  0.000000  0.334077  1
  Cr  Cr13  1  0.500000  0.500000  0.834077  1
  Cr  Cr14  1  0.000000  0.000000  0.665923  1
  Cr  Cr15  1  0.500000  0.500000  0.165923  1
  Re  Re16  1  0.000000  0.000000  0.000000  1
  Re  Re17  1  0.500000  0.500000  0.500000  1
