# generated using pymatgen
data_Ba(IO3)2
_symmetry_space_group_name_H-M   'P 1'
_cell_length_a   7.58253620
_cell_length_b   7.58253620
_cell_length_c   7.96726767
_cell_angle_alpha   100.39142008
_cell_angle_beta   113.59950696
_cell_angle_gamma   112.94343111
_symmetry_Int_Tables_number   1
_chemical_formula_structural   Ba(IO3)2
_chemical_formula_sum   'Ba2 I4 O12'
_cell_volume   354.50930825
_cell_formula_units_Z   2
loop_
 _symmetry_equiv_pos_site_id
 _symmetry_equiv_pos_as_xyz
  1  'x, y, z'
loop_
 _atom_site_type_symbol
 _atom_site_label
 _atom_site_symmetry_multiplicity
 _atom_site_fract_x
 _atom_site_fract_y
 _atom_site_fract_z
 _atom_site_occupancy
  O  O0  1  0.649468  0.240703  0.576106  1
  O  O1  1  0.164596  0.073362  0.923894  1
  O  O2  1  0.350532  0.759297  0.423894  1
  O  O3  1  0.835404  0.926638  0.076106  1
  O  O4  1  0.548496  0.406259  0.850747  1
  O  O5  1  0.055512  0.697749  0.649253  1
  O  O6  1  0.906959  0.283655  -0.008297  1
  O  O7  1  0.791952  0.915256  0.508297  1
  O  O8  1  0.093041  0.716345  1.008297  1
  O  O9  1  0.208048  0.084744  0.491703  1
  O  O10  1  0.944488  0.302251  0.350747  1
  O  O11  1  0.451504  0.593741  0.149253  1
  I  I12  1  0.485128  0.155996  0.693175  1
  I  I13  1  0.962821  0.791953  0.806825  1
  I  I14  1  0.514872  0.844004  0.306825  1
  I  I15  1  0.037179  0.208047  0.193175  1
  Ba  Ba16  1  0.894811  0.644811  0.250000  1
  Ba  Ba17  1  0.105189  0.355189  0.750000  1
