# generated using pymatgen
data_K9Ta10O30
_symmetry_space_group_name_H-M   'P 1'
_cell_length_a   20.12009891
_cell_length_b   8.99818618
_cell_length_c   8.99754984
_cell_angle_alpha   66.41883212
_cell_angle_beta   63.43018229
_cell_angle_gamma   26.56541850
_symmetry_Int_Tables_number   1
_chemical_formula_structural   K9Ta10O30
_chemical_formula_sum   'K9 Ta10 O30'
_cell_volume   651.56363905
_cell_formula_units_Z   1
loop_
 _symmetry_equiv_pos_site_id
 _symmetry_equiv_pos_as_xyz
  1  'x, y, z'
loop_
 _atom_site_type_symbol
 _atom_site_label
 _atom_site_symmetry_multiplicity
 _atom_site_fract_x
 _atom_site_fract_y
 _atom_site_fract_z
 _atom_site_occupancy
  K  K0  1  0.049769  0.499747  0.250120  1
  K  K1  1  0.249180  0.501745  0.249988  1
  K  K2  1  0.150304  0.499912  0.749980  1
  K  K3  1  0.450820  0.498255  0.250012  1
  K  K4  1  0.350000  0.500000  0.750000  1
  K  K5  1  0.549696  0.500088  0.750020  1
  K  K6  1  0.650231  0.500253  0.249880  1
  K  K7  1  0.750202  0.499400  0.749473  1
  K  K8  1  0.949798  0.500600  0.750527  1
  O  O9  1  0.101989  0.996009  0.997977  1
  O  O10  1  0.152406  0.995989  0.250063  1
  O  O11  1  0.049805  1.000531  0.749942  1
  O  O12  1  0.001301  0.499783  0.997983  1
  O  O13  1  0.299807  1.000241  1.000123  1
  O  O14  1  0.199869  1.000284  0.499821  1
  O  O15  1  0.350000  0.000000  0.250000  1
  O  O16  1  0.199909  0.500304  1.000105  1
  O  O17  1  0.099944  0.500315  0.499856  1
  O  O18  1  0.249816  1.000252  0.750183  1
  O  O19  1  0.500131  -0.000284  1.000179  1
  O  O20  1  0.400193  -0.000241  0.499877  1
  O  O21  1  0.547594  0.004012  0.249937  1
  O  O22  1  0.450184  -0.000252  0.749817  1
  O  O23  1  0.399918  0.500054  1.000281  1
  O  O24  1  0.300082  0.499946  0.499719  1
  O  O25  1  0.698816  0.003996  0.998062  1
  O  O26  1  0.598011  0.003991  0.502023  1
  O  O27  1  0.749178  0.004043  0.250015  1
  O  O28  1  0.600056  0.499685  1.000144  1
  O  O29  1  0.650195  -0.000531  0.750058  1
  O  O30  1  0.500091  0.499696  0.499895  1
  O  O31  1  0.899953  1.000027  1.000242  1
  O  O32  1  0.800047  -0.000027  0.499758  1
  O  O33  1  0.850000  0.000000  0.750000  1
  O  O34  1  0.950822  0.995957  0.249985  1
  O  O35  1  0.799521  0.500159  0.998043  1
  O  O36  1  0.698699  0.500217  0.502017  1
  O  O37  1  0.001184  0.996004  0.501938  1
  O  O38  1  0.900479  0.499841  0.501957  1
  Ta  Ta39  1  0.997946  0.005648  0.002150  1
  Ta  Ta40  1  0.196897  0.003318  0.003336  1
  Ta  Ta41  1  0.097914  0.003145  0.498810  1
  Ta  Ta42  1  0.400205  0.999934  0.999072  1
  Ta  Ta43  1  0.299795  0.000066  0.500928  1
  Ta  Ta44  1  0.602086  0.996855  0.001190  1
  Ta  Ta45  1  0.503103  0.996682  0.496664  1
  Ta  Ta46  1  0.801210  0.994494  0.001813  1
  Ta  Ta47  1  0.702054  0.994352  0.497850  1
  Ta  Ta48  1  0.898790  0.005506  0.498187  1
