# generated using pymatgen
data_Pr5AgSe8
_symmetry_space_group_name_H-M   'P 1'
_cell_length_a   7.79649368
_cell_length_b   7.79649415
_cell_length_c   7.79649385
_cell_angle_alpha   109.88589801
_cell_angle_beta   109.88590467
_cell_angle_gamma   108.64500429
_symmetry_Int_Tables_number   1
_chemical_formula_structural   Pr5AgSe8
_chemical_formula_sum   'Pr5 Ag1 Se8'
_cell_volume   364.76110608
_cell_formula_units_Z   1
loop_
 _symmetry_equiv_pos_site_id
 _symmetry_equiv_pos_as_xyz
  1  'x, y, z'
loop_
 _atom_site_type_symbol
 _atom_site_label
 _atom_site_symmetry_multiplicity
 _atom_site_fract_x
 _atom_site_fract_y
 _atom_site_fract_z
 _atom_site_occupancy
  Ag  Ag0  1  0.875000  0.125000  0.750000  1
  Pr  Pr1  1  0.113431  0.746826  0.870979  1
  Pr  Pr2  1  0.253174  0.624153  0.366605  1
  Pr  Pr3  1  0.375847  0.242452  0.629021  1
  Pr  Pr4  1  0.757548  0.886569  0.133395  1
  Pr  Pr5  1  0.625000  0.375000  0.250000  1
  Se  Se6  1  0.991437  0.852945  0.501806  1
  Se  Se7  1  0.147055  0.148860  0.138492  1
  Se  Se8  1  0.370283  0.515320  0.007706  1
  Se  Se9  1  0.637423  0.629717  0.645037  1
  Se  Se10  1  0.484680  0.992386  0.854963  1
  Se  Se11  1  0.510368  0.008563  0.361508  1
  Se  Se12  1  0.851140  0.489632  0.998194  1
  Se  Se13  1  0.007614  0.362577  0.492294  1
