# generated using pymatgen
data_CsSn2Cl5
_symmetry_space_group_name_H-M   'P 1'
_cell_length_a   8.23771108
_cell_length_b   8.23586642
_cell_length_c   9.70197138
_cell_angle_alpha   115.16425057
_cell_angle_beta   115.12142397
_cell_angle_gamma   89.99999997
_symmetry_Int_Tables_number   1
_chemical_formula_structural   CsSn2Cl5
_chemical_formula_sum   'Cs2 Sn4 Cl10'
_cell_volume   526.15375184
_cell_formula_units_Z   2
loop_
 _symmetry_equiv_pos_site_id
 _symmetry_equiv_pos_as_xyz
  1  'x, y, z'
loop_
 _atom_site_type_symbol
 _atom_site_label
 _atom_site_symmetry_multiplicity
 _atom_site_fract_x
 _atom_site_fract_y
 _atom_site_fract_z
 _atom_site_occupancy
  Cl  Cl0  1  0.956961  0.457027  0.243439  1
  Cl  Cl1  1  0.713517  0.213466  0.756529  1
  Cl  Cl2  1  0.043039  0.542973  0.756561  1
  Cl  Cl3  1  0.213523  0.042973  0.756561  1
  Cl  Cl4  1  0.543012  0.713466  0.756529  1
  Cl  Cl5  1  0.786477  0.957027  0.243439  1
  Cl  Cl6  1  0.500000  0.500000  0.000000  1
  Cl  Cl7  1  0.000000  0.000000  0.000000  1
  Cl  Cl8  1  0.286483  0.786534  0.243471  1
  Cl  Cl9  1  0.456988  0.286534  0.243471  1
  Sn  Sn10  1  0.681724  0.181736  -0.000177  1
  Sn  Sn11  1  0.818099  0.681736  -0.000177  1
  Sn  Sn12  1  0.181901  0.318264  1.000177  1
  Sn  Sn13  1  0.318276  0.818264  1.000177  1
  Cs  Cs14  1  0.249964  0.250000  0.500000  1
  Cs  Cs15  1  0.750036  0.750000  0.500000  1
