# generated using pymatgen
data_Sr5Mo2N7
_symmetry_space_group_name_H-M   'P 1'
_cell_length_a   6.49647301
_cell_length_b   9.33208086
_cell_length_c   9.37964413
_cell_angle_alpha   64.78695594
_cell_angle_beta   83.31546329
_cell_angle_gamma   89.30846581
_symmetry_Int_Tables_number   1
_chemical_formula_structural   Sr5Mo2N7
_chemical_formula_sum   'Sr10 Mo4 N14'
_cell_volume   510.52887521
_cell_formula_units_Z   2
loop_
 _symmetry_equiv_pos_site_id
 _symmetry_equiv_pos_as_xyz
  1  'x, y, z'
loop_
 _atom_site_type_symbol
 _atom_site_label
 _atom_site_symmetry_multiplicity
 _atom_site_fract_x
 _atom_site_fract_y
 _atom_site_fract_z
 _atom_site_occupancy
  N  N0  1  0.467434  0.448458  0.676577  1
  N  N1  1  0.532566  0.551542  0.323423  1
  N  N2  1  0.848647  0.298094  0.552241  1
  N  N3  1  0.151353  0.701906  0.447759  1
  N  N4  1  0.588566  0.809266  0.464448  1
  N  N5  1  0.411434  0.190734  0.535552  1
  N  N6  1  0.047880  0.864503  0.715682  1
  N  N7  1  0.952120  0.135497  0.284318  1
  N  N8  1  0.768448  0.949165  0.959583  1
  N  N9  1  0.231552  0.050835  0.040417  1
  N  N10  1  0.648810  0.672151  0.900002  1
  N  N11  1  0.034714  0.653678  0.077859  1
  N  N12  1  0.965286  0.346322  0.922141  1
  N  N13  1  0.351190  0.327849  0.099998  1
  Sr  Sr14  1  0.152779  0.409435  0.325325  1
  Sr  Sr15  1  0.737832  0.012896  0.558163  1
  Sr  Sr16  1  0.294786  0.583324  0.852934  1
  Sr  Sr17  1  0.705214  0.416676  0.147066  1
  Sr  Sr18  1  0.594807  0.208605  0.922897  1
  Sr  Sr19  1  0.405193  0.791395  0.077103  1
  Sr  Sr20  1  0.847221  0.590565  0.674675  1
  Sr  Sr21  1  0.103173  0.154196  0.762109  1
  Sr  Sr22  1  0.896827  0.845804  0.237891  1
  Sr  Sr23  1  0.262168  0.987104  0.441837  1
  Mo  Mo24  1  0.421480  0.643866  0.474753  1
  Mo  Mo25  1  0.578520  0.356134  0.525247  1
  Mo  Mo26  1  0.880076  0.784914  0.913448  1
  Mo  Mo27  1  0.119924  0.215086  0.086552  1
