# generated using pymatgen
data_Tb(IO3)3
_symmetry_space_group_name_H-M   'P 1'
_cell_length_a   7.23748382
_cell_length_b   8.62532992
_cell_length_c   13.58456321
_cell_angle_alpha   90.00000000
_cell_angle_beta   100.31798516
_cell_angle_gamma   90.00000000
_symmetry_Int_Tables_number   1
_chemical_formula_structural   Tb(IO3)3
_chemical_formula_sum   'Tb4 I12 O36'
_cell_volume   834.31213475
_cell_formula_units_Z   4
loop_
 _symmetry_equiv_pos_site_id
 _symmetry_equiv_pos_as_xyz
  1  'x, y, z'
loop_
 _atom_site_type_symbol
 _atom_site_label
 _atom_site_symmetry_multiplicity
 _atom_site_fract_x
 _atom_site_fract_y
 _atom_site_fract_z
 _atom_site_occupancy
  O  O0  1  0.657868  0.525705  0.681115  1
  O  O1  1  0.342132  0.025705  0.818885  1
  O  O2  1  0.342132  0.474295  0.318885  1
  O  O3  1  0.657868  0.974295  0.181115  1
  O  O4  1  0.862046  0.664199  0.545133  1
  O  O5  1  0.137954  0.164199  0.954867  1
  O  O6  1  0.137954  0.335801  0.454867  1
  O  O7  1  0.862046  0.835801  0.045133  1
  O  O8  1  0.466080  0.669090  0.509637  1
  O  O9  1  0.533920  0.169090  0.990363  1
  O  O10  1  0.533920  0.330910  0.490363  1
  O  O11  1  0.466080  0.830910  0.009637  1
  O  O12  1  0.727415  0.291782  0.824254  1
  O  O13  1  0.272585  0.791782  0.675746  1
  O  O14  1  0.272585  0.708218  0.175746  1
  O  O15  1  0.727415  0.208218  0.324254  1
  O  O16  1  0.648750  0.691520  0.322967  1
  O  O17  1  0.351250  0.191520  0.177033  1
  O  O18  1  0.351250  0.308480  0.677033  1
  O  O19  1  0.648750  0.808480  0.822967  1
  O  O20  1  0.030699  0.674882  0.361860  1
  O  O21  1  0.969301  0.174882  0.138140  1
  O  O22  1  0.969301  0.325118  0.638140  1
  O  O23  1  0.030699  0.825118  0.861860  1
  O  O24  1  0.839146  0.466987  0.231456  1
  O  O25  1  0.160854  0.966987  0.268544  1
  O  O26  1  0.160854  0.533013  0.768544  1
  O  O27  1  0.839146  0.033013  0.731456  1
  O  O28  1  0.819861  0.078000  0.520962  1
  O  O29  1  0.180139  0.578000  0.979038  1
  O  O30  1  0.180139  0.922000  0.479038  1
  O  O31  1  0.819861  0.422000  0.020962  1
  O  O32  1  0.518220  0.971666  0.385951  1
  O  O33  1  0.481780  0.471666  0.114049  1
  O  O34  1  0.481780  0.028334  0.614049  1
  O  O35  1  0.518220  0.528334  0.885951  1
  I  I36  1  0.666331  0.705092  0.609610  1
  I  I37  1  0.333669  0.205092  0.890390  1
  I  I38  1  0.333669  0.294908  0.390390  1
  I  I39  1  0.666331  0.794908  0.109610  1
  I  I40  1  0.765464  0.479645  0.890158  1
  I  I41  1  0.234536  0.979645  0.609842  1
  I  I42  1  0.234536  0.520355  0.109842  1
  I  I43  1  0.765464  0.020355  0.390158  1
  I  I44  1  0.833001  0.955841  0.856586  1
  I  I45  1  0.166999  0.455841  0.643414  1
  I  I46  1  0.166999  0.044159  0.143414  1
  I  I47  1  0.833001  0.544159  0.356586  1
  Tb  Tb48  1  0.672299  0.245219  0.646467  1
  Tb  Tb49  1  0.327701  0.745219  0.853533  1
  Tb  Tb50  1  0.327701  0.754781  0.353533  1
  Tb  Tb51  1  0.672299  0.254781  0.146467  1
