# generated using pymatgen
data_SiO2
_symmetry_space_group_name_H-M   'P 1'
_cell_length_a   8.27024826
_cell_length_b   5.07489424
_cell_length_c   6.94279406
_cell_angle_alpha   101.69554994
_cell_angle_beta   89.99796151
_cell_angle_gamma   90.00170834
_symmetry_Int_Tables_number   1
_chemical_formula_structural   SiO2
_chemical_formula_sum   'Si12 O24'
_cell_volume   285.34372799
_cell_formula_units_Z   12
loop_
 _symmetry_equiv_pos_site_id
 _symmetry_equiv_pos_as_xyz
  1  'x, y, z'
loop_
 _atom_site_type_symbol
 _atom_site_label
 _atom_site_symmetry_multiplicity
 _atom_site_fract_x
 _atom_site_fract_y
 _atom_site_fract_z
 _atom_site_occupancy
  O  O0  1  0.105677  0.725946  0.380038  1
  O  O1  1  0.113621  0.532177  0.712908  1
  O  O2  1  0.115722  0.389172  0.044726  1
  O  O3  1  0.133701  0.889166  0.044770  1
  O  O4  1  0.135800  0.032146  0.712918  1
  O  O5  1  0.143735  0.225930  0.380061  1
  O  O6  1  0.355639  0.756299  0.601091  1
  O  O7  1  0.363615  0.950008  0.268203  1
  O  O8  1  0.365744  0.093101  0.936386  1
  O  O9  1  0.383677  0.593076  0.936467  1
  O  O10  1  0.385849  0.450025  0.268178  1
  O  O11  1  0.393779  0.256334  0.601102  1
  O  O12  1  0.605592  0.726275  0.380092  1
  O  O13  1  0.613484  0.532625  0.712957  1
  O  O14  1  0.615785  0.389524  0.044747  1
  O  O15  1  0.633627  0.889508  0.044712  1
  O  O16  1  0.635924  0.032639  0.712957  1
  O  O17  1  0.643811  0.226303  0.380087  1
  O  O18  1  0.855603  0.756228  0.601021  1
  O  O19  1  0.863544  0.949924  0.268094  1
  O  O20  1  0.865755  0.093048  0.936375  1
  O  O21  1  0.883688  0.593061  0.936325  1
  O  O22  1  0.885837  0.449917  0.268112  1
  O  O23  1  0.893820  0.256245  0.601020  1
  Si  Si24  1  0.001796  0.291756  0.825185  1
  Si  Si25  1  0.999738  0.491092  0.490525  1
  Si  Si26  1  0.247626  0.791765  0.825263  1
  Si  Si27  1  0.249679  0.991130  0.490592  1
  Si  Si28  1  0.251744  0.190443  0.155929  1
  Si  Si29  1  0.497660  0.690697  0.155938  1
  Si  Si30  1  0.499673  0.491241  0.490626  1
  Si  Si31  1  0.501730  0.291970  0.825168  1
  Si  Si32  1  0.747686  0.791925  0.825120  1
  Si  Si33  1  0.749731  0.991273  0.490528  1
  Si  Si34  1  0.751759  0.190598  0.155898  1
  Si  Si35  1  0.997650  0.690435  0.155882  1
