# generated using pymatgen
data_NbSbO4
_symmetry_space_group_name_H-M   'P 1'
_cell_length_a   5.05864307
_cell_length_b   5.66376130
_cell_length_c   12.04258666
_cell_angle_alpha   90.00000000
_cell_angle_beta   90.00000000
_cell_angle_gamma   90.00000000
_symmetry_Int_Tables_number   1
_chemical_formula_structural   NbSbO4
_chemical_formula_sum   'Nb4 Sb4 O16'
_cell_volume   345.03151034
_cell_formula_units_Z   4
loop_
 _symmetry_equiv_pos_site_id
 _symmetry_equiv_pos_as_xyz
  1  'x, y, z'
loop_
 _atom_site_type_symbol
 _atom_site_label
 _atom_site_symmetry_multiplicity
 _atom_site_fract_x
 _atom_site_fract_y
 _atom_site_fract_z
 _atom_site_occupancy
  O  O0  1  0.229975  0.879724  0.544104  1
  O  O1  1  0.770024  0.120277  0.044104  1
  O  O2  1  0.270023  0.379724  0.544104  1
  O  O3  1  0.729976  0.620276  0.044104  1
  O  O4  1  0.334978  0.659295  0.339355  1
  O  O5  1  0.665023  0.340706  0.839356  1
  O  O6  1  0.165023  0.159295  0.339355  1
  O  O7  1  0.834977  0.840705  0.839356  1
  O  O8  1  0.165453  0.819470  0.151121  1
  O  O9  1  0.834546  0.180530  0.651122  1
  O  O10  1  0.334548  0.319469  0.151121  1
  O  O11  1  0.665454  0.680531  0.651122  1
  O  O12  1  0.713655  0.923796  0.440856  1
  O  O13  1  0.786345  0.423796  0.440856  1
  O  O14  1  0.286345  0.076205  0.940856  1
  O  O15  1  0.213654  0.576204  0.940856  1
  Nb  Nb16  1  0.507838  0.618529  0.499093  1
  Nb  Nb17  1  0.492161  0.381470  0.999093  1
  Nb  Nb18  1  0.992162  0.118529  0.499093  1
  Nb  Nb19  1  0.007837  0.881471  0.999093  1
  Sb  Sb20  1  0.443337  0.977769  0.250571  1
  Sb  Sb21  1  0.556664  0.022230  0.750570  1
  Sb  Sb22  1  0.056663  0.477770  0.250571  1
  Sb  Sb23  1  0.943336  0.522231  0.750570  1
