# generated using pymatgen
data_Ca11Al14O32
_symmetry_space_group_name_H-M   'P 1'
_cell_length_a   10.48779480
_cell_length_b   10.49167684
_cell_length_c   10.48637317
_cell_angle_alpha   109.08210528
_cell_angle_beta   109.82173690
_cell_angle_gamma   109.54746134
_symmetry_Int_Tables_number   1
_chemical_formula_structural   Ca11Al14O32
_chemical_formula_sum   'Ca11 Al14 O32'
_cell_volume   887.80324977
_cell_formula_units_Z   1
loop_
 _symmetry_equiv_pos_site_id
 _symmetry_equiv_pos_as_xyz
  1  'x, y, z'
loop_
 _atom_site_type_symbol
 _atom_site_label
 _atom_site_symmetry_multiplicity
 _atom_site_fract_x
 _atom_site_fract_y
 _atom_site_fract_z
 _atom_site_occupancy
  Al  Al0  1  0.125042  0.874482  0.250909  1
  Al  Al1  1  0.500737  0.999206  0.966567  1
  Al  Al2  1  0.250025  0.125337  0.873810  1
  Al  Al3  1  0.372939  0.621966  0.750973  1
  Al  Al4  1  0.034683  0.033827  0.035156  1
  Al  Al5  1  0.534241  0.533990  0.535047  1
  Al  Al6  1  0.626483  0.750774  0.376939  1
  Al  Al7  1  0.464625  0.500495  0.998753  1
  Al  Al8  1  0.500376  0.999683  0.466544  1
  Al  Al9  1  0.753643  0.376532  0.628124  1
  Al  Al10  1  0.998168  0.959482  0.492371  1
  Al  Al11  1  0.003714  0.465932  0.502666  1
  Al  Al12  1  0.875710  0.249740  0.124688  1
  Al  Al13  1  0.969230  0.506284  0.009840  1
  Ca  Ca14  1  0.249259  0.858974  0.614802  1
  Ca  Ca15  1  0.134726  0.251556  0.389254  1
  Ca  Ca16  1  0.364555  0.745688  0.112872  1
  Ca  Ca17  1  0.249320  0.387796  0.128378  1
  Ca  Ca18  1  0.634167  0.883244  0.750813  1
  Ca  Ca19  1  0.745604  0.634208  0.886844  1
  Ca  Ca20  1  0.613984  0.250620  0.864507  1
  Ca  Ca21  1  0.386821  0.135930  0.250812  1
  Ca  Ca22  1  0.887768  0.749181  0.637152  1
  Ca  Ca23  1  0.861404  0.610687  0.250837  1
  Ca  Ca24  1  0.761081  0.121256  0.373519  1
  O  O25  1  0.094086  0.981454  0.682467  1
  O  O26  1  0.094355  0.878032  0.406697  1
  O  O27  1  0.193464  0.489947  0.579431  1
  O  O28  1  0.410097  0.814418  0.796506  1
  O  O29  1  0.306417  0.316973  0.923568  1
  O  O30  1  0.412561  0.613992  0.922423  1
  O  O31  1  0.315263  0.909977  0.294569  1
  O  O32  1  0.019025  0.204321  0.109629  1
  O  O33  1  0.152641  0.532156  0.055275  1
  O  O34  1  0.116528  0.020833  0.207243  1
  O  O35  1  0.404368  0.087293  0.882163  1
  O  O36  1  0.519543  0.613157  0.705079  1
  O  O37  1  0.372024  0.366929  0.366364  1
  O  O38  1  0.502281  0.005523  0.135118  1
  O  O39  1  0.202051  0.102599  0.014056  1
  O  O40  1  0.595843  0.908904  0.391628  1
  O  O41  1  0.614827  0.706645  0.522401  1
  O  O42  1  0.485045  0.596468  0.188317  1
  O  O43  1  0.866377  0.867300  0.869869  1
  O  O44  1  0.499107  0.996598  0.631707  1
  O  O45  1  0.706823  0.522099  0.619475  1
  O  O46  1  0.686061  0.092550  0.979172  1
  O  O47  1  0.590845  0.188024  0.487679  1
  O  O48  1  0.801237  0.411989  0.819430  1
  O  O49  1  0.814791  0.787635  0.411082  1
  O  O50  1  0.631454  0.496400  -0.000923  1
  O  O51  1  0.895396  0.383350  0.577942  1
  O  O52  1  0.999276  0.632305  0.502171  1
  O  O53  1  0.910208  0.296486  0.313299  1
  O  O54  1  0.972829  0.687840  0.095289  1
  O  O55  1  0.878416  0.403968  0.090838  1
  O  O56  1  0.978757  0.097735  0.447392  1
