# generated using pymatgen
data_Al2NiO4
_symmetry_space_group_name_H-M   'P 1'
_cell_length_a   5.75776535
_cell_length_b   5.76924245
_cell_length_c   17.19321375
_cell_angle_alpha   59.77943581
_cell_angle_beta   59.65685511
_cell_angle_gamma   59.93404479
_symmetry_Int_Tables_number   1
_chemical_formula_structural   Al2NiO4
_chemical_formula_sum   'Al12 Ni6 O24'
_cell_volume   401.91604868
_cell_formula_units_Z   6
loop_
 _symmetry_equiv_pos_site_id
 _symmetry_equiv_pos_as_xyz
  1  'x, y, z'
loop_
 _atom_site_type_symbol
 _atom_site_label
 _atom_site_symmetry_multiplicity
 _atom_site_fract_x
 _atom_site_fract_y
 _atom_site_fract_z
 _atom_site_occupancy
  Al  Al0  1  0.496229  0.002935  0.167496  1
  Al  Al1  1  0.496146  0.496571  0.003571  1
  Al  Al2  1  0.130842  0.116084  0.378996  1
  Al  Al3  1  0.496229  0.498349  0.167496  1
  Al  Al4  1  0.501211  0.000508  0.499325  1
  Al  Al5  1  0.137984  0.118666  0.708228  1
  Al  Al6  1  0.501211  0.500305  0.499325  1
  Al  Al7  1  0.867827  0.884138  0.287966  1
  Al  Al8  1  0.502014  0.003562  0.831839  1
  Al  Al9  1  0.502014  0.498905  0.831839  1
  Al  Al10  1  0.868016  0.882669  0.622215  1
  Al  Al11  1  0.861572  0.879692  0.959681  1
  Ni  Ni12  1  0.128458  0.122370  0.042268  1
  Ni  Ni13  1  0.500256  0.500822  0.332700  1
  Ni  Ni14  1  0.000080  0.499009  0.167301  1
  Ni  Ni15  1  0.500567  0.499596  0.666747  1
  Ni  Ni16  1  0.000068  0.500344  0.499748  1
  Ni  Ni17  1  0.003212  0.499707  0.832458  1
  O  O18  1  0.282963  0.251535  0.084955  1
  O  O19  1  0.264111  0.242973  0.249981  1
  O  O20  1  0.282963  0.710638  0.084955  1
  O  O21  1  0.704639  0.263712  0.089313  1
  O  O22  1  0.259189  0.757475  0.241954  1
  O  O23  1  0.265587  0.232364  0.422441  1
  O  O24  1  0.734205  0.264156  0.244132  1
  O  O25  1  0.726806  0.753314  0.088855  1
  O  O26  1  0.265587  0.734726  0.422441  1
  O  O27  1  0.272601  0.246480  0.578146  1
  O  O28  1  0.738325  0.245379  0.423639  1
  O  O29  1  0.734205  0.769244  0.244132  1
  O  O30  1  0.260424  0.753757  0.577354  1
  O  O31  1  0.265584  0.230629  0.754699  1
  O  O32  1  0.733800  0.263800  0.578428  1
  O  O33  1  0.729933  0.754780  0.420169  1
  O  O34  1  0.290614  0.253652  0.900694  1
  O  O35  1  0.265584  0.739689  0.754699  1
  O  O36  1  0.749892  0.242125  0.755285  1
  O  O37  1  0.733800  0.767115  0.578428  1
  O  O38  1  0.266251  0.742441  0.916289  1
  O  O39  1  0.725524  0.270392  0.917619  1
  O  O40  1  0.727953  0.754164  0.754573  1
  O  O41  1  0.725524  0.751227  0.917619  1
