# generated using pymatgen
data_Li3Cr2(PO4)3
_symmetry_space_group_name_H-M   'P 1'
_cell_length_a   8.53451430
_cell_length_b   8.53453128
_cell_length_c   6.38098215
_cell_angle_alpha   73.44849130
_cell_angle_beta   106.55147555
_cell_angle_gamma   87.95642206
_symmetry_Int_Tables_number   1
_chemical_formula_structural   Li3Cr2(PO4)3
_chemical_formula_sum   'Li6 Cr4 P6 O24'
_cell_volume   423.59421540
_cell_formula_units_Z   2
loop_
 _symmetry_equiv_pos_site_id
 _symmetry_equiv_pos_as_xyz
  1  'x, y, z'
loop_
 _atom_site_type_symbol
 _atom_site_label
 _atom_site_symmetry_multiplicity
 _atom_site_fract_x
 _atom_site_fract_y
 _atom_site_fract_z
 _atom_site_occupancy
  Li  Li0  1  0.279795  0.279795  0.750002  1
  Li  Li1  1  0.500000  0.500000  0.000001  1
  Li  Li2  1  0.720206  0.720204  0.250001  1
  Li  Li3  1  0.026122  0.026121  0.250001  1
  Li  Li4  1  0.500000  0.500000  0.500001  1
  Li  Li5  1  0.973878  0.973876  0.750003  1
  O  O6  1  0.158823  0.834803  0.105623  1
  O  O7  1  0.947967  0.404734  0.173702  1
  O  O8  1  0.834804  0.158823  0.394378  1
  O  O9  1  0.659240  0.009010  0.096191  1
  O  O10  1  0.340759  0.990988  0.903810  1
  O  O11  1  0.165195  0.841177  0.605622  1
  O  O12  1  0.052032  0.595265  0.826295  1
  O  O13  1  0.009013  0.659239  0.403808  1
  O  O14  1  0.836229  0.746564  0.965882  1
  O  O15  1  0.404734  0.947968  0.326297  1
  O  O16  1  0.295691  0.539426  0.698865  1
  O  O17  1  0.841177  0.165196  0.894379  1
  O  O18  1  0.460575  0.704310  0.198866  1
  O  O19  1  0.746565  0.836228  0.534119  1
  O  O20  1  0.990989  0.340760  0.596190  1
  O  O21  1  0.264157  0.459845  0.271587  1
  O  O22  1  0.735843  0.540156  0.728412  1
  O  O23  1  0.163771  0.253436  0.034118  1
  O  O24  1  0.253435  0.163773  0.465882  1
  O  O25  1  0.539427  0.295688  0.801138  1
  O  O26  1  0.459845  0.264155  0.228414  1
  O  O27  1  0.704310  0.460574  0.301137  1
  O  O28  1  0.595265  0.052034  0.673701  1
  O  O29  1  0.540155  0.735846  0.771588  1
  P  P30  1  0.344616  0.860968  0.132143  1
  P  P31  1  0.715668  0.715668  0.750001  1
  P  P32  1  0.284332  0.284331  0.250000  1
  P  P33  1  0.655381  0.139037  0.867854  1
  P  P34  1  0.139035  0.655384  0.632144  1
  P  P35  1  0.860964  0.344618  0.367854  1
  Cr  Cr36  1  0.619501  0.058327  0.361377  1
  Cr  Cr37  1  0.941671  0.380503  0.861368  1
  Cr  Cr38  1  0.058329  0.619495  0.138628  1
  Cr  Cr39  1  0.380500  0.941674  0.638622  1
