# generated using pymatgen
data_SrLiTa2O6F
_symmetry_space_group_name_H-M   'P 1'
_cell_length_a   7.46180897
_cell_length_b   7.46180861
_cell_length_c   7.42067494
_cell_angle_alpha   60.18218475
_cell_angle_beta   60.18218687
_cell_angle_gamma   60.57426715
_symmetry_Int_Tables_number   1
_chemical_formula_structural   SrLiTa2O6F
_chemical_formula_sum   'Sr2 Li2 Ta4 O12 F2'
_cell_volume   294.21647561
_cell_formula_units_Z   2
loop_
 _symmetry_equiv_pos_site_id
 _symmetry_equiv_pos_as_xyz
  1  'x, y, z'
loop_
 _atom_site_type_symbol
 _atom_site_label
 _atom_site_symmetry_multiplicity
 _atom_site_fract_x
 _atom_site_fract_y
 _atom_site_fract_z
 _atom_site_occupancy
  F  F0  1  0.524370  0.524370  0.475630  1
  F  F1  1  0.725630  0.725630  0.774370  1
  Li  Li2  1  0.625000  0.625000  0.125000  1
  Li  Li3  1  0.625000  0.625000  0.625000  1
  O  O4  1  0.061488  0.439829  0.055541  1
  O  O5  1  0.053887  0.053887  0.446113  1
  O  O6  1  0.061488  0.439829  0.443142  1
  O  O7  1  0.439829  0.061488  0.055541  1
  O  O8  1  0.188512  0.810171  0.194459  1
  O  O9  1  0.436395  0.436395  0.063605  1
  O  O10  1  0.196113  0.196113  0.803887  1
  O  O11  1  0.439829  0.061488  0.443142  1
  O  O12  1  0.188512  0.810171  0.806858  1
  O  O13  1  0.810171  0.188512  0.194459  1
  O  O14  1  0.810171  0.188512  0.806858  1
  O  O15  1  0.813605  0.813605  0.186395  1
  Sr  Sr16  1  0.125000  0.625000  0.625000  1
  Sr  Sr17  1  0.625000  0.125000  0.625000  1
  Ta  Ta18  1  0.125000  0.125000  0.125000  1
  Ta  Ta19  1  0.125000  0.625000  0.125000  1
  Ta  Ta20  1  0.125000  0.125000  0.625000  1
  Ta  Ta21  1  0.625000  0.125000  0.125000  1
