# generated using pymatgen
data_Mn(SeO3)2
_symmetry_space_group_name_H-M   'P 1'
_cell_length_a   5.17071285
_cell_length_b   6.86487823
_cell_length_c   7.44819642
_cell_angle_alpha   90.00000000
_cell_angle_beta   90.76498885
_cell_angle_gamma   90.00000000
_symmetry_Int_Tables_number   1
_chemical_formula_structural   Mn(SeO3)2
_chemical_formula_sum   'Mn2 Se4 O12'
_cell_volume   264.35995490
_cell_formula_units_Z   2
loop_
 _symmetry_equiv_pos_site_id
 _symmetry_equiv_pos_as_xyz
  1  'x, y, z'
loop_
 _atom_site_type_symbol
 _atom_site_label
 _atom_site_symmetry_multiplicity
 _atom_site_fract_x
 _atom_site_fract_y
 _atom_site_fract_z
 _atom_site_occupancy
  O  O0  1  0.551654  0.583359  0.746235  1
  O  O1  1  0.948346  0.083359  0.753765  1
  O  O2  1  0.448345  0.416641  0.253765  1
  O  O3  1  0.051654  0.916641  0.246235  1
  O  O4  1  0.202149  0.778878  0.916670  1
  O  O5  1  0.297852  0.278878  0.583330  1
  O  O6  1  0.196365  0.663527  0.490769  1
  O  O7  1  0.303634  0.163527  0.009231  1
  O  O8  1  0.803635  0.336473  0.509231  1
  O  O9  1  0.797852  0.221122  0.083330  1
  O  O10  1  0.702149  0.721121  0.416670  1
  O  O11  1  0.696365  0.836474  0.990769  1
  Mn  Mn12  1  0.499999  0.500000  0.500000  1
  Mn  Mn13  1  0.000000  0.000000  0.000000  1
  Se  Se14  1  0.987267  0.674792  0.302616  1
  Se  Se15  1  0.512731  0.174792  0.197383  1
  Se  Se16  1  0.012731  0.325208  0.697383  1
  Se  Se17  1  0.487267  0.825208  0.802617  1
