# generated using pymatgen
data_Li2CdCl4
_symmetry_space_group_name_H-M   'P 1'
_cell_length_a   7.58454971
_cell_length_b   7.76592356
_cell_length_c   7.58455002
_cell_angle_alpha   59.20574239
_cell_angle_beta   59.98902603
_cell_angle_gamma   59.20573777
_symmetry_Int_Tables_number   1
_chemical_formula_structural   Li2CdCl4
_chemical_formula_sum   'Li4 Cd2 Cl8'
_cell_volume   312.02048302
_cell_formula_units_Z   2
loop_
 _symmetry_equiv_pos_site_id
 _symmetry_equiv_pos_as_xyz
  1  'x, y, z'
loop_
 _atom_site_type_symbol
 _atom_site_label
 _atom_site_symmetry_multiplicity
 _atom_site_fract_x
 _atom_site_fract_y
 _atom_site_fract_z
 _atom_site_occupancy
  Cd  Cd0  1  0.500000  0.000000  0.500000  1
  Cd  Cd1  1  0.500000  0.500000  0.500000  1
  Cl  Cl2  1  0.253982  0.262596  0.253982  1
  Cl  Cl3  1  0.248536  0.256163  0.739139  1
  Cl  Cl4  1  0.253982  0.729440  0.253982  1
  Cl  Cl5  1  0.739139  0.256163  0.248536  1
  Cl  Cl6  1  0.260861  0.743837  0.751464  1
  Cl  Cl7  1  0.746018  0.270560  0.746018  1
  Cl  Cl8  1  0.751464  0.743837  0.260861  1
  Cl  Cl9  1  0.746018  0.737404  0.746018  1
  Li  Li10  1  0.136820  0.113180  0.136820  1
  Li  Li11  1  0.000000  0.500000  0.500000  1
  Li  Li12  1  0.500000  0.500000  0.000000  1
  Li  Li13  1  0.863180  0.886820  0.863180  1
