# generated using pymatgen
data_Sm2CdSe4
_symmetry_space_group_name_H-M   'P 1'
_cell_length_a   7.71403745
_cell_length_b   7.71403796
_cell_length_c   7.71403735
_cell_angle_alpha   110.67624720
_cell_angle_beta   110.67624313
_cell_angle_gamma   107.08715063
_symmetry_Int_Tables_number   1
_chemical_formula_structural   Sm2CdSe4
_chemical_formula_sum   'Sm4 Cd2 Se8'
_cell_volume   352.90841497
_cell_formula_units_Z   2
loop_
 _symmetry_equiv_pos_site_id
 _symmetry_equiv_pos_as_xyz
  1  'x, y, z'
loop_
 _atom_site_type_symbol
 _atom_site_label
 _atom_site_symmetry_multiplicity
 _atom_site_fract_x
 _atom_site_fract_y
 _atom_site_fract_z
 _atom_site_occupancy
  Cd  Cd0  1  0.625000  0.375000  0.250000  1
  Cd  Cd1  1  0.875000  0.125000  0.750000  1
  Se  Se2  1  0.006605  0.880696  0.511147  1
  Se  Se3  1  0.995458  0.369549  0.488853  1
  Se  Se4  1  0.119304  0.130451  0.125909  1
  Se  Se5  1  0.380696  0.506605  0.011147  1
  Se  Se6  1  0.630451  0.619304  0.625909  1
  Se  Se7  1  0.493395  0.004542  0.874091  1
  Se  Se8  1  0.504542  0.993395  0.374091  1
  Se  Se9  1  0.869549  0.495458  0.988853  1
  Sm  Sm10  1  0.114685  0.750000  0.864685  1
  Sm  Sm11  1  0.250000  0.614685  0.364685  1
  Sm  Sm12  1  0.385315  0.250000  0.635315  1
  Sm  Sm13  1  0.750000  0.885315  0.135315  1
