# generated using pymatgen
data_SrLaMnWO6
_symmetry_space_group_name_H-M   'P 1'
_cell_length_a   5.79513339
_cell_length_b   5.79477064
_cell_length_c   5.76066269
_cell_angle_alpha   120.17200280
_cell_angle_beta   120.21842979
_cell_angle_gamma   89.99555387
_symmetry_Int_Tables_number   1
_chemical_formula_structural   SrLaMnWO6
_chemical_formula_sum   'Sr1 La1 Mn1 W1 O6'
_cell_volume   135.98501338
_cell_formula_units_Z   1
loop_
 _symmetry_equiv_pos_site_id
 _symmetry_equiv_pos_as_xyz
  1  'x, y, z'
loop_
 _atom_site_type_symbol
 _atom_site_label
 _atom_site_symmetry_multiplicity
 _atom_site_fract_x
 _atom_site_fract_y
 _atom_site_fract_z
 _atom_site_occupancy
  Sr  Sr0  1  0.250065  0.749971  0.499988  1
  La  La1  1  0.749913  0.250209  0.500081  1
  Mn  Mn2  1  0.999833  0.999973  0.000023  1
  W  W3  1  0.499923  0.500036  0.000009  1
  O  O4  1  0.261286  0.261128  0.522526  1
  O  O5  1  0.182551  0.307576  0.972678  1
  O  O6  1  0.335132  0.817721  0.027603  1
  O  O7  1  0.738810  0.738875  0.477472  1
  O  O8  1  0.692266  0.209669  0.027063  1
  O  O9  1  0.790219  0.664842  0.972558  1
