# generated using pymatgen
data_K3PSe4
_symmetry_space_group_name_H-M   'P 1'
_cell_length_a   9.53779741
_cell_length_b   9.86840029
_cell_length_c   11.04716399
_cell_angle_alpha   90.00000000
_cell_angle_beta   90.00000000
_cell_angle_gamma   90.00000000
_symmetry_Int_Tables_number   1
_chemical_formula_structural   K3PSe4
_chemical_formula_sum   'K12 P4 Se16'
_cell_volume   1039.79003692
_cell_formula_units_Z   4
loop_
 _symmetry_equiv_pos_site_id
 _symmetry_equiv_pos_as_xyz
  1  'x, y, z'
loop_
 _atom_site_type_symbol
 _atom_site_label
 _atom_site_symmetry_multiplicity
 _atom_site_fract_x
 _atom_site_fract_y
 _atom_site_fract_z
 _atom_site_occupancy
  P  P0  1  0.275657  0.522059  0.250000  1
  P  P1  1  0.724343  0.477941  0.750000  1
  P  P2  1  0.224343  0.022059  0.750000  1
  P  P3  1  0.775657  0.977941  0.250000  1
  K  K4  1  0.440631  0.302936  0.954137  1
  K  K5  1  0.059369  0.802936  0.454137  1
  K  K6  1  0.940631  0.197064  0.954137  1
  K  K7  1  0.559369  0.697064  0.045863  1
  K  K8  1  0.440631  0.302936  0.545863  1
  K  K9  1  0.559369  0.697064  0.454137  1
  K  K10  1  0.059369  0.802936  0.045863  1
  K  K11  1  0.940631  0.197064  0.545863  1
  K  K12  1  0.861483  0.417557  0.250000  1
  K  K13  1  0.361483  0.082443  0.250000  1
  K  K14  1  0.638517  0.917557  0.750000  1
  K  K15  1  0.138517  0.582443  0.750000  1
  Se  Se16  1  0.312408  0.745210  0.250000  1
  Se  Se17  1  0.812408  0.754790  0.250000  1
  Se  Se18  1  0.187592  0.245210  0.750000  1
  Se  Se19  1  0.687592  0.254790  0.750000  1
  Se  Se20  1  0.482357  0.412765  0.250000  1
  Se  Se21  1  0.982357  0.087235  0.250000  1
  Se  Se22  1  0.017643  0.912765  0.750000  1
  Se  Se23  1  0.517643  0.587235  0.750000  1
  Se  Se24  1  0.843286  0.532453  0.917262  1
  Se  Se25  1  0.343286  0.967547  0.582738  1
  Se  Se26  1  0.656714  0.032453  0.082738  1
  Se  Se27  1  0.156714  0.467547  0.417262  1
  Se  Se28  1  0.156714  0.467547  0.082738  1
  Se  Se29  1  0.656714  0.032453  0.417262  1
  Se  Se30  1  0.343286  0.967547  0.917262  1
  Se  Se31  1  0.843286  0.532453  0.582738  1
