# generated using pymatgen
data_Ba5P5I3
_symmetry_space_group_name_H-M   'P 1'
_cell_length_a   4.60730726
_cell_length_b   9.57214184
_cell_length_c   21.70147583
_cell_angle_alpha   92.40543636
_cell_angle_beta   96.09354071
_cell_angle_gamma   90.00000309
_symmetry_Int_Tables_number   1
_chemical_formula_structural   Ba5P5I3
_chemical_formula_sum   'Ba10 P10 I6'
_cell_volume   950.81844923
_cell_formula_units_Z   2
loop_
 _symmetry_equiv_pos_site_id
 _symmetry_equiv_pos_as_xyz
  1  'x, y, z'
loop_
 _atom_site_type_symbol
 _atom_site_label
 _atom_site_symmetry_multiplicity
 _atom_site_fract_x
 _atom_site_fract_y
 _atom_site_fract_z
 _atom_site_occupancy
  Ba  Ba0  1  0.940367  0.207154  0.880734  1
  Ba  Ba1  1  0.059633  0.792846  0.119266  1
  Ba  Ba2  1  0.958338  0.649028  0.916676  1
  Ba  Ba3  1  0.041662  0.350972  0.083324  1
  Ba  Ba4  1  0.361533  0.413346  0.723067  1
  Ba  Ba5  1  0.638467  0.586654  0.276933  1
  Ba  Ba6  1  0.342029  0.952560  0.684057  1
  Ba  Ba7  1  0.657971  0.047440  0.315943  1
  Ba  Ba8  1  0.260080  0.222049  0.520159  1
  Ba  Ba9  1  0.739920  0.777951  0.479841  1
  I  I10  1  0.875031  0.700462  0.750062  1
  I  I11  1  0.124969  0.299538  0.249938  1
  I  I12  1  0.289852  0.604436  0.579703  1
  I  I13  1  0.710148  0.395564  0.420297  1
  I  I14  1  0.448861  0.932019  0.897722  1
  I  I15  1  0.551139  0.067981  0.102278  1
  P  P16  1  0.790892  0.027751  0.581785  1
  P  P17  1  0.209108  0.972249  0.418215  1
  P  P18  1  0.820216  0.217249  0.640431  1
  P  P19  1  0.179784  0.782751  0.359569  1
  P  P20  1  0.869363  0.173662  0.738725  1
  P  P21  1  0.130637  0.826338  0.261275  1
  P  P22  1  0.436600  0.440008  0.873200  1
  P  P23  1  0.563400  0.559992  0.126800  1
  P  P24  1  0.485821  0.395868  0.971642  1
  P  P25  1  0.514179  0.604132  0.028358  1
