# generated using pymatgen
data_Ba(LaSe2)2
_symmetry_space_group_name_H-M   'P 1'
_cell_length_a   8.07090908
_cell_length_b   8.07000129
_cell_length_c   8.07090964
_cell_angle_alpha   109.30516570
_cell_angle_beta   109.30603887
_cell_angle_gamma   109.80754919
_symmetry_Int_Tables_number   1
_chemical_formula_structural   Ba(LaSe2)2
_chemical_formula_sum   'Ba2 La4 Se8'
_cell_volume   404.63273589
_cell_formula_units_Z   2
loop_
 _symmetry_equiv_pos_site_id
 _symmetry_equiv_pos_as_xyz
  1  'x, y, z'
loop_
 _atom_site_type_symbol
 _atom_site_label
 _atom_site_symmetry_multiplicity
 _atom_site_fract_x
 _atom_site_fract_y
 _atom_site_fract_z
 _atom_site_occupancy
  Ba  Ba0  1  0.625003  0.375003  0.250006  1
  Ba  Ba1  1  0.875003  0.124997  0.750000  1
  La  La2  1  0.123654  0.750000  0.873654  1
  La  La3  1  0.250012  0.623664  0.373657  1
  La  La4  1  0.376352  0.250000  0.626352  1
  La  La5  1  0.749993  0.876336  0.126348  1
  Se  Se6  1  0.015160  0.854859  0.496290  1
  Se  Se7  1  0.145142  0.141437  0.160300  1
  Se  Se8  1  0.354850  0.515144  0.996285  1
  Se  Se9  1  0.484838  0.981128  0.839687  1
  Se  Se10  1  0.641431  0.645141  0.660301  1
  Se  Se11  1  0.481141  0.984856  0.339706  1
  Se  Se12  1  0.858559  0.518872  0.003710  1
  Se  Se13  1  0.018863  0.358563  0.503705  1
