# generated using pymatgen
data_Te3P2O11
_symmetry_space_group_name_H-M   'P 1'
_cell_length_a   7.49866687
_cell_length_b   10.14537442
_cell_length_c   12.66163053
_cell_angle_alpha   98.02635129
_cell_angle_beta   90.00000000
_cell_angle_gamma   90.00000000
_symmetry_Int_Tables_number   1
_chemical_formula_structural   Te3P2O11
_chemical_formula_sum   'Te12 P8 O44'
_cell_volume   953.82001945
_cell_formula_units_Z   4
loop_
 _symmetry_equiv_pos_site_id
 _symmetry_equiv_pos_as_xyz
  1  'x, y, z'
loop_
 _atom_site_type_symbol
 _atom_site_label
 _atom_site_symmetry_multiplicity
 _atom_site_fract_x
 _atom_site_fract_y
 _atom_site_fract_z
 _atom_site_occupancy
  O  O0  1  0.247774  0.788109  0.529912  1
  O  O1  1  0.747774  0.711891  0.470088  1
  O  O2  1  0.752226  0.211891  0.470088  1
  O  O3  1  0.252226  0.288109  0.529912  1
  O  O4  1  0.356615  0.622435  0.374694  1
  O  O5  1  0.856615  0.877565  0.625306  1
  O  O6  1  0.643385  0.377565  0.625306  1
  O  O7  1  0.143385  0.122435  0.374694  1
  O  O8  1  0.467395  0.868137  0.404760  1
  O  O9  1  0.967395  0.631863  0.595240  1
  O  O10  1  0.532605  0.131863  0.595240  1
  O  O11  1  0.032605  0.368137  0.404760  1
  O  O12  1  0.156753  0.817156  0.340488  1
  O  O13  1  0.656753  0.682844  0.659512  1
  O  O14  1  0.843247  0.182844  0.659512  1
  O  O15  1  0.291122  0.326861  0.096252  1
  O  O16  1  0.343247  0.317156  0.340488  1
  O  O17  1  0.809675  0.363222  0.049386  1
  O  O18  1  0.690325  0.863222  0.049386  1
  O  O19  1  0.190325  0.636778  0.950614  1
  O  O20  1  0.558148  0.450986  0.230082  1
  O  O21  1  0.058148  0.049014  0.769918  1
  O  O22  1  0.441852  0.549014  0.769918  1
  O  O23  1  0.941852  0.950986  0.230082  1
  O  O24  1  0.893665  0.480137  0.255777  1
  O  O25  1  0.393665  0.019863  0.744223  1
  O  O26  1  0.106335  0.519863  0.744223  1
  O  O27  1  0.606335  0.980137  0.255777  1
  O  O28  1  0.799148  0.219229  0.255163  1
  O  O29  1  0.299148  0.280771  0.744837  1
  O  O30  1  0.200852  0.780771  0.744837  1
  O  O31  1  0.700852  0.719229  0.255163  1
  O  O32  1  0.345561  0.604911  0.125456  1
  O  O33  1  0.845561  0.895089  0.874544  1
  O  O34  1  0.654439  0.395089  0.874544  1
  O  O35  1  0.154439  0.104911  0.125456  1
  O  O36  1  0.012204  0.628233  0.122162  1
  O  O37  1  0.512204  0.871767  0.877838  1
  O  O38  1  0.987796  0.371767  0.877838  1
  O  O39  1  0.487796  0.128233  0.122162  1
  O  O40  1  0.208878  0.826861  0.096252  1
  O  O41  1  0.708878  0.673139  0.903748  1
  O  O42  1  0.791122  0.173139  0.903748  1
  O  O43  1  0.309675  0.136778  0.950614  1
  P  P44  1  0.305222  0.768429  0.412597  1
  P  P45  1  0.805222  0.731571  0.587403  1
  P  P46  1  0.694778  0.231571  0.587403  1
  P  P47  1  0.194778  0.268429  0.412597  1
  P  P48  1  0.314267  0.173164  0.072759  1
  P  P49  1  0.814267  0.326836  0.927241  1
  P  P50  1  0.685733  0.826836  0.927241  1
  P  P51  1  0.185733  0.673164  0.072759  1
  Te  Te52  1  0.721543  0.867279  0.358909  1
  Te  Te53  1  0.221543  0.632721  0.641091  1
  Te  Te54  1  0.278457  0.132721  0.641091  1
  Te  Te55  1  0.778457  0.367279  0.358909  1
  Te  Te56  1  0.744081  0.053662  0.150549  1
  Te  Te57  1  0.244081  0.446338  0.849451  1
  Te  Te58  1  0.255919  0.946338  0.849451  1
  Te  Te59  1  0.755919  0.553662  0.150549  1
  Te  Te60  1  0.195251  0.969397  0.236499  1
  Te  Te61  1  0.695251  0.530603  0.763501  1
  Te  Te62  1  0.804749  0.030603  0.763501  1
  Te  Te63  1  0.304749  0.469397  0.236499  1
