# generated using pymatgen
data_KV4O8
_symmetry_space_group_name_H-M   'P 1'
_cell_length_a   2.92082820
_cell_length_b   7.38271871
_cell_length_c   7.38271871
_cell_angle_alpha   87.75739428
_cell_angle_beta   78.59077210
_cell_angle_gamma   78.59077215
_symmetry_Int_Tables_number   1
_chemical_formula_structural   KV4O8
_chemical_formula_sum   'K1 V4 O8'
_cell_volume   152.96881501
_cell_formula_units_Z   1
loop_
 _symmetry_equiv_pos_site_id
 _symmetry_equiv_pos_as_xyz
  1  'x, y, z'
loop_
 _atom_site_type_symbol
 _atom_site_label
 _atom_site_symmetry_multiplicity
 _atom_site_fract_x
 _atom_site_fract_y
 _atom_site_fract_z
 _atom_site_occupancy
  O  O0  1  0.845216  0.954485  0.355087  1
  O  O1  1  0.200303  0.644912  0.954484  1
  O  O2  1  0.799696  0.355088  0.045515  1
  O  O3  1  0.154788  0.045516  0.644912  1
  O  O4  1  0.460231  0.374565  0.704973  1
  O  O5  1  0.539769  0.625435  0.295027  1
  O  O6  1  0.165204  0.295027  0.374565  1
  O  O7  1  0.834796  0.704973  0.625434  1
  K  K8  1  0.499999  0.000000  0.999999  1
  V  V9  1  0.832211  0.518996  0.816582  1
  V  V10  1  0.167790  0.481002  0.183418  1
  V  V11  1  0.351208  0.816582  0.481003  1
  V  V12  1  0.648792  0.183418  0.518997  1
