# generated using pymatgen
data_Eu(YS2)2
_symmetry_space_group_name_H-M   'P 1'
_cell_length_a   7.32026082
_cell_length_b   7.32026057
_cell_length_c   7.32026092
_cell_angle_alpha   109.27288113
_cell_angle_beta   109.27287865
_cell_angle_gamma   109.86863720
_symmetry_Int_Tables_number   1
_chemical_formula_structural   Eu(YS2)2
_chemical_formula_sum   'Eu2 Y4 S8'
_cell_volume   301.95489064
_cell_formula_units_Z   2
loop_
 _symmetry_equiv_pos_site_id
 _symmetry_equiv_pos_as_xyz
  1  'x, y, z'
loop_
 _atom_site_type_symbol
 _atom_site_label
 _atom_site_symmetry_multiplicity
 _atom_site_fract_x
 _atom_site_fract_y
 _atom_site_fract_z
 _atom_site_occupancy
  Eu  Eu0  1  0.625000  0.375000  0.250000  1
  Eu  Eu1  1  0.875000  0.125000  0.750000  1
  S  S2  1  0.009134  0.860212  0.497782  1
  S  S3  1  0.011353  0.362431  0.502218  1
  S  S4  1  0.139788  0.137569  0.148922  1
  S  S5  1  0.360212  0.509134  0.997782  1
  S  S6  1  0.490866  0.988647  0.851078  1
  S  S7  1  0.637569  0.639788  0.648922  1
  S  S8  1  0.488647  0.990866  0.351078  1
  S  S9  1  0.862431  0.511353  0.002218  1
  Y  Y10  1  0.125408  0.750000  0.875408  1
  Y  Y11  1  0.250000  0.625408  0.375408  1
  Y  Y12  1  0.374592  0.250000  0.624592  1
  Y  Y13  1  0.750000  0.874592  0.124592  1
