# generated using pymatgen
data_LiMnPO4
_symmetry_space_group_name_H-M   'P 1'
_cell_length_a   5.27207485
_cell_length_b   9.66910737
_cell_length_c   6.18866976
_cell_angle_alpha   90.00000000
_cell_angle_beta   90.00000000
_cell_angle_gamma   84.66820974
_symmetry_Int_Tables_number   1
_chemical_formula_structural   LiMnPO4
_chemical_formula_sum   'Li4 Mn4 P4 O16'
_cell_volume   314.11025614
_cell_formula_units_Z   4
loop_
 _symmetry_equiv_pos_site_id
 _symmetry_equiv_pos_as_xyz
  1  'x, y, z'
loop_
 _atom_site_type_symbol
 _atom_site_label
 _atom_site_symmetry_multiplicity
 _atom_site_fract_x
 _atom_site_fract_y
 _atom_site_fract_z
 _atom_site_occupancy
  Li  Li0  1  0.163033  0.925041  0.639368  1
  Li  Li1  1  0.336966  0.574960  0.139368  1
  Li  Li2  1  0.663033  0.425041  0.860631  1
  Li  Li3  1  0.836966  0.074960  0.360631  1
  O  O4  1  0.007936  0.775809  0.143985  1
  O  O5  1  0.992064  0.224191  0.856015  1
  O  O6  1  0.769871  0.447122  0.562658  1
  O  O7  1  0.713572  0.473706  0.165329  1
  O  O8  1  0.012656  0.738894  0.666647  1
  O  O9  1  0.987346  0.261106  0.333354  1
  O  O10  1  0.230129  0.552878  0.437341  1
  O  O11  1  0.286428  0.526293  0.834670  1
  O  O12  1  0.213572  0.973706  0.334669  1
  O  O13  1  0.269871  0.947122  0.937342  1
  O  O14  1  0.786428  0.026293  0.665330  1
  O  O15  1  0.507937  0.275809  0.356016  1
  O  O16  1  0.492064  0.724191  0.643985  1
  O  O17  1  0.487346  0.761106  0.166646  1
  O  O18  1  0.730128  0.052878  0.062657  1
  O  O19  1  0.512655  0.238894  0.833355  1
  P  P20  1  0.740039  0.364438  0.349980  1
  P  P21  1  0.759962  0.135563  0.849979  1
  P  P22  1  0.240037  0.864438  0.150020  1
  P  P23  1  0.259962  0.635563  0.650021  1
  Mn  Mn24  1  0.213443  0.336431  0.611249  1
  Mn  Mn25  1  0.286557  0.163569  0.111249  1
  Mn  Mn26  1  0.713442  0.836431  0.888750  1
  Mn  Mn27  1  0.786556  0.663569  0.388752  1
