# generated using pymatgen
data_BaNi9P5
_symmetry_space_group_name_H-M   'P 1'
_cell_length_a   6.52187189
_cell_length_b   6.52187189
_cell_length_c   10.87539445
_cell_angle_alpha   90.00000000
_cell_angle_beta   90.00000000
_cell_angle_gamma   119.99999995
_symmetry_Int_Tables_number   1
_chemical_formula_structural   BaNi9P5
_chemical_formula_sum   'Ba2 Ni18 P10'
_cell_volume   400.60851585
_cell_formula_units_Z   2
loop_
 _symmetry_equiv_pos_site_id
 _symmetry_equiv_pos_as_xyz
  1  'x, y, z'
loop_
 _atom_site_type_symbol
 _atom_site_label
 _atom_site_symmetry_multiplicity
 _atom_site_fract_x
 _atom_site_fract_y
 _atom_site_fract_z
 _atom_site_occupancy
  P  P0  1  0.175863  0.351726  0.750000  1
  P  P1  1  0.824137  0.175863  0.250000  1
  P  P2  1  0.175863  0.824137  0.750000  1
  P  P3  1  0.824137  0.648274  0.250000  1
  P  P4  1  0.333333  0.666667  0.438371  1
  P  P5  1  0.666667  0.333333  0.938371  1
  P  P6  1  0.666667  0.333333  0.561629  1
  P  P7  1  0.333333  0.666667  0.061629  1
  P  P8  1  0.351726  0.175863  0.250000  1
  P  P9  1  0.648274  0.824137  0.750000  1
  Ni  Ni10  1  0.464254  0.928508  0.892589  1
  Ni  Ni11  1  0.928508  0.464254  0.107411  1
  Ni  Ni12  1  0.535746  0.071492  0.107411  1
  Ni  Ni13  1  0.071492  0.535746  0.607411  1
  Ni  Ni14  1  0.202870  0.405739  0.250000  1
  Ni  Ni15  1  0.797130  0.202870  0.750000  1
  Ni  Ni16  1  0.405739  0.202870  0.750000  1
  Ni  Ni17  1  0.594261  0.797130  0.250000  1
  Ni  Ni18  1  0.202870  0.797130  0.250000  1
  Ni  Ni19  1  0.797130  0.594261  0.750000  1
  Ni  Ni20  1  0.464254  0.928508  0.607411  1
  Ni  Ni21  1  0.535746  0.464254  0.392589  1
  Ni  Ni22  1  0.928508  0.464254  0.392589  1
  Ni  Ni23  1  0.071492  0.535746  0.892589  1
  Ni  Ni24  1  0.464254  0.535746  0.892589  1
  Ni  Ni25  1  0.535746  0.071492  0.392589  1
  Ni  Ni26  1  0.535746  0.464254  0.107411  1
  Ni  Ni27  1  0.464254  0.535746  0.607411  1
  Ba  Ba28  1  0.000000  0.000000  0.500000  1
  Ba  Ba29  1  0.000000  0.000000  0.000000  1
