# generated using pymatgen
data_Ca4Sb2S
_symmetry_space_group_name_H-M   'P 1'
_cell_length_a   8.05137610
_cell_length_b   8.05137590
_cell_length_c   8.05137616
_cell_angle_alpha   110.54951236
_cell_angle_beta   110.54951040
_cell_angle_gamma   107.33552008
_symmetry_Int_Tables_number   1
_chemical_formula_structural   Ca4Sb2S
_chemical_formula_sum   'Ca8 Sb4 S2'
_cell_volume   401.36336670
_cell_formula_units_Z   2
loop_
 _symmetry_equiv_pos_site_id
 _symmetry_equiv_pos_as_xyz
  1  'x, y, z'
loop_
 _atom_site_type_symbol
 _atom_site_label
 _atom_site_symmetry_multiplicity
 _atom_site_fract_x
 _atom_site_fract_y
 _atom_site_fract_z
 _atom_site_occupancy
  Ca  Ca0  1  0.000710  0.872445  0.512202  1
  Ca  Ca1  1  0.511492  0.999290  0.371735  1
  Ca  Ca2  1  0.127555  0.139757  0.128265  1
  Ca  Ca3  1  0.372445  0.500710  0.012202  1
  Ca  Ca4  1  0.639757  0.627555  0.628265  1
  Ca  Ca5  1  0.499290  0.011492  0.871735  1
  Ca  Ca6  1  0.860243  0.488508  0.987798  1
  Ca  Ca7  1  0.988508  0.360243  0.487798  1
  S  S8  1  0.625000  0.375000  0.250000  1
  S  S9  1  0.875000  0.125000  0.750000  1
  Sb  Sb10  1  0.122355  0.750000  0.872355  1
  Sb  Sb11  1  0.250000  0.622355  0.372355  1
  Sb  Sb12  1  0.377645  0.250000  0.627645  1
  Sb  Sb13  1  0.750000  0.877645  0.127645  1
