# generated using pymatgen
data_TlAsSe2
_symmetry_space_group_name_H-M   'P 1'
_cell_length_a   6.45901576
_cell_length_b   12.29915151
_cell_length_c   24.58965889
_cell_angle_alpha   90.00000000
_cell_angle_beta   90.00000000
_cell_angle_gamma   101.00380665
_symmetry_Int_Tables_number   1
_chemical_formula_structural   TlAsSe2
_chemical_formula_sum   'Tl16 As16 Se32'
_cell_volume   1917.49820741
_cell_formula_units_Z   16
loop_
 _symmetry_equiv_pos_site_id
 _symmetry_equiv_pos_as_xyz
  1  'x, y, z'
loop_
 _atom_site_type_symbol
 _atom_site_label
 _atom_site_symmetry_multiplicity
 _atom_site_fract_x
 _atom_site_fract_y
 _atom_site_fract_z
 _atom_site_occupancy
  As  As0  1  0.967096  0.891648  0.446879  1
  As  As1  1  0.614370  0.753971  0.190071  1
  As  As2  1  0.885630  0.746029  0.690071  1
  As  As3  1  0.385630  0.246029  0.809929  1
  As  As4  1  0.114370  0.253971  0.309929  1
  As  As5  1  0.718982  0.997186  0.289501  1
  As  As6  1  0.781018  0.502814  0.789501  1
  As  As7  1  0.281018  0.002814  0.710499  1
  As  As8  1  0.218982  0.497186  0.210499  1
  As  As9  1  0.532904  0.608352  0.946879  1
  As  As10  1  0.032904  0.108352  0.553121  1
  As  As11  1  0.467096  0.391648  0.053121  1
  As  As12  1  0.555105  0.641799  0.449605  1
  As  As13  1  0.944895  0.858201  0.949605  1
  As  As14  1  0.444895  0.358201  0.550395  1
  As  As15  1  0.055105  0.141799  0.050395  1
  Se  Se16  1  0.236928  0.739467  0.189531  1
  Se  Se17  1  0.824549  0.483764  0.693685  1
  Se  Se18  1  0.324549  0.983764  0.806315  1
  Se  Se19  1  0.175451  0.516236  0.306315  1
  Se  Se20  1  0.606152  0.547098  0.195391  1
  Se  Se21  1  0.893848  0.952902  0.695391  1
  Se  Se22  1  0.393848  0.452902  0.804609  1
  Se  Se23  1  0.963251  0.110032  0.456347  1
  Se  Se24  1  0.106152  0.047098  0.304609  1
  Se  Se25  1  0.217208  0.285510  0.214297  1
  Se  Se26  1  0.282792  0.214490  0.714297  1
  Se  Se27  1  0.782792  0.714490  0.785703  1
  Se  Se28  1  0.717208  0.785510  0.285703  1
  Se  Se29  1  0.736928  0.239467  0.310469  1
  Se  Se30  1  0.763072  0.260533  0.810469  1
  Se  Se31  1  0.263072  0.760533  0.689531  1
  Se  Se32  1  0.439552  0.161273  0.059717  1
  Se  Se33  1  0.060448  0.338727  0.559717  1
  Se  Se34  1  0.560448  0.838727  0.940283  1
  Se  Se35  1  0.939552  0.661273  0.440283  1
  Se  Se36  1  0.080468  0.349867  0.060524  1
  Se  Se37  1  0.419532  0.150133  0.560524  1
  Se  Se38  1  0.919532  0.650133  0.939476  1
  Se  Se39  1  0.580468  0.849867  0.439476  1
  Se  Se40  1  0.021796  0.874593  0.045252  1
  Se  Se41  1  0.478204  0.625407  0.545252  1
  Se  Se42  1  0.978204  0.125407  0.954748  1
  Se  Se43  1  0.521796  0.374593  0.454748  1
  Se  Se44  1  0.463251  0.610032  0.043653  1
  Se  Se45  1  0.036749  0.889968  0.543653  1
  Se  Se46  1  0.536749  0.389968  0.956347  1
  Se  Se47  1  0.675451  0.016236  0.193685  1
  Tl  Tl48  1  0.471809  0.122987  0.423893  1
  Tl  Tl49  1  0.028191  0.377013  0.923893  1
  Tl  Tl50  1  0.528191  0.877013  0.576107  1
  Tl  Tl51  1  0.971809  0.622987  0.076107  1
  Tl  Tl52  1  0.025261  0.389770  0.434660  1
  Tl  Tl53  1  0.474739  0.110230  0.934660  1
  Tl  Tl54  1  0.974739  0.610230  0.565340  1
  Tl  Tl55  1  0.525261  0.889770  0.065340  1
  Tl  Tl56  1  0.676983  0.496156  0.326832  1
  Tl  Tl57  1  0.823017  0.003844  0.826832  1
  Tl  Tl58  1  0.323017  0.503844  0.673168  1
  Tl  Tl59  1  0.176983  0.996156  0.173168  1
  Tl  Tl60  1  0.216644  0.771425  0.319493  1
  Tl  Tl61  1  0.283356  0.728575  0.819493  1
  Tl  Tl62  1  0.783356  0.228575  0.680507  1
  Tl  Tl63  1  0.716644  0.271425  0.180507  1
