# generated using pymatgen
data_K4(TiTe3)3
_symmetry_space_group_name_H-M   'P 1'
_cell_length_a   8.26103577
_cell_length_b   9.09045353
_cell_length_c   29.92113099
_cell_angle_alpha   92.22596514
_cell_angle_beta   90.00000000
_cell_angle_gamma   90.00000000
_symmetry_Int_Tables_number   1
_chemical_formula_structural   K4(TiTe3)3
_chemical_formula_sum   'K16 Ti12 Te36'
_cell_volume   2245.27853440
_cell_formula_units_Z   4
loop_
 _symmetry_equiv_pos_site_id
 _symmetry_equiv_pos_as_xyz
  1  'x, y, z'
loop_
 _atom_site_type_symbol
 _atom_site_label
 _atom_site_symmetry_multiplicity
 _atom_site_fract_x
 _atom_site_fract_y
 _atom_site_fract_z
 _atom_site_occupancy
  K  K0  1  0.765463  0.608671  0.516022  1
  K  K1  1  0.265463  0.391329  0.983978  1
  K  K2  1  0.234537  0.391329  0.483978  1
  K  K3  1  0.734537  0.608671  0.016022  1
  K  K4  1  0.785249  0.068555  0.566304  1
  K  K5  1  0.285249  0.931445  0.933696  1
  K  K6  1  0.214751  0.931445  0.433696  1
  K  K7  1  0.714751  0.068555  0.066304  1
  K  K8  1  0.760523  0.874552  0.233703  1
  K  K9  1  0.260523  0.125448  0.266297  1
  K  K10  1  0.239477  0.125448  0.766297  1
  K  K11  1  0.739477  0.874552  0.733703  1
  K  K12  1  0.776957  0.428131  0.681703  1
  K  K13  1  0.276957  0.571869  0.818297  1
  K  K14  1  0.223043  0.571869  0.318297  1
  K  K15  1  0.723043  0.428131  0.181703  1
  Ti  Ti16  1  0.733136  0.748971  0.373096  1
  Ti  Ti17  1  0.233136  0.251029  0.126904  1
  Ti  Ti18  1  0.266864  0.251029  0.626904  1
  Ti  Ti19  1  0.766864  0.748971  0.873096  1
  Ti  Ti20  1  0.811281  0.080973  0.870004  1
  Ti  Ti21  1  0.311281  0.919027  0.629996  1
  Ti  Ti22  1  0.188719  0.919027  0.129996  1
  Ti  Ti23  1  0.688719  0.080973  0.370004  1
  Ti  Ti24  1  0.802867  0.415581  0.882813  1
  Ti  Ti25  1  0.302867  0.584419  0.617187  1
  Ti  Ti26  1  0.197133  0.584419  0.117187  1
  Ti  Ti27  1  0.697133  0.415581  0.382813  1
  Te  Te28  1  0.969246  0.577927  0.409900  1
  Te  Te29  1  0.469246  0.422073  0.090100  1
  Te  Te30  1  0.030754  0.422073  0.590100  1
  Te  Te31  1  0.530754  0.577927  0.909900  1
  Te  Te32  1  0.010603  0.885458  0.825196  1
  Te  Te33  1  0.510603  0.114542  0.674804  1
  Te  Te34  1  0.989397  0.114542  0.174804  1
  Te  Te35  1  0.489397  0.885458  0.325196  1
  Te  Te36  1  0.994404  0.383247  0.074586  1
  Te  Te37  1  0.494404  0.616753  0.425414  1
  Te  Te38  1  0.005596  0.616753  0.925414  1
  Te  Te39  1  0.505596  0.383247  0.574586  1
  Te  Te40  1  0.967720  0.927838  0.339096  1
  Te  Te41  1  0.467720  0.072162  0.160904  1
  Te  Te42  1  0.032280  0.072162  0.660904  1
  Te  Te43  1  0.532280  0.927838  0.839096  1
  Te  Te44  1  0.834229  0.551796  0.800758  1
  Te  Te45  1  0.334229  0.448204  0.699242  1
  Te  Te46  1  0.165771  0.448204  0.199242  1
  Te  Te47  1  0.665771  0.551796  0.300758  1
  Te  Te48  1  0.834276  0.931346  0.949079  1
  Te  Te49  1  0.334276  0.068654  0.550921  1
  Te  Te50  1  0.165724  0.068654  0.050921  1
  Te  Te51  1  0.665724  0.931346  0.449079  1
  Te  Te52  1  0.838778  0.259256  0.308702  1
  Te  Te53  1  0.338778  0.740744  0.191298  1
  Te  Te54  1  0.161222  0.740744  0.691298  1
  Te  Te55  1  0.661222  0.259256  0.808702  1
  Te  Te56  1  0.839711  0.231237  0.443798  1
  Te  Te57  1  0.339711  0.768763  0.056202  1
  Te  Te58  1  0.160289  0.768763  0.556202  1
  Te  Te59  1  0.660289  0.231237  0.943798  1
  Te  Te60  1  0.912563  0.747074  0.122716  1
  Te  Te61  1  0.412563  0.252926  0.377284  1
  Te  Te62  1  0.087437  0.252926  0.877284  1
  Te  Te63  1  0.587437  0.747074  0.622716  1
