# generated using pymatgen
data_KHo2F7
_symmetry_space_group_name_H-M   'P 1'
_cell_length_a   8.05781116
_cell_length_b   8.26711122
_cell_length_c   10.61787176
_cell_angle_alpha   77.98820540
_cell_angle_beta   67.70064893
_cell_angle_gamma   60.83401100
_symmetry_Int_Tables_number   1
_chemical_formula_structural   KHo2F7
_chemical_formula_sum   'K4 Ho8 F28'
_cell_volume   571.20363671
_cell_formula_units_Z   4
loop_
 _symmetry_equiv_pos_site_id
 _symmetry_equiv_pos_as_xyz
  1  'x, y, z'
loop_
 _atom_site_type_symbol
 _atom_site_label
 _atom_site_symmetry_multiplicity
 _atom_site_fract_x
 _atom_site_fract_y
 _atom_site_fract_z
 _atom_site_occupancy
  F  F0  1  0.894883  0.122188  0.088047  1
  F  F1  1  0.105117  0.877812  0.911953  1
  F  F2  1  0.821094  0.500000  0.500000  1
  F  F3  1  0.178906  0.500000  0.500000  1
  F  F4  1  0.494179  0.278722  0.732920  1
  F  F5  1  0.505821  0.721278  0.267080  1
  F  F6  1  0.156229  0.608508  0.738241  1
  F  F7  1  0.502978  0.391492  0.261759  1
  F  F8  1  0.843771  0.391492  0.261759  1
  F  F9  1  0.497022  0.608508  0.738241  1
  F  F10  1  0.170936  0.824795  0.499911  1
  F  F11  1  0.495643  0.175205  0.500089  1
  F  F12  1  0.663464  0.286651  0.915795  1
  F  F13  1  0.865910  0.713349  0.084205  1
  F  F14  1  0.336536  0.713349  0.084205  1
  F  F15  1  0.134090  0.286651  0.915795  1
  F  F16  1  0.647017  0.996796  0.236786  1
  F  F17  1  0.880600  0.003204  0.763214  1
  F  F18  1  0.352983  0.003204  0.763214  1
  F  F19  1  0.119400  0.996796  0.236786  1
  F  F20  1  0.104223  0.540949  0.250604  1
  F  F21  1  0.895777  0.459051  0.749396  1
  F  F22  1  0.604213  0.865539  0.926036  1
  F  F23  1  0.395787  0.134461  0.073964  1
  F  F24  1  0.112140  0.156461  0.619260  1
  F  F25  1  0.887861  0.843539  0.380740  1
  F  F26  1  0.504357  0.824795  0.499911  1
  F  F27  1  0.829064  0.175205  0.500089  1
  K  K28  1  0.261973  0.495757  0.980298  1
  K  K29  1  0.738027  0.504243  0.019702  1
  K  K30  1  0.235454  0.182058  0.347034  1
  K  K31  1  0.764546  0.817942  0.652966  1
  Ho  Ho32  1  0.760125  0.323849  0.681280  1
  Ho  Ho33  1  0.765254  0.676151  0.318720  1
  Ho  Ho34  1  0.239875  0.676151  0.318720  1
  Ho  Ho35  1  0.234746  0.323849  0.681280  1
  Ho  Ho36  1  0.759342  0.159231  0.322086  1
  Ho  Ho37  1  0.240658  0.840769  0.677914  1
  Ho  Ho38  1  0.740909  0.000000  0.000000  1
  Ho  Ho39  1  0.259091  0.000000  0.000000  1
