# generated using pymatgen
data_SrAl4O7
_symmetry_space_group_name_H-M   'P 1'
_cell_length_a   5.59866840
_cell_length_b   8.02078623
_cell_length_c   8.02078623
_cell_angle_alpha   69.24532778
_cell_angle_beta   76.75352012
_cell_angle_gamma   76.75352008
_symmetry_Int_Tables_number   1
_chemical_formula_structural   SrAl4O7
_chemical_formula_sum   'Sr2 Al8 O14'
_cell_volume   323.48531984
_cell_formula_units_Z   2
loop_
 _symmetry_equiv_pos_site_id
 _symmetry_equiv_pos_as_xyz
  1  'x, y, z'
loop_
 _atom_site_type_symbol
 _atom_site_label
 _atom_site_symmetry_multiplicity
 _atom_site_fract_x
 _atom_site_fract_y
 _atom_site_fract_z
 _atom_site_occupancy
  O  O0  1  0.904527  0.744394  0.636039  1
  O  O1  1  0.595473  0.363961  0.255606  1
  O  O2  1  0.095473  0.255606  0.363961  1
  O  O3  1  0.404527  0.636039  0.744394  1
  O  O4  1  0.329295  0.866453  0.382835  1
  O  O5  1  0.170705  0.617165  0.133547  1
  O  O6  1  0.670705  0.133547  0.617165  1
  O  O7  1  0.829295  0.382835  0.866453  1
  O  O8  1  0.952815  0.080912  0.157653  1
  O  O9  1  0.547185  0.842347  0.919088  1
  O  O10  1  0.750000  0.524821  0.475179  1
  O  O11  1  0.250000  0.475179  0.524821  1
  O  O12  1  0.452815  0.157653  0.080912  1
  O  O13  1  0.047185  0.919088  0.842347  1
  Al  Al14  1  0.236185  0.681533  0.560888  1
  Al  Al15  1  0.263815  0.439112  0.318467  1
  Al  Al16  1  0.763815  0.318467  0.439112  1
  Al  Al17  1  0.736185  0.560888  0.681533  1
  Al  Al18  1  0.204245  0.082376  0.255248  1
  Al  Al19  1  0.295755  0.744752  0.917624  1
  Al  Al20  1  0.795755  0.917624  0.744752  1
  Al  Al21  1  0.704245  0.255248  0.082376  1
  Sr  Sr22  1  0.250000  0.189162  0.810838  1
  Sr  Sr23  1  0.750000  0.810838  0.189162  1
