# generated using pymatgen
data_Li2BeH4
_symmetry_space_group_name_H-M   'P 1'
_cell_length_a   4.87643696
_cell_length_b   6.68765956
_cell_length_c   13.01548302
_cell_angle_alpha   81.98374077
_cell_angle_beta   107.30202798
_cell_angle_gamma   87.82499159
_symmetry_Int_Tables_number   1
_chemical_formula_structural   Li2BeH4
_chemical_formula_sum   'Li12 Be6 H24'
_cell_volume   399.87497157
_cell_formula_units_Z   6
loop_
 _symmetry_equiv_pos_site_id
 _symmetry_equiv_pos_as_xyz
  1  'x, y, z'
loop_
 _atom_site_type_symbol
 _atom_site_label
 _atom_site_symmetry_multiplicity
 _atom_site_fract_x
 _atom_site_fract_y
 _atom_site_fract_z
 _atom_site_occupancy
  Be  Be0  1  0.990009  0.965957  0.986813  1
  Be  Be1  1  0.941080  0.606428  0.975716  1
  Be  Be2  1  0.577079  0.225033  0.462178  1
  Be  Be3  1  0.537253  0.768242  0.415871  1
  Be  Be4  1  0.479204  0.062093  0.321171  1
  Be  Be5  1  0.486060  0.393556  0.318227  1
  Li  Li6  1  0.875857  0.693980  0.793704  1
  Li  Li7  1  0.952302  0.273319  0.847526  1
  Li  Li8  1  0.224682  0.274869  0.128448  1
  Li  Li9  1  0.271907  0.770989  0.201518  1
  Li  Li10  1  0.652275  0.513696  0.582032  1
  Li  Li11  1  1.019351  0.063297  0.662150  1
  Li  Li12  1  0.402726  0.953920  0.863251  1
  Li  Li13  1  0.389583  0.517232  0.796605  1
  Li  Li14  1  1.001287  0.248752  0.349422  1
  Li  Li15  1  -0.010150  0.720980  0.371705  1
  Li  Li16  1  0.809909  0.993291  0.181676  1
  Li  Li17  1  0.762214  0.557409  0.157746  1
  H  H18  1  0.205397  0.218791  0.765472  1
  H  H19  1  0.155225  0.806988  0.744708  1
  H  H20  1  0.205738  1.052189  0.541564  1
  H  H21  1  0.123229  0.505365  0.582989  1
  H  H22  1  0.472169  0.188534  0.038978  1
  H  H23  1  0.456727  0.756616  0.058206  1
  H  H24  1  0.208786  0.043782  0.946238  1
  H  H25  1  0.116008  0.515722  0.915825  1
  H  H26  1  0.756691  0.364194  0.415650  1
  H  H27  1  0.821235  0.704464  0.484553  1
  H  H28  1  0.907955  0.458000  0.059973  1
  H  H29  1  0.067226  0.012046  0.098302  1
  H  H30  1  0.352187  0.701309  0.477174  1
  H  H31  1  0.665208  0.210160  0.577060  1
  H  H32  1  0.568988  0.256054  0.075598  1
  H  H33  1  0.613253  0.790547  0.062232  1
  H  H34  1  0.338092  0.385729  0.409724  1
  H  H35  1  0.535077  1.001689  0.438880  1
  H  H36  1  0.083332  -0.013712  0.520661  1
  H  H37  1  0.160363  0.415360  0.629490  1
  H  H38  1  0.665206  0.671082  0.892677  1
  H  H39  1  0.733804  0.086483  0.916944  1
  H  H40  1  0.946166  0.732499  0.231755  1
  H  H41  1  0.689311  0.493067  0.729589  1
