# generated using pymatgen
data_Ce2S3
_symmetry_space_group_name_H-M   'P 1'
_cell_length_a   22.14108384
_cell_length_b   8.52744509
_cell_length_c   8.52744549
_cell_angle_alpha   90.00000598
_cell_angle_beta   54.71023198
_cell_angle_gamma   54.71023008
_symmetry_Int_Tables_number   1
_chemical_formula_structural   Ce2S3
_chemical_formula_sum   'Ce16 S24'
_cell_volume   928.39161532
_cell_formula_units_Z   8
loop_
 _symmetry_equiv_pos_site_id
 _symmetry_equiv_pos_as_xyz
  1  'x, y, z'
loop_
 _atom_site_type_symbol
 _atom_site_label
 _atom_site_symmetry_multiplicity
 _atom_site_fract_x
 _atom_site_fract_y
 _atom_site_fract_z
 _atom_site_occupancy
  Ce  Ce0  1  0.995184  0.394655  0.251115  1
  Ce  Ce1  1  0.085605  0.621592  0.371592  1
  Ce  Ce2  1  0.166667  0.250000  0.630344  1
  Ce  Ce3  1  0.247728  0.878408  0.128408  1
  Ce  Ce4  1  0.338149  0.380208  0.248885  1
  Ce  Ce5  1  0.338149  0.105345  0.736667  1
  Ce  Ce6  1  0.166667  0.750000  0.869656  1
  Ce  Ce7  1  0.495184  0.263333  0.619792  1
  Ce  Ce8  1  0.585605  0.871592  0.121592  1
  Ce  Ce9  1  0.666667  0.369656  0.250000  1
  Ce  Ce10  1  0.666667  0.130344  0.750000  1
  Ce  Ce11  1  0.495184  0.751115  0.894655  1
  Ce  Ce12  1  0.747728  0.628408  0.378408  1
  Ce  Ce13  1  0.838149  0.236667  0.605345  1
  Ce  Ce14  1  0.995184  0.119792  0.763333  1
  Ce  Ce15  1  0.838149  0.748885  0.880208  1
  S  S16  1  0.050517  0.999545  0.350825  1
  S  S17  1  0.125335  0.487840  0.992746  1
  S  S18  1  0.050517  0.348904  0.497624  1
  S  S19  1  0.282816  0.151096  0.149175  1
  S  S20  1  0.282816  0.500455  0.002376  1
  S  S21  1  0.207998  0.012160  0.868751  1
  S  S22  1  0.125335  0.636155  0.631249  1
  S  S23  1  0.384282  0.004974  0.344417  1
  S  S24  1  0.207998  0.863845  0.507254  1
  S  S25  1  0.449052  0.497263  0.995026  1
  S  S26  1  0.384282  0.342180  0.502737  1
  S  S27  1  0.625335  0.131249  0.136155  1
  S  S28  1  0.625335  0.492746  0.987840  1
  S  S29  1  0.550517  0.997624  0.848904  1
  S  S30  1  0.449052  0.655583  0.657820  1
  S  S31  1  0.707998  0.007254  0.363845  1
  S  S32  1  0.550517  0.850825  0.499545  1
  S  S33  1  0.782816  0.502376  0.000455  1
  S  S34  1  0.707998  0.368751  0.512160  1
  S  S35  1  0.949052  0.157820  0.155583  1
  S  S36  1  0.949052  0.495026  0.997263  1
  S  S37  1  0.884282  0.002737  0.842180  1
  S  S38  1  0.782816  0.649175  0.651096  1
  S  S39  1  0.884282  0.844417  0.504974  1
