# generated using pymatgen
data_Eu(Mo3S4)2
_symmetry_space_group_name_H-M   'P 1'
_cell_length_a   6.56453912
_cell_length_b   6.56425761
_cell_length_c   6.56981367
_cell_angle_alpha   89.28793677
_cell_angle_beta   89.02897015
_cell_angle_gamma   88.76437257
_symmetry_Int_Tables_number   1
_chemical_formula_structural   Eu(Mo3S4)2
_chemical_formula_sum   'Eu1 Mo6 S8'
_cell_volume   282.97490199
_cell_formula_units_Z   1
loop_
 _symmetry_equiv_pos_site_id
 _symmetry_equiv_pos_as_xyz
  1  'x, y, z'
loop_
 _atom_site_type_symbol
 _atom_site_label
 _atom_site_symmetry_multiplicity
 _atom_site_fract_x
 _atom_site_fract_y
 _atom_site_fract_z
 _atom_site_occupancy
  S  S0  1  0.254384  0.874472  0.621656  1
  S  S1  1  0.745616  0.125528  0.378344  1
  S  S2  1  0.621777  0.255464  0.872002  1
  S  S3  1  0.378223  0.744536  0.127998  1
  S  S4  1  0.755761  0.757582  0.757499  1
  S  S5  1  0.244239  0.242418  0.242501  1
  S  S6  1  0.872752  0.619298  0.254856  1
  S  S7  1  0.127248  0.380702  0.745144  1
  Mo  Mo8  1  0.438044  0.582418  0.774550  1
  Mo  Mo9  1  0.561956  0.417582  0.225450  1
  Mo  Mo10  1  0.581087  0.773987  0.438761  1
  Mo  Mo11  1  0.418913  0.226013  0.561239  1
  Mo  Mo12  1  0.774121  0.438227  0.581201  1
  Mo  Mo13  1  0.225879  0.561773  0.418799  1
  Eu  Eu14  1  0.000000  0.000000  0.000000  1
