# generated using pymatgen
data_Rh3Se8
_symmetry_space_group_name_H-M   'P 1'
_cell_length_a   6.05644875
_cell_length_b   6.05396498
_cell_length_c   12.14146931
_cell_angle_alpha   89.18329852
_cell_angle_beta   90.00000000
_cell_angle_gamma   90.00000000
_symmetry_Int_Tables_number   1
_chemical_formula_structural   Rh3Se8
_chemical_formula_sum   'Rh6 Se16'
_cell_volume   445.12816641
_cell_formula_units_Z   2
loop_
 _symmetry_equiv_pos_site_id
 _symmetry_equiv_pos_as_xyz
  1  'x, y, z'
loop_
 _atom_site_type_symbol
 _atom_site_label
 _atom_site_symmetry_multiplicity
 _atom_site_fract_x
 _atom_site_fract_y
 _atom_site_fract_z
 _atom_site_occupancy
  Rh  Rh0  1  0.993190  0.993603  0.999196  1
  Rh  Rh1  1  0.006810  0.006397  0.500804  1
  Rh  Rh2  1  -0.000000  0.500000  0.250000  1
  Rh  Rh3  1  0.493190  0.506397  0.000804  1
  Rh  Rh4  1  0.506810  0.493603  0.499196  1
  Rh  Rh5  1  0.500000  0.000000  0.750000  1
  Se  Se6  1  0.116845  0.616185  0.441860  1
  Se  Se7  1  0.116312  0.621100  0.939619  1
  Se  Se8  1  0.114846  0.885479  0.191478  1
  Se  Se9  1  0.117430  0.883036  0.693129  1
  Se  Se10  1  0.382570  0.383036  0.193129  1
  Se  Se11  1  0.383688  0.121100  0.439619  1
  Se  Se12  1  0.385154  0.385479  0.691478  1
  Se  Se13  1  0.383155  0.116185  0.941860  1
  Se  Se14  1  0.616312  0.878900  0.060381  1
  Se  Se15  1  0.617430  0.616964  0.306871  1
  Se  Se16  1  0.614846  0.614521  0.808522  1
  Se  Se17  1  0.616845  0.883815  0.558140  1
  Se  Se18  1  0.885154  0.114521  0.308522  1
  Se  Se19  1  0.883155  0.383815  0.058140  1
  Se  Se20  1  0.883688  0.378900  0.560381  1
  Se  Se21  1  0.882570  0.116964  0.806871  1
