# generated using pymatgen
data_Li2Ni(PO3)4
_symmetry_space_group_name_H-M   'P 1'
_cell_length_a   8.51684035
_cell_length_b   8.51684036
_cell_length_c   7.64362288
_cell_angle_alpha   82.81575687
_cell_angle_beta   97.18424314
_cell_angle_gamma   66.02475835
_symmetry_Int_Tables_number   1
_chemical_formula_structural   Li2Ni(PO3)4
_chemical_formula_sum   'Li4 Ni2 P8 O24'
_cell_volume   493.07826311
_cell_formula_units_Z   2
loop_
 _symmetry_equiv_pos_site_id
 _symmetry_equiv_pos_as_xyz
  1  'x, y, z'
loop_
 _atom_site_type_symbol
 _atom_site_label
 _atom_site_symmetry_multiplicity
 _atom_site_fract_x
 _atom_site_fract_y
 _atom_site_fract_z
 _atom_site_occupancy
  Li  Li0  1  0.483767  0.815395  0.749987  1
  Li  Li1  1  0.184605  0.516232  0.249987  1
  Li  Li2  1  0.815395  0.483768  0.750013  1
  Li  Li3  1  0.516232  0.184604  0.250013  1
  O  O4  1  0.623724  0.918746  0.312351  1
  O  O5  1  0.982698  0.269838  0.492427  1
  O  O6  1  0.172565  0.894871  0.668797  1
  O  O7  1  0.017302  0.730162  0.507573  1
  O  O8  1  0.105129  0.827435  0.168797  1
  O  O9  1  0.269838  0.982697  0.007574  1
  O  O10  1  0.164438  0.630873  0.839634  1
  O  O11  1  0.369127  0.835563  0.339635  1
  O  O12  1  0.081255  0.376275  0.812351  1
  O  O13  1  0.827436  0.105129  0.331204  1
  O  O14  1  0.634697  0.683638  0.571031  1
  O  O15  1  0.370750  0.370750  0.750000  1
  O  O16  1  0.889921  0.889921  0.750000  1
  O  O17  1  0.683638  0.634696  0.928968  1
  O  O18  1  0.316362  0.365304  0.071032  1
  O  O19  1  0.894870  0.172565  0.831204  1
  O  O20  1  0.629249  0.629250  0.250000  1
  O  O21  1  0.365304  0.316362  0.428968  1
  O  O22  1  0.376276  0.081254  0.687648  1
  O  O23  1  0.918746  0.623725  0.187648  1
  O  O24  1  0.630873  0.164437  0.660365  1
  O  O25  1  0.835563  0.369127  0.160365  1
  O  O26  1  0.730162  0.017302  0.992427  1
  O  O27  1  0.110079  0.110079  0.250000  1
  P  P28  1  0.936545  0.207173  0.327525  1
  P  P29  1  0.792828  0.063455  0.827526  1
  P  P30  1  0.063455  0.792828  0.672475  1
  P  P31  1  0.207172  0.936545  0.172475  1
  P  P32  1  0.228033  0.424518  0.877283  1
  P  P33  1  0.771966  0.575482  0.122718  1
  P  P34  1  0.424519  0.228034  0.622718  1
  P  P35  1  0.575482  0.771966  0.377283  1
  Ni  Ni36  1  0.128025  0.128025  0.750000  1
  Ni  Ni37  1  0.871975  0.871975  0.250000  1
