# generated using pymatgen
data_BaLaMgNbO6
_symmetry_space_group_name_H-M   'P 1'
_cell_length_a   5.75490718
_cell_length_b   5.75490690
_cell_length_c   5.75490691
_cell_angle_alpha   90.01003930
_cell_angle_beta   119.99420223
_cell_angle_gamma   119.99420221
_symmetry_Int_Tables_number   1
_chemical_formula_structural   BaLaMgNbO6
_chemical_formula_sum   'Ba1 La1 Mg1 Nb1 O6'
_cell_volume   134.78389181
_cell_formula_units_Z   1
loop_
 _symmetry_equiv_pos_site_id
 _symmetry_equiv_pos_as_xyz
  1  'x, y, z'
loop_
 _atom_site_type_symbol
 _atom_site_label
 _atom_site_symmetry_multiplicity
 _atom_site_fract_x
 _atom_site_fract_y
 _atom_site_fract_z
 _atom_site_occupancy
  Ba  Ba0  1  0.500000  0.250000  0.750000  1
  La  La1  1  0.500000  0.750000  0.250000  1
  Mg  Mg2  1  0.000000  0.000000  0.000000  1
  Nb  Nb3  1  0.000000  0.500000  0.500000  1
  O  O4  1  0.000000  0.746602  0.746602  1
  O  O5  1  0.003126  0.748155  0.255027  1
  O  O6  1  0.493128  0.744973  0.748099  1
  O  O7  1  0.506872  0.254971  0.251845  1
  O  O8  1  0.996874  0.251901  0.745029  1
  O  O9  1  1.000000  0.253398  0.253398  1
