# generated using pymatgen
data_Na4Al3Si3HO13
_symmetry_space_group_name_H-M   'P 1'
_cell_length_a   8.83298668
_cell_length_b   8.83298668
_cell_length_c   8.83298668
_cell_angle_alpha   90.34558441
_cell_angle_beta   89.65441559
_cell_angle_gamma   89.65441559
_symmetry_Int_Tables_number   1
_chemical_formula_structural   Na4Al3Si3HO13
_chemical_formula_sum   'Na8 Al6 Si6 H2 O26'
_cell_volume   689.12646830
_cell_formula_units_Z   2
loop_
 _symmetry_equiv_pos_site_id
 _symmetry_equiv_pos_as_xyz
  1  'x, y, z'
loop_
 _atom_site_type_symbol
 _atom_site_label
 _atom_site_symmetry_multiplicity
 _atom_site_fract_x
 _atom_site_fract_y
 _atom_site_fract_z
 _atom_site_occupancy
  Al  Al0  1  1.000035  0.250132  0.498808  1
  Al  Al1  1  0.249868  0.499965  0.998808  1
  Al  Al2  1  0.500035  0.998808  0.750132  1
  Al  Al3  1  0.501192  -0.000035  0.250132  1
  Al  Al4  1  0.749868  0.498808  -0.000035  1
  Al  Al5  1  0.001192  0.750132  0.499965  1
  H  H6  1  0.426627  0.573373  0.573373  1
  H  H7  1  0.926627  0.073373  0.073373  1
  Na  Na8  1  0.168064  0.158036  0.158182  1
  Na  Na9  1  0.150868  0.849132  0.849132  1
  Na  Na10  1  0.341964  0.331936  0.658182  1
  Na  Na11  1  0.341818  0.658036  0.331936  1
  Na  Na12  1  0.650868  0.349132  0.349132  1
  Na  Na13  1  0.668064  0.658182  0.658036  1
  Na  Na14  1  0.841964  0.158182  0.831936  1
  Na  Na15  1  0.841818  0.831936  0.158036  1
  O  O16  1  0.990727  0.009273  0.009273  1
  O  O17  1  0.073831  0.363250  0.645649  1
  O  O18  1  0.072753  0.635241  0.352210  1
  O  O19  1  0.136750  0.426169  0.145649  1
  O  O20  1  0.136929  0.573756  0.852629  1
  O  O21  1  0.147790  0.135241  0.427247  1
  O  O22  1  0.147371  0.863071  0.573756  1
  O  O23  1  0.352634  0.070643  0.637188  1
  O  O24  1  0.354351  0.926169  0.363250  1
  O  O25  1  0.364759  0.352210  0.927247  1
  O  O26  1  0.362812  0.647366  0.070643  1
  O  O27  1  0.429357  0.147366  0.137188  1
  O  O28  1  0.426244  0.852629  0.863071  1
  O  O29  1  0.490727  0.509273  0.509273  1
  O  O30  1  0.573831  0.145649  0.863250  1
  O  O31  1  0.572753  0.852210  0.135241  1
  O  O32  1  0.636929  0.352629  0.073756  1
  O  O33  1  0.636750  0.645649  0.926169  1
  O  O34  1  0.647371  0.073756  0.363071  1
  O  O35  1  0.647790  0.927247  0.635241  1
  O  O36  1  0.852634  0.137188  0.570643  1
  O  O37  1  0.854351  0.863250  0.426169  1
  O  O38  1  0.862812  0.570643  0.147366  1
  O  O39  1  0.864759  0.427247  0.852210  1
  O  O40  1  0.926244  0.363071  0.352629  1
  O  O41  1  0.929357  0.637188  0.647366  1
  Si  Si42  1  0.999691  0.498671  0.249765  1
  Si  Si43  1  0.001329  0.500309  0.749765  1
  Si  Si44  1  0.250235  0.998671  0.500309  1
  Si  Si45  1  0.499691  0.749765  0.998671  1
  Si  Si46  1  0.501329  0.249765  0.000309  1
  Si  Si47  1  0.750235  0.000309  0.498671  1
