# generated using pymatgen
data_TlS
_symmetry_space_group_name_H-M   'P 1'
_cell_length_a   6.64349395
_cell_length_b   6.64349395
_cell_length_c   6.64349395
_cell_angle_alpha   105.97178122
_cell_angle_beta   105.97178122
_cell_angle_gamma   116.72265574
_symmetry_Int_Tables_number   1
_chemical_formula_structural   TlS
_chemical_formula_sum   'Tl4 S4'
_cell_volume   222.97448465
_cell_formula_units_Z   4
loop_
 _symmetry_equiv_pos_site_id
 _symmetry_equiv_pos_as_xyz
  1  'x, y, z'
loop_
 _atom_site_type_symbol
 _atom_site_label
 _atom_site_symmetry_multiplicity
 _atom_site_fract_x
 _atom_site_fract_y
 _atom_site_fract_z
 _atom_site_occupancy
  S  S0  1  0.670159  0.170159  0.840319  1
  S  S1  1  0.170159  0.329841  0.500000  1
  S  S2  1  0.829841  0.670159  0.500000  1
  S  S3  1  0.329841  0.829841  0.159681  1
  Tl  Tl4  1  0.250000  0.250000  0.000000  1
  Tl  Tl5  1  0.750000  0.750000  0.000000  1
  Tl  Tl6  1  0.750000  0.250000  0.500000  1
  Tl  Tl7  1  0.250000  0.750000  0.500000  1
