# generated using pymatgen
data_Sn(SO2)2
_symmetry_space_group_name_H-M   'P 1'
_cell_length_a   7.41964915
_cell_length_b   7.74238899
_cell_length_c   9.88844728
_cell_angle_alpha   90.00000000
_cell_angle_beta   100.47076467
_cell_angle_gamma   90.00000000
_symmetry_Int_Tables_number   1
_chemical_formula_structural   Sn(SO2)2
_chemical_formula_sum   'Sn4 S8 O16'
_cell_volume   558.59056311
_cell_formula_units_Z   4
loop_
 _symmetry_equiv_pos_site_id
 _symmetry_equiv_pos_as_xyz
  1  'x, y, z'
loop_
 _atom_site_type_symbol
 _atom_site_label
 _atom_site_symmetry_multiplicity
 _atom_site_fract_x
 _atom_site_fract_y
 _atom_site_fract_z
 _atom_site_occupancy
  O  O0  1  0.167078  0.342261  0.359366  1
  O  O1  1  0.332922  0.842261  0.140634  1
  O  O2  1  0.832922  0.657739  0.640634  1
  O  O3  1  0.667078  0.157739  0.859366  1
  O  O4  1  0.318759  0.527676  0.589991  1
  O  O5  1  0.181241  0.027676  0.910009  1
  O  O6  1  0.681241  0.472324  0.410009  1
  O  O7  1  0.818759  0.972324  0.089991  1
  O  O8  1  0.976134  0.601104  0.269959  1
  O  O9  1  0.523866  0.101104  0.230041  1
  O  O10  1  0.023866  0.398896  0.730041  1
  O  O11  1  0.476134  0.898896  0.769959  1
  O  O12  1  0.627559  0.713663  -0.001036  1
  O  O13  1  0.872441  0.213663  0.501036  1
  O  O14  1  0.372441  0.286337  1.001036  1
  O  O15  1  0.127559  0.786337  0.498964  1
  S  S16  1  0.165583  0.517274  0.287266  1
  S  S17  1  0.334417  0.017274  0.212734  1
  S  S18  1  0.834417  0.482726  0.712734  1
  S  S19  1  0.665583  0.982726  0.787266  1
  S  S20  1  0.299378  0.680631  0.490796  1
  S  S21  1  0.200622  0.180631  0.009204  1
  S  S22  1  0.700622  0.319369  0.509204  1
  S  S23  1  0.799378  0.819369  0.990796  1
  Sn  Sn24  1  0.820894  0.741849  0.416091  1
  Sn  Sn25  1  0.679106  0.241849  0.083909  1
  Sn  Sn26  1  0.179106  0.258151  0.583909  1
  Sn  Sn27  1  0.320894  0.758151  0.916091  1
