# generated using pymatgen
data_SrRuO3
_symmetry_space_group_name_H-M   'P 1'
_cell_length_a   5.59003552
_cell_length_b   5.69826932
_cell_length_c   7.88978969
_cell_angle_alpha   90.00000000
_cell_angle_beta   90.00000000
_cell_angle_gamma   90.00000000
_symmetry_Int_Tables_number   1
_chemical_formula_structural   SrRuO3
_chemical_formula_sum   'Sr4 Ru4 O12'
_cell_volume   251.31763603
_cell_formula_units_Z   4
loop_
 _symmetry_equiv_pos_site_id
 _symmetry_equiv_pos_as_xyz
  1  'x, y, z'
loop_
 _atom_site_type_symbol
 _atom_site_label
 _atom_site_symmetry_multiplicity
 _atom_site_fract_x
 _atom_site_fract_y
 _atom_site_fract_z
 _atom_site_occupancy
  O  O0  1  0.251113  0.748839  0.039353  1
  O  O1  1  0.502194  0.928847  0.750000  1
  O  O2  1  0.748887  0.251161  0.539353  1
  O  O3  1  0.751113  0.751161  0.460647  1
  O  O4  1  0.751113  0.751161  0.039353  1
  O  O5  1  0.002194  0.571153  0.750000  1
  O  O6  1  0.248887  0.248839  0.960647  1
  O  O7  1  0.248887  0.248839  0.539353  1
  O  O8  1  0.251113  0.748839  0.460647  1
  O  O9  1  0.497806  0.071153  0.250000  1
  O  O10  1  0.748887  0.251161  0.960647  1
  O  O11  1  0.997806  0.428847  0.250000  1
  Ru  Ru12  1  0.000000  0.500000  0.000000  1
  Ru  Ru13  1  0.000000  0.500000  0.500000  1
  Ru  Ru14  1  0.500000  0.000000  0.500000  1
  Ru  Ru15  1  0.500000  0.000000  0.000000  1
  Sr  Sr16  1  0.001187  0.994451  0.250000  1
  Sr  Sr17  1  0.998813  0.005549  0.750000  1
  Sr  Sr18  1  0.501187  0.505549  0.250000  1
  Sr  Sr19  1  0.498813  0.494451  0.750000  1
