# generated using pymatgen
data_TbCoSn2
_symmetry_space_group_name_H-M   'P 1'
_cell_length_a   4.46088032
_cell_length_b   4.37708147
_cell_length_c   9.42665756
_cell_angle_alpha   103.42456847
_cell_angle_beta   90.00000000
_cell_angle_gamma   90.00000000
_symmetry_Int_Tables_number   1
_chemical_formula_structural   TbCoSn2
_chemical_formula_sum   'Tb2 Co2 Sn4'
_cell_volume   179.03227004
_cell_formula_units_Z   2
loop_
 _symmetry_equiv_pos_site_id
 _symmetry_equiv_pos_as_xyz
  1  'x, y, z'
loop_
 _atom_site_type_symbol
 _atom_site_label
 _atom_site_symmetry_multiplicity
 _atom_site_fract_x
 _atom_site_fract_y
 _atom_site_fract_z
 _atom_site_occupancy
  Tb  Tb0  1  0.750000  0.113915  0.227830  1
  Tb  Tb1  1  0.250000  0.886085  0.772170  1
  Co  Co2  1  0.250000  0.680037  0.360074  1
  Co  Co3  1  0.750000  0.319963  0.639926  1
  Sn  Sn4  1  0.250000  0.548407  0.096815  1
  Sn  Sn5  1  0.250000  0.251680  0.503361  1
  Sn  Sn6  1  0.750000  0.451593  0.903185  1
  Sn  Sn7  1  0.750000  0.748320  0.496639  1
