# generated using pymatgen
data_Nd(C2N3)3
_symmetry_space_group_name_H-M   'P 1'
_cell_length_a   7.11742429
_cell_length_b   7.11742428
_cell_length_c   10.55986421
_cell_angle_alpha   90.00000000
_cell_angle_beta   90.00000000
_cell_angle_gamma   113.06152593
_symmetry_Int_Tables_number   1
_chemical_formula_structural   Nd(C2N3)3
_chemical_formula_sum   'Nd2 C12 N18'
_cell_volume   492.18896808
_cell_formula_units_Z   2
loop_
 _symmetry_equiv_pos_site_id
 _symmetry_equiv_pos_as_xyz
  1  'x, y, z'
loop_
 _atom_site_type_symbol
 _atom_site_label
 _atom_site_symmetry_multiplicity
 _atom_site_fract_x
 _atom_site_fract_y
 _atom_site_fract_z
 _atom_site_occupancy
  C  C0  1  0.730596  0.556584  0.750000  1
  C  C1  1  0.999023  0.290102  0.947087  1
  C  C2  1  0.000977  0.709898  0.447087  1
  C  C3  1  0.269404  0.443416  0.250000  1
  C  C4  1  0.556584  0.730596  0.250000  1
  C  C5  1  0.443416  0.269404  0.750000  1
  C  C6  1  0.290102  0.999023  0.447087  1
  C  C7  1  0.709898  0.000977  0.947087  1
  C  C8  1  0.999023  0.290102  0.552913  1
  C  C9  1  0.000977  0.709898  0.052913  1
  C  C10  1  0.709898  0.000977  0.552913  1
  C  C11  1  0.290102  0.999023  0.052913  1
  N  N12  1  0.141297  0.420188  0.900913  1
  N  N13  1  0.858703  0.579812  0.400913  1
  N  N14  1  0.531997  0.468003  0.750000  1
  N  N15  1  0.468003  0.531997  0.250000  1
  N  N16  1  0.909206  0.645201  0.750000  1
  N  N17  1  0.090794  0.354799  0.250000  1
  N  N18  1  0.645201  0.909206  0.250000  1
  N  N19  1  0.354799  0.090794  0.750000  1
  N  N20  1  0.155695  0.844305  0.506270  1
  N  N21  1  0.844305  0.155695  0.006270  1
  N  N22  1  0.844305  0.155695  0.493730  1
  N  N23  1  0.155695  0.844305  0.993730  1
  N  N24  1  0.420188  0.141297  0.400913  1
  N  N25  1  0.579812  0.858703  0.900913  1
  N  N26  1  0.141297  0.420188  0.599087  1
  N  N27  1  0.858703  0.579812  0.099087  1
  N  N28  1  0.579812  0.858703  0.599087  1
  N  N29  1  0.420188  0.141297  0.099087  1
  Nd  Nd30  1  0.715066  0.284934  0.250000  1
  Nd  Nd31  1  0.284934  0.715066  0.750000  1
