# generated using pymatgen
data_TbGe2Pd
_symmetry_space_group_name_H-M   'P 1'
_cell_length_a   4.34111762
_cell_length_b   8.81978686
_cell_length_c   9.61430907
_cell_angle_alpha   117.29859748
_cell_angle_beta   103.04777102
_cell_angle_gamma   90.00000006
_symmetry_Int_Tables_number   1
_chemical_formula_structural   TbGe2Pd
_chemical_formula_sum   'Tb4 Ge8 Pd4'
_cell_volume   316.38017043
_cell_formula_units_Z   4
loop_
 _symmetry_equiv_pos_site_id
 _symmetry_equiv_pos_as_xyz
  1  'x, y, z'
loop_
 _atom_site_type_symbol
 _atom_site_label
 _atom_site_symmetry_multiplicity
 _atom_site_fract_x
 _atom_site_fract_y
 _atom_site_fract_z
 _atom_site_occupancy
  Ge  Ge0  1  0.197803  0.347552  0.395607  1
  Ge  Ge1  1  0.802197  0.652448  0.604393  1
  Ge  Ge2  1  0.802198  0.951964  0.604397  1
  Ge  Ge3  1  0.197802  0.048036  0.395603  1
  Ge  Ge4  1  0.574039  0.574066  0.148079  1
  Ge  Ge5  1  0.425411  0.925373  0.850821  1
  Ge  Ge6  1  0.574589  0.074627  0.149179  1
  Ge  Ge7  1  0.425961  0.425934  0.851921  1
  Pd  Pd8  1  0.352361  0.602098  0.704723  1
  Pd  Pd9  1  0.647630  0.897406  0.295260  1
  Pd  Pd10  1  0.647639  0.397902  0.295277  1
  Pd  Pd11  1  0.352370  0.102594  0.704740  1
  Tb  Tb12  1  -0.000004  0.739997  -0.000007  1
  Tb  Tb13  1  1.000004  0.260003  1.000007  1
  Tb  Tb14  1  0.201836  0.701852  0.403673  1
  Tb  Tb15  1  0.798164  0.298148  0.596327  1
