# generated using pymatgen
data_HoNbO4
_symmetry_space_group_name_H-M   'P 1'
_cell_length_a   5.13677053
_cell_length_b   5.34521717
_cell_length_c   6.56799057
_cell_angle_alpha   111.92058932
_cell_angle_beta   110.86023978
_cell_angle_gamma   94.92810094
_symmetry_Int_Tables_number   1
_chemical_formula_structural   HoNbO4
_chemical_formula_sum   'Ho2 Nb2 O8'
_cell_volume   151.27063013
_cell_formula_units_Z   2
loop_
 _symmetry_equiv_pos_site_id
 _symmetry_equiv_pos_as_xyz
  1  'x, y, z'
loop_
 _atom_site_type_symbol
 _atom_site_label
 _atom_site_symmetry_multiplicity
 _atom_site_fract_x
 _atom_site_fract_y
 _atom_site_fract_z
 _atom_site_occupancy
  O  O0  1  0.790122  0.949610  0.577841  1
  O  O1  1  0.287719  0.628230  0.577841  1
  O  O2  1  0.209879  0.050390  0.422158  1
  O  O3  1  0.712280  0.371769  0.422158  1
  O  O4  1  0.066888  0.280250  0.062949  1
  O  O5  1  0.496062  0.782701  0.062949  1
  O  O6  1  0.503939  0.217299  0.937051  1
  O  O7  1  0.933113  0.719752  0.937051  1
  Nb  Nb8  1  0.645180  0.895179  0.790360  1
  Nb  Nb9  1  0.354820  0.104820  0.209640  1
  Ho  Ho10  1  0.120415  0.370416  0.740831  1
  Ho  Ho11  1  0.879586  0.629586  0.259171  1
