# generated using pymatgen
data_Sm3GaO6
_symmetry_space_group_name_H-M   'P 1'
_cell_length_a   5.56792286
_cell_length_b   7.33408263
_cell_length_c   7.33408263
_cell_angle_alpha   102.83756517
_cell_angle_beta   90.00000000
_cell_angle_gamma   90.00000000
_symmetry_Int_Tables_number   1
_chemical_formula_structural   Sm3GaO6
_chemical_formula_sum   'Sm6 Ga2 O12'
_cell_volume   292.00558308
_cell_formula_units_Z   2
loop_
 _symmetry_equiv_pos_site_id
 _symmetry_equiv_pos_as_xyz
  1  'x, y, z'
loop_
 _atom_site_type_symbol
 _atom_site_label
 _atom_site_symmetry_multiplicity
 _atom_site_fract_x
 _atom_site_fract_y
 _atom_site_fract_z
 _atom_site_occupancy
  O  O0  1  0.830098  0.784900  0.215100  1
  O  O1  1  0.330098  0.215100  0.784900  1
  O  O2  1  0.364757  0.958855  0.041145  1
  O  O3  1  0.864757  0.041145  0.958855  1
  O  O4  1  0.302459  0.325789  0.354668  1
  O  O5  1  0.802459  0.674211  0.645332  1
  O  O6  1  0.302459  0.645332  0.674211  1
  O  O7  1  0.802459  0.354668  0.325789  1
  O  O8  1  0.826564  0.418126  0.893127  1
  O  O9  1  0.326564  0.581874  0.106873  1
  O  O10  1  0.826564  0.106873  0.581874  1
  O  O11  1  0.326564  0.893127  0.418126  1
  Ga  Ga12  1  0.498818  0.806972  0.193028  1
  Ga  Ga13  1  0.998818  0.193028  0.806972  1
  Sm  Sm14  1  0.077015  0.602780  0.397220  1
  Sm  Sm15  1  0.577015  0.397220  0.602780  1
  Sm  Sm16  1  0.031438  0.087456  0.299029  1
  Sm  Sm17  1  0.531438  0.912544  0.700971  1
  Sm  Sm18  1  0.031438  0.700971  0.912544  1
  Sm  Sm19  1  0.531438  0.299029  0.087456  1
