# generated using pymatgen
data_LiFe(PO3)3
_symmetry_space_group_name_H-M   'P 1'
_cell_length_a   9.75788403
_cell_length_b   9.53416143
_cell_length_c   9.47791094
_cell_angle_alpha   108.65498566
_cell_angle_beta   104.76343354
_cell_angle_gamma   109.36558010
_symmetry_Int_Tables_number   1
_chemical_formula_structural   LiFe(PO3)3
_chemical_formula_sum   'Li4 Fe4 P12 O36'
_cell_volume   721.06998389
_cell_formula_units_Z   4
loop_
 _symmetry_equiv_pos_site_id
 _symmetry_equiv_pos_as_xyz
  1  'x, y, z'
loop_
 _atom_site_type_symbol
 _atom_site_label
 _atom_site_symmetry_multiplicity
 _atom_site_fract_x
 _atom_site_fract_y
 _atom_site_fract_z
 _atom_site_occupancy
  Li  Li0  1  0.503313  0.932858  0.347362  1
  Li  Li1  1  0.496687  0.067142  0.652638  1
  Li  Li2  1  0.673937  0.849785  0.644451  1
  Li  Li3  1  0.326063  0.150215  0.355550  1
  O  O4  1  0.088775  0.140462  0.199433  1
  O  O5  1  0.828933  0.161978  0.092750  1
  O  O6  1  1.000998  0.730309  0.048769  1
  O  O7  1  0.923545  0.183526  0.363024  1
  O  O8  1  0.076455  0.816475  0.636977  1
  O  O9  1  -0.000998  0.269691  0.951232  1
  O  O10  1  0.171067  0.838021  0.907249  1
  O  O11  1  0.199970  0.631495  0.999289  1
  O  O12  1  0.141096  0.698096  0.404498  1
  O  O13  1  0.044305  0.176909  0.629220  1
  O  O14  1  0.186707  0.096790  0.882719  1
  O  O15  1  0.322822  0.436089  0.970574  1
  O  O16  1  0.374213  0.643247  0.849995  1
  O  O17  1  0.290847  0.604826  0.571993  1
  O  O18  1  0.300521  0.927495  0.211521  1
  O  O19  1  0.747255  0.986904  0.444844  1
  O  O20  1  0.258592  0.524708  0.277962  1
  O  O21  1  0.444380  0.825046  0.497631  1
  O  O22  1  0.355712  0.386807  0.631949  1
  O  O23  1  0.252745  0.013096  0.555156  1
  O  O24  1  0.578979  0.681602  0.729213  1
  O  O25  1  0.858904  0.301903  0.595502  1
  O  O26  1  0.497574  0.749785  0.154079  1
  O  O27  1  0.421022  0.318398  0.270788  1
  O  O28  1  0.800031  0.368506  0.000711  1
  O  O29  1  0.644289  0.613194  0.368051  1
  O  O30  1  0.555620  0.174953  0.502369  1
  O  O31  1  0.741408  0.475291  0.722038  1
  O  O32  1  0.911226  0.859539  0.800568  1
  O  O33  1  0.699478  0.072504  0.788478  1
  O  O34  1  0.709153  0.395173  0.428006  1
  O  O35  1  0.625788  0.356753  0.150006  1
  O  O36  1  0.677178  0.563911  0.029426  1
  O  O37  1  0.813293  0.903209  0.117280  1
  O  O38  1  0.955694  0.823091  0.370780  1
  O  O39  1  0.502425  0.250216  0.845921  1
  P  P40  1  0.704593  0.334940  0.568773  1
  P  P41  1  0.834789  0.209076  0.943963  1
  P  P42  1  0.643587  0.387478  0.998060  1
  P  P43  1  0.893519  0.149869  0.511560  1
  P  P44  1  0.078730  0.912439  0.811263  1
  P  P45  1  0.106481  0.850130  0.488439  1
  P  P46  1  0.356412  0.612522  0.001940  1
  P  P47  1  0.165211  0.790924  0.056037  1
  P  P48  1  0.295406  0.665059  0.431226  1
  P  P49  1  0.409303  0.569833  0.692165  1
  P  P50  1  0.590697  0.430167  0.307835  1
  P  P51  1  0.921270  0.087562  0.188737  1
  Fe  Fe52  1  0.725756  0.767472  0.252566  1
  Fe  Fe53  1  0.788568  0.700313  0.899638  1
  Fe  Fe54  1  0.211432  0.299686  0.100362  1
  Fe  Fe55  1  0.274245  0.232528  0.747434  1
