# generated using pymatgen
data_Ca(Sm2Se3)4
_symmetry_space_group_name_H-M   'P 1'
_cell_length_a   23.00980530
_cell_length_b   8.86197159
_cell_length_c   8.86197217
_cell_angle_alpha   90.09520252
_cell_angle_beta   54.76429562
_cell_angle_gamma   54.76429595
_symmetry_Int_Tables_number   1
_chemical_formula_structural   Ca(Sm2Se3)4
_chemical_formula_sum   'Ca2 Sm16 Se24'
_cell_volume   1043.05091386
_cell_formula_units_Z   2
loop_
 _symmetry_equiv_pos_site_id
 _symmetry_equiv_pos_as_xyz
  1  'x, y, z'
loop_
 _atom_site_type_symbol
 _atom_site_label
 _atom_site_symmetry_multiplicity
 _atom_site_fract_x
 _atom_site_fract_y
 _atom_site_fract_z
 _atom_site_occupancy
  Ca  Ca0  1  0.166641  0.250117  0.625129  1
  Ca  Ca1  1  0.666641  0.125129  0.750117  1
  Sm  Sm2  1  0.999305  0.376947  0.249950  1
  Sm  Sm3  1  0.001263  0.122309  0.748059  1
  Sm  Sm4  1  0.082722  0.624702  0.376465  1
  Sm  Sm5  1  0.249976  0.874329  0.127125  1
  Sm  Sm6  1  0.333393  0.377078  0.250498  1
  Sm  Sm7  1  0.166701  0.750401  0.871774  1
  Sm  Sm8  1  0.332784  0.126382  0.749569  1
  Sm  Sm9  1  0.416357  0.625594  0.374792  1
  Sm  Sm10  1  0.501263  0.248059  0.622309  1
  Sm  Sm11  1  0.666701  0.371774  0.250401  1
  Sm  Sm12  1  0.582722  0.876465  0.124702  1
  Sm  Sm13  1  0.499305  0.749950  0.876947  1
  Sm  Sm14  1  0.749976  0.627125  0.374329  1
  Sm  Sm15  1  0.832784  0.249569  0.626382  1
  Sm  Sm16  1  0.916357  0.874792  0.125594  1
  Sm  Sm17  1  0.833393  0.750498  0.877078  1
  Se  Se18  1  0.049552  0.999286  0.350795  1
  Se  Se19  1  0.117563  0.500950  0.003367  1
  Se  Se20  1  0.048508  0.352697  0.497211  1
  Se  Se21  1  0.285382  0.147189  0.142790  1
  Se  Se22  1  0.283502  0.501592  0.000335  1
  Se  Se23  1  0.116309  0.650475  0.650280  1
  Se  Se24  1  0.383671  -0.000809  0.350410  1
  Se  Se25  1  0.216216  0.850648  0.500224  1
  Se  Se26  1  0.449452  0.500890  0.000604  1
  Se  Se27  1  0.382940  0.351172  0.500997  1
  Se  Se28  1  0.216754  0.997284  0.854748  1
  Se  Se29  1  0.616309  0.150280  0.150475  1
  Se  Se30  1  0.617563  0.503367  0.000950  1
  Se  Se31  1  0.451008  0.648414  0.647233  1
  Se  Se32  1  0.716216  0.000224  0.350648  1
  Se  Se33  1  0.549552  0.850795  0.499286  1
  Se  Se34  1  0.783502  0.500335  0.001592  1
  Se  Se35  1  0.716754  0.354748  0.497284  1
  Se  Se36  1  0.548508  0.997211  0.852697  1
  Se  Se37  1  0.951008  0.147233  0.148414  1
  Se  Se38  1  0.949452  0.500604  0.000890  1
  Se  Se39  1  0.785382  0.642790  0.647189  1
  Se  Se40  1  0.883671  0.850410  0.499191  1
  Se  Se41  1  0.882940  0.000997  0.851172  1
