# generated using pymatgen
data_Al13Co4
_symmetry_space_group_name_H-M   'P 1'
_cell_length_a   8.20223959
_cell_length_b   12.38816426
_cell_length_c   14.44381185
_cell_angle_alpha   90.00000000
_cell_angle_beta   90.00000000
_cell_angle_gamma   90.00000000
_symmetry_Int_Tables_number   1
_chemical_formula_structural   Al13Co4
_chemical_formula_sum   'Al78 Co24'
_cell_volume   1467.64570767
_cell_formula_units_Z   6
loop_
 _symmetry_equiv_pos_site_id
 _symmetry_equiv_pos_as_xyz
  1  'x, y, z'
loop_
 _atom_site_type_symbol
 _atom_site_label
 _atom_site_symmetry_multiplicity
 _atom_site_fract_x
 _atom_site_fract_y
 _atom_site_fract_z
 _atom_site_occupancy
  Al  Al0  1  0.000000  0.005349  0.818066  1
  Al  Al1  1  0.500000  0.994651  0.318066  1
  Al  Al2  1  0.000000  0.100469  0.979298  1
  Al  Al3  1  0.500000  0.899531  0.479298  1
  Al  Al4  1  0.000000  0.906043  0.624163  1
  Al  Al5  1  0.500000  0.093957  0.124163  1
  Al  Al6  1  0.000000  0.909739  0.439305  1
  Al  Al7  1  0.500000  0.090261  0.939305  1
  Al  Al8  1  0.000000  0.135671  0.670556  1
  Al  Al9  1  0.500000  0.864329  0.170556  1
  Al  Al10  1  0.000000  0.820570  0.153511  1
  Al  Al11  1  0.500000  0.179430  0.653511  1
  Al  Al12  1  0.000000  0.804150  0.835956  1
  Al  Al13  1  0.500000  0.195850  0.335956  1
  Al  Al14  1  0.000000  0.249294  0.413628  1
  Al  Al15  1  0.500000  0.750706  0.913628  1
  Al  Al16  1  0.000000  0.399035  0.849275  1
  Al  Al17  1  0.500000  0.600965  0.349275  1
  Al  Al18  1  0.000000  0.365160  0.157798  1
  Al  Al19  1  0.500000  0.634840  0.657798  1
  Al  Al20  1  0.000000  0.676162  0.674317  1
  Al  Al21  1  0.500000  0.323838  0.174317  1
  Al  Al22  1  0.000000  0.590165  0.390042  1
  Al  Al23  1  0.500000  0.409835  0.890042  1
  Al  Al24  1  0.000000  0.495330  0.009706  1
  Al  Al25  1  0.500000  0.504670  0.509706  1
  Al  Al26  1  0.000000  0.593565  0.205358  1
  Al  Al27  1  0.500000  0.406435  0.705358  1
  Al  Al28  1  0.000000  0.696434  0.991019  1
  Al  Al29  1  0.500000  0.303566  0.491019  1
  Al  Al30  1  0.000000  0.097839  0.243695  1
  Al  Al31  1  0.500000  0.902161  0.743695  1
  Al  Al32  1  0.000000  0.403690  0.587485  1
  Al  Al33  1  0.500000  0.596310  0.087485  1
  Al  Al34  1  0.221621  0.205092  0.097850  1
  Al  Al35  1  0.278379  0.794908  0.597850  1
  Al  Al36  1  0.778379  0.205092  0.097850  1
  Al  Al37  1  0.721621  0.794908  0.597850  1
  Al  Al38  1  0.209735  0.908481  0.282562  1
  Al  Al39  1  0.290265  0.091519  0.782562  1
  Al  Al40  1  0.790265  0.908481  0.282562  1
  Al  Al41  1  0.709735  0.091519  0.782562  1
  Al  Al42  1  0.231503  0.079077  0.406365  1
  Al  Al43  1  0.268497  0.920923  0.906365  1
  Al  Al44  1  0.768497  0.079077  0.406365  1
  Al  Al45  1  0.731503  0.920923  0.906365  1
  Al  Al46  1  0.250784  0.249502  0.914367  1
  Al  Al47  1  0.249216  0.750498  0.414367  1
  Al  Al48  1  0.749216  0.249502  0.914367  1
  Al  Al49  1  0.750784  0.750498  0.414367  1
  Al  Al50  1  0.219761  0.984222  0.093408  1
  Al  Al51  1  0.280239  0.015778  0.593408  1
  Al  Al52  1  0.780239  0.984222  0.093408  1
  Al  Al53  1  0.719761  0.015778  0.593408  1
  Al  Al54  1  0.220783  0.221269  0.548522  1
  Al  Al55  1  0.279217  0.778731  0.048522  1
  Al  Al56  1  0.779217  0.221269  0.548522  1
  Al  Al57  1  0.720783  0.778731  0.048522  1
  Al  Al58  1  0.211499  0.591687  0.545681  1
  Al  Al59  1  0.288501  0.408313  0.045681  1
  Al  Al60  1  0.788501  0.591687  0.545681  1
  Al  Al61  1  0.711499  0.408313  0.045681  1
  Al  Al62  1  0.221878  0.294634  0.731046  1
  Al  Al63  1  0.278122  0.705366  0.231046  1
  Al  Al64  1  0.778122  0.294634  0.731046  1
  Al  Al65  1  0.721878  0.705366  0.231046  1
  Al  Al66  1  0.230089  0.419894  0.422910  1
  Al  Al67  1  0.269911  0.580106  0.922910  1
  Al  Al68  1  0.769911  0.419894  0.422910  1
  Al  Al69  1  0.730089  0.580106  0.922910  1
  Al  Al70  1  0.220442  0.515181  0.736110  1
  Al  Al71  1  0.279558  0.484819  0.236110  1
  Al  Al72  1  0.779558  0.515181  0.736110  1
  Al  Al73  1  0.720442  0.484819  0.236110  1
  Al  Al74  1  0.221484  0.279170  0.279493  1
  Al  Al75  1  0.278516  0.720830  0.779493  1
  Al  Al76  1  0.778516  0.279170  0.279493  1
  Al  Al77  1  0.721484  0.720830  0.779493  1
  Co  Co78  1  0.000000  0.895794  0.997850  1
  Co  Co79  1  0.500000  0.104206  0.497850  1
  Co  Co80  1  0.000000  0.087358  0.514949  1
  Co  Co81  1  0.500000  0.912642  0.014949  1
  Co  Co82  1  0.000000  0.200613  0.823380  1
  Co  Co83  1  0.500000  0.799387  0.323380  1
  Co  Co84  1  0.000000  0.768648  0.312103  1
  Co  Co85  1  0.500000  0.231352  0.812103  1
  Co  Co86  1  0.000000  0.604023  0.830842  1
  Co  Co87  1  0.500000  0.395977  0.330842  1
  Co  Co88  1  0.000000  0.412804  0.313624  1
  Co  Co89  1  0.500000  0.587196  0.813624  1
  Co  Co90  1  0.000000  0.731144  0.516761  1
  Co  Co91  1  0.500000  0.268856  0.016761  1
  Co  Co92  1  0.000000  0.299380  0.005186  1
  Co  Co93  1  0.500000  0.700620  0.505186  1
  Co  Co94  1  0.222625  0.906652  0.737148  1
  Co  Co95  1  0.277375  0.093348  0.237148  1
  Co  Co96  1  0.777375  0.906652  0.737148  1
  Co  Co97  1  0.722625  0.093348  0.237148  1
  Co  Co98  1  0.222019  0.593621  0.091749  1
  Co  Co99  1  0.277981  0.406379  0.591749  1
  Co  Co100  1  0.777981  0.593621  0.091749  1
  Co  Co101  1  0.722019  0.406379  0.591749  1
