# generated using pymatgen
data_SmPS4
_symmetry_space_group_name_H-M   'P 1'
_cell_length_a   10.94983104
_cell_length_b   10.94983104
_cell_length_c   12.37685774
_cell_angle_alpha   116.25398133
_cell_angle_beta   116.25398131
_cell_angle_gamma   89.99999998
_symmetry_Int_Tables_number   1
_chemical_formula_structural   SmPS4
_chemical_formula_sum   'Sm8 P8 S32'
_cell_volume   1157.73580484
_cell_formula_units_Z   8
loop_
 _symmetry_equiv_pos_site_id
 _symmetry_equiv_pos_as_xyz
  1  'x, y, z'
loop_
 _atom_site_type_symbol
 _atom_site_label
 _atom_site_symmetry_multiplicity
 _atom_site_fract_x
 _atom_site_fract_y
 _atom_site_fract_z
 _atom_site_occupancy
  P  P0  1  0.287675  0.250000  0.500000  1
  P  P1  1  0.787675  0.250000  0.500000  1
  P  P2  1  0.750000  0.787675  0.000000  1
  P  P3  1  0.250000  0.712325  0.000000  1
  P  P4  1  0.712325  0.750000  0.500000  1
  P  P5  1  0.212325  0.750000  0.500000  1
  P  P6  1  0.250000  0.212325  0.000000  1
  P  P7  1  0.750000  0.287675  0.000000  1
  S  S8  1  0.088512  0.612236  0.996179  1
  S  S9  1  0.907667  0.883943  0.996179  1
  S  S10  1  0.612236  0.907667  0.496179  1
  S  S11  1  0.883943  0.088512  0.496179  1
  S  S12  1  0.411488  0.616057  0.003821  1
  S  S13  1  0.592333  0.887764  0.003821  1
  S  S14  1  0.887764  0.411488  0.503821  1
  S  S15  1  0.616057  0.592333  0.503821  1
  S  S16  1  0.340761  0.403667  0.177008  1
  S  S17  1  0.273341  0.340761  0.677008  1
  S  S18  1  0.403667  0.836247  0.677008  1
  S  S19  1  0.663753  0.096333  0.822992  1
  S  S20  1  0.159239  0.226659  0.822992  1
  S  S21  1  0.226659  0.663753  0.322992  1
  S  S22  1  0.096333  0.159239  0.322992  1
  S  S23  1  0.836247  0.273341  0.177008  1
  S  S24  1  0.659239  0.596333  0.822992  1
  S  S25  1  0.726659  0.659239  0.322992  1
  S  S26  1  0.596333  0.163753  0.322992  1
  S  S27  1  0.336247  0.903667  0.177008  1
  S  S28  1  0.840761  0.773341  0.177008  1
  S  S29  1  0.773341  0.336247  0.677008  1
  S  S30  1  0.903667  0.840761  0.677008  1
  S  S31  1  0.163753  0.726659  0.822992  1
  S  S32  1  0.092333  0.116057  0.003821  1
  S  S33  1  0.387764  0.092333  0.503821  1
  S  S34  1  0.116057  0.911488  0.503821  1
  S  S35  1  0.588512  0.383943  0.996179  1
  S  S36  1  0.407667  0.112236  0.996179  1
  S  S37  1  0.112236  0.588512  0.496179  1
  S  S38  1  0.383943  0.407667  0.496179  1
  S  S39  1  0.911488  0.387764  0.003821  1
  Sm  Sm40  1  0.875000  0.125000  0.750000  1
  Sm  Sm41  1  0.125000  0.875000  0.250000  1
  Sm  Sm42  1  0.625000  0.375000  0.250000  1
  Sm  Sm43  1  0.375000  0.625000  0.750000  1
  Sm  Sm44  1  0.625000  0.875000  0.250000  1
  Sm  Sm45  1  0.875000  0.625000  0.750000  1
  Sm  Sm46  1  0.375000  0.125000  0.750000  1
  Sm  Sm47  1  0.125000  0.375000  0.250000  1
