# generated using pymatgen
data_AgIO4
_symmetry_space_group_name_H-M   'P 1'
_cell_length_a   5.44964564
_cell_length_b   5.44964565
_cell_length_c   7.18613050
_cell_angle_alpha   112.28277740
_cell_angle_beta   112.28277736
_cell_angle_gamma   90.00000010
_symmetry_Int_Tables_number   1
_chemical_formula_structural   AgIO4
_chemical_formula_sum   'Ag2 I2 O8'
_cell_volume   180.13919824
_cell_formula_units_Z   2
loop_
 _symmetry_equiv_pos_site_id
 _symmetry_equiv_pos_as_xyz
  1  'x, y, z'
loop_
 _atom_site_type_symbol
 _atom_site_label
 _atom_site_symmetry_multiplicity
 _atom_site_fract_x
 _atom_site_fract_y
 _atom_site_fract_z
 _atom_site_occupancy
  O  O0  1  0.194491  0.558947  0.912946  1
  O  O1  1  0.353999  0.694491  0.412946  1
  O  O2  1  0.058947  0.218456  0.412946  1
  O  O3  1  0.718456  0.853999  0.912946  1
  O  O4  1  0.281544  0.146001  0.087054  1
  O  O5  1  0.941053  0.781544  0.587054  1
  O  O6  1  0.646001  0.305509  0.587054  1
  O  O7  1  0.805509  0.441053  0.087054  1
  Ag  Ag8  1  0.375000  0.125000  0.750000  1
  Ag  Ag9  1  0.625000  0.875000  0.250000  1
  I  I10  1  0.125000  0.375000  0.250000  1
  I  I11  1  0.875000  0.625000  0.750000  1
