# generated using pymatgen
data_La5Sn3I
_symmetry_space_group_name_H-M   'P 1'
_cell_length_a   9.79640060
_cell_length_b   9.79640060
_cell_length_c   7.13028299
_cell_angle_alpha   90.00000000
_cell_angle_beta   90.00000000
_cell_angle_gamma   120.00000002
_symmetry_Int_Tables_number   1
_chemical_formula_structural   La5Sn3I
_chemical_formula_sum   'La10 Sn6 I2'
_cell_volume   592.61203979
_cell_formula_units_Z   2
loop_
 _symmetry_equiv_pos_site_id
 _symmetry_equiv_pos_as_xyz
  1  'x, y, z'
loop_
 _atom_site_type_symbol
 _atom_site_label
 _atom_site_symmetry_multiplicity
 _atom_site_fract_x
 _atom_site_fract_y
 _atom_site_fract_z
 _atom_site_occupancy
  Sn  Sn0  1  0.385486  0.385486  0.250000  1
  Sn  Sn1  1  0.000000  0.385486  0.750000  1
  Sn  Sn2  1  0.614514  0.614514  0.750000  1
  Sn  Sn3  1  0.000000  0.614514  0.250000  1
  Sn  Sn4  1  0.614514  0.000000  0.250000  1
  Sn  Sn5  1  0.385486  0.000000  0.750000  1
  I  I6  1  0.000000  0.000000  0.000000  1
  I  I7  1  0.000000  0.000000  0.500000  1
  La  La8  1  0.666667  0.333333  0.000000  1
  La  La9  1  0.333333  0.666667  0.500000  1
  La  La10  1  0.666667  0.333333  0.500000  1
  La  La11  1  0.333333  0.666667  0.000000  1
  La  La12  1  0.725665  0.000000  0.750000  1
  La  La13  1  0.725665  0.725665  0.250000  1
  La  La14  1  0.000000  0.274335  0.250000  1
  La  La15  1  0.000000  0.725665  0.750000  1
  La  La16  1  0.274335  0.274335  0.750000  1
  La  La17  1  0.274335  0.000000  0.250000  1
