# generated using pymatgen
data_Na4S2O5
_symmetry_space_group_name_H-M   'P 1'
_cell_length_a   5.26730130
_cell_length_b   5.61887764
_cell_length_c   6.34578394
_cell_angle_alpha   92.69508148
_cell_angle_beta   85.25974174
_cell_angle_gamma   119.61586558
_symmetry_Int_Tables_number   1
_chemical_formula_structural   Na4S2O5
_chemical_formula_sum   'Na4 S2 O5'
_cell_volume   162.71315087
_cell_formula_units_Z   1
loop_
 _symmetry_equiv_pos_site_id
 _symmetry_equiv_pos_as_xyz
  1  'x, y, z'
loop_
 _atom_site_type_symbol
 _atom_site_label
 _atom_site_symmetry_multiplicity
 _atom_site_fract_x
 _atom_site_fract_y
 _atom_site_fract_z
 _atom_site_occupancy
  Na  Na0  1  0.322119  0.680432  0.744186  1
  Na  Na1  1  0.014523  0.997118  0.967255  1
  Na  Na2  1  0.004338  0.990496  0.464307  1
  Na  Na3  1  0.648434  0.299108  0.245213  1
  O  O4  1  0.275941  0.835033  0.143063  1
  O  O5  1  0.126776  0.332954  0.221901  1
  O  O6  1  0.435708  0.179338  0.616632  1
  O  O7  1  0.819848  0.639051  0.711109  1
  O  O8  1  0.883673  0.236819  0.747530  1
  S  S9  1  0.362763  0.646436  0.271183  1
  S  S10  1  0.658877  0.336216  0.781621  1
