# generated using pymatgen
data_BaCeO3
_symmetry_space_group_name_H-M   'P 1'
_cell_length_a   6.27355573
_cell_length_b   6.27870146
_cell_length_c   6.27870146
_cell_angle_alpha   60.46601525
_cell_angle_beta   60.02710699
_cell_angle_gamma   60.02710694
_symmetry_Int_Tables_number   1
_chemical_formula_structural   BaCeO3
_chemical_formula_sum   'Ba2 Ce2 O6'
_cell_volume   175.55926269
_cell_formula_units_Z   2
loop_
 _symmetry_equiv_pos_site_id
 _symmetry_equiv_pos_as_xyz
  1  'x, y, z'
loop_
 _atom_site_type_symbol
 _atom_site_label
 _atom_site_symmetry_multiplicity
 _atom_site_fract_x
 _atom_site_fract_y
 _atom_site_fract_z
 _atom_site_occupancy
  O  O0  1  0.204244  0.295756  0.295756  1
  O  O1  1  0.295756  0.704244  0.704244  1
  O  O2  1  0.795756  0.704244  0.704244  1
  O  O3  1  0.704244  0.295756  0.295756  1
  O  O4  1  0.250000  0.168948  0.831052  1
  O  O5  1  0.750000  0.831052  0.168948  1
  Ba  Ba6  1  0.750000  0.260241  0.739759  1
  Ba  Ba7  1  0.250000  0.739759  0.260241  1
  Ce  Ce8  1  0.000000  0.500000  0.000000  1
  Ce  Ce9  1  0.500000  0.000000  0.500000  1
