# generated using pymatgen
data_Sr2Co2O5
_symmetry_space_group_name_H-M   'P 1'
_cell_length_a   7.21094314
_cell_length_b   5.80997531
_cell_length_c   5.80997531
_cell_angle_alpha   67.34993812
_cell_angle_beta   51.64254111
_cell_angle_gamma   51.64254111
_symmetry_Int_Tables_number   1
_chemical_formula_structural   Sr2Co2O5
_chemical_formula_sum   'Sr2 Co2 O5'
_cell_volume   149.67313236
_cell_formula_units_Z   1
loop_
 _symmetry_equiv_pos_site_id
 _symmetry_equiv_pos_as_xyz
  1  'x, y, z'
loop_
 _atom_site_type_symbol
 _atom_site_label
 _atom_site_symmetry_multiplicity
 _atom_site_fract_x
 _atom_site_fract_y
 _atom_site_fract_z
 _atom_site_occupancy
  Co  Co0  1  0.000000  0.000000  0.000000  1
  Co  Co1  1  0.500000  0.000000  0.000000  1
  O  O2  1  0.500000  0.500000  0.000000  1
  O  O3  1  0.000000  0.500000  0.000000  1
  O  O4  1  0.500000  0.000000  0.500000  1
  O  O5  1  0.000000  0.500000  0.500000  1
  O  O6  1  0.000000  0.000000  0.500000  1
  Sr  Sr7  1  0.297832  0.500000  0.500000  1
  Sr  Sr8  1  0.702168  0.500000  0.500000  1
