# generated using pymatgen
data_KAl2Br7
_symmetry_space_group_name_H-M   'P 1'
_cell_length_a   11.09634632
_cell_length_b   11.36825572
_cell_length_c   12.64468519
_cell_angle_alpha   90.00000000
_cell_angle_beta   102.55985502
_cell_angle_gamma   90.00000000
_symmetry_Int_Tables_number   1
_chemical_formula_structural   KAl2Br7
_chemical_formula_sum   'K4 Al8 Br28'
_cell_volume   1556.90653450
_cell_formula_units_Z   4
loop_
 _symmetry_equiv_pos_site_id
 _symmetry_equiv_pos_as_xyz
  1  'x, y, z'
loop_
 _atom_site_type_symbol
 _atom_site_label
 _atom_site_symmetry_multiplicity
 _atom_site_fract_x
 _atom_site_fract_y
 _atom_site_fract_z
 _atom_site_occupancy
  Al  Al0  1  0.602688  0.287315  0.202531  1
  Al  Al1  1  0.897312  0.787315  0.297469  1
  Al  Al2  1  0.397312  0.712685  0.797469  1
  Al  Al3  1  0.102688  0.212685  0.702531  1
  Al  Al4  1  0.281854  0.216278  0.454265  1
  Al  Al5  1  0.218146  0.716278  0.045735  1
  Al  Al6  1  0.718146  0.783722  0.545735  1
  Al  Al7  1  0.781854  0.283722  0.954265  1
  K  K8  1  0.732898  0.381266  0.619059  1
  K  K9  1  0.767102  0.881266  0.880941  1
  K  K10  1  0.267102  0.618734  0.380941  1
  K  K11  1  0.232898  0.118734  0.119059  1
  Br  Br12  1  0.705603  0.406876  0.084602  1
  Br  Br13  1  0.794397  0.906876  0.415398  1
  Br  Br14  1  0.294397  0.593124  0.915398  1
  Br  Br15  1  0.205603  0.093124  0.584602  1
  Br  Br16  1  0.897136  0.132627  0.049196  1
  Br  Br17  1  0.602864  0.632626  0.450804  1
  Br  Br18  1  0.102864  0.867374  0.950804  1
  Br  Br19  1  0.397136  0.367374  0.549196  1
  Br  Br20  1  0.618368  0.213762  0.825821  1
  Br  Br21  1  0.881632  0.713762  0.674179  1
  Br  Br22  1  0.381632  0.786238  0.174179  1
  Br  Br23  1  0.118368  0.286238  0.325821  1
  Br  Br24  1  0.896089  0.417017  0.880247  1
  Br  Br25  1  0.603911  0.917017  0.619753  1
  Br  Br26  1  0.103911  0.582983  0.119753  1
  Br  Br27  1  0.396089  0.082983  0.380247  1
  Br  Br28  1  0.245214  0.223536  0.864040  1
  Br  Br29  1  0.254786  0.723537  0.635960  1
  Br  Br30  1  0.754786  0.776463  0.135960  1
  Br  Br31  1  0.745214  0.276463  0.364040  1
  Br  Br32  1  0.927222  0.105051  0.705680  1
  Br  Br33  1  0.572778  0.605051  0.794320  1
  Br  Br34  1  0.072778  0.894949  0.294320  1
  Br  Br35  1  0.427222  0.394949  0.205680  1
  Br  Br36  1  0.053154  0.391577  0.620417  1
  Br  Br37  1  0.446846  0.891577  0.879583  1
  Br  Br38  1  0.946846  0.608423  0.379583  1
  Br  Br39  1  0.553154  0.108423  0.120417  1
