# generated using pymatgen
data_BaCeO3
_symmetry_space_group_name_H-M   'P 1'
_cell_length_a   6.28952000
_cell_length_b   6.29316371
_cell_length_c   8.86522902
_cell_angle_alpha   90.00000000
_cell_angle_beta   90.00000000
_cell_angle_gamma   90.00000000
_symmetry_Int_Tables_number   1
_chemical_formula_structural   BaCeO3
_chemical_formula_sum   'Ba4 Ce4 O12'
_cell_volume   350.89444382
_cell_formula_units_Z   4
loop_
 _symmetry_equiv_pos_site_id
 _symmetry_equiv_pos_as_xyz
  1  'x, y, z'
loop_
 _atom_site_type_symbol
 _atom_site_label
 _atom_site_symmetry_multiplicity
 _atom_site_fract_x
 _atom_site_fract_y
 _atom_site_fract_z
 _atom_site_occupancy
  O  O0  1  0.724524  0.274612  0.542309  1
  O  O1  1  0.224524  0.225388  0.957691  1
  O  O2  1  0.775476  0.774612  0.457691  1
  O  O3  1  0.275476  0.725388  0.042309  1
  O  O4  1  0.275476  0.725388  0.457691  1
  O  O5  1  0.775476  0.774612  0.042309  1
  O  O6  1  0.224524  0.225388  0.542309  1
  O  O7  1  0.724524  0.274612  0.957691  1
  O  O8  1  0.017151  0.577297  0.750000  1
  O  O9  1  0.517151  0.922703  0.750000  1
  O  O10  1  0.482849  0.077297  0.250000  1
  O  O11  1  0.982849  0.422703  0.250000  1
  Ba  Ba12  1  0.977861  0.008040  0.750000  1
  Ba  Ba13  1  0.477861  0.491960  0.750000  1
  Ba  Ba14  1  0.522139  0.508040  0.250000  1
  Ba  Ba15  1  0.022139  0.991960  0.250000  1
  Ce  Ce16  1  0.000000  0.500000  0.000000  1
  Ce  Ce17  1  0.500000  0.000000  0.500000  1
  Ce  Ce18  1  0.500000  0.000000  0.000000  1
  Ce  Ce19  1  0.000000  0.500000  0.500000  1
