# generated using pymatgen
data_Mn6Al31Ni2
_symmetry_space_group_name_H-M   'P 1'
_cell_length_a   7.76296740
_cell_length_b   12.53474068
_cell_length_c   12.38853914
_cell_angle_alpha   90.00000000
_cell_angle_beta   90.00000000
_cell_angle_gamma   108.03862586
_symmetry_Int_Tables_number   1
_chemical_formula_structural   Mn6Al31Ni2
_chemical_formula_sum   'Mn12 Al62 Ni4'
_cell_volume   1146.23667549
_cell_formula_units_Z   2
loop_
 _symmetry_equiv_pos_site_id
 _symmetry_equiv_pos_as_xyz
  1  'x, y, z'
loop_
 _atom_site_type_symbol
 _atom_site_label
 _atom_site_symmetry_multiplicity
 _atom_site_fract_x
 _atom_site_fract_y
 _atom_site_fract_z
 _atom_site_occupancy
  Al  Al0  1  0.188344  0.376687  0.750000  1
  Al  Al1  1  0.811656  0.623313  0.250000  1
  Al  Al2  1  0.803131  0.606262  0.750000  1
  Al  Al3  1  0.196869  0.393738  0.250000  1
  Al  Al4  1  0.635597  0.271193  0.750000  1
  Al  Al5  1  0.364403  0.728807  0.250000  1
  Al  Al6  1  0.637660  0.275320  0.149958  1
  Al  Al7  1  0.362340  0.724680  0.850042  1
  Al  Al8  1  0.362340  0.724680  0.649958  1
  Al  Al9  1  0.637660  0.275320  0.350042  1
  Al  Al10  1  0.740584  0.481168  0.061627  1
  Al  Al11  1  0.259416  0.518832  0.938373  1
  Al  Al12  1  0.259416  0.518832  0.561627  1
  Al  Al13  1  0.740584  0.481168  0.438373  1
  Al  Al14  1  0.539887  0.079773  0.886581  1
  Al  Al15  1  0.460113  0.920226  0.113419  1
  Al  Al16  1  0.460113  0.920226  0.386581  1
  Al  Al17  1  0.539887  0.079773  0.613419  1
  Al  Al18  1  0.981900  0.963800  0.092249  1
  Al  Al19  1  0.018100  0.036200  0.907751  1
  Al  Al20  1  0.018100  0.036200  0.592249  1
  Al  Al21  1  0.981900  0.963800  0.407751  1
  Al  Al22  1  0.780845  0.030060  0.750000  1
  Al  Al23  1  0.750786  0.969940  0.250000  1
  Al  Al24  1  0.219155  0.969940  0.250000  1
  Al  Al25  1  0.249214  0.030060  0.750000  1
  Al  Al26  1  0.711623  0.800536  0.750000  1
  Al  Al27  1  0.911086  0.199464  0.250000  1
  Al  Al28  1  0.288377  0.199464  0.250000  1
  Al  Al29  1  0.088914  0.800536  0.750000  1
  Al  Al30  1  0.363345  0.107425  0.068300  1
  Al  Al31  1  0.255920  0.892575  0.931700  1
  Al  Al32  1  0.636655  0.892575  0.568300  1
  Al  Al33  1  0.744080  0.107425  0.431700  1
  Al  Al34  1  0.636655  0.892575  0.931700  1
  Al  Al35  1  0.744080  0.107425  0.068300  1
  Al  Al36  1  0.363345  0.107425  0.431700  1
  Al  Al37  1  0.255920  0.892575  0.568300  1
  Al  Al38  1  0.635015  0.656814  0.932817  1
  Al  Al39  1  0.978201  0.343186  0.067183  1
  Al  Al40  1  0.364985  0.343186  0.432817  1
  Al  Al41  1  0.021799  0.656814  0.567183  1
  Al  Al42  1  0.364985  0.343186  0.067183  1
  Al  Al43  1  0.021799  0.656814  0.932817  1
  Al  Al44  1  0.635015  0.656814  0.567183  1
  Al  Al45  1  0.978201  0.343186  0.432817  1
  Al  Al46  1  0.534508  0.436469  0.874400  1
  Al  Al47  1  0.098040  0.563531  0.125600  1
  Al  Al48  1  0.465492  0.563531  0.374400  1
  Al  Al49  1  0.901960  0.436469  0.625600  1
  Al  Al50  1  0.465492  0.563531  0.125600  1
  Al  Al51  1  0.901960  0.436469  0.874400  1
  Al  Al52  1  0.534508  0.436469  0.625600  1
  Al  Al53  1  0.098040  0.563531  0.374400  1
  Al  Al54  1  0.698303  0.778034  0.106567  1
  Al  Al55  1  0.920269  0.221966  0.893433  1
  Al  Al56  1  0.301697  0.221966  0.606567  1
  Al  Al57  1  0.079731  0.778034  0.393433  1
  Al  Al58  1  0.301697  0.221966  0.893433  1
  Al  Al59  1  0.079731  0.778034  0.106567  1
  Al  Al60  1  0.698303  0.778034  0.393433  1
  Al  Al61  1  0.920269  0.221966  0.606567  1
  Mn  Mn62  1  0.459118  0.918236  0.750000  1
  Mn  Mn63  1  0.540882  0.081764  0.250000  1
  Mn  Mn64  1  0.081881  0.163762  0.750000  1
  Mn  Mn65  1  0.918119  0.836238  0.250000  1
  Mn  Mn66  1  0.641616  0.283232  0.947659  1
  Mn  Mn67  1  0.358384  0.716768  0.052341  1
  Mn  Mn68  1  0.358384  0.716768  0.447659  1
  Mn  Mn69  1  0.641616  0.283232  0.552341  1
  Mn  Mn70  1  0.912376  0.824752  0.921857  1
  Mn  Mn71  1  0.087624  0.175248  0.078143  1
  Mn  Mn72  1  0.087624  0.175248  0.421857  1
  Mn  Mn73  1  0.912376  0.824752  0.578143  1
  Ni  Ni74  1  0.101655  0.570715  0.750000  1
  Ni  Ni75  1  0.530940  0.429285  0.250000  1
  Ni  Ni76  1  0.898345  0.429285  0.250000  1
  Ni  Ni77  1  0.469060  0.570715  0.750000  1
