# generated using pymatgen
data_LiV2(PO4)3
_symmetry_space_group_name_H-M   'P 1'
_cell_length_a   8.44568369
_cell_length_b   8.49378065
_cell_length_c   8.79865437
_cell_angle_alpha   118.48938713
_cell_angle_beta   91.06334440
_cell_angle_gamma   119.50324510
_symmetry_Int_Tables_number   1
_chemical_formula_structural   LiV2(PO4)3
_chemical_formula_sum   'Li2 V4 P6 O24'
_cell_volume   455.53512842
_cell_formula_units_Z   2
loop_
 _symmetry_equiv_pos_site_id
 _symmetry_equiv_pos_as_xyz
  1  'x, y, z'
loop_
 _atom_site_type_symbol
 _atom_site_label
 _atom_site_symmetry_multiplicity
 _atom_site_fract_x
 _atom_site_fract_y
 _atom_site_fract_z
 _atom_site_occupancy
  Li  Li0  1  0.229621  0.765150  0.584775  1
  Li  Li1  1  0.770380  0.234850  0.415225  1
  O  O2  1  0.640094  0.922704  0.923104  1
  O  O3  1  0.260440  0.893718  0.434443  1
  O  O4  1  0.194588  0.709044  0.084051  1
  O  O5  1  0.091982  0.501288  0.237774  1
  O  O6  1  0.276379  0.693663  0.773290  1
  O  O7  1  0.028347  0.142486  0.945680  1
  O  O8  1  0.441205  0.734032  0.270803  1
  O  O9  1  0.188688  0.170163  0.714070  1
  O  O10  1  0.163375  0.138423  0.391533  1
  O  O11  1  0.475043  0.757462  0.589511  1
  O  O12  1  0.091839  0.858900  0.750297  1
  O  O13  1  0.465208  0.522348  0.701769  1
  O  O14  1  0.534791  0.477652  0.298231  1
  O  O15  1  0.359906  0.077295  0.076896  1
  O  O16  1  0.524957  0.242539  0.410491  1
  O  O17  1  0.836625  0.861577  0.608466  1
  O  O18  1  0.908162  0.141101  0.249705  1
  O  O19  1  0.558795  0.265970  0.729197  1
  O  O20  1  0.971654  0.857514  0.054320  1
  O  O21  1  0.723621  0.306338  0.226710  1
  O  O22  1  0.908017  0.498711  0.762226  1
  O  O23  1  0.805414  0.290957  0.915949  1
  O  O24  1  0.739560  0.106283  0.565557  1
  O  O25  1  0.811313  0.829836  0.285930  1
  P  P26  1  0.246635  0.712652  0.252518  1
  P  P27  1  0.039134  0.012797  0.756124  1
  P  P28  1  0.466217  0.719384  0.746676  1
  P  P29  1  0.533783  0.280617  0.253326  1
  P  P30  1  0.960865  0.987203  0.243876  1
  P  P31  1  0.753365  0.287347  0.747482  1
  V  V32  1  0.135886  0.789853  0.929831  1
  V  V33  1  0.640950  0.787578  0.431415  1
  V  V34  1  0.359050  0.212422  0.568586  1
  V  V35  1  0.864115  0.210147  0.070169  1
