# generated using pymatgen
data_Sr8Ga7
_symmetry_space_group_name_H-M   'P 1'
_cell_length_a   12.52798079
_cell_length_b   12.52798079
_cell_length_c   12.52798079
_cell_angle_alpha   90.00000000
_cell_angle_beta   90.00000000
_cell_angle_gamma   90.00000000
_symmetry_Int_Tables_number   1
_chemical_formula_structural   Sr8Ga7
_chemical_formula_sum   'Sr32 Ga28'
_cell_volume   1966.27037689
_cell_formula_units_Z   4
loop_
 _symmetry_equiv_pos_site_id
 _symmetry_equiv_pos_as_xyz
  1  'x, y, z'
loop_
 _atom_site_type_symbol
 _atom_site_label
 _atom_site_symmetry_multiplicity
 _atom_site_fract_x
 _atom_site_fract_y
 _atom_site_fract_z
 _atom_site_occupancy
  Ga  Ga0  1  0.433510  0.433510  0.433510  1
  Ga  Ga1  1  0.066490  0.566490  0.933510  1
  Ga  Ga2  1  0.933510  0.066490  0.566490  1
  Ga  Ga3  1  0.566490  0.933510  0.066490  1
  Ga  Ga4  1  0.752245  0.685687  0.578271  1
  Ga  Ga5  1  0.578271  0.752245  0.685687  1
  Ga  Ga6  1  0.685687  0.578271  0.752245  1
  Ga  Ga7  1  0.814313  0.421729  0.252245  1
  Ga  Ga8  1  0.078271  0.747755  0.314313  1
  Ga  Ga9  1  0.314313  0.078271  0.747755  1
  Ga  Ga10  1  0.921729  0.247755  0.185687  1
  Ga  Ga11  1  0.421729  0.252245  0.814313  1
  Ga  Ga12  1  0.185687  0.921729  0.247755  1
  Ga  Ga13  1  0.252245  0.814313  0.421729  1
  Ga  Ga14  1  0.247755  0.185687  0.921729  1
  Ga  Ga15  1  0.747755  0.314313  0.078271  1
  Ga  Ga16  1  0.753506  0.193511  0.573697  1
  Ga  Ga17  1  0.573697  0.753506  0.193511  1
  Ga  Ga18  1  0.193511  0.573697  0.753506  1
  Ga  Ga19  1  0.306489  0.426303  0.253506  1
  Ga  Ga20  1  0.073697  0.746494  0.806489  1
  Ga  Ga21  1  0.806489  0.073697  0.746494  1
  Ga  Ga22  1  0.926303  0.246494  0.693511  1
  Ga  Ga23  1  0.426303  0.253506  0.306489  1
  Ga  Ga24  1  0.693511  0.926303  0.246494  1
  Ga  Ga25  1  0.253506  0.306489  0.426303  1
  Ga  Ga26  1  0.246494  0.693511  0.926303  1
  Ga  Ga27  1  0.746494  0.806489  0.073697  1
  Sr  Sr28  1  0.186055  0.186055  0.186055  1
  Sr  Sr29  1  0.313945  0.813945  0.686055  1
  Sr  Sr30  1  0.686055  0.313945  0.813945  1
  Sr  Sr31  1  0.813945  0.686055  0.313945  1
  Sr  Sr32  1  0.811661  0.811661  0.811661  1
  Sr  Sr33  1  0.688339  0.188339  0.311661  1
  Sr  Sr34  1  0.311661  0.688339  0.188339  1
  Sr  Sr35  1  0.188339  0.311661  0.688339  1
  Sr  Sr36  1  0.522162  0.705074  0.937088  1
  Sr  Sr37  1  0.937088  0.522162  0.705074  1
  Sr  Sr38  1  0.705074  0.937088  0.522162  1
  Sr  Sr39  1  0.794926  0.062912  0.022162  1
  Sr  Sr40  1  0.437088  0.977838  0.294926  1
  Sr  Sr41  1  0.294926  0.437088  0.977838  1
  Sr  Sr42  1  0.562912  0.477838  0.205074  1
  Sr  Sr43  1  0.062912  0.022162  0.794926  1
  Sr  Sr44  1  0.205074  0.562912  0.477838  1
  Sr  Sr45  1  0.022162  0.794926  0.062912  1
  Sr  Sr46  1  0.477838  0.205074  0.562912  1
  Sr  Sr47  1  0.977838  0.294926  0.437088  1
  Sr  Sr48  1  0.802248  0.558168  0.004038  1
  Sr  Sr49  1  0.004038  0.802248  0.558168  1
  Sr  Sr50  1  0.558168  0.004038  0.802248  1
  Sr  Sr51  1  0.941832  0.995962  0.302248  1
  Sr  Sr52  1  0.504038  0.697752  0.441832  1
  Sr  Sr53  1  0.441832  0.504038  0.697752  1
  Sr  Sr54  1  0.495962  0.197752  0.058168  1
  Sr  Sr55  1  0.995962  0.302248  0.941832  1
  Sr  Sr56  1  0.058168  0.495962  0.197752  1
  Sr  Sr57  1  0.302248  0.941832  0.995962  1
  Sr  Sr58  1  0.197752  0.058168  0.495962  1
  Sr  Sr59  1  0.697752  0.441832  0.504038  1
