# generated using pymatgen
data_SmAlGe
_symmetry_space_group_name_H-M   'P 1'
_cell_length_a   4.22589071
_cell_length_b   4.22589071
_cell_length_c   7.93963774
_cell_angle_alpha   105.43388051
_cell_angle_beta   105.43388054
_cell_angle_gamma   90.00000004
_symmetry_Int_Tables_number   1
_chemical_formula_structural   SmAlGe
_chemical_formula_sum   'Sm2 Al2 Ge2'
_cell_volume   131.36218331
_cell_formula_units_Z   2
loop_
 _symmetry_equiv_pos_site_id
 _symmetry_equiv_pos_as_xyz
  1  'x, y, z'
loop_
 _atom_site_type_symbol
 _atom_site_label
 _atom_site_symmetry_multiplicity
 _atom_site_fract_x
 _atom_site_fract_y
 _atom_site_fract_z
 _atom_site_occupancy
  Al  Al0  1  0.919088  0.419088  0.838176  1
  Al  Al1  1  0.169088  0.169088  0.338176  1
  Ge  Ge2  1  0.003532  0.003532  0.007064  1
  Ge  Ge3  1  0.753532  0.253532  0.507065  1
  Sm  Sm4  1  0.334980  0.834980  0.669959  1
  Sm  Sm5  1  0.584980  0.584980  0.169959  1
