# generated using pymatgen
data_CrBrO
_symmetry_space_group_name_H-M   'P 1'
_cell_length_a   3.34511293
_cell_length_b   3.94204052
_cell_length_c   8.83938382
_cell_angle_alpha   90.00000000
_cell_angle_beta   90.00000000
_cell_angle_gamma   90.00000000
_symmetry_Int_Tables_number   1
_chemical_formula_structural   CrBrO
_chemical_formula_sum   'Cr2 Br2 O2'
_cell_volume   116.56115981
_cell_formula_units_Z   2
loop_
 _symmetry_equiv_pos_site_id
 _symmetry_equiv_pos_as_xyz
  1  'x, y, z'
loop_
 _atom_site_type_symbol
 _atom_site_label
 _atom_site_symmetry_multiplicity
 _atom_site_fract_x
 _atom_site_fract_y
 _atom_site_fract_z
 _atom_site_occupancy
  Cr  Cr0  1  0.250002  0.250000  0.094136  1
  Cr  Cr1  1  0.750001  0.750000  0.905859  1
  Br  Br2  1  0.250001  0.749999  0.694506  1
  Br  Br3  1  0.750001  0.250000  0.305497  1
  O  O4  1  0.750001  0.250000  0.954376  1
  O  O5  1  0.250001  0.749999  0.045624  1
