# generated using pymatgen
data_Nb21S8
_symmetry_space_group_name_H-M   'P 1'
_cell_length_a   3.37937993
_cell_length_b   12.09464996
_cell_length_c   12.09464996
_cell_angle_alpha   88.88165021
_cell_angle_beta   81.96919074
_cell_angle_gamma   81.96919077
_symmetry_Int_Tables_number   1
_chemical_formula_structural   Nb21S8
_chemical_formula_sum   'Nb21 S8'
_cell_volume   484.68927536
_cell_formula_units_Z   1
loop_
 _symmetry_equiv_pos_site_id
 _symmetry_equiv_pos_as_xyz
  1  'x, y, z'
loop_
 _atom_site_type_symbol
 _atom_site_label
 _atom_site_symmetry_multiplicity
 _atom_site_fract_x
 _atom_site_fract_y
 _atom_site_fract_z
 _atom_site_occupancy
  S  S0  1  0.787100  0.848516  0.577284  1
  S  S1  1  0.364384  0.422716  0.848516  1
  S  S2  1  0.635616  0.577284  0.151484  1
  S  S3  1  0.212900  0.151484  0.422716  1
  S  S4  1  0.862580  0.073495  0.201345  1
  S  S5  1  0.063925  0.798655  0.073495  1
  S  S6  1  0.936075  0.201345  0.926505  1
  S  S7  1  0.137420  0.926505  0.798655  1
  Nb  Nb8  1  0.721927  0.258187  0.297959  1
  Nb  Nb9  1  0.384051  0.801357  0.430542  1
  Nb  Nb10  1  0.814592  0.569458  0.801357  1
  Nb  Nb11  1  0.185408  0.430542  0.198643  1
  Nb  Nb12  1  0.615949  0.198643  0.569458  1
  Nb  Nb13  1  0.191840  0.005905  0.610415  1
  Nb  Nb14  1  0.802255  0.389585  0.005905  1
  Nb  Nb15  1  0.197745  0.610415  0.994095  1
  Nb  Nb16  1  0.808160  0.994095  0.389585  1
  Nb  Nb17  1  0.451304  0.913637  0.183754  1
  Nb  Nb18  1  0.635058  0.816246  0.913637  1
  Nb  Nb19  1  0.364942  0.183754  0.086363  1
  Nb  Nb20  1  0.548696  0.086363  0.816246  1
  Nb  Nb21  1  0.019886  0.702041  0.258187  1
  Nb  Nb22  1  0.980114  0.297959  0.741813  1
  Nb  Nb23  1  0.278073  0.741813  0.702041  1
  Nb  Nb24  1  0.918847  0.630920  0.531386  1
  Nb  Nb25  1  0.450233  0.468614  0.630920  1
  Nb  Nb26  1  0.549767  0.531386  0.369080  1
  Nb  Nb27  1  0.081153  0.369080  0.468614  1
  Nb  Nb28  1  0.000000  0.000000  0.000000  1
