# generated using pymatgen
data_Nb6Si7Ni16
_symmetry_space_group_name_H-M   'P 1'
_cell_length_a   7.96203352
_cell_length_b   7.96203352
_cell_length_c   7.96203351
_cell_angle_alpha   59.99999998
_cell_angle_beta   59.99999999
_cell_angle_gamma   59.99999996
_symmetry_Int_Tables_number   1
_chemical_formula_structural   Nb6Si7Ni16
_chemical_formula_sum   'Nb6 Si7 Ni16'
_cell_volume   356.90859429
_cell_formula_units_Z   1
loop_
 _symmetry_equiv_pos_site_id
 _symmetry_equiv_pos_as_xyz
  1  'x, y, z'
loop_
 _atom_site_type_symbol
 _atom_site_label
 _atom_site_symmetry_multiplicity
 _atom_site_fract_x
 _atom_site_fract_y
 _atom_site_fract_z
 _atom_site_occupancy
  Si  Si0  1  0.500000  0.500000  0.500000  1
  Si  Si1  1  0.500000  0.000000  0.500000  1
  Si  Si2  1  0.000000  0.500000  0.000000  1
  Si  Si3  1  0.000000  0.500000  0.500000  1
  Si  Si4  1  0.500000  0.500000  0.000000  1
  Si  Si5  1  0.000000  0.000000  0.500000  1
  Si  Si6  1  0.500000  0.000000  0.000000  1
  Ni  Ni7  1  0.831736  0.831736  0.504790  1
  Ni  Ni8  1  0.504790  0.831736  0.831736  1
  Ni  Ni9  1  0.831736  0.504790  0.831736  1
  Ni  Ni10  1  0.495210  0.168264  0.168264  1
  Ni  Ni11  1  0.168264  0.495210  0.168264  1
  Ni  Ni12  1  0.168264  0.168264  0.495210  1
  Ni  Ni13  1  0.831736  0.831736  0.831736  1
  Ni  Ni14  1  0.383389  0.383389  0.383389  1
  Ni  Ni15  1  0.616611  0.616611  0.150167  1
  Ni  Ni16  1  0.150167  0.616611  0.616611  1
  Ni  Ni17  1  0.616611  0.150167  0.616611  1
  Ni  Ni18  1  0.849833  0.383389  0.383389  1
  Ni  Ni19  1  0.383389  0.849833  0.383389  1
  Ni  Ni20  1  0.383389  0.383389  0.849833  1
  Ni  Ni21  1  0.616611  0.616611  0.616611  1
  Ni  Ni22  1  0.168264  0.168264  0.168264  1
  Nb  Nb23  1  0.203176  0.796824  0.796824  1
  Nb  Nb24  1  0.203176  0.796824  0.203176  1
  Nb  Nb25  1  0.796824  0.203176  0.796824  1
  Nb  Nb26  1  0.203176  0.203176  0.796824  1
  Nb  Nb27  1  0.796824  0.796824  0.203176  1
  Nb  Nb28  1  0.796824  0.203176  0.203176  1
