# generated using pymatgen
data_CaHoMn2O6
_symmetry_space_group_name_H-M   'P 1'
_cell_length_a   5.32133365
_cell_length_b   5.52242340
_cell_length_c   7.60353979
_cell_angle_alpha   89.99983929
_cell_angle_beta   89.99994579
_cell_angle_gamma   90.00081532
_symmetry_Int_Tables_number   1
_chemical_formula_structural   CaHoMn2O6
_chemical_formula_sum   'Ca2 Ho2 Mn4 O12'
_cell_volume   223.44261934
_cell_formula_units_Z   2
loop_
 _symmetry_equiv_pos_site_id
 _symmetry_equiv_pos_as_xyz
  1  'x, y, z'
loop_
 _atom_site_type_symbol
 _atom_site_label
 _atom_site_symmetry_multiplicity
 _atom_site_fract_x
 _atom_site_fract_y
 _atom_site_fract_z
 _atom_site_occupancy
  Ca  Ca0  1  0.488037  0.447378  0.750000  1
  Ca  Ca1  1  0.988023  0.052636  0.250021  1
  Ho  Ho2  1  0.017913  0.935146  0.749976  1
  Ho  Ho3  1  0.517921  0.564864  0.250028  1
  Mn  Mn4  1  0.000509  0.496066  0.000059  1
  Mn  Mn5  1  0.000518  0.496066  0.499937  1
  Mn  Mn6  1  0.500515  0.003930  0.500060  1
  Mn  Mn7  1  0.500505  0.003928  0.999936  1
  O  O8  1  0.103478  0.475442  0.250021  1
  O  O9  1  0.196421  0.197322  0.948808  1
  O  O10  1  0.196444  0.197350  0.551174  1
  O  O11  1  0.290286  0.711469  0.952629  1
  O  O12  1  0.290277  0.711499  0.547375  1
  O  O13  1  0.416149  0.968700  0.250018  1
  O  O14  1  0.603482  0.024560  0.749976  1
  O  O15  1  0.696416  0.302626  0.448827  1
  O  O16  1  0.696398  0.302646  0.051187  1
  O  O17  1  0.790263  0.788560  0.047362  1
  O  O18  1  0.790256  0.788525  0.452629  1
  O  O19  1  0.916186  0.531288  0.749976  1
