# generated using pymatgen
data_Hf23Se25
_symmetry_space_group_name_H-M   'P 1'
_cell_length_a   17.70158411
_cell_length_b   16.22231752
_cell_length_c   7.94003502
_cell_angle_alpha   28.89676379
_cell_angle_beta   116.44213426
_cell_angle_gamma   109.08153312
_symmetry_Int_Tables_number   1
_chemical_formula_structural   Hf23Se25
_chemical_formula_sum   'Hf23 Se25'
_cell_volume   976.04468359
_cell_formula_units_Z   1
loop_
 _symmetry_equiv_pos_site_id
 _symmetry_equiv_pos_as_xyz
  1  'x, y, z'
loop_
 _atom_site_type_symbol
 _atom_site_label
 _atom_site_symmetry_multiplicity
 _atom_site_fract_x
 _atom_site_fract_y
 _atom_site_fract_z
 _atom_site_occupancy
  Hf  Hf0  1  0.080225  0.931548  0.500456  1
  Hf  Hf1  1  0.118837  0.734204  0.500222  1
  Hf  Hf2  1  0.278580  0.941457  0.489911  1
  Hf  Hf3  1  0.163446  0.534403  0.500362  1
  Hf  Hf4  1  0.035381  0.129204  0.496052  1
  Hf  Hf5  1  0.319552  0.729896  0.500277  1
  Hf  Hf6  1  0.205184  0.336895  0.503920  1
  Hf  Hf7  1  0.359863  0.533423  0.500245  1
  Hf  Hf8  1  0.241571  0.132098  0.499757  1
  Hf  Hf9  1  0.515657  0.729096  0.496167  1
  Hf  Hf10  1  0.401116  0.333656  0.499344  1
  Hf  Hf11  1  0.682961  0.937972  0.499451  1
  Hf  Hf12  1  0.560408  0.531492  0.501344  1
  Hf  Hf13  1  0.437063  0.129785  0.508869  1
  Hf  Hf14  1  0.598006  0.334709  0.498762  1
  Hf  Hf15  1  0.721149  0.734618  0.498734  1
  Hf  Hf16  1  0.761575  0.535036  0.497868  1
  Hf  Hf17  1  0.643707  0.133393  0.501414  1
  Hf  Hf18  1  0.880313  0.933867  0.500830  1
  Hf  Hf19  1  0.922274  0.733057  0.502361  1
  Hf  Hf20  1  0.798649  0.337160  0.495178  1
  Hf  Hf21  1  0.838648  0.129822  0.500931  1
  Hf  Hf22  1  0.955709  0.528944  0.508531  1
  Se  Se23  1  0.040057  0.792634  0.012872  1
  Se  Se24  1  0.079311  0.597122  0.005582  1
  Se  Se25  1  0.239777  0.801192  0.996733  1
  Se  Se26  1  0.119054  0.398084  0.004010  1
  Se  Se27  1  0.000310  0.003574  0.994977  1
  Se  Se28  1  0.280784  0.606170  0.987726  1
  Se  Se29  1  0.156517  0.201967  0.993259  1
  Se  Se30  1  0.440755  0.798686  0.995801  1
  Se  Se31  1  0.320661  0.398937  0.003125  1
  Se  Se32  1  0.199371  0.003124  0.994921  1
  Se  Se33  1  0.363240  0.197667  0.004607  1
  Se  Se34  1  0.479936  0.604021  0.994364  1
  Se  Se35  1  0.638431  0.799100  0.000790  1
  Se  Se36  1  0.400533  0.000582  0.005864  1
  Se  Se37  1  0.520527  0.393047  0.011836  1
  Se  Se38  1  0.558334  0.197034  0.005334  1
  Se  Se39  1  0.677304  0.605547  0.987921  1
  Se  Se40  1  0.840722  0.798918  0.003720  1
  Se  Se41  1  0.721746  0.400615  0.001446  1
  Se  Se42  1  0.599261  0.999049  0.002055  1
  Se  Se43  1  0.759076  0.202666  0.992847  1
  Se  Se44  1  0.881071  0.599486  0.999550  1
  Se  Se45  1  0.920802  0.400297  0.007369  1
  Se  Se46  1  0.801871  0.002906  0.996544  1
  Se  Se47  1  0.960676  0.198498  0.995766  1
