# generated using pymatgen
data_LiTa3N4
_symmetry_space_group_name_H-M   'P 1'
_cell_length_a   5.22989150
_cell_length_b   10.46528664
_cell_length_c   10.28783590
_cell_angle_alpha   90.00000000
_cell_angle_beta   90.00000000
_cell_angle_gamma   119.98260508
_symmetry_Int_Tables_number   1
_chemical_formula_structural   LiTa3N4
_chemical_formula_sum   'Li6 Ta18 N24'
_cell_volume   487.72449132
_cell_formula_units_Z   6
loop_
 _symmetry_equiv_pos_site_id
 _symmetry_equiv_pos_as_xyz
  1  'x, y, z'
loop_
 _atom_site_type_symbol
 _atom_site_label
 _atom_site_symmetry_multiplicity
 _atom_site_fract_x
 _atom_site_fract_y
 _atom_site_fract_z
 _atom_site_occupancy
  Li  Li0  1  1.006442  1.006442  0.500000  1
  Li  Li1  1  0.672644  0.672644  0.000000  1
  Li  Li2  1  -0.010959  -0.010959  0.000000  1
  Li  Li3  1  1.006442  0.506442  0.000000  1
  Li  Li4  1  -0.010959  0.489041  0.500000  1
  Li  Li5  1  0.672644  0.172644  0.500000  1
  N  N6  1  0.009363  0.832503  0.122476  1
  N  N7  1  1.002502  0.668576  0.878828  1
  N  N8  1  0.332362  0.998957  0.621106  1
  N  N9  1  0.662913  -0.002215  0.119658  1
  N  N10  1  0.335851  0.668985  0.380216  1
  N  N11  1  0.334649  0.668576  0.121172  1
  N  N12  1  0.665838  0.833517  0.619158  1
  N  N13  1  0.655644  0.832503  0.877524  1
  N  N14  1  1.002502  0.168576  0.621172  1
  N  N15  1  1.002119  0.168985  0.880216  1
  N  N16  1  0.332362  0.498957  0.878894  1
  N  N17  1  0.332658  0.497785  0.619658  1
  N  N18  1  0.662913  0.497785  0.380342  1
  N  N19  1  0.665551  0.498957  0.121106  1
  N  N20  1  1.001195  0.833517  0.380842  1
  N  N21  1  0.335851  0.168985  0.119784  1
  N  N22  1  0.334649  0.168576  0.378828  1
  N  N23  1  1.002119  0.668985  0.619784  1
  N  N24  1  0.655644  0.332503  0.622476  1
  N  N25  1  0.665838  0.333517  0.880842  1
  N  N26  1  0.332658  -0.002215  0.880342  1
  N  N27  1  0.665551  0.998957  0.378894  1
  N  N28  1  0.009363  0.332503  0.377524  1
  N  N29  1  1.001195  0.333517  0.119158  1
  Ta  Ta30  1  0.993716  0.834392  0.752717  1
  Ta  Ta31  1  0.331803  0.001842  0.252379  1
  Ta  Ta32  1  0.319050  0.819050  0.000000  1
  Ta  Ta33  1  0.349024  0.849024  0.500000  1
  Ta  Ta34  1  0.329708  0.663585  0.750761  1
  Ta  Ta35  1  0.993716  0.334392  0.747283  1
  Ta  Ta36  1  0.671882  0.001842  0.747621  1
  Ta  Ta37  1  0.331803  0.501842  0.247621  1
  Ta  Ta38  1  0.675068  0.834392  0.247283  1
  Ta  Ta39  1  0.663516  0.663516  0.500000  1
  Ta  Ta40  1  0.349024  0.349024  0.000000  1
  Ta  Ta41  1  0.319050  0.319050  0.500000  1
  Ta  Ta42  1  0.329708  0.163585  0.749239  1
  Ta  Ta43  1  0.671882  0.501842  0.752379  1
  Ta  Ta44  1  0.997461  0.663585  0.249239  1
  Ta  Ta45  1  0.675068  0.334392  0.252717  1
  Ta  Ta46  1  0.663516  0.163516  0.000000  1
  Ta  Ta47  1  0.997461  0.163585  0.250761  1
