# generated using pymatgen
data_Bi4I2O5
_symmetry_space_group_name_H-M   'P 1'
_cell_length_a   5.81232523
_cell_length_b   11.49694642
_cell_length_c   15.19819189
_cell_angle_alpha   100.24451448
_cell_angle_beta   90.00000000
_cell_angle_gamma   90.00000000
_symmetry_Int_Tables_number   1
_chemical_formula_structural   Bi4I2O5
_chemical_formula_sum   'Bi16 I8 O20'
_cell_volume   999.41281842
_cell_formula_units_Z   4
loop_
 _symmetry_equiv_pos_site_id
 _symmetry_equiv_pos_as_xyz
  1  'x, y, z'
loop_
 _atom_site_type_symbol
 _atom_site_label
 _atom_site_symmetry_multiplicity
 _atom_site_fract_x
 _atom_site_fract_y
 _atom_site_fract_z
 _atom_site_occupancy
  O  O0  1  0.288926  0.310735  0.033460  1
  O  O1  1  0.788926  0.689265  0.966540  1
  O  O2  1  0.006682  0.361406  0.193398  1
  O  O3  1  0.506682  0.638594  0.806602  1
  O  O4  1  0.505753  0.361404  0.191055  1
  O  O5  1  0.005753  0.638596  0.808945  1
  O  O6  1  0.803858  0.553701  0.284615  1
  O  O7  1  0.303858  0.446299  0.715385  1
  O  O8  1  0.954128  0.578733  0.093218  1
  O  O9  1  0.454128  0.421267  0.906782  1
  O  O10  1  0.451089  0.579332  0.087225  1
  O  O11  1  0.951089  0.420668  0.912775  1
  O  O12  1  0.986574  0.076416  0.580267  1
  O  O13  1  0.486574  0.923584  0.419733  1
  O  O14  1  0.504721  0.078591  0.580842  1
  O  O15  1  0.004721  0.921409  0.419158  1
  O  O16  1  0.479266  0.751878  0.259665  1
  O  O17  1  0.492297  0.243632  0.744605  1
  O  O18  1  0.992297  0.756368  0.255395  1
  O  O19  1  0.979266  0.248122  0.740335  1
  I  I20  1  0.253549  0.223289  0.383989  1
  I  I21  1  0.753549  0.776711  0.616011  1
  I  I22  1  0.777853  0.391486  0.558082  1
  I  I23  1  0.277853  0.608514  0.441918  1
  I  I24  1  0.751668  0.056250  0.223532  1
  I  I25  1  0.770785  0.120110  0.951922  1
  I  I26  1  0.270785  0.879890  0.048078  1
  I  I27  1  0.251667  0.943750  0.776468  1
  Bi  Bi28  1  0.251322  0.227110  0.147487  1
  Bi  Bi29  1  0.751322  0.772890  0.852513  1
  Bi  Bi30  1  0.752080  0.373166  0.296809  1
  Bi  Bi31  1  0.252080  0.626834  0.703191  1
  Bi  Bi32  1  0.192809  0.270532  0.884648  1
  Bi  Bi33  1  0.692809  0.729468  0.115351  1
  Bi  Bi34  1  0.634069  0.409662  0.041285  1
  Bi  Bi35  1  0.134069  0.590338  0.958715  1
  Bi  Bi36  1  0.161367  0.572170  0.213950  1
  Bi  Bi37  1  0.661367  0.427830  0.786050  1
  Bi  Bi38  1  0.733243  0.734115  0.364069  1
  Bi  Bi39  1  0.233243  0.265885  0.635931  1
  Bi  Bi40  1  0.245060  0.926244  0.539822  1
  Bi  Bi41  1  0.745060  0.073756  0.460178  1
  Bi  Bi42  1  0.741702  0.093356  0.704675  1
  Bi  Bi43  1  0.241702  0.906644  0.295325  1
