# generated using pymatgen
data_Li2(LuGe)3
_symmetry_space_group_name_H-M   'P 1'
_cell_length_a   4.13240883
_cell_length_b   5.95466825
_cell_length_c   13.88789068
_cell_angle_alpha   90.00000000
_cell_angle_beta   90.00000000
_cell_angle_gamma   110.30325939
_symmetry_Int_Tables_number   1
_chemical_formula_structural   Li2(LuGe)3
_chemical_formula_sum   'Li4 Lu6 Ge6'
_cell_volume   320.50839785
_cell_formula_units_Z   2
loop_
 _symmetry_equiv_pos_site_id
 _symmetry_equiv_pos_as_xyz
  1  'x, y, z'
loop_
 _atom_site_type_symbol
 _atom_site_label
 _atom_site_symmetry_multiplicity
 _atom_site_fract_x
 _atom_site_fract_y
 _atom_site_fract_z
 _atom_site_occupancy
  Li  Li0  1  0.278204  0.556409  0.421469  1
  Li  Li1  1  0.721796  0.443591  0.578531  1
  Li  Li2  1  0.278204  0.556409  0.078532  1
  Li  Li3  1  0.721796  0.443591  0.921469  1
  Ge  Ge4  1  0.832175  0.664350  0.750000  1
  Ge  Ge5  1  0.099492  0.198984  0.545192  1
  Ge  Ge6  1  0.900508  0.801016  0.045192  1
  Ge  Ge7  1  0.099492  0.198984  0.954808  1
  Ge  Ge8  1  0.167825  0.335650  0.250000  1
  Ge  Ge9  1  0.900508  0.801016  0.454808  1
  Lu  Lu10  1  0.138799  0.277598  0.750000  1
  Lu  Lu11  1  0.861201  0.722402  0.250000  1
  Lu  Lu12  1  0.430423  0.860845  0.881231  1
  Lu  Lu13  1  0.569577  0.139155  0.118769  1
  Lu  Lu14  1  0.569577  0.139155  0.381231  1
  Lu  Lu15  1  0.430423  0.860845  0.618769  1
