# generated using pymatgen
data_Ca4Nb2O9
_symmetry_space_group_name_H-M   'P 1'
_cell_length_a   5.58739744
_cell_length_b   9.94388842
_cell_length_c   14.31452890
_cell_angle_alpha   91.13087723
_cell_angle_beta   90.00000000
_cell_angle_gamma   90.00000000
_symmetry_Int_Tables_number   1
_chemical_formula_structural   Ca4Nb2O9
_chemical_formula_sum   'Ca16 Nb8 O36'
_cell_volume   795.16685103
_cell_formula_units_Z   4
loop_
 _symmetry_equiv_pos_site_id
 _symmetry_equiv_pos_as_xyz
  1  'x, y, z'
loop_
 _atom_site_type_symbol
 _atom_site_label
 _atom_site_symmetry_multiplicity
 _atom_site_fract_x
 _atom_site_fract_y
 _atom_site_fract_z
 _atom_site_occupancy
  O  O0  1  0.380365  0.662214  0.606810  1
  O  O1  1  0.619635  0.337786  0.393190  1
  O  O2  1  0.119635  0.162214  0.106810  1
  O  O3  1  0.880365  0.837786  0.893190  1
  O  O4  1  0.118216  0.800375  0.425367  1
  O  O5  1  0.618216  0.699625  0.074633  1
  O  O6  1  0.881784  0.199625  0.574633  1
  O  O7  1  0.381784  0.300375  0.925367  1
  O  O8  1  0.905653  0.511277  0.233745  1
  O  O9  1  0.405653  0.988723  0.266255  1
  O  O10  1  0.094347  0.488723  0.766255  1
  O  O11  1  0.594347  0.011277  0.733745  1
  O  O12  1  0.791178  0.139755  0.903205  1
  O  O13  1  0.291178  0.360245  0.596795  1
  O  O14  1  0.208822  0.860245  0.096795  1
  O  O15  1  0.329565  0.120582  0.449828  1
  O  O16  1  0.287248  0.761191  0.783023  1
  O  O17  1  0.787248  0.738809  0.716977  1
  O  O18  1  0.712752  0.238809  0.216977  1
  O  O19  1  0.212752  0.261191  0.283023  1
  O  O20  1  0.199472  0.202171  0.750284  1
  O  O21  1  0.699472  0.297829  0.749716  1
  O  O22  1  0.800528  0.797829  0.249716  1
  O  O23  1  0.300528  0.702171  0.250284  1
  O  O24  1  0.700745  0.569778  0.870692  1
  O  O25  1  0.200745  0.930222  0.629308  1
  O  O26  1  0.299255  0.430222  0.129308  1
  O  O27  1  0.799255  0.069778  0.370692  1
  O  O28  1  0.322106  0.017883  0.899188  1
  O  O29  1  0.822106  0.482117  0.600812  1
  O  O30  1  0.677894  0.982117  0.100812  1
  O  O31  1  0.177894  0.517883  0.399188  1
  O  O32  1  0.170435  0.620582  0.949828  1
  O  O33  1  0.670435  0.879418  0.550172  1
  O  O34  1  0.829565  0.379418  0.050172  1
  O  O35  1  0.708822  0.639755  0.403205  1
  Ca  Ca36  1  0.000000  0.000000  0.000000  1
  Ca  Ca37  1  0.520002  0.845956  0.390710  1
  Ca  Ca38  1  0.020002  0.654044  0.109290  1
  Ca  Ca39  1  0.479998  0.154044  0.609290  1
  Ca  Ca40  1  0.979998  0.345956  0.890710  1
  Ca  Ca41  1  0.998099  0.016249  0.229892  1
  Ca  Ca42  1  0.498099  0.483751  0.270108  1
  Ca  Ca43  1  0.001901  0.983751  0.770108  1
  Ca  Ca44  1  0.000000  0.000000  0.500000  1
  Ca  Ca45  1  0.501901  0.516249  0.729892  1
  Ca  Ca46  1  0.500000  0.500000  0.000000  1
  Ca  Ca47  1  0.500000  0.500000  0.500000  1
  Ca  Ca48  1  0.484686  0.803812  0.925072  1
  Ca  Ca49  1  0.984686  0.696188  0.574928  1
  Ca  Ca50  1  0.515314  0.196188  0.074928  1
  Ca  Ca51  1  0.015314  0.303812  0.425072  1
  Nb  Nb52  1  0.506650  0.167752  0.338546  1
  Nb  Nb53  1  0.988897  0.339553  0.662329  1
  Nb  Nb54  1  0.488897  0.160447  0.837671  1
  Nb  Nb55  1  0.011103  0.660447  0.337671  1
  Nb  Nb56  1  0.511103  0.839553  0.162329  1
  Nb  Nb57  1  0.993350  0.667752  0.838546  1
  Nb  Nb58  1  0.493350  0.832248  0.661454  1
  Nb  Nb59  1  0.006650  0.332248  0.161454  1
