# generated using pymatgen
data_NbBi3O7
_symmetry_space_group_name_H-M   'P 1'
_cell_length_a   3.94713222
_cell_length_b   3.79118386
_cell_length_c   15.45793389
_cell_angle_alpha   60.57847743
_cell_angle_beta   60.25518452
_cell_angle_gamma   61.36546481
_symmetry_Int_Tables_number   1
_chemical_formula_structural   NbBi3O7
_chemical_formula_sum   'Nb1 Bi3 O7'
_cell_volume   166.23910938
_cell_formula_units_Z   1
loop_
 _symmetry_equiv_pos_site_id
 _symmetry_equiv_pos_as_xyz
  1  'x, y, z'
loop_
 _atom_site_type_symbol
 _atom_site_label
 _atom_site_symmetry_multiplicity
 _atom_site_fract_x
 _atom_site_fract_y
 _atom_site_fract_z
 _atom_site_occupancy
  Bi  Bi0  1  0.068608  0.009396  0.985007  1
  Bi  Bi1  1  0.024405  0.978116  0.262471  1
  Bi  Bi2  1  0.087257  0.021117  0.725475  1
  Nb  Nb3  1  0.962007  0.049488  0.494224  1
  O  O4  1  0.304259  0.186058  0.339169  1
  O  O5  1  0.354091  0.273817  0.531850  1
  O  O6  1  0.854633  0.740176  0.175241  1
  O  O7  1  0.816017  0.702295  0.452901  1
  O  O8  1  0.326102  0.248605  0.801077  1
  O  O9  1  0.850260  0.794474  0.647642  1
  O  O10  1  0.742861  0.703758  0.969069  1
