# generated using pymatgen
data_ThCN
_symmetry_space_group_name_H-M   'P 1'
_cell_length_a   3.97928585
_cell_length_b   4.02499388
_cell_length_c   7.36927555
_cell_angle_alpha   93.48835501
_cell_angle_beta   90.00000000
_cell_angle_gamma   119.62505067
_symmetry_Int_Tables_number   1
_chemical_formula_structural   ThCN
_chemical_formula_sum   'Th2 C2 N2'
_cell_volume   102.34998594
_cell_formula_units_Z   2
loop_
 _symmetry_equiv_pos_site_id
 _symmetry_equiv_pos_as_xyz
  1  'x, y, z'
loop_
 _atom_site_type_symbol
 _atom_site_label
 _atom_site_symmetry_multiplicity
 _atom_site_fract_x
 _atom_site_fract_y
 _atom_site_fract_z
 _atom_site_occupancy
  C  C0  1  0.529839  0.059678  0.421066  1
  C  C1  1  0.470161  0.940322  0.578934  1
  N  N2  1  0.156015  0.312030  0.877605  1
  N  N3  1  0.843985  0.687970  0.122395  1
  Th  Th4  1  0.820803  0.641607  0.800761  1
  Th  Th5  1  0.179197  0.358393  0.199239  1
