# generated using pymatgen
data_K3PbAu5
_symmetry_space_group_name_H-M   'P 1'
_cell_length_a   5.77134503
_cell_length_b   8.62969389
_cell_length_c   11.28276973
_cell_angle_alpha   112.47554192
_cell_angle_beta   104.80986491
_cell_angle_gamma   90.01867979
_symmetry_Int_Tables_number   1
_chemical_formula_structural   K3PbAu5
_chemical_formula_sum   'K6 Pb2 Au10'
_cell_volume   498.97208122
_cell_formula_units_Z   2
loop_
 _symmetry_equiv_pos_site_id
 _symmetry_equiv_pos_as_xyz
  1  'x, y, z'
loop_
 _atom_site_type_symbol
 _atom_site_label
 _atom_site_symmetry_multiplicity
 _atom_site_fract_x
 _atom_site_fract_y
 _atom_site_fract_z
 _atom_site_occupancy
  K  K0  1  0.750007  0.375519  0.500006  1
  K  K1  1  0.249993  0.624481  0.499994  1
  K  K2  1  0.085685  0.709148  0.171375  1
  K  K3  1  0.585693  0.962230  0.171379  1
  K  K4  1  0.914315  0.290852  0.828625  1
  K  K5  1  0.414307  0.037770  0.828621  1
  Pb  Pb6  1  0.750007  0.917568  0.499995  1
  Pb  Pb7  1  0.249993  0.082432  0.500005  1
  Au  Au8  1  0.643921  0.606416  0.287870  1
  Au  Au9  1  0.356079  0.393584  0.712130  1
  Au  Au10  1  0.500000  0.500000  0.000000  1
  Au  Au11  1  0.143939  0.181463  0.287876  1
  Au  Au12  1  0.184799  0.684797  0.869585  1
  Au  Au13  1  0.856061  0.818537  0.712124  1
  Au  Au14  1  0.815201  0.315203  0.130415  1
  Au  Au15  1  0.684806  0.684804  0.869598  1
  Au  Au16  1  0.000000  0.000000  0.000000  1
  Au  Au17  1  0.315194  0.315196  0.130402  1
