# generated using pymatgen
data_Rb(WO3)6
_symmetry_space_group_name_H-M   'P 1'
_cell_length_a   7.52118293
_cell_length_b   15.04242044
_cell_length_c   7.73209382
_cell_angle_alpha   90.00000000
_cell_angle_beta   90.00000000
_cell_angle_gamma   119.99987998
_symmetry_Int_Tables_number   1
_chemical_formula_structural   Rb(WO3)6
_chemical_formula_sum   'Rb2 W12 O36'
_cell_volume   757.58636008
_cell_formula_units_Z   2
loop_
 _symmetry_equiv_pos_site_id
 _symmetry_equiv_pos_as_xyz
  1  'x, y, z'
loop_
 _atom_site_type_symbol
 _atom_site_label
 _atom_site_symmetry_multiplicity
 _atom_site_fract_x
 _atom_site_fract_y
 _atom_site_fract_z
 _atom_site_occupancy
  O  O0  1  0.000670  0.749566  0.999635  1
  O  O1  1  0.211581  0.893581  0.247409  1
  O  O2  1  0.212812  0.894219  0.752189  1
  O  O3  1  0.211561  0.712205  0.746470  1
  O  O4  1  0.212849  0.712205  0.253530  1
  O  O5  1  0.575626  0.894219  0.247811  1
  O  O6  1  0.575581  0.893581  0.752591  1
  O  O7  1  0.999330  0.250434  0.000365  1
  O  O8  1  0.501539  0.750434  0.500365  1
  O  O9  1  0.498461  0.749566  0.000365  1
  O  O10  1  0.211581  0.393581  0.252591  1
  O  O11  1  0.424419  0.606419  0.252591  1
  O  O12  1  0.424374  0.605781  0.747811  1
  O  O13  1  0.212812  0.394219  0.747811  1
  O  O14  1  0.211561  0.212205  0.753530  1
  O  O15  1  0.787151  0.787795  0.753530  1
  O  O16  1  0.500000  0.500000  0.000000  1
  O  O17  1  0.500000  0.500000  0.500000  1
  O  O18  1  0.212849  0.212205  0.246470  1
  O  O19  1  0.788439  0.787795  0.246470  1
  O  O20  1  0.575626  0.394219  0.252189  1
  O  O21  1  0.787188  0.605781  0.252189  1
  O  O22  1  0.788419  0.606419  0.747409  1
  O  O23  1  0.575581  0.393581  0.747409  1
  O  O24  1  0.501539  0.250434  0.999635  1
  O  O25  1  0.498461  0.249566  0.499635  1
  O  O26  1  0.999330  0.750434  0.499635  1
  O  O27  1  0.424419  0.106419  0.247409  1
  O  O28  1  0.424374  0.105781  0.752189  1
  O  O29  1  0.787151  0.287795  0.746470  1
  O  O30  1  0.500000  0.000000  0.000000  1
  O  O31  1  0.500000  0.000000  0.500000  1
  O  O32  1  0.788439  0.287795  0.253530  1
  O  O33  1  0.787188  0.105781  0.247811  1
  O  O34  1  0.788419  0.106419  0.752591  1
  O  O35  1  0.000670  0.249566  0.500365  1
  Rb  Rb36  1  0.000000  0.000000  0.000000  1
  Rb  Rb37  1  0.000000  0.500000  0.500000  1
  W  W38  1  -0.000019  0.751429  0.749194  1
  W  W39  1  0.497124  0.748571  0.750806  1
  W  W40  1  -0.000019  0.251429  0.750806  1
  W  W41  1  0.502876  0.751429  0.250806  1
  W  W42  1  0.497176  0.500000  0.249445  1
  W  W43  1  0.502824  0.500000  0.750555  1
  W  W44  1  0.497124  0.248571  0.749194  1
  W  W45  1  0.502876  0.251429  0.249194  1
  W  W46  1  1.000019  0.748571  0.249194  1
  W  W47  1  0.497176  0.000000  0.250555  1
  W  W48  1  0.502824  0.000000  0.749445  1
  W  W49  1  1.000019  0.248571  0.250806  1
