# generated using pymatgen
data_RbCrCl3
_symmetry_space_group_name_H-M   'P 1'
_cell_length_a   7.12686579
_cell_length_b   7.19013135
_cell_length_c   12.91119844
_cell_angle_alpha   93.55888504
_cell_angle_beta   90.00000000
_cell_angle_gamma   119.70935758
_symmetry_Int_Tables_number   1
_chemical_formula_structural   RbCrCl3
_chemical_formula_sum   'Rb4 Cr4 Cl12'
_cell_volume   573.17216410
_cell_formula_units_Z   4
loop_
 _symmetry_equiv_pos_site_id
 _symmetry_equiv_pos_as_xyz
  1  'x, y, z'
loop_
 _atom_site_type_symbol
 _atom_site_label
 _atom_site_symmetry_multiplicity
 _atom_site_fract_x
 _atom_site_fract_y
 _atom_site_fract_z
 _atom_site_occupancy
  Cl  Cl0  1  0.271988  0.145453  0.140961  1
  Cl  Cl1  1  0.126535  0.854547  0.359039  1
  Cl  Cl2  1  0.728012  0.854547  0.859039  1
  Cl  Cl3  1  0.873465  0.145453  0.640961  1
  Cl  Cl4  1  0.353840  0.165397  0.649717  1
  Cl  Cl5  1  0.188443  0.834603  0.850283  1
  Cl  Cl6  1  0.646160  0.834603  0.350283  1
  Cl  Cl7  1  0.811557  0.165397  0.149717  1
  Cl  Cl8  1  0.178782  0.325569  0.915292  1
  Cl  Cl9  1  0.853213  0.674431  0.584708  1
  Cl  Cl10  1  0.821218  0.674431  0.084708  1
  Cl  Cl11  1  0.146787  0.325569  0.415292  1
  Cr  Cr12  1  0.000000  0.000000  0.500000  1
  Cr  Cr13  1  0.000000  0.000000  0.000000  1
  Cr  Cr14  1  0.960239  0.000000  0.250000  1
  Cr  Cr15  1  0.039761  0.000000  0.750000  1
  Rb  Rb16  1  0.350247  0.665724  0.628800  1
  Rb  Rb17  1  0.684522  0.334276  0.871200  1
  Rb  Rb18  1  0.649753  0.334276  0.371200  1
  Rb  Rb19  1  0.315478  0.665724  0.128800  1
