# generated using pymatgen
data_TbNi
_symmetry_space_group_name_H-M   'P 1'
_cell_length_a   4.21877875
_cell_length_b   5.47235393
_cell_length_c   21.39198861
_cell_angle_alpha   96.81777837
_cell_angle_beta   90.00000000
_cell_angle_gamma   90.00000000
_symmetry_Int_Tables_number   1
_chemical_formula_structural   TbNi
_chemical_formula_sum   'Tb12 Ni12'
_cell_volume   490.37707592
_cell_formula_units_Z   12
loop_
 _symmetry_equiv_pos_site_id
 _symmetry_equiv_pos_as_xyz
  1  'x, y, z'
loop_
 _atom_site_type_symbol
 _atom_site_label
 _atom_site_symmetry_multiplicity
 _atom_site_fract_x
 _atom_site_fract_y
 _atom_site_fract_z
 _atom_site_occupancy
  Tb  Tb0  1  0.750000  0.810207  0.393400  1
  Tb  Tb1  1  0.750000  0.825469  0.893099  1
  Tb  Tb2  1  0.750000  0.502008  0.227540  1
  Tb  Tb3  1  0.750000  0.666753  0.559765  1
  Tb  Tb4  1  0.250000  0.189793  0.606600  1
  Tb  Tb5  1  0.250000  0.019891  0.273690  1
  Tb  Tb6  1  0.250000  0.333247  0.440235  1
  Tb  Tb7  1  0.750000  0.980109  0.726310  1
  Tb  Tb8  1  0.250000  0.497992  0.772460  1
  Tb  Tb9  1  0.250000  0.174531  0.106901  1
  Tb  Tb10  1  0.750000  0.663826  0.060532  1
  Tb  Tb11  1  0.250000  0.336174  0.939468  1
  Ni  Ni12  1  0.750000  0.465937  0.678052  1
  Ni  Ni13  1  0.250000  0.709449  0.653804  1
  Ni  Ni14  1  0.750000  0.133167  0.511942  1
  Ni  Ni15  1  0.750000  0.290551  0.346196  1
  Ni  Ni16  1  0.750000  0.295886  0.844775  1
  Ni  Ni17  1  0.250000  0.534063  0.321948  1
  Ni  Ni18  1  0.750000  0.133772  0.011667  1
  Ni  Ni19  1  0.250000  0.866833  0.488058  1
  Ni  Ni20  1  0.250000  0.029231  0.821427  1
  Ni  Ni21  1  0.250000  0.866228  0.988333  1
  Ni  Ni22  1  0.250000  0.704114  0.155225  1
  Ni  Ni23  1  0.750000  0.970769  0.178573  1
