# generated using pymatgen
data_Ca(NdS2)2
_symmetry_space_group_name_H-M   'P 1'
_cell_length_a   7.43120317
_cell_length_b   7.43120264
_cell_length_c   7.43120299
_cell_angle_alpha   109.64327499
_cell_angle_beta   109.64327396
_cell_angle_gamma   109.12766169
_symmetry_Int_Tables_number   1
_chemical_formula_structural   Ca(NdS2)2
_chemical_formula_sum   'Ca2 Nd4 S8'
_cell_volume   315.89572713
_cell_formula_units_Z   2
loop_
 _symmetry_equiv_pos_site_id
 _symmetry_equiv_pos_as_xyz
  1  'x, y, z'
loop_
 _atom_site_type_symbol
 _atom_site_label
 _atom_site_symmetry_multiplicity
 _atom_site_fract_x
 _atom_site_fract_y
 _atom_site_fract_z
 _atom_site_occupancy
  Ca  Ca0  1  0.625000  0.375000  0.250000  1
  Ca  Ca1  1  0.875000  0.125000  0.750000  1
  Nd  Nd2  1  0.121151  0.750000  0.871151  1
  Nd  Nd3  1  0.250000  0.621151  0.371151  1
  Nd  Nd4  1  0.378849  0.250000  0.628849  1
  Nd  Nd5  1  0.750000  0.878849  0.128849  1
  S  S6  1  0.003212  0.857621  0.502131  1
  S  S7  1  0.001082  0.355490  0.497869  1
  S  S8  1  0.142379  0.144510  0.145592  1
  S  S9  1  0.357621  0.503212  0.002131  1
  S  S10  1  0.496788  0.998918  0.854408  1
  S  S11  1  0.644510  0.642379  0.645592  1
  S  S12  1  0.498918  0.996788  0.354408  1
  S  S13  1  0.855490  0.501082  0.997869  1
