# generated using pymatgen
data_KAuS5
_symmetry_space_group_name_H-M   'P 1'
_cell_length_a   8.96847382
_cell_length_b   10.60600140
_cell_length_c   10.60600140
_cell_angle_alpha   62.63649602
_cell_angle_beta   64.98839383
_cell_angle_gamma   64.98839380
_symmetry_Int_Tables_number   1
_chemical_formula_structural   KAuS5
_chemical_formula_sum   'K4 Au4 S20'
_cell_volume   778.53579696
_cell_formula_units_Z   4
loop_
 _symmetry_equiv_pos_site_id
 _symmetry_equiv_pos_as_xyz
  1  'x, y, z'
loop_
 _atom_site_type_symbol
 _atom_site_label
 _atom_site_symmetry_multiplicity
 _atom_site_fract_x
 _atom_site_fract_y
 _atom_site_fract_z
 _atom_site_occupancy
  S  S0  1  0.187739  0.423290  0.791023  1
  S  S1  1  0.902052  0.076710  0.708977  1
  S  S2  1  0.312261  0.708977  0.076710  1
  S  S3  1  0.597948  0.791023  0.423290  1
  S  S4  1  0.812261  0.576710  0.208977  1
  S  S5  1  0.097948  0.923290  0.291023  1
  S  S6  1  0.687739  0.291023  0.923290  1
  S  S7  1  0.402052  0.208977  0.576710  1
  S  S8  1  0.457952  0.987382  0.711530  1
  S  S9  1  0.656864  0.512618  0.788470  1
  S  S10  1  0.042048  0.788470  0.512618  1
  S  S11  1  0.843136  0.711530  0.987382  1
  S  S12  1  0.542048  0.012618  0.288470  1
  S  S13  1  0.343136  0.487382  0.211530  1
  S  S14  1  0.957952  0.211530  0.487382  1
  S  S15  1  0.156864  0.288470  0.012618  1
  S  S16  1  0.427174  0.337169  0.662831  1
  S  S17  1  0.927174  0.162831  0.837169  1
  S  S18  1  0.072826  0.837169  0.162831  1
  S  S19  1  0.572826  0.662831  0.337169  1
  K  K20  1  0.750000  0.250000  0.250000  1
  K  K21  1  0.250000  0.750000  0.750000  1
  K  K22  1  0.500000  0.000000  0.000000  1
  K  K23  1  0.000000  0.500000  0.500000  1
  Au  Au24  1  0.750000  0.886866  0.613134  1
  Au  Au25  1  0.750000  0.613134  0.886866  1
  Au  Au26  1  0.250000  0.113134  0.386866  1
  Au  Au27  1  0.250000  0.386866  0.113134  1
