# generated using pymatgen
data_Na3BO3
_symmetry_space_group_name_H-M   'P 1'
_cell_length_a   5.73091560
_cell_length_b   7.57536318
_cell_length_c   8.07057171
_cell_angle_alpha   90.00000000
_cell_angle_beta   92.62669098
_cell_angle_gamma   90.00000000
_symmetry_Int_Tables_number   1
_chemical_formula_structural   Na3BO3
_chemical_formula_sum   'Na12 B4 O12'
_cell_volume   350.00579238
_cell_formula_units_Z   4
loop_
 _symmetry_equiv_pos_site_id
 _symmetry_equiv_pos_as_xyz
  1  'x, y, z'
loop_
 _atom_site_type_symbol
 _atom_site_label
 _atom_site_symmetry_multiplicity
 _atom_site_fract_x
 _atom_site_fract_y
 _atom_site_fract_z
 _atom_site_occupancy
  Na  Na0  1  0.373256  0.219044  0.778141  1
  Na  Na1  1  0.126744  0.719044  0.721859  1
  Na  Na2  1  0.626744  0.780956  0.221859  1
  Na  Na3  1  0.873256  0.280956  0.278141  1
  Na  Na4  1  0.252401  0.473671  0.043552  1
  Na  Na5  1  0.247599  0.973671  0.456448  1
  Na  Na6  1  0.747599  0.526329  0.956448  1
  Na  Na7  1  0.752401  0.026329  0.543552  1
  Na  Na8  1  0.121139  0.851099  0.069593  1
  Na  Na9  1  0.378861  0.351099  0.430407  1
  Na  Na10  1  0.878861  0.148901  0.930407  1
  Na  Na11  1  0.621139  0.648901  0.569593  1
  B  B12  1  0.431437  0.161514  0.153140  1
  B  B13  1  0.068563  0.661514  0.346860  1
  B  B14  1  0.568563  0.838486  0.846860  1
  B  B15  1  0.931437  0.338486  0.653140  1
  O  O16  1  0.188648  0.147532  0.126434  1
  O  O17  1  0.311352  0.647532  0.373566  1
  O  O18  1  0.811352  0.852468  0.873566  1
  O  O19  1  0.688648  0.352468  0.626434  1
  O  O20  1  0.560786  0.268877  0.049458  1
  O  O21  1  0.939214  0.768877  0.450542  1
  O  O22  1  0.439214  0.731123  0.950542  1
  O  O23  1  0.060786  0.231123  0.549458  1
  O  O24  1  0.542437  0.082166  0.291875  1
  O  O25  1  0.957563  0.582166  0.208125  1
  O  O26  1  0.457563  0.917834  0.708125  1
  O  O27  1  0.042437  0.417834  0.791875  1
