# generated using pymatgen
data_NdTi3Fe(CuO4)3
_symmetry_space_group_name_H-M   'P 1'
_cell_length_a   6.48237969
_cell_length_b   6.49069455
_cell_length_c   6.49069491
_cell_angle_alpha   109.49715603
_cell_angle_beta   109.44526687
_cell_angle_gamma   109.44527186
_symmetry_Int_Tables_number   1
_chemical_formula_structural   NdTi3Fe(CuO4)3
_chemical_formula_sum   'Nd1 Ti3 Fe1 Cu3 O12'
_cell_volume   210.29742408
_cell_formula_units_Z   1
loop_
 _symmetry_equiv_pos_site_id
 _symmetry_equiv_pos_as_xyz
  1  'x, y, z'
loop_
 _atom_site_type_symbol
 _atom_site_label
 _atom_site_symmetry_multiplicity
 _atom_site_fract_x
 _atom_site_fract_y
 _atom_site_fract_z
 _atom_site_occupancy
  Nd  Nd0  1  0.000000  0.000000  0.000000  1
  Ti  Ti1  1  0.500000  0.500000  0.500000  1
  Ti  Ti2  1  0.000000  0.000000  0.500000  1
  Ti  Ti3  1  0.000000  0.500000  0.000000  1
  Fe  Fe4  1  0.500000  0.000000  0.000000  1
  Cu  Cu5  1  0.000000  0.500000  0.500000  1
  Cu  Cu6  1  0.500000  0.000000  0.500000  1
  Cu  Cu7  1  0.500000  0.500000  0.000000  1
  O  O8  1  0.168624  0.692714  0.872848  1
  O  O9  1  0.124888  0.824050  0.299681  1
  O  O10  1  0.174792  0.299681  0.475630  1
  O  O11  1  0.295775  0.127152  0.819866  1
  O  O12  1  0.524090  0.819866  0.692714  1
  O  O13  1  0.300838  0.475630  0.175950  1
  O  O14  1  0.699162  0.524370  0.824050  1
  O  O15  1  0.475910  0.180134  0.307286  1
  O  O16  1  0.704225  0.872848  0.180134  1
  O  O17  1  0.825208  0.700319  0.524370  1
  O  O18  1  0.875112  0.175950  0.700319  1
  O  O19  1  0.831376  0.307286  0.127152  1
