# generated using pymatgen
data_Zn2PtO4
_symmetry_space_group_name_H-M   'P 1'
_cell_length_a   6.16659255
_cell_length_b   6.16659199
_cell_length_c   6.22777315
_cell_angle_alpha   59.67126539
_cell_angle_beta   59.67126323
_cell_angle_gamma   58.06757774
_symmetry_Int_Tables_number   1
_chemical_formula_structural   Zn2PtO4
_chemical_formula_sum   'Zn4 Pt2 O8'
_cell_volume   164.07683681
_cell_formula_units_Z   2
loop_
 _symmetry_equiv_pos_site_id
 _symmetry_equiv_pos_as_xyz
  1  'x, y, z'
loop_
 _atom_site_type_symbol
 _atom_site_label
 _atom_site_symmetry_multiplicity
 _atom_site_fract_x
 _atom_site_fract_y
 _atom_site_fract_z
 _atom_site_occupancy
  O  O0  1  0.392320  0.392320  0.376721  1
  O  O1  1  0.392320  0.392320  0.838639  1
  O  O2  1  0.400156  0.851485  0.374180  1
  O  O3  1  0.851485  0.400156  0.374180  1
  O  O4  1  0.398515  0.849844  0.875820  1
  O  O5  1  0.849844  0.398515  0.875820  1
  O  O6  1  0.857680  0.857680  0.411361  1
  O  O7  1  0.857680  0.857680  0.873279  1
  Pt  Pt8  1  0.625000  0.625000  0.125000  1
  Pt  Pt9  1  0.625000  0.625000  0.625000  1
  Zn  Zn10  1  0.974909  0.974909  0.025091  1
  Zn  Zn11  1  0.275091  0.275091  0.224909  1
  Zn  Zn12  1  0.125000  0.625000  0.625000  1
  Zn  Zn13  1  0.625000  0.125000  0.625000  1
