# generated using pymatgen
data_Dy5Sn3
_symmetry_space_group_name_H-M   'P 1'
_cell_length_a   8.96833709
_cell_length_b   8.96833709
_cell_length_c   6.56864407
_cell_angle_alpha   90.00000000
_cell_angle_beta   90.00000000
_cell_angle_gamma   120.00000003
_symmetry_Int_Tables_number   1
_chemical_formula_structural   Dy5Sn3
_chemical_formula_sum   'Dy10 Sn6'
_cell_volume   457.54120182
_cell_formula_units_Z   2
loop_
 _symmetry_equiv_pos_site_id
 _symmetry_equiv_pos_as_xyz
  1  'x, y, z'
loop_
 _atom_site_type_symbol
 _atom_site_label
 _atom_site_symmetry_multiplicity
 _atom_site_fract_x
 _atom_site_fract_y
 _atom_site_fract_z
 _atom_site_occupancy
  Sn  Sn0  1  0.395287  0.000000  0.750000  1
  Sn  Sn1  1  0.395287  0.395287  0.250000  1
  Sn  Sn2  1  0.000000  0.604713  0.250000  1
  Sn  Sn3  1  0.000000  0.395287  0.750000  1
  Sn  Sn4  1  0.604713  0.604713  0.750000  1
  Sn  Sn5  1  0.604713  0.000000  0.250000  1
  Dy  Dy6  1  0.000000  0.762109  0.750000  1
  Dy  Dy7  1  0.000000  0.237891  0.250000  1
  Dy  Dy8  1  0.762109  0.762109  0.250000  1
  Dy  Dy9  1  0.762109  0.000000  0.750000  1
  Dy  Dy10  1  0.237891  0.237891  0.750000  1
  Dy  Dy11  1  0.237891  0.000000  0.250000  1
  Dy  Dy12  1  0.333333  0.666667  0.500000  1
  Dy  Dy13  1  0.666667  0.333333  0.000000  1
  Dy  Dy14  1  0.666667  0.333333  0.500000  1
  Dy  Dy15  1  0.333333  0.666667  0.000000  1
