# generated using pymatgen
data_RbAg7S4
_symmetry_space_group_name_H-M   'P 1'
_cell_length_a   8.52521015
_cell_length_b   11.21437606
_cell_length_c   11.21437606
_cell_angle_alpha   90.00000000
_cell_angle_beta   90.00000000
_cell_angle_gamma   90.00000000
_symmetry_Int_Tables_number   1
_chemical_formula_structural   RbAg7S4
_chemical_formula_sum   'Rb4 Ag28 S16'
_cell_volume   1072.14944322
_cell_formula_units_Z   4
loop_
 _symmetry_equiv_pos_site_id
 _symmetry_equiv_pos_as_xyz
  1  'x, y, z'
loop_
 _atom_site_type_symbol
 _atom_site_label
 _atom_site_symmetry_multiplicity
 _atom_site_fract_x
 _atom_site_fract_y
 _atom_site_fract_z
 _atom_site_occupancy
  S  S0  1  0.624407  0.501838  0.304557  1
  S  S1  1  0.132751  0.992953  0.192038  1
  S  S2  1  0.132751  0.307962  0.992953  1
  S  S3  1  0.132751  0.192038  0.507047  1
  S  S4  1  0.624407  0.195443  0.501838  1
  S  S5  1  0.624407  0.304557  -0.001838  1
  S  S6  1  0.624407  -0.001838  0.195443  1
  S  S7  1  0.375593  0.498162  0.695443  1
  S  S8  1  0.375593  0.804557  0.498162  1
  S  S9  1  0.132751  0.507047  0.307962  1
  S  S10  1  0.375593  0.695443  1.001838  1
  S  S11  1  0.867249  0.492953  0.692038  1
  S  S12  1  0.867249  0.807962  0.492953  1
  S  S13  1  0.867249  0.692038  0.007047  1
  S  S14  1  0.867249  0.007047  0.807962  1
  S  S15  1  0.375593  1.001838  0.804557  1
  Rb  Rb16  1  0.124287  0.750000  0.750000  1
  Rb  Rb17  1  0.875713  0.250000  0.250000  1
  Rb  Rb18  1  0.623680  0.750000  0.750000  1
  Rb  Rb19  1  0.376320  0.250000  0.250000  1
  Ag  Ag20  1  0.123040  0.768937  0.112883  1
  Ag  Ag21  1  0.876960  0.887117  0.268937  1
  Ag  Ag22  1  0.876960  0.612883  0.231063  1
  Ag  Ag23  1  0.876960  0.231063  0.887117  1
  Ag  Ag24  1  0.876960  0.268937  0.612883  1
  Ag  Ag25  1  0.383689  0.892173  0.290343  1
  Ag  Ag26  1  0.383689  0.607827  0.209657  1
  Ag  Ag27  1  0.383689  0.209657  0.892173  1
  Ag  Ag28  1  0.616311  0.709657  0.392173  1
  Ag  Ag29  1  0.616311  0.107827  0.709657  1
  Ag  Ag30  1  0.616311  0.392173  0.790343  1
  Ag  Ag31  1  0.616311  0.790343  0.107827  1
  Ag  Ag32  1  0.123040  0.387117  0.768937  1
  Ag  Ag33  1  0.123040  0.112883  0.731063  1
  Ag  Ag34  1  0.123040  0.731063  0.387117  1
  Ag  Ag35  1  0.661344  0.977572  0.461588  1
  Ag  Ag36  1  0.661344  0.038412  0.977572  1
  Ag  Ag37  1  0.661344  0.461588  0.522428  1
  Ag  Ag38  1  0.661344  0.522428  0.038412  1
  Ag  Ag39  1  0.338656  0.022428  0.538412  1
  Ag  Ag40  1  0.338656  0.961588  0.022428  1
  Ag  Ag41  1  0.338656  0.538412  0.477572  1
  Ag  Ag42  1  0.338656  0.477572  0.961588  1
  Ag  Ag43  1  0.000000  0.500000  0.500000  1
  Ag  Ag44  1  0.000000  0.000000  0.500000  1
  Ag  Ag45  1  0.000000  0.500000  0.000000  1
  Ag  Ag46  1  0.000000  0.000000  0.000000  1
  Ag  Ag47  1  0.383689  0.290343  0.607827  1
