# generated using pymatgen
data_LiNbO3
_symmetry_space_group_name_H-M   'P 1'
_cell_length_a   5.59227437
_cell_length_b   5.59227438
_cell_length_c   5.59227437
_cell_angle_alpha   55.79691872
_cell_angle_beta   55.79691870
_cell_angle_gamma   55.79691872
_symmetry_Int_Tables_number   1
_chemical_formula_structural   LiNbO3
_chemical_formula_sum   'Li2 Nb2 O6'
_cell_volume   111.61334610
_cell_formula_units_Z   2
loop_
 _symmetry_equiv_pos_site_id
 _symmetry_equiv_pos_as_xyz
  1  'x, y, z'
loop_
 _atom_site_type_symbol
 _atom_site_label
 _atom_site_symmetry_multiplicity
 _atom_site_fract_x
 _atom_site_fract_y
 _atom_site_fract_z
 _atom_site_occupancy
  Li  Li0  1  0.282135  0.282135  0.282135  1
  Li  Li1  1  0.782136  0.782134  0.782135  1
  O  O2  1  0.720343  0.110264  0.362238  1
  O  O3  1  0.110263  0.362238  0.720342  1
  O  O4  1  0.362238  0.720342  0.110264  1
  O  O5  1  0.610263  0.220343  0.862238  1
  O  O6  1  0.220341  0.862238  0.610264  1
  O  O7  1  0.862238  0.610262  0.220343  1
  Nb  Nb8  1  0.998622  0.998622  0.998621  1
  Nb  Nb9  1  0.498621  0.498622  0.498622  1
