# generated using pymatgen
data_Ga2S3
_symmetry_space_group_name_H-M   'P 1'
_cell_length_a   7.54598966
_cell_length_b   11.26112954
_cell_length_c   6.47488820
_cell_angle_alpha   30.40548739
_cell_angle_beta   54.02136148
_cell_angle_gamma   59.55678314
_symmetry_Int_Tables_number   1
_chemical_formula_structural   Ga2S3
_chemical_formula_sum   'Ga4 S6'
_cell_volume   225.34921790
_cell_formula_units_Z   2
loop_
 _symmetry_equiv_pos_site_id
 _symmetry_equiv_pos_as_xyz
  1  'x, y, z'
loop_
 _atom_site_type_symbol
 _atom_site_label
 _atom_site_symmetry_multiplicity
 _atom_site_fract_x
 _atom_site_fract_y
 _atom_site_fract_z
 _atom_site_occupancy
  Ga  Ga0  1  0.003000  0.999543  0.015874  1
  Ga  Ga1  1  0.002448  0.673763  0.976189  1
  Ga  Ga2  1  0.503000  0.333790  0.014504  1
  Ga  Ga3  1  0.502448  0.659571  -0.002522  1
  S  S4  1  0.131872  0.996911  0.252938  1
  S  S5  1  0.120085  0.327130  0.253627  1
  S  S6  1  0.620085  0.006203  0.235017  1
  S  S7  1  0.117595  0.664450  0.258677  1
  S  S8  1  0.631872  0.336422  0.243671  1
  S  S9  1  0.617595  0.668884  0.252026  1
