# generated using pymatgen
data_Li4TaN3
_symmetry_space_group_name_H-M   'P 1'
_cell_length_a   4.93585409
_cell_length_b   8.97250088
_cell_length_c   8.97250087
_cell_angle_alpha   65.89480103
_cell_angle_beta   74.03473604
_cell_angle_gamma   74.03473598
_symmetry_Int_Tables_number   1
_chemical_formula_structural   Li4TaN3
_chemical_formula_sum   'Li16 Ta4 N12'
_cell_volume   342.67626066
_cell_formula_units_Z   4
loop_
 _symmetry_equiv_pos_site_id
 _symmetry_equiv_pos_as_xyz
  1  'x, y, z'
loop_
 _atom_site_type_symbol
 _atom_site_label
 _atom_site_symmetry_multiplicity
 _atom_site_fract_x
 _atom_site_fract_y
 _atom_site_fract_z
 _atom_site_occupancy
  Li  Li0  1  0.845437  0.250000  0.250000  1
  Li  Li1  1  0.654563  0.750000  0.750000  1
  Li  Li2  1  0.154563  0.750000  0.750000  1
  Li  Li3  1  0.345437  0.250000  0.250000  1
  Li  Li4  1  0.225966  0.524034  0.024034  1
  Li  Li5  1  0.274034  0.975966  0.475966  1
  Li  Li6  1  0.774034  0.475966  0.975966  1
  Li  Li7  1  0.725966  0.024034  0.524034  1
  Li  Li8  1  0.561937  0.950754  0.878560  1
  Li  Li9  1  0.891251  0.549246  0.621440  1
  Li  Li10  1  0.938063  0.121440  0.049246  1
  Li  Li11  1  0.608749  0.378560  0.450754  1
  Li  Li12  1  0.438063  0.049246  0.121440  1
  Li  Li13  1  0.391251  0.621440  0.549246  1
  Li  Li14  1  0.061937  0.878560  0.950754  1
  Li  Li15  1  0.108749  0.450754  0.378560  1
  N  N16  1  0.750000  0.134590  0.865410  1
  N  N17  1  0.155534  0.288242  0.038877  1
  N  N18  1  0.517347  0.538877  0.788242  1
  N  N19  1  0.344466  0.961123  0.711758  1
  N  N20  1  0.017347  0.788242  0.538877  1
  N  N21  1  0.844466  0.711758  0.961123  1
  N  N22  1  0.482653  0.461123  0.211758  1
  N  N23  1  0.655534  0.038877  0.288242  1
  N  N24  1  0.750000  0.634590  0.365410  1
  N  N25  1  0.250000  0.365410  0.634590  1
  N  N26  1  0.250000  0.865410  0.134590  1
  N  N27  1  0.982653  0.211758  0.461123  1
  Ta  Ta28  1  0.419360  0.330640  0.830640  1
  Ta  Ta29  1  0.080640  0.169360  0.669360  1
  Ta  Ta30  1  0.580640  0.669360  0.169360  1
  Ta  Ta31  1  0.919360  0.830640  0.330640  1
