# generated using pymatgen
data_BaLaMgRuO6
_symmetry_space_group_name_H-M   'P 1'
_cell_length_a   5.66834973
_cell_length_b   5.66831685
_cell_length_c   5.71135260
_cell_angle_alpha   119.75085458
_cell_angle_beta   119.75265054
_cell_angle_gamma   89.99944357
_symmetry_Int_Tables_number   1
_chemical_formula_structural   BaLaMgRuO6
_chemical_formula_sum   'Ba1 La1 Mg1 Ru1 O6'
_cell_volume   130.72650768
_cell_formula_units_Z   1
loop_
 _symmetry_equiv_pos_site_id
 _symmetry_equiv_pos_as_xyz
  1  'x, y, z'
loop_
 _atom_site_type_symbol
 _atom_site_label
 _atom_site_symmetry_multiplicity
 _atom_site_fract_x
 _atom_site_fract_y
 _atom_site_fract_z
 _atom_site_occupancy
  Ba  Ba0  1  0.749981  0.250015  0.500000  1
  La  La1  1  0.250018  0.749994  0.500007  1
  Mg  Mg2  1  0.999961  1.000009  0.999992  1
  O  O3  1  0.256389  0.256440  0.512793  1
  O  O4  1  0.230165  0.319987  0.036548  1
  O  O5  1  0.283451  0.769842  0.963470  1
  O  O6  1  0.743612  0.743602  0.487208  1
  O  O7  1  0.680002  0.193594  0.963427  1
  O  O8  1  0.806374  0.716571  0.036551  1
  Ru  Ru9  1  0.500046  0.499946  0.000005  1
