# generated using pymatgen
data_Ce(SmS2)2
_symmetry_space_group_name_H-M   'P 1'
_cell_length_a   7.38714958
_cell_length_b   7.38715024
_cell_length_c   7.38714987
_cell_angle_alpha   109.54758022
_cell_angle_beta   109.54758195
_cell_angle_gamma   109.31860943
_symmetry_Int_Tables_number   1
_chemical_formula_structural   Ce(SmS2)2
_chemical_formula_sum   'Ce2 Sm4 S8'
_cell_volume   310.31768248
_cell_formula_units_Z   2
loop_
 _symmetry_equiv_pos_site_id
 _symmetry_equiv_pos_as_xyz
  1  'x, y, z'
loop_
 _atom_site_type_symbol
 _atom_site_label
 _atom_site_symmetry_multiplicity
 _atom_site_fract_x
 _atom_site_fract_y
 _atom_site_fract_z
 _atom_site_occupancy
  Ce  Ce0  1  0.625000  0.375000  0.250000  1
  Ce  Ce1  1  0.875000  0.125000  0.750000  1
  Sm  Sm2  1  0.128477  0.750000  0.878477  1
  Sm  Sm3  1  0.250000  0.628477  0.378477  1
  Sm  Sm4  1  0.371523  0.250000  0.621523  1
  Sm  Sm5  1  0.750000  0.871523  0.121523  1
  S  S6  1  0.001882  0.851559  0.499816  1
  S  S7  1  0.002066  0.351743  0.500184  1
  S  S8  1  0.497934  0.998118  0.349677  1
  S  S9  1  0.148441  0.148257  0.150323  1
  S  S10  1  0.351559  0.501882  -0.000184  1
  S  S11  1  0.648257  0.648441  0.650323  1
  S  S12  1  0.498118  0.997934  0.849677  1
  S  S13  1  0.851743  0.502066  0.000184  1
