# generated using pymatgen
data_Er6Ni2Sn
_symmetry_space_group_name_H-M   'P 1'
_cell_length_a   8.34028014
_cell_length_b   8.34028013
_cell_length_c   8.34028014
_cell_angle_alpha   105.67608880
_cell_angle_beta   109.76607356
_cell_angle_gamma   113.05537541
_symmetry_Int_Tables_number   1
_chemical_formula_structural   Er6Ni2Sn
_chemical_formula_sum   'Er12 Ni4 Sn2'
_cell_volume   444.75024022
_cell_formula_units_Z   2
loop_
 _symmetry_equiv_pos_site_id
 _symmetry_equiv_pos_as_xyz
  1  'x, y, z'
loop_
 _atom_site_type_symbol
 _atom_site_label
 _atom_site_symmetry_multiplicity
 _atom_site_fract_x
 _atom_site_fract_y
 _atom_site_fract_z
 _atom_site_occupancy
  Ni  Ni0  1  0.000000  0.876446  0.876446  1
  Ni  Ni1  1  0.000000  0.123554  0.123554  1
  Ni  Ni2  1  0.150550  0.500000  0.650550  1
  Ni  Ni3  1  0.849450  0.500000  0.349450  1
  Sn  Sn4  1  0.500000  0.000000  0.500000  1
  Sn  Sn5  1  0.500000  0.500000  0.000000  1
  Er  Er6  1  0.190638  0.516106  0.325469  1
  Er  Er7  1  0.190638  0.865169  0.674531  1
  Er  Er8  1  0.704449  0.733345  0.437794  1
  Er  Er9  1  0.295551  0.266655  0.562206  1
  Er  Er10  1  0.704449  0.266655  0.971104  1
  Er  Er11  1  0.295551  0.733345  0.028896  1
  Er  Er12  1  0.809362  0.134831  0.325469  1
  Er  Er13  1  0.809362  0.483894  0.674531  1
  Er  Er14  1  0.390557  0.208011  0.182546  1
  Er  Er15  1  0.025465  0.208011  0.817454  1
  Er  Er16  1  0.974535  0.791989  0.182546  1
  Er  Er17  1  0.609443  0.791989  0.817454  1
