# generated using pymatgen
data_H2S
_symmetry_space_group_name_H-M   'P 1'
_cell_length_a   5.45928477
_cell_length_b   6.16520737
_cell_length_c   6.09328581
_cell_angle_alpha   83.65908685
_cell_angle_beta   92.54746334
_cell_angle_gamma   91.78169759
_symmetry_Int_Tables_number   1
_chemical_formula_structural   H2S
_chemical_formula_sum   'H8 S4'
_cell_volume   203.55862451
_cell_formula_units_Z   4
loop_
 _symmetry_equiv_pos_site_id
 _symmetry_equiv_pos_as_xyz
  1  'x, y, z'
loop_
 _atom_site_type_symbol
 _atom_site_label
 _atom_site_symmetry_multiplicity
 _atom_site_fract_x
 _atom_site_fract_y
 _atom_site_fract_z
 _atom_site_occupancy
  H  H0  1  0.297182  0.068983  0.395227  1
  H  H1  1  0.415959  0.213743  0.111914  1
  H  H2  1  0.369592  0.604921  0.699423  1
  H  H3  1  0.611914  0.066364  0.764529  1
  H  H4  1  0.886452  0.214541  0.912635  1
  H  H5  1  0.925651  0.908179  0.192199  1
  H  H6  1  0.901475  0.593347  0.185295  1
  H  H7  1  0.051762  0.733930  0.599780  1
  S  S8  1  0.257153  0.258103  0.264240  1
  S  S9  1  0.224990  0.758391  0.764035  1
  S  S10  1  0.737960  0.258901  0.730241  1
  S  S11  1  0.761911  0.746598  0.256482  1
