# generated using pymatgen
data_Cu11Sb3
_symmetry_space_group_name_H-M   'P 1'
_cell_length_a   4.32139945
_cell_length_b   4.82201708
_cell_length_c   9.92445085
_cell_angle_alpha   104.05990325
_cell_angle_beta   90.00000000
_cell_angle_gamma   90.00000000
_symmetry_Int_Tables_number   1
_chemical_formula_structural   Cu11Sb3
_chemical_formula_sum   'Cu11 Sb3'
_cell_volume   200.60894728
_cell_formula_units_Z   1
loop_
 _symmetry_equiv_pos_site_id
 _symmetry_equiv_pos_as_xyz
  1  'x, y, z'
loop_
 _atom_site_type_symbol
 _atom_site_label
 _atom_site_symmetry_multiplicity
 _atom_site_fract_x
 _atom_site_fract_y
 _atom_site_fract_z
 _atom_site_occupancy
  Cu  Cu0  1  0.000000  0.803498  0.000000  1
  Cu  Cu1  1  0.000000  0.277066  0.854107  1
  Cu  Cu2  1  0.000000  0.422959  0.145893  1
  Cu  Cu3  1  0.000000  0.125632  0.572109  1
  Cu  Cu4  1  0.000000  0.553523  0.427891  1
  Cu  Cu5  1  0.500000  0.581087  0.853384  1
  Cu  Cu6  1  0.500000  0.727703  0.146616  1
  Cu  Cu7  1  0.500000  0.432859  0.560172  1
  Cu  Cu8  1  0.500000  0.872687  0.439828  1
  Cu  Cu9  1  0.500000  0.049694  0.704499  1
  Cu  Cu10  1  0.500000  0.345195  0.295501  1
  Sb  Sb11  1  0.500000  0.165485  0.000000  1
  Sb  Sb12  1  0.000000  0.695493  0.708372  1
  Sb  Sb13  1  0.000000  0.987121  0.291628  1
