# generated using pymatgen
data_SrNd5S8
_symmetry_space_group_name_H-M   'P 1'
_cell_length_a   7.48371954
_cell_length_b   7.48372026
_cell_length_c   7.48371937
_cell_angle_alpha   109.48423423
_cell_angle_beta   109.44519527
_cell_angle_gamma   109.48423732
_symmetry_Int_Tables_number   1
_chemical_formula_structural   SrNd5S8
_chemical_formula_sum   'Sr1 Nd5 S8'
_cell_volume   322.64918680
_cell_formula_units_Z   1
loop_
 _symmetry_equiv_pos_site_id
 _symmetry_equiv_pos_as_xyz
  1  'x, y, z'
loop_
 _atom_site_type_symbol
 _atom_site_label
 _atom_site_symmetry_multiplicity
 _atom_site_fract_x
 _atom_site_fract_y
 _atom_site_fract_z
 _atom_site_occupancy
  Nd  Nd0  1  0.246920  0.623198  0.371597  1
  Nd  Nd1  1  0.375000  0.250000  0.625000  1
  Nd  Nd2  1  0.748398  0.876802  0.123722  1
  Nd  Nd3  1  0.628403  0.375323  0.251601  1
  Nd  Nd4  1  0.876278  0.124677  0.753080  1
  S  S5  1  0.996948  0.853587  0.493212  1
  S  S6  1  0.150282  0.154664  0.153598  1
  S  S7  1  0.506788  0.003735  0.360375  1
  S  S8  1  0.356640  0.496265  0.003052  1
  S  S9  1  0.639625  0.646413  0.643360  1
  S  S10  1  0.504383  0.003316  0.849718  1
  S  S11  1  0.846402  0.496684  0.001066  1
  S  S12  1  0.998934  0.345336  0.495617  1
  Sr  Sr13  1  0.125000  0.750000  0.875000  1
