# generated using pymatgen
data_V(HO)2
_symmetry_space_group_name_H-M   'P 1'
_cell_length_a   3.32437266
_cell_length_b   5.41033392
_cell_length_c   4.92531373
_cell_angle_alpha   90.05419712
_cell_angle_beta   90.00000840
_cell_angle_gamma   90.00001227
_symmetry_Int_Tables_number   1
_chemical_formula_structural   V(HO)2
_chemical_formula_sum   'V2 H4 O4'
_cell_volume   88.58648641
_cell_formula_units_Z   2
loop_
 _symmetry_equiv_pos_site_id
 _symmetry_equiv_pos_as_xyz
  1  'x, y, z'
loop_
 _atom_site_type_symbol
 _atom_site_label
 _atom_site_symmetry_multiplicity
 _atom_site_fract_x
 _atom_site_fract_y
 _atom_site_fract_z
 _atom_site_occupancy
  V  V0  1  0.499983  0.499997  0.500006  1
  V  V1  1  0.000003  0.000009  0.999995  1
  H  H2  1  0.500003  0.333659  0.006144  1
  H  H3  1  0.500003  0.666406  0.993922  1
  H  H4  1  0.000003  0.833333  0.493915  1
  H  H5  1  0.000001  0.166616  0.506080  1
  O  O6  1  0.500003  0.768626  0.157721  1
  O  O7  1  0.000002  0.268597  0.342471  1
  O  O8  1  0.000001  0.731398  0.657521  1
  O  O9  1  0.500004  0.231360  0.842227  1
