# generated using pymatgen
data_Li5SiAs3
_symmetry_space_group_name_H-M   'P 1'
_cell_length_a   8.55326733
_cell_length_b   12.76133452
_cell_length_c   10.45320379
_cell_angle_alpha   34.99515290
_cell_angle_beta   35.09064183
_cell_angle_gamma   59.67423317
_symmetry_Int_Tables_number   1
_chemical_formula_structural   Li5SiAs3
_chemical_formula_sum   'Li10 Si2 As6'
_cell_volume   325.41641471
_cell_formula_units_Z   2
loop_
 _symmetry_equiv_pos_site_id
 _symmetry_equiv_pos_as_xyz
  1  'x, y, z'
loop_
 _atom_site_type_symbol
 _atom_site_label
 _atom_site_symmetry_multiplicity
 _atom_site_fract_x
 _atom_site_fract_y
 _atom_site_fract_z
 _atom_site_occupancy
  As  As0  1  0.000000  0.000000  0.000000  1
  As  As1  1  0.008545  0.314066  0.001339  1
  As  As2  1  0.500000  0.000000  0.000000  1
  As  As3  1  0.991455  0.685934  0.998661  1
  As  As4  1  0.453422  0.314066  0.056463  1
  As  As5  1  0.546578  0.685934  0.943537  1
  Li  Li6  1  0.501940  0.000000  0.248060  1
  Li  Li7  1  0.016132  0.674258  0.236834  1
  Li  Li8  1  0.508183  0.332665  0.246890  1
  Li  Li9  1  0.983868  0.325742  0.763166  1
  Li  Li10  1  0.500041  0.667335  0.244886  1
  Li  Li11  1  0.498060  1.000000  0.751940  1
  Li  Li12  1  0.012572  0.674258  0.740394  1
  Li  Li13  1  0.987428  0.325742  0.259606  1
  Li  Li14  1  0.499959  0.332665  0.755115  1
  Li  Li15  1  0.491817  0.667335  0.753110  1
  Si  Si16  1  0.013138  1.000000  0.736862  1
  Si  Si17  1  0.986862  0.000000  0.263138  1
