# generated using pymatgen
data_VTeO4
_symmetry_space_group_name_H-M   'P 1'
_cell_length_a   5.04153791
_cell_length_b   5.13994421
_cell_length_c   12.37733038
_cell_angle_alpha   97.10295554
_cell_angle_beta   90.00000000
_cell_angle_gamma   90.00000000
_symmetry_Int_Tables_number   1
_chemical_formula_structural   VTeO4
_chemical_formula_sum   'V4 Te4 O16'
_cell_volume   318.27505637
_cell_formula_units_Z   4
loop_
 _symmetry_equiv_pos_site_id
 _symmetry_equiv_pos_as_xyz
  1  'x, y, z'
loop_
 _atom_site_type_symbol
 _atom_site_label
 _atom_site_symmetry_multiplicity
 _atom_site_fract_x
 _atom_site_fract_y
 _atom_site_fract_z
 _atom_site_occupancy
  O  O0  1  0.109649  0.779027  0.835901  1
  O  O1  1  0.609649  0.720973  0.664099  1
  O  O2  1  0.890351  0.220973  0.164099  1
  O  O3  1  0.390351  0.279027  0.335901  1
  O  O4  1  0.421028  0.361778  0.798200  1
  O  O5  1  0.921028  0.138222  0.701800  1
  O  O6  1  0.578972  0.638222  0.201800  1
  O  O7  1  0.078972  0.861778  0.298200  1
  O  O8  1  0.048198  0.699271  0.068300  1
  O  O9  1  0.548198  0.800729  0.431700  1
  O  O10  1  0.951802  0.300729  0.931700  1
  O  O11  1  0.451802  0.199271  0.568300  1
  O  O12  1  0.949930  0.226419  0.483132  1
  O  O13  1  0.449930  0.273581  0.016868  1
  O  O14  1  0.050070  0.773581  0.516868  1
  O  O15  1  0.550070  0.726419  0.983132  1
  V  V16  1  0.273607  0.545507  0.932854  1
  V  V17  1  0.773607  0.954493  0.567146  1
  V  V18  1  0.726393  0.454493  0.067146  1
  V  V19  1  0.226393  0.045507  0.432854  1
  Te  Te20  1  0.303571  0.490581  0.666580  1
  Te  Te21  1  0.803571  0.009419  0.833420  1
  Te  Te22  1  0.696429  0.509419  0.333420  1
  Te  Te23  1  0.196429  0.990581  0.166580  1
