# generated using pymatgen
data_Ho12InPt7
_symmetry_space_group_name_H-M   'P 1'
_cell_length_a   10.91414706
_cell_length_b   10.91414707
_cell_length_c   10.91414706
_cell_angle_alpha   97.02440078
_cell_angle_beta   116.03078366
_cell_angle_gamma   116.03078365
_symmetry_Int_Tables_number   1
_chemical_formula_structural   Ho12InPt7
_chemical_formula_sum   'Ho24 In2 Pt14'
_cell_volume   966.57443984
_cell_formula_units_Z   2
loop_
 _symmetry_equiv_pos_site_id
 _symmetry_equiv_pos_as_xyz
  1  'x, y, z'
loop_
 _atom_site_type_symbol
 _atom_site_label
 _atom_site_symmetry_multiplicity
 _atom_site_fract_x
 _atom_site_fract_y
 _atom_site_fract_z
 _atom_site_occupancy
  In  In0  1  0.000000  0.500000  0.500000  1
  In  In1  1  0.000000  0.000000  0.000000  1
  Ho  Ho2  1  0.133701  0.852451  0.571710  1
  Ho  Ho3  1  0.133701  0.561991  0.281249  1
  Ho  Ho4  1  0.866299  0.147549  0.428290  1
  Ho  Ho5  1  0.719259  0.938009  0.071710  1
  Ho  Ho6  1  0.719259  0.281249  0.147549  1
  Ho  Ho7  1  0.280741  0.428290  0.561991  1
  Ho  Ho8  1  0.719259  0.647549  0.781250  1
  Ho  Ho9  1  0.133701  0.781250  0.061991  1
  Ho  Ho10  1  0.866299  0.928290  0.647549  1
  Ho  Ho11  1  0.866299  0.438009  0.718750  1
  Ho  Ho12  1  0.854235  0.677117  0.177117  1
  Ho  Ho13  1  0.280741  0.061991  0.928290  1
  Ho  Ho14  1  0.280741  0.718750  0.852451  1
  Ho  Ho15  1  0.719259  0.571710  0.438009  1
  Ho  Ho16  1  0.500000  0.633281  0.133281  1
  Ho  Ho17  1  0.500000  0.133281  0.633281  1
  Ho  Ho18  1  0.500000  0.866719  0.366719  1
  Ho  Ho19  1  0.500000  0.366719  0.866719  1
  Ho  Ho20  1  0.500000  0.177117  0.322883  1
  Ho  Ho21  1  0.866299  0.218750  0.938009  1
  Ho  Ho22  1  0.500000  0.822883  0.677117  1
  Ho  Ho23  1  0.145765  0.322883  0.822883  1
  Ho  Ho24  1  0.280741  0.352451  0.218750  1
  Ho  Ho25  1  0.133701  0.071710  0.352451  1
  Pt  Pt26  1  0.500000  0.020785  0.863785  1
  Pt  Pt27  1  0.500000  0.979215  0.136215  1
  Pt  Pt28  1  0.500000  0.636215  0.479215  1
  Pt  Pt29  1  0.157000  0.520785  0.020785  1
  Pt  Pt30  1  0.157000  0.136215  0.636215  1
  Pt  Pt31  1  0.843000  0.479215  0.979215  1
  Pt  Pt32  1  0.756646  0.128323  0.628323  1
  Pt  Pt33  1  0.500000  0.628323  0.871677  1
  Pt  Pt34  1  0.500000  0.371677  0.128323  1
  Pt  Pt35  1  0.243354  0.871677  0.371677  1
  Pt  Pt36  1  0.000000  0.250000  0.250000  1
  Pt  Pt37  1  0.000000  0.750000  0.750000  1
  Pt  Pt38  1  0.500000  0.363785  0.520785  1
  Pt  Pt39  1  0.843000  0.863785  0.363785  1
