# generated using pymatgen
data_Cd2(TeO3)3
_symmetry_space_group_name_H-M   'P 1'
_cell_length_a   7.42432594
_cell_length_b   9.51033862
_cell_length_c   11.53191931
_cell_angle_alpha   101.09411582
_cell_angle_beta   90.00000000
_cell_angle_gamma   90.00000000
_symmetry_Int_Tables_number   1
_chemical_formula_structural   Cd2(TeO3)3
_chemical_formula_sum   'Cd8 Te12 O36'
_cell_volume   799.02782906
_cell_formula_units_Z   4
loop_
 _symmetry_equiv_pos_site_id
 _symmetry_equiv_pos_as_xyz
  1  'x, y, z'
loop_
 _atom_site_type_symbol
 _atom_site_label
 _atom_site_symmetry_multiplicity
 _atom_site_fract_x
 _atom_site_fract_y
 _atom_site_fract_z
 _atom_site_occupancy
  O  O0  1  0.081797  0.186525  0.838518  1
  O  O1  1  0.581797  0.313475  0.661482  1
  O  O2  1  0.918203  0.813475  0.161482  1
  O  O3  1  0.418203  0.686525  0.338518  1
  O  O4  1  0.879656  0.128262  0.535972  1
  O  O5  1  0.379656  0.371738  0.964028  1
  O  O6  1  0.120344  0.871738  0.464028  1
  O  O7  1  0.620344  0.628262  0.035972  1
  O  O8  1  0.368309  0.118623  0.529760  1
  O  O9  1  0.868309  0.381377  0.970240  1
  O  O10  1  0.631691  0.881377  0.470240  1
  O  O11  1  0.131691  0.618623  0.029760  1
  O  O12  1  0.160768  0.325088  0.657040  1
  O  O13  1  0.660768  0.174912  0.842960  1
  O  O14  1  0.839232  0.674912  0.342960  1
  O  O15  1  0.339232  0.825088  0.157040  1
  O  O16  1  0.869448  0.559682  0.783074  1
  O  O17  1  0.369448  0.940318  0.716926  1
  O  O18  1  0.130552  0.440318  0.216926  1
  O  O19  1  0.630552  0.059682  0.283074  1
  O  O20  1  0.376177  0.271582  0.307466  1
  O  O21  1  0.876177  0.228418  0.192534  1
  O  O22  1  0.623823  0.728418  0.692534  1
  O  O23  1  0.123823  0.771582  0.807466  1
  O  O24  1  0.064892  0.341428  0.419233  1
  O  O25  1  0.564892  0.158572  0.080767  1
  O  O26  1  0.935108  0.658572  0.580767  1
  O  O27  1  0.435108  0.841428  0.919233  1
  O  O28  1  0.688180  0.332766  0.418344  1
  O  O29  1  0.188180  0.167234  0.081656  1
  O  O30  1  0.311820  0.667234  0.581656  1
  O  O31  1  0.811820  0.832766  0.918344  1
  O  O32  1  0.119190  0.065958  0.286064  1
  O  O33  1  0.619190  0.434042  0.213936  1
  O  O34  1  0.880810  0.934042  0.713936  1
  O  O35  1  0.380810  0.565958  0.786064  1
  Cd  Cd36  1  0.375995  0.954123  0.352526  1
  Cd  Cd37  1  0.875995  0.545877  0.147474  1
  Cd  Cd38  1  0.624005  0.045877  0.647474  1
  Cd  Cd39  1  0.124005  0.454123  0.852526  1
  Cd  Cd40  1  0.374831  0.551847  0.147219  1
  Cd  Cd41  1  0.874831  0.948153  0.352781  1
  Cd  Cd42  1  0.625169  0.448153  0.852781  1
  Cd  Cd43  1  0.125169  0.051847  0.647219  1
  Te  Te44  1  0.873828  0.748003  0.750026  1
  Te  Te45  1  0.373828  0.751997  0.749974  1
  Te  Te46  1  0.126172  0.251997  0.249974  1
  Te  Te47  1  0.626172  0.248003  0.250026  1
  Te  Te48  1  0.621085  0.827766  0.039912  1
  Te  Te49  1  0.121085  0.672234  0.460088  1
  Te  Te50  1  0.378915  0.172234  0.960088  1
  Te  Te51  1  0.878915  0.327766  0.539912  1
  Te  Te52  1  0.123836  0.823698  0.061280  1
  Te  Te53  1  0.623836  0.676302  0.438720  1
  Te  Te54  1  0.876164  0.176302  0.938720  1
  Te  Te55  1  0.376164  0.323698  0.561280  1
