# generated using pymatgen
data_NaYF4
_symmetry_space_group_name_H-M   'P 1'
_cell_length_a   6.07731243
_cell_length_b   6.07731295
_cell_length_c   7.09274477
_cell_angle_alpha   90.00000000
_cell_angle_beta   90.00000000
_cell_angle_gamma   119.99999710
_symmetry_Int_Tables_number   1
_chemical_formula_structural   NaYF4
_chemical_formula_sum   'Na3 Y3 F12'
_cell_volume   226.86533513
_cell_formula_units_Z   3
loop_
 _symmetry_equiv_pos_site_id
 _symmetry_equiv_pos_as_xyz
  1  'x, y, z'
loop_
 _atom_site_type_symbol
 _atom_site_label
 _atom_site_symmetry_multiplicity
 _atom_site_fract_x
 _atom_site_fract_y
 _atom_site_fract_z
 _atom_site_occupancy
  F  F0  1  0.088304  0.694003  0.118627  1
  F  F1  1  0.109174  0.724165  0.617946  1
  F  F2  1  0.305997  0.394301  0.118627  1
  F  F3  1  0.275835  0.385008  0.617946  1
  F  F4  1  0.605699  0.911696  0.118627  1
  F  F5  1  0.614992  0.890826  0.617946  1
  F  F6  1  0.398742  0.073486  0.353691  1
  F  F7  1  0.397606  0.073039  0.882650  1
  F  F8  1  0.674744  0.601258  0.353691  1
  F  F9  1  0.675433  0.602394  0.882650  1
  F  F10  1  0.926514  0.325256  0.353691  1
  F  F11  1  0.926961  0.324567  0.882650  1
  Na  Na12  1  0.000000  0.000000  0.392017  1
  Na  Na13  1  0.000000  0.000000  0.820768  1
  Na  Na14  1  0.666667  0.333333  0.618022  1
  Y  Y15  1  0.333333  0.666667  0.371477  1
  Y  Y16  1  0.333333  0.666667  0.865270  1
  Y  Y17  1  0.666667  0.333333  0.117702  1
