# generated using pymatgen
data_CS2N
_symmetry_space_group_name_H-M   'P 1'
_cell_length_a   8.49352787
_cell_length_b   9.16604662
_cell_length_c   10.99268723
_cell_angle_alpha   110.07496032
_cell_angle_beta   90.00000000
_cell_angle_gamma   90.00000000
_symmetry_Int_Tables_number   1
_chemical_formula_structural   CS2N
_chemical_formula_sum   'C8 S16 N8'
_cell_volume   803.80858604
_cell_formula_units_Z   8
loop_
 _symmetry_equiv_pos_site_id
 _symmetry_equiv_pos_as_xyz
  1  'x, y, z'
loop_
 _atom_site_type_symbol
 _atom_site_label
 _atom_site_symmetry_multiplicity
 _atom_site_fract_x
 _atom_site_fract_y
 _atom_site_fract_z
 _atom_site_occupancy
  C  C0  1  0.546194  0.386505  0.185474  1
  C  C1  1  0.046194  0.613495  0.314526  1
  C  C2  1  0.453806  0.613495  0.814526  1
  C  C3  1  0.953806  0.386505  0.685474  1
  C  C4  1  0.656630  0.115447  0.387821  1
  C  C5  1  0.156630  0.884553  0.112179  1
  C  C6  1  0.343370  0.884553  0.612179  1
  C  C7  1  0.843370  0.115447  0.887821  1
  N  N8  1  0.441937  0.720703  0.910658  1
  N  N9  1  0.058063  0.720703  0.410658  1
  N  N10  1  0.558063  0.279297  0.089342  1
  N  N11  1  0.929476  0.219597  0.899243  1
  N  N12  1  0.429476  0.780403  0.600757  1
  N  N13  1  0.070524  0.780403  0.100757  1
  N  N14  1  0.570524  0.219597  0.399243  1
  N  N15  1  0.941937  0.279297  0.589342  1
  S  S16  1  0.813362  0.797568  0.709799  1
  S  S17  1  0.482460  0.717434  0.256310  1
  S  S18  1  0.017540  0.717434  0.756310  1
  S  S19  1  0.517540  0.282566  0.743690  1
  S  S20  1  0.970302  0.534873  0.826831  1
  S  S21  1  0.470303  0.465127  0.673169  1
  S  S22  1  0.029698  0.465127  0.173169  1
  S  S23  1  0.529698  0.534873  0.326831  1
  S  S24  1  0.313362  0.202432  0.790201  1
  S  S25  1  0.186638  0.202432  0.290201  1
  S  S26  1  0.686638  0.797568  0.209799  1
  S  S27  1  0.720572  0.967818  0.877225  1
  S  S28  1  0.220572  0.032182  0.622775  1
  S  S29  1  0.279428  0.032182  0.122775  1
  S  S30  1  0.779428  0.967818  0.377225  1
  S  S31  1  0.982460  0.282566  0.243690  1
