# generated using pymatgen
data_Nd2TeO6
_symmetry_space_group_name_H-M   'P 1'
_cell_length_a   5.48401078
_cell_length_b   9.41829027
_cell_length_c   10.31116657
_cell_angle_alpha   90.00000000
_cell_angle_beta   89.99999617
_cell_angle_gamma   90.00000000
_symmetry_Int_Tables_number   1
_chemical_formula_structural   Nd2TeO6
_chemical_formula_sum   'Nd8 Te4 O24'
_cell_volume   532.57180871
_cell_formula_units_Z   4
loop_
 _symmetry_equiv_pos_site_id
 _symmetry_equiv_pos_as_xyz
  1  'x, y, z'
loop_
 _atom_site_type_symbol
 _atom_site_label
 _atom_site_symmetry_multiplicity
 _atom_site_fract_x
 _atom_site_fract_y
 _atom_site_fract_z
 _atom_site_occupancy
  O  O0  1  0.752561  0.414270  0.491791  1
  O  O1  1  0.252561  0.085729  0.508209  1
  O  O2  1  0.247439  0.914270  0.008209  1
  O  O3  1  0.747439  0.585729  0.991791  1
  O  O4  1  0.721740  0.112056  0.564857  1
  O  O5  1  0.221740  0.387944  0.435143  1
  O  O6  1  0.278260  0.612056  0.935143  1
  O  O7  1  0.778260  0.887944  0.064857  1
  O  O8  1  0.808281  0.360779  0.824205  1
  O  O9  1  0.308281  0.139221  0.175795  1
  O  O10  1  0.191719  0.860779  0.675795  1
  O  O11  1  0.691719  0.639221  0.324205  1
  O  O12  1  0.667119  0.947204  0.787570  1
  O  O13  1  0.167120  0.552796  0.212430  1
  O  O14  1  0.332881  0.447204  0.712430  1
  O  O15  1  0.832880  0.052796  0.287570  1
  O  O16  1  0.681016  0.636509  0.742918  1
  O  O17  1  0.181016  0.863491  0.257082  1
  O  O18  1  0.318984  0.136509  0.757082  1
  O  O19  1  0.818984  0.363491  0.242918  1
  O  O20  1  0.573511  0.849715  0.523613  1
  O  O21  1  0.073511  0.650285  0.476387  1
  O  O22  1  0.426489  0.349715  0.976387  1
  O  O23  1  0.926489  0.150285  0.023613  1
  Te  Te24  1  0.041280  0.004796  0.143400  1
  Te  Te25  1  0.541280  0.495204  0.856600  1
  Te  Te26  1  0.958720  0.504796  0.356600  1
  Te  Te27  1  0.458720  0.995204  0.643400  1
  Nd  Nd28  1  0.524774  0.103970  0.958678  1
  Nd  Nd29  1  0.024774  0.396030  0.041322  1
  Nd  Nd30  1  0.475226  0.603970  0.541322  1
  Nd  Nd31  1  0.975226  0.896030  0.458678  1
  Nd  Nd32  1  0.533742  0.217064  0.362422  1
  Nd  Nd33  1  0.033742  0.282936  0.637578  1
  Nd  Nd34  1  0.466258  0.717064  0.137578  1
  Nd  Nd35  1  0.966258  0.782936  0.862422  1
