# generated using pymatgen
data_Ca(GdS2)2
_symmetry_space_group_name_H-M   'P 1'
_cell_length_a   7.31119854
_cell_length_b   7.31119891
_cell_length_c   7.31119812
_cell_angle_alpha   109.51839765
_cell_angle_beta   109.51840501
_cell_angle_gamma   109.37690262
_symmetry_Int_Tables_number   1
_chemical_formula_structural   Ca(GdS2)2
_chemical_formula_sum   'Ca2 Gd4 S8'
_cell_volume   300.84510160
_cell_formula_units_Z   2
loop_
 _symmetry_equiv_pos_site_id
 _symmetry_equiv_pos_as_xyz
  1  'x, y, z'
loop_
 _atom_site_type_symbol
 _atom_site_label
 _atom_site_symmetry_multiplicity
 _atom_site_fract_x
 _atom_site_fract_y
 _atom_site_fract_z
 _atom_site_occupancy
  Ca  Ca0  1  0.625000  0.375000  0.250000  1
  Ca  Ca1  1  0.875000  0.125000  0.750000  1
  Gd  Gd2  1  0.121697  0.750000  0.871697  1
  Gd  Gd3  1  0.250000  0.621697  0.371697  1
  Gd  Gd4  1  0.378303  0.250000  0.628303  1
  Gd  Gd5  1  0.750000  0.878303  0.128303  1
  S  S6  1  0.005656  0.861553  0.500697  1
  S  S7  1  0.004959  0.360856  0.499303  1
  S  S8  1  0.494344  0.995041  0.855897  1
  S  S9  1  0.138447  0.139144  0.144103  1
  S  S10  1  0.361553  0.505656  0.000697  1
  S  S11  1  0.639144  0.638447  0.644103  1
  S  S12  1  0.495041  0.994344  0.355897  1
  S  S13  1  0.860856  0.504959  0.999303  1
