# generated using pymatgen
data_PdSCl
_symmetry_space_group_name_H-M   'P 1'
_cell_length_a   8.29800741
_cell_length_b   9.71543763
_cell_length_c   12.68351839
_cell_angle_alpha   90.00000000
_cell_angle_beta   90.00000000
_cell_angle_gamma   111.57879762
_symmetry_Int_Tables_number   1
_chemical_formula_structural   PdSCl
_chemical_formula_sum   'Pd12 S12 Cl12'
_cell_volume   950.86329683
_cell_formula_units_Z   12
loop_
 _symmetry_equiv_pos_site_id
 _symmetry_equiv_pos_as_xyz
  1  'x, y, z'
loop_
 _atom_site_type_symbol
 _atom_site_label
 _atom_site_symmetry_multiplicity
 _atom_site_fract_x
 _atom_site_fract_y
 _atom_site_fract_z
 _atom_site_occupancy
  S  S0  1  0.026989  0.603036  0.127715  1
  S  S1  1  0.145076  0.318867  0.543105  1
  S  S2  1  0.854924  0.681133  0.043105  1
  S  S3  1  0.973011  0.396964  0.627715  1
  S  S4  1  0.854924  0.681133  0.456895  1
  S  S5  1  0.026989  0.603036  0.372285  1
  S  S6  1  0.973011  0.396964  0.872285  1
  S  S7  1  0.602877  0.795232  0.334129  1
  S  S8  1  0.397123  0.204768  0.834129  1
  S  S9  1  0.397123  0.204768  0.665871  1
  S  S10  1  0.602877  0.795232  0.165871  1
  S  S11  1  0.145076  0.318867  0.956895  1
  Cl  Cl12  1  0.639827  0.328177  0.389585  1
  Cl  Cl13  1  0.639827  0.328177  0.110415  1
  Cl  Cl14  1  0.360173  0.671823  0.610415  1
  Cl  Cl15  1  0.354063  0.456902  0.250000  1
  Cl  Cl16  1  0.645937  0.543098  0.750000  1
  Cl  Cl17  1  0.793278  0.027984  0.889270  1
  Cl  Cl18  1  0.080397  0.899057  0.750000  1
  Cl  Cl19  1  0.206722  0.972016  0.110730  1
  Cl  Cl20  1  0.793278  0.027984  0.610730  1
  Cl  Cl21  1  0.919603  0.100943  0.250000  1
  Cl  Cl22  1  0.360173  0.671823  0.889585  1
  Cl  Cl23  1  0.206722  0.972016  0.389270  1
  Pd  Pd24  1  0.897266  0.897229  0.365595  1
  Pd  Pd25  1  0.102734  0.102771  0.865595  1
  Pd  Pd26  1  0.102734  0.102771  0.634405  1
  Pd  Pd27  1  0.897266  0.897229  0.134405  1
  Pd  Pd28  1  0.600839  0.560464  0.365984  1
  Pd  Pd29  1  0.399161  0.439536  0.865984  1
  Pd  Pd30  1  0.399161  0.439536  0.634016  1
  Pd  Pd31  1  0.600839  0.560464  0.134016  1
  Pd  Pd32  1  0.134428  0.790366  0.250000  1
  Pd  Pd33  1  0.865572  0.209634  0.750000  1
  Pd  Pd34  1  0.837501  0.453083  0.250000  1
  Pd  Pd35  1  0.162499  0.546917  0.750000  1
