# generated using pymatgen
data_CaP4O11
_symmetry_space_group_name_H-M   'P 1'
_cell_length_a   8.80597109
_cell_length_b   8.93758045
_cell_length_c   12.94270233
_cell_angle_alpha   90.00000000
_cell_angle_beta   90.00000000
_cell_angle_gamma   92.45365582
_symmetry_Int_Tables_number   1
_chemical_formula_structural   CaP4O11
_chemical_formula_sum   'Ca4 P16 O44'
_cell_volume   1017.70949959
_cell_formula_units_Z   4
loop_
 _symmetry_equiv_pos_site_id
 _symmetry_equiv_pos_as_xyz
  1  'x, y, z'
loop_
 _atom_site_type_symbol
 _atom_site_label
 _atom_site_symmetry_multiplicity
 _atom_site_fract_x
 _atom_site_fract_y
 _atom_site_fract_z
 _atom_site_occupancy
  O  O0  1  0.138705  0.637074  0.602064  1
  O  O1  1  0.361295  0.862926  0.102064  1
  O  O2  1  0.861295  0.362926  0.397936  1
  O  O3  1  0.638705  0.137074  0.897936  1
  O  O4  1  0.161439  0.674054  0.801574  1
  O  O5  1  0.338561  0.825946  0.301574  1
  O  O6  1  0.838561  0.325946  0.198426  1
  O  O7  1  0.661439  0.174054  0.698426  1
  O  O8  1  0.024705  0.764825  0.392908  1
  O  O9  1  0.475295  0.735175  0.892908  1
  O  O10  1  0.975295  0.235175  0.607092  1
  O  O11  1  0.524705  0.264825  0.107092  1
  O  O12  1  0.708771  0.477759  0.599677  1
  O  O13  1  0.791229  0.022241  0.099677  1
  O  O14  1  0.291229  0.522241  0.400323  1
  O  O15  1  0.978292  0.718926  0.023650  1
  O  O16  1  0.208771  0.977759  0.900323  1
  O  O17  1  0.740996  0.981807  0.484321  1
  O  O18  1  0.240996  0.481807  0.015679  1
  O  O19  1  0.259004  0.018193  0.515679  1
  O  O20  1  0.289891  0.258543  0.904651  1
  O  O21  1  0.210109  0.241457  0.404651  1
  O  O22  1  0.710109  0.741457  0.095349  1
  O  O23  1  0.789891  0.758543  0.595349  1
  O  O24  1  0.233540  0.221151  0.097019  1
  O  O25  1  0.266460  0.278849  0.597019  1
  O  O26  1  0.766460  0.778849  0.902981  1
  O  O27  1  0.733540  0.721151  0.402981  1
  O  O28  1  0.141392  0.144822  0.751536  1
  O  O29  1  0.358608  0.355178  0.251536  1
  O  O30  1  0.858608  0.855178  0.248464  1
  O  O31  1  0.641392  0.644822  0.748464  1
  O  O32  1  0.411243  0.094423  0.775554  1
  O  O33  1  0.088757  0.405577  0.275554  1
  O  O34  1  0.588757  0.905577  0.224446  1
  O  O35  1  0.911243  0.594423  0.724446  1
  O  O36  1  0.625223  0.917057  0.770077  1
  O  O37  1  0.874777  0.582943  0.270077  1
  O  O38  1  0.374777  0.082943  0.229923  1
  O  O39  1  0.125223  0.417057  0.729923  1
  O  O40  1  0.478292  0.218926  0.476350  1
  O  O41  1  0.021708  0.281074  0.976350  1
  O  O42  1  0.521708  0.781074  0.523650  1
  O  O43  1  0.759004  0.518193  0.984321  1
  P  P44  1  0.597419  0.096136  0.790129  1
  P  P45  1  0.902581  0.403864  0.290129  1
  P  P46  1  0.402581  0.903864  0.209871  1
  P  P47  1  0.097419  0.596136  0.709871  1
  P  P48  1  0.116362  0.268561  0.664337  1
  P  P49  1  0.383638  0.231439  0.164337  1
  P  P50  1  0.883638  0.731439  0.335663  1
  P  P51  1  0.616362  0.768561  0.835663  1
  P  P52  1  0.761809  0.609085  0.659630  1
  P  P53  1  0.738191  0.890915  0.159630  1
  P  P54  1  0.238191  0.390915  0.340370  1
  P  P55  1  0.261809  0.109085  0.840370  1
  P  P56  1  0.817005  0.674523  0.001969  1
  P  P57  1  0.682995  0.825477  0.501969  1
  P  P58  1  0.182995  0.325477  0.998031  1
  P  P59  1  0.317005  0.174523  0.498031  1
  Ca  Ca60  1  0.731491  0.234293  0.531312  1
  Ca  Ca61  1  0.768509  0.265707  0.031312  1
  Ca  Ca62  1  0.268509  0.765707  0.468688  1
  Ca  Ca63  1  0.231491  0.734293  0.968688  1
