# generated using pymatgen
data_KrF2
_symmetry_space_group_name_H-M   'P 1'
_cell_length_a   4.38330019
_cell_length_b   4.38330020
_cell_length_c   4.55224026
_cell_angle_alpha   118.77977367
_cell_angle_beta   118.77977372
_cell_angle_gamma   89.99999997
_symmetry_Int_Tables_number   1
_chemical_formula_structural   KrF2
_chemical_formula_sum   'Kr1 F2'
_cell_volume   64.05915601
_cell_formula_units_Z   1
loop_
 _symmetry_equiv_pos_site_id
 _symmetry_equiv_pos_as_xyz
  1  'x, y, z'
loop_
 _atom_site_type_symbol
 _atom_site_label
 _atom_site_symmetry_multiplicity
 _atom_site_fract_x
 _atom_site_fract_y
 _atom_site_fract_z
 _atom_site_occupancy
  F  F0  1  0.709593  0.709593  0.419187  1
  F  F1  1  0.290407  0.290407  0.580813  1
  Kr  Kr2  1  0.000000  0.000000  0.000000  1
