# generated using pymatgen
data_Na2PtO3
_symmetry_space_group_name_H-M   'P 1'
_cell_length_a   6.33909823
_cell_length_b   9.84455422
_cell_length_c   5.74716952
_cell_angle_alpha   28.87354771
_cell_angle_beta   53.53710349
_cell_angle_gamma   58.63937085
_symmetry_Int_Tables_number   1
_chemical_formula_structural   Na2PtO3
_chemical_formula_sum   'Na4 Pt2 O6'
_cell_volume   139.28417771
_cell_formula_units_Z   2
loop_
 _symmetry_equiv_pos_site_id
 _symmetry_equiv_pos_as_xyz
  1  'x, y, z'
loop_
 _atom_site_type_symbol
 _atom_site_label
 _atom_site_symmetry_multiplicity
 _atom_site_fract_x
 _atom_site_fract_y
 _atom_site_fract_z
 _atom_site_occupancy
  Na  Na0  1  1.000000  0.995674  0.006490  1
  Na  Na1  1  1.000000  0.647692  0.028462  1
  Na  Na2  1  0.500000  0.337659  0.993510  1
  Na  Na3  1  0.500000  0.685642  0.971538  1
  O  O4  1  0.252075  0.028371  0.403439  1
  O  O5  1  0.247925  0.304962  0.596561  1
  O  O6  1  0.747925  0.028371  0.511449  1
  O  O7  1  0.250000  0.666667  0.500000  1
  O  O8  1  0.752075  0.304962  0.488551  1
  O  O9  1  0.750000  0.666667  0.500000  1
  Pt  Pt10  1  1.000000  0.336432  0.995352  1
  Pt  Pt11  1  0.500000  0.996901  0.004648  1
