# generated using pymatgen
data_Tb3(CuGe)4
_symmetry_space_group_name_H-M   'P 1'
_cell_length_a   4.21457909
_cell_length_b   6.67356520
_cell_length_c   8.02813696
_cell_angle_alpha   114.55937378
_cell_angle_beta   105.21774204
_cell_angle_gamma   90.00000000
_symmetry_Int_Tables_number   1
_chemical_formula_structural   Tb3(CuGe)4
_chemical_formula_sum   'Tb3 Cu4 Ge4'
_cell_volume   196.63499596
_cell_formula_units_Z   1
loop_
 _symmetry_equiv_pos_site_id
 _symmetry_equiv_pos_as_xyz
  1  'x, y, z'
loop_
 _atom_site_type_symbol
 _atom_site_label
 _atom_site_symmetry_multiplicity
 _atom_site_fract_x
 _atom_site_fract_y
 _atom_site_fract_z
 _atom_site_occupancy
  Cu  Cu0  1  0.668452  0.857455  0.336904  1
  Cu  Cu1  1  0.331548  0.142545  0.663096  1
  Cu  Cu2  1  0.668452  0.479449  0.336904  1
  Cu  Cu3  1  0.331548  0.520551  0.663096  1
  Ge  Ge4  1  0.783167  0.283167  0.566333  1
  Ge  Ge5  1  0.500000  0.808881  0.000000  1
  Ge  Ge6  1  0.500000  0.191119  0.000000  1
  Ge  Ge7  1  0.216833  0.716833  0.433667  1
  Tb  Tb8  1  0.869525  0.869525  0.739050  1
  Tb  Tb9  1  0.130475  0.130475  0.260950  1
  Tb  Tb10  1  0.000000  0.500000  0.000000  1
