# generated using pymatgen
data_As2Pb8O13
_symmetry_space_group_name_H-M   'P 1'
_cell_length_a   7.60516762
_cell_length_b   7.60516762
_cell_length_c   14.75838868
_cell_angle_alpha   84.24489024
_cell_angle_beta   84.24489022
_cell_angle_gamma   87.75586152
_symmetry_Int_Tables_number   1
_chemical_formula_structural   As2Pb8O13
_chemical_formula_sum   'As4 Pb16 O26'
_cell_volume   844.65557678
_cell_formula_units_Z   2
loop_
 _symmetry_equiv_pos_site_id
 _symmetry_equiv_pos_as_xyz
  1  'x, y, z'
loop_
 _atom_site_type_symbol
 _atom_site_label
 _atom_site_symmetry_multiplicity
 _atom_site_fract_x
 _atom_site_fract_y
 _atom_site_fract_z
 _atom_site_occupancy
  O  O0  1  0.058007  0.735173  0.569800  1
  O  O1  1  0.264827  0.941993  0.430200  1
  O  O2  1  0.941993  0.264827  0.430200  1
  O  O3  1  0.735173  0.058007  0.569800  1
  O  O4  1  0.687842  0.687842  0.136065  1
  O  O5  1  0.312158  0.312158  0.863935  1
  O  O6  1  0.959742  0.229028  0.859968  1
  O  O7  1  0.770972  0.040258  0.140032  1
  O  O8  1  0.040258  0.770972  0.140032  1
  O  O9  1  0.229028  0.959742  0.859968  1
  O  O10  1  0.859812  0.859812  0.978464  1
  O  O11  1  0.140188  0.140188  0.021536  1
  O  O12  1  0.670194  0.386838  0.789024  1
  O  O13  1  0.613162  0.329806  0.210976  1
  O  O14  1  0.329806  0.613162  0.210976  1
  O  O15  1  0.386838  0.670194  0.789024  1
  O  O16  1  0.271257  0.271257  0.332679  1
  O  O17  1  0.728743  0.728743  0.667321  1
  O  O18  1  0.730147  0.426235  0.568760  1
  O  O19  1  0.573765  0.269853  0.431240  1
  O  O20  1  0.665214  0.951842  0.808059  1
  O  O21  1  0.048158  0.334786  0.191941  1
  O  O22  1  0.334786  0.048158  0.191941  1
  O  O23  1  0.951842  0.665214  0.808059  1
  O  O24  1  0.426235  0.730147  0.568760  1
  O  O25  1  0.269853  0.573765  0.431240  1
  As  As26  1  0.746645  0.253355  0.500000  1
  As  As27  1  0.253355  0.746645  0.500000  1
  As  As28  1  0.845215  0.845215  0.096688  1
  As  As29  1  0.154785  0.154785  0.903312  1
  Pb  Pb30  1  0.926220  0.454343  0.705473  1
  Pb  Pb31  1  0.545657  0.073780  0.294527  1
  Pb  Pb32  1  0.073780  0.545657  0.294527  1
  Pb  Pb33  1  0.454343  0.926220  0.705473  1
  Pb  Pb34  1  0.837880  0.339999  0.096481  1
  Pb  Pb35  1  0.660001  0.162120  0.903519  1
  Pb  Pb36  1  0.162120  0.660001  0.903519  1
  Pb  Pb37  1  0.339999  0.837880  0.096481  1
  Pb  Pb38  1  0.564737  0.564737  0.289895  1
  Pb  Pb39  1  0.435263  0.435263  0.710105  1
  Pb  Pb40  1  0.255425  0.255425  0.484252  1
  Pb  Pb41  1  0.744575  0.744575  0.515748  1
  Pb  Pb42  1  0.670081  0.670081  0.884895  1
  Pb  Pb43  1  0.329919  0.329919  0.115105  1
  Pb  Pb44  1  0.073406  0.073406  0.297805  1
  Pb  Pb45  1  0.926594  0.926594  0.702195  1
