# generated using pymatgen
data_Ga2CoO4
_symmetry_space_group_name_H-M   'P 1'
_cell_length_a   5.95410046
_cell_length_b   5.95410048
_cell_length_c   5.83585278
_cell_angle_alpha   60.65480771
_cell_angle_beta   60.65480765
_cell_angle_gamma   60.37625210
_symmetry_Int_Tables_number   1
_chemical_formula_structural   Ga2CoO4
_chemical_formula_sum   'Ga4 Co2 O8'
_cell_volume   148.14724936
_cell_formula_units_Z   2
loop_
 _symmetry_equiv_pos_site_id
 _symmetry_equiv_pos_as_xyz
  1  'x, y, z'
loop_
 _atom_site_type_symbol
 _atom_site_label
 _atom_site_symmetry_multiplicity
 _atom_site_fract_x
 _atom_site_fract_y
 _atom_site_fract_z
 _atom_site_occupancy
  Ga  Ga0  1  0.009381  0.009381  0.990619  1
  Ga  Ga1  1  0.240619  0.240619  0.259381  1
  Ga  Ga2  1  0.125000  0.625000  0.625000  1
  Ga  Ga3  1  0.625000  0.125000  0.625000  1
  Co  Co4  1  0.625000  0.625000  0.125000  1
  Co  Co5  1  0.625000  0.625000  0.625000  1
  O  O6  1  0.374244  0.374244  0.390432  1
  O  O7  1  0.366524  0.855400  0.389038  1
  O  O8  1  0.374244  0.374244  0.861080  1
  O  O9  1  0.855400  0.366524  0.389038  1
  O  O10  1  0.394600  0.883476  0.860962  1
  O  O11  1  0.883476  0.394600  0.860962  1
  O  O12  1  0.875756  0.875756  0.388920  1
  O  O13  1  0.875756  0.875756  0.859568  1
