# generated using pymatgen
data_Hf(TeCl)6
_symmetry_space_group_name_H-M   'P 1'
_cell_length_a   11.39676477
_cell_length_b   11.38257325
_cell_length_c   13.13630962
_cell_angle_alpha   90.00000000
_cell_angle_beta   90.00000000
_cell_angle_gamma   90.00000000
_symmetry_Int_Tables_number   1
_chemical_formula_structural   Hf(TeCl)6
_chemical_formula_sum   'Hf4 Te24 Cl24'
_cell_volume   1704.10132613
_cell_formula_units_Z   4
loop_
 _symmetry_equiv_pos_site_id
 _symmetry_equiv_pos_as_xyz
  1  'x, y, z'
loop_
 _atom_site_type_symbol
 _atom_site_label
 _atom_site_symmetry_multiplicity
 _atom_site_fract_x
 _atom_site_fract_y
 _atom_site_fract_z
 _atom_site_occupancy
  Cl  Cl0  1  0.908412  0.158203  0.883189  1
  Cl  Cl1  1  0.408412  0.841797  0.883189  1
  Cl  Cl2  1  0.908412  0.158203  0.616811  1
  Cl  Cl3  1  0.673322  0.363552  0.619553  1
  Cl  Cl4  1  0.173322  0.636448  0.880447  1
  Cl  Cl5  1  0.826678  0.363552  0.380447  1
  Cl  Cl6  1  0.326678  0.636448  0.119553  1
  Cl  Cl7  1  0.326678  0.636448  0.380447  1
  Cl  Cl8  1  0.826678  0.363552  0.119553  1
  Cl  Cl9  1  0.173322  0.636448  0.619553  1
  Cl  Cl10  1  0.673322  0.363552  0.880447  1
  Cl  Cl11  1  0.345477  0.898859  0.250000  1
  Cl  Cl12  1  0.845477  0.101141  0.250000  1
  Cl  Cl13  1  0.154523  0.898859  0.750000  1
  Cl  Cl14  1  0.654523  0.101141  0.750000  1
  Cl  Cl15  1  0.058937  0.581624  0.250000  1
  Cl  Cl16  1  0.558937  0.418376  0.250000  1
  Cl  Cl17  1  0.441063  0.581624  0.750000  1
  Cl  Cl18  1  0.941063  0.418376  0.750000  1
  Cl  Cl19  1  0.091588  0.841797  0.383189  1
  Cl  Cl20  1  0.091588  0.841797  0.116811  1
  Cl  Cl21  1  0.591588  0.158203  0.116811  1
  Cl  Cl22  1  0.408412  0.841797  0.616811  1
  Cl  Cl23  1  0.591588  0.158203  0.383189  1
  Te  Te24  1  0.742128  0.725834  0.750000  1
  Te  Te25  1  0.257872  0.274166  0.250000  1
  Te  Te26  1  0.600011  0.814915  0.096137  1
  Te  Te27  1  0.750000  0.975658  0.500000  1
  Te  Te28  1  0.250000  0.024342  0.000000  1
  Te  Te29  1  0.250000  0.024342  0.500000  1
  Te  Te30  1  0.750000  0.975658  0.000000  1
  Te  Te31  1  0.635138  0.614203  0.531987  1
  Te  Te32  1  0.135138  0.385797  0.968013  1
  Te  Te33  1  0.864862  0.614203  0.468013  1
  Te  Te34  1  0.364862  0.385797  0.031987  1
  Te  Te35  1  0.364862  0.385797  0.468013  1
  Te  Te36  1  0.864862  0.614203  0.031987  1
  Te  Te37  1  0.135138  0.385797  0.531987  1
  Te  Te38  1  0.635138  0.614203  0.968013  1
  Te  Te39  1  0.600011  0.814915  0.403863  1
  Te  Te40  1  0.100011  0.185085  0.096137  1
  Te  Te41  1  0.899989  0.814915  0.596137  1
  Te  Te42  1  0.399989  0.185085  0.903863  1
  Te  Te43  1  0.399989  0.185085  0.596137  1
  Te  Te44  1  0.899989  0.814915  0.903863  1
  Te  Te45  1  0.100011  0.185085  0.403863  1
  Te  Te46  1  0.242128  0.274166  0.750000  1
  Te  Te47  1  0.757872  0.725834  0.250000  1
  Hf  Hf48  1  0.207637  0.736696  0.250000  1
  Hf  Hf49  1  0.292363  0.736696  0.750000  1
  Hf  Hf50  1  0.792363  0.263304  0.750000  1
  Hf  Hf51  1  0.707637  0.263304  0.250000  1
