# generated using pymatgen
data_Pr3NF6
_symmetry_space_group_name_H-M   'P 1'
_cell_length_a   4.02677898
_cell_length_b   12.41792699
_cell_length_c   7.19266238
_cell_angle_alpha   30.40307790
_cell_angle_beta   56.28747789
_cell_angle_gamma   62.45631841
_symmetry_Int_Tables_number   1
_chemical_formula_structural   Pr3NF6
_chemical_formula_sum   'Pr3 N1 F6'
_cell_volume   151.29583702
_cell_formula_units_Z   1
loop_
 _symmetry_equiv_pos_site_id
 _symmetry_equiv_pos_as_xyz
  1  'x, y, z'
loop_
 _atom_site_type_symbol
 _atom_site_label
 _atom_site_symmetry_multiplicity
 _atom_site_fract_x
 _atom_site_fract_y
 _atom_site_fract_z
 _atom_site_occupancy
  F  F0  1  0.232142  0.354998  0.219958  1
  F  F1  1  0.433226  0.488613  0.375696  1
  F  F2  1  0.717469  0.252136  0.904156  1
  F  F3  1  0.258834  0.994365  0.251015  1
  F  F4  1  0.789000  0.643380  0.441869  1
  F  F5  1  0.763752  0.712366  0.692380  1
  N  N6  1  0.721999  0.000778  0.722344  1
  Pr  Pr7  1  0.996493  0.000417  0.961909  1
  Pr  Pr8  1  0.992775  0.308470  0.037755  1
  Pr  Pr9  1  0.016309  0.692477  0.970918  1
