# generated using pymatgen
data_Ni4P16W
_symmetry_space_group_name_H-M   'P 1'
_cell_length_a   5.69507201
_cell_length_b   10.24486392
_cell_length_c   11.16185645
_cell_angle_alpha   100.51486106
_cell_angle_beta   90.00000000
_cell_angle_gamma   106.13775309
_symmetry_Int_Tables_number   1
_chemical_formula_structural   Ni4P16W
_chemical_formula_sum   'Ni8 P32 W2'
_cell_volume   614.18716309
_cell_formula_units_Z   2
loop_
 _symmetry_equiv_pos_site_id
 _symmetry_equiv_pos_as_xyz
  1  'x, y, z'
loop_
 _atom_site_type_symbol
 _atom_site_label
 _atom_site_symmetry_multiplicity
 _atom_site_fract_x
 _atom_site_fract_y
 _atom_site_fract_z
 _atom_site_occupancy
  P  P0  1  0.740989  0.008325  0.607422  1
  P  P1  1  0.732664  0.991675  0.892578  1
  P  P2  1  0.259011  0.991675  0.392578  1
  P  P3  1  0.267336  0.008325  0.107422  1
  P  P4  1  0.384330  0.758404  0.660798  1
  P  P5  1  0.625925  0.241596  0.839202  1
  P  P6  1  0.615670  0.241596  0.339202  1
  P  P7  1  0.374075  0.758404  0.160798  1
  P  P8  1  0.732771  0.717991  0.719532  1
  P  P9  1  0.014780  0.282009  0.780468  1
  P  P10  1  0.009376  0.122938  0.367938  1
  P  P11  1  0.886438  0.877062  0.132062  1
  P  P12  1  0.990624  0.877062  0.632062  1
  P  P13  1  0.113562  0.122938  0.867938  1
  P  P14  1  0.780402  0.123969  0.080295  1
  P  P15  1  0.656433  0.876031  0.419705  1
  P  P16  1  0.219598  0.876031  0.919705  1
  P  P17  1  0.343567  0.123969  0.580295  1
  P  P18  1  0.602529  0.283363  0.042539  1
  P  P19  1  0.319166  0.716637  0.457461  1
  P  P20  1  0.397471  0.716637  0.957461  1
  P  P21  1  0.680834  0.283363  0.542539  1
  P  P22  1  0.146558  0.425822  0.054291  1
  P  P23  1  0.720736  0.574178  0.445709  1
  P  P24  1  0.853442  0.574178  0.945709  1
  P  P25  1  0.279264  0.425822  0.554291  1
  P  P26  1  0.883817  0.442462  0.312049  1
  P  P27  1  0.441356  0.557538  0.187951  1
  P  P28  1  0.116183  0.557538  0.687951  1
  P  P29  1  0.558644  0.442462  0.812049  1
  P  P30  1  0.985220  0.717991  0.219532  1
  P  P31  1  0.267229  0.282009  0.280468  1
  Ni  Ni32  1  0.694548  0.499055  0.628461  1
  Ni  Ni33  1  0.195493  0.500945  0.871539  1
  Ni  Ni34  1  0.305452  0.500945  0.371539  1
  Ni  Ni35  1  0.804507  0.499055  0.128461  1
  Ni  Ni36  1  0.200453  0.212244  0.074393  1
  Ni  Ni37  1  0.988209  0.787756  0.425607  1
  Ni  Ni38  1  0.799547  0.787756  0.925607  1
  Ni  Ni39  1  0.011791  0.212244  0.574393  1
  W  W40  1  0.394765  0.000000  0.750000  1
  W  W41  1  0.605235  0.000000  0.250000  1
