# generated using pymatgen
data_Mo4P7O24
_symmetry_space_group_name_H-M   'P 1'
_cell_length_a   10.56087369
_cell_length_b   10.58488862
_cell_length_c   11.34206804
_cell_angle_alpha   112.88982372
_cell_angle_beta   109.69481098
_cell_angle_gamma   104.33281399
_symmetry_Int_Tables_number   1
_chemical_formula_structural   Mo4P7O24
_chemical_formula_sum   'Mo8 P14 O48'
_cell_volume   989.39441062
_cell_formula_units_Z   2
loop_
 _symmetry_equiv_pos_site_id
 _symmetry_equiv_pos_as_xyz
  1  'x, y, z'
loop_
 _atom_site_type_symbol
 _atom_site_label
 _atom_site_symmetry_multiplicity
 _atom_site_fract_x
 _atom_site_fract_y
 _atom_site_fract_z
 _atom_site_occupancy
  O  O0  1  0.979127  0.122923  0.860529  1
  O  O1  1  0.997862  0.313924  0.117262  1
  O  O2  1  0.965806  0.322846  0.332422  1
  O  O3  1  0.683740  0.102431  0.040652  1
  O  O4  1  0.834535  0.188574  0.475484  1
  O  O5  1  0.879432  0.287651  0.733251  1
  O  O6  1  0.743760  0.645128  0.076795  1
  O  O7  1  0.841049  0.977341  0.201182  1
  O  O8  1  0.002138  0.686077  0.882738  1
  O  O9  1  0.034194  0.677154  0.667578  1
  O  O10  1  0.316260  0.897569  0.959348  1
  O  O11  1  0.020873  0.877077  0.139471  1
  O  O12  1  0.165465  0.811425  0.524515  1
  O  O13  1  0.120568  0.712350  0.266749  1
  O  O14  1  0.256240  0.354871  0.923204  1
  O  O15  1  0.158951  0.022658  0.798818  1
  O  O16  1  0.306075  0.984923  0.459992  1
  O  O17  1  0.333847  0.692155  0.695725  1
  O  O18  1  0.092603  0.062571  0.401850  1
  O  O19  1  0.066627  0.145205  0.210984  1
  O  O20  1  0.222697  0.431136  0.364204  1
  O  O21  1  0.274624  0.167660  0.663052  1
  O  O22  1  0.371723  0.774321  0.463156  1
  O  O23  1  0.134404  0.516071  0.009073  1
  O  O24  1  0.291835  0.850371  0.156867  1
  O  O25  1  0.564883  0.723343  0.897114  1
  O  O26  1  0.595228  0.885251  0.784652  1
  O  O27  1  0.354465  0.248326  0.503420  1
  O  O28  1  0.513738  0.607822  0.631839  1
  O  O29  1  0.451477  0.041460  0.820731  1
  O  O30  1  0.599327  0.363036  0.959022  1
  O  O31  1  0.357955  0.532558  0.197844  1
  O  O32  1  0.642044  0.467442  0.802156  1
  O  O33  1  0.400673  0.636964  0.040978  1
  O  O34  1  0.548522  0.958539  0.179269  1
  O  O35  1  0.486262  0.392179  0.368160  1
  O  O36  1  0.645535  0.751674  0.496580  1
  O  O37  1  0.404773  0.114750  0.215349  1
  O  O38  1  0.435117  0.276657  0.102886  1
  O  O39  1  0.708165  0.149630  0.843133  1
  O  O40  1  0.865597  0.483930  0.990928  1
  O  O41  1  0.628278  0.225680  0.536845  1
  O  O42  1  0.725376  0.832339  0.336947  1
  O  O43  1  0.777304  0.568864  0.635796  1
  O  O44  1  0.933372  0.854794  0.789016  1
  O  O45  1  0.693925  0.015077  0.540009  1
  O  O46  1  0.666152  0.307846  0.304274  1
  O  O47  1  0.907397  0.937430  0.598150  1
  P  P48  1  0.385409  0.945924  0.118192  1
  P  P49  1  0.299015  0.512181  0.047216  1
  P  P50  1  0.700984  0.487819  0.952784  1
  P  P51  1  0.614591  0.054077  0.881808  1
  P  P52  1  0.267694  0.126206  0.518567  1
  P  P53  1  0.732306  0.873795  0.481433  1
  P  P54  1  0.503386  0.279026  0.243429  1
  P  P55  1  0.936135  0.685013  0.738763  1
  P  P56  1  0.997248  0.990512  0.766675  1
  P  P57  1  0.240369  0.812822  0.432213  1
  P  P58  1  0.063865  0.314987  0.261237  1
  P  P59  1  0.002752  0.009488  0.233326  1
  P  P60  1  0.496615  0.720974  0.756571  1
  P  P61  1  0.759630  0.187178  0.567787  1
  Mo  Mo62  1  0.757922  0.154303  0.260608  1
  Mo  Mo63  1  0.922618  0.306235  0.925575  1
  Mo  Mo64  1  0.625429  0.775824  0.114145  1
  Mo  Mo65  1  0.572960  0.413959  0.587346  1
  Mo  Mo66  1  0.427041  0.586041  0.412654  1
  Mo  Mo67  1  0.374571  0.224176  0.885855  1
  Mo  Mo68  1  0.077382  0.693765  0.074425  1
  Mo  Mo69  1  0.242078  0.845698  0.739392  1
