# generated using pymatgen
data_LiMn2(PO4)3
_symmetry_space_group_name_H-M   'P 1'
_cell_length_a   8.45280582
_cell_length_b   8.44933877
_cell_length_c   8.45280582
_cell_angle_alpha   119.88539119
_cell_angle_beta   60.04390318
_cell_angle_gamma   89.85088788
_symmetry_Int_Tables_number   1
_chemical_formula_structural   LiMn2(PO4)3
_chemical_formula_sum   'Li2 Mn4 P6 O24'
_cell_volume   427.34946532
_cell_formula_units_Z   2
loop_
 _symmetry_equiv_pos_site_id
 _symmetry_equiv_pos_as_xyz
  1  'x, y, z'
loop_
 _atom_site_type_symbol
 _atom_site_label
 _atom_site_symmetry_multiplicity
 _atom_site_fract_x
 _atom_site_fract_y
 _atom_site_fract_z
 _atom_site_occupancy
  Li  Li0  1  1.000000  0.500000  1.000000  1
  Li  Li1  1  0.500000  0.000000  1.000000  1
  O  O2  1  0.447139  0.734393  0.816841  1
  O  O3  1  0.694312  0.000982  0.374566  1
  O  O4  1  0.805493  0.123339  0.637631  1
  O  O5  1  0.420426  0.052101  0.316349  1
  O  O6  1  0.128951  0.798367  0.807924  1
  O  O7  1  0.305688  0.999017  0.625434  1
  O  O8  1  0.194506  0.876661  0.362369  1
  O  O9  1  0.579574  0.947898  0.683651  1
  O  O10  1  0.054151  0.420390  0.187054  1
  O  O11  1  0.264248  0.552101  0.972527  1
  O  O12  1  0.871050  0.201632  0.192075  1
  O  O13  1  0.009556  0.298367  0.427318  1
  O  O14  1  0.766663  0.920391  0.974541  1
  O  O15  1  0.082448  0.234393  0.681532  1
  O  O16  1  0.373584  0.500983  0.195295  1
  O  O17  1  0.514291  0.623339  0.428833  1
  O  O18  1  0.945849  0.579610  0.812946  1
  O  O19  1  0.626416  0.499018  0.804707  1
  O  O20  1  0.917552  0.765606  0.318467  1
  O  O21  1  0.233336  0.079610  0.025460  1
  O  O22  1  0.990443  0.701632  0.572682  1
  O  O23  1  0.552860  0.265606  0.183159  1
  O  O24  1  0.735753  0.447899  0.027473  1
  O  O25  1  0.485708  0.376662  0.571168  1
  P  P26  1  0.250716  0.036376  0.496957  1
  P  P27  1  0.962499  0.750000  0.787501  1
  P  P28  1  0.539418  0.463624  0.212908  1
  P  P29  1  0.460582  0.536376  0.787092  1
  P  P30  1  0.749284  0.963624  0.503042  1
  P  P31  1  0.037501  0.250001  0.212500  1
  Mn  Mn32  1  0.361132  0.857614  0.718595  1
  Mn  Mn33  1  0.139019  0.642386  0.281254  1
  Mn  Mn34  1  0.860981  0.357613  0.718746  1
  Mn  Mn35  1  0.638867  0.142386  0.281405  1
