# generated using pymatgen
data_Si19Te8
_symmetry_space_group_name_H-M   'P 1'
_cell_length_a   10.55554925
_cell_length_b   10.55554924
_cell_length_c   10.55554925
_cell_angle_alpha   89.64445392
_cell_angle_beta   89.64445394
_cell_angle_gamma   89.64445391
_symmetry_Int_Tables_number   1
_chemical_formula_structural   Si19Te8
_chemical_formula_sum   'Si38 Te16'
_cell_volume   1176.02763216
_cell_formula_units_Z   2
loop_
 _symmetry_equiv_pos_site_id
 _symmetry_equiv_pos_as_xyz
  1  'x, y, z'
loop_
 _atom_site_type_symbol
 _atom_site_label
 _atom_site_symmetry_multiplicity
 _atom_site_fract_x
 _atom_site_fract_y
 _atom_site_fract_z
 _atom_site_occupancy
  Si  Si0  1  0.469842  0.381708  0.831473  1
  Si  Si1  1  0.381708  0.831473  0.469842  1
  Si  Si2  1  0.831473  0.469842  0.381708  1
  Si  Si3  1  0.331473  0.881708  0.969842  1
  Si  Si4  1  0.143374  0.143374  0.143374  1
  Si  Si5  1  0.643374  0.643374  0.643374  1
  Si  Si6  1  0.881708  0.969842  0.331473  1
  Si  Si7  1  0.969842  0.331473  0.881708  1
  Si  Si8  1  0.573571  0.582029  0.850130  1
  Si  Si9  1  0.582029  0.850130  0.573571  1
  Si  Si10  1  0.850130  0.573571  0.582029  1
  Si  Si11  1  0.350130  0.082029  0.073571  1
  Si  Si12  1  0.082029  0.073571  0.350130  1
  Si  Si13  1  0.073571  0.350130  0.082029  1
  Si  Si14  1  0.496401  0.611267  0.182094  1
  Si  Si15  1  0.611267  0.182094  0.496401  1
  Si  Si16  1  0.182094  0.496401  0.611267  1
  Si  Si17  1  0.682094  0.111267  0.996401  1
  Si  Si18  1  0.007943  0.496975  0.241978  1
  Si  Si19  1  0.241978  0.007943  0.496975  1
  Si  Si20  1  0.496975  0.241978  0.007943  1
  Si  Si21  1  0.996975  0.507943  0.741978  1
  Si  Si22  1  0.741978  0.996975  0.507943  1
  Si  Si23  1  0.507943  0.741978  0.996975  1
  Si  Si24  1  0.834741  0.825674  0.169298  1
  Si  Si25  1  0.169298  0.834741  0.825674  1
  Si  Si26  1  0.825674  0.169298  0.834741  1
  Si  Si27  1  0.325674  0.334741  0.669298  1
  Si  Si28  1  0.669298  0.325674  0.334741  1
  Si  Si29  1  0.334741  0.669298  0.325674  1
  Si  Si30  1  0.019777  0.680783  0.886105  1
  Si  Si31  1  0.886105  0.019777  0.680783  1
  Si  Si32  1  0.680783  0.886105  0.019777  1
  Si  Si33  1  0.180783  0.519777  0.386105  1
  Si  Si34  1  0.386105  0.180783  0.519777  1
  Si  Si35  1  0.519777  0.386105  0.180783  1
  Si  Si36  1  0.996401  0.682094  0.111267  1
  Si  Si37  1  0.111267  0.996401  0.682094  1
  Te  Te38  1  0.690824  0.683443  0.317446  1
  Te  Te39  1  0.683443  0.317446  0.690824  1
  Te  Te40  1  0.317446  0.690824  0.683443  1
  Te  Te41  1  0.817446  0.183443  0.190824  1
  Te  Te42  1  0.183443  0.190824  0.817446  1
  Te  Te43  1  0.190824  0.817446  0.183443  1
  Te  Te44  1  0.994796  0.753406  0.490680  1
  Te  Te45  1  0.753406  0.490680  0.994796  1
  Te  Te46  1  0.490680  0.994796  0.753406  1
  Te  Te47  1  0.990680  0.253406  0.494796  1
  Te  Te48  1  0.253406  0.494796  0.990680  1
  Te  Te49  1  0.494796  0.990680  0.253406  1
  Te  Te50  1  0.312158  0.312158  0.312158  1
  Te  Te51  1  0.812158  0.812158  0.812158  1
  Te  Te52  1  0.499954  0.499954  0.499954  1
  Te  Te53  1  -0.000046  -0.000046  -0.000046  1
