# generated using pymatgen
data_Rb6Fe2O5
_symmetry_space_group_name_H-M   'P 1'
_cell_length_a   7.05061181
_cell_length_b   7.05061112
_cell_length_c   7.10451788
_cell_angle_alpha   92.19099092
_cell_angle_beta   92.19099060
_cell_angle_gamma   117.65020078
_symmetry_Int_Tables_number   1
_chemical_formula_structural   Rb6Fe2O5
_chemical_formula_sum   'Rb6 Fe2 O5'
_cell_volume   311.98584051
_cell_formula_units_Z   1
loop_
 _symmetry_equiv_pos_site_id
 _symmetry_equiv_pos_as_xyz
  1  'x, y, z'
loop_
 _atom_site_type_symbol
 _atom_site_label
 _atom_site_symmetry_multiplicity
 _atom_site_fract_x
 _atom_site_fract_y
 _atom_site_fract_z
 _atom_site_occupancy
  Rb  Rb0  1  0.209570  0.788582  0.996284  1
  Rb  Rb1  1  0.242773  0.755625  0.502291  1
  Rb  Rb2  1  0.360895  0.360895  0.174979  1
  Rb  Rb3  1  0.648001  0.648001  0.819595  1
  Rb  Rb4  1  0.755625  0.242773  0.502291  1
  Rb  Rb5  1  0.788582  0.209570  0.996284  1
  Fe  Fe6  1  0.188125  0.188125  0.694038  1
  Fe  Fe7  1  0.794650  0.794650  0.328816  1
  O  O8  1  0.164836  0.437691  0.771465  1
  O  O9  1  0.568346  0.840657  0.221173  1
  O  O10  1  0.437691  0.164836  0.771465  1
  O  O11  1  0.941750  0.941750  0.569145  1
  O  O12  1  0.840657  0.568346  0.221173  1
