# generated using pymatgen
data_Rb2TbF6
_symmetry_space_group_name_H-M   'P 1'
_cell_length_a   7.23856431
_cell_length_b   7.01175697
_cell_length_c   7.50972717
_cell_angle_alpha   89.36686579
_cell_angle_beta   88.77333914
_cell_angle_gamma   58.92408363
_symmetry_Int_Tables_number   1
_chemical_formula_structural   Rb2TbF6
_chemical_formula_sum   'Rb4 Tb2 F12'
_cell_volume   326.37976987
_cell_formula_units_Z   2
loop_
 _symmetry_equiv_pos_site_id
 _symmetry_equiv_pos_as_xyz
  1  'x, y, z'
loop_
 _atom_site_type_symbol
 _atom_site_label
 _atom_site_symmetry_multiplicity
 _atom_site_fract_x
 _atom_site_fract_y
 _atom_site_fract_z
 _atom_site_occupancy
  F  F0  1  0.926331  0.203177  0.045285  1
  F  F1  1  0.870492  0.203177  0.454715  1
  F  F2  1  0.073669  0.796823  0.954715  1
  F  F3  1  0.129508  0.796823  0.545285  1
  F  F4  1  0.618623  0.385904  0.767678  1
  F  F5  1  0.995473  0.385904  0.732322  1
  F  F6  1  0.692120  0.010360  0.235583  1
  F  F7  1  0.297520  0.010360  0.264417  1
  F  F8  1  0.307880  0.989640  0.764417  1
  F  F9  1  0.702480  0.989640  0.735583  1
  F  F10  1  0.004527  0.614096  0.267678  1
  F  F11  1  0.381377  0.614096  0.232322  1
  Rb  Rb12  1  0.325369  0.317956  0.998779  1
  Rb  Rb13  1  0.356675  0.317956  0.501221  1
  Rb  Rb14  1  0.643325  0.682044  0.498779  1
  Rb  Rb15  1  0.674631  0.682044  0.001221  1
  Tb  Tb16  1  0.039075  0.921849  0.250000  1
  Tb  Tb17  1  0.960925  0.078151  0.750000  1
