# generated using pymatgen
data_Y10H21
_symmetry_space_group_name_H-M   'P 1'
_cell_length_a   7.36390700
_cell_length_b   18.42621616
_cell_length_c   9.74790357
_cell_angle_alpha   19.09763079
_cell_angle_beta   55.41452013
_cell_angle_gamma   59.90938679
_symmetry_Int_Tables_number   1
_chemical_formula_structural   Y10H21
_chemical_formula_sum   'Y10 H21'
_cell_volume   353.25285908
_cell_formula_units_Z   1
loop_
 _symmetry_equiv_pos_site_id
 _symmetry_equiv_pos_as_xyz
  1  'x, y, z'
loop_
 _atom_site_type_symbol
 _atom_site_label
 _atom_site_symmetry_multiplicity
 _atom_site_fract_x
 _atom_site_fract_y
 _atom_site_fract_z
 _atom_site_occupancy
  H  H0  1  0.124504  0.149283  0.251872  1
  H  H1  1  0.125530  0.349132  0.250917  1
  H  H2  1  0.125620  0.550853  0.248826  1
  H  H3  1  0.374470  0.050868  0.749083  1
  H  H4  1  0.623603  0.150928  0.249482  1
  H  H5  1  0.375496  0.250717  0.748128  1
  H  H6  1  0.133652  0.750514  0.245844  1
  H  H7  1  0.621528  0.340551  0.270221  1
  H  H8  1  0.878472  0.059449  0.729779  1
  H  H9  1  0.623549  0.550310  0.249263  1
  H  H10  1  0.374750  0.449991  0.750920  1
  H  H11  1  0.125250  0.950009  0.249080  1
  H  H12  1  0.621013  0.751174  0.244613  1
  H  H13  1  0.366348  0.649486  0.754156  1
  H  H14  1  0.876397  0.249072  0.750518  1
  H  H15  1  0.374380  0.849147  0.751174  1
  H  H16  1  0.878343  0.444332  0.755375  1
  H  H17  1  0.621657  0.955668  0.244625  1
  H  H18  1  0.750000  0.700000  0.500000  1
  H  H19  1  0.878987  0.648826  0.755387  1
  H  H20  1  0.876451  0.849690  0.750737  1
  Y  Y21  1  0.997122  0.998749  0.002310  1
  Y  Y22  1  0.000078  0.199534  0.000852  1
  Y  Y23  1  0.997722  0.402649  0.995377  1
  Y  Y24  1  0.502278  0.997351  0.004623  1
  Y  Y25  1  0.000498  0.599523  0.001176  1
  Y  Y26  1  0.499922  0.200466  0.999148  1
  Y  Y27  1  0.997743  0.799981  0.002704  1
  Y  Y28  1  0.502878  0.401251  0.997690  1
  Y  Y29  1  0.502257  0.600019  0.997296  1
  Y  Y30  1  0.499502  0.800477  0.998824  1
