# generated using pymatgen
data_Ca7Sn6
_symmetry_space_group_name_H-M   'P 1'
_cell_length_a   7.93694596
_cell_length_b   8.50654975
_cell_length_c   23.90688045
_cell_angle_alpha   90.00000000
_cell_angle_beta   90.00000000
_cell_angle_gamma   90.00012292
_symmetry_Int_Tables_number   1
_chemical_formula_structural   Ca7Sn6
_chemical_formula_sum   'Ca28 Sn24'
_cell_volume   1614.09755419
_cell_formula_units_Z   4
loop_
 _symmetry_equiv_pos_site_id
 _symmetry_equiv_pos_as_xyz
  1  'x, y, z'
loop_
 _atom_site_type_symbol
 _atom_site_label
 _atom_site_symmetry_multiplicity
 _atom_site_fract_x
 _atom_site_fract_y
 _atom_site_fract_z
 _atom_site_occupancy
  Ca  Ca0  1  0.996743  0.174789  0.836414  1
  Ca  Ca1  1  0.496743  0.325211  0.663586  1
  Ca  Ca2  1  0.503257  0.674789  0.163586  1
  Ca  Ca3  1  0.003257  0.825211  0.336414  1
  Ca  Ca4  1  0.003257  0.825211  0.163586  1
  Ca  Ca5  1  0.503257  0.674789  0.336414  1
  Ca  Ca6  1  0.496743  0.325211  0.836414  1
  Ca  Ca7  1  0.996743  0.174789  0.663586  1
  Ca  Ca8  1  0.828573  0.679750  0.852518  1
  Ca  Ca9  1  0.328574  0.820250  0.647482  1
  Ca  Ca10  1  0.671426  0.179750  0.147482  1
  Ca  Ca11  1  0.171427  0.320250  0.352518  1
  Ca  Ca12  1  0.171427  0.320250  0.147482  1
  Ca  Ca13  1  0.671426  0.179750  0.352518  1
  Ca  Ca14  1  0.328574  0.820250  0.852518  1
  Ca  Ca15  1  0.828573  0.679750  0.647482  1
  Ca  Ca16  1  0.669568  0.825844  0.478482  1
  Ca  Ca17  1  0.169568  0.674156  0.021518  1
  Ca  Ca18  1  0.830432  0.325844  0.521518  1
  Ca  Ca19  1  0.330432  0.174156  0.978482  1
  Ca  Ca20  1  0.330432  0.174156  0.521518  1
  Ca  Ca21  1  0.830432  0.325844  0.978482  1
  Ca  Ca22  1  0.169568  0.674156  0.478482  1
  Ca  Ca23  1  0.669568  0.825844  0.021518  1
  Ca  Ca24  1  0.665818  0.993764  0.750000  1
  Ca  Ca25  1  0.165818  0.506236  0.750000  1
  Ca  Ca26  1  0.834182  0.493764  0.250000  1
  Ca  Ca27  1  0.334182  0.006236  0.250000  1
  Sn  Sn28  1  1.000279  0.944538  0.941876  1
  Sn  Sn29  1  0.500279  0.555461  0.558124  1
  Sn  Sn30  1  0.499721  0.444539  0.058124  1
  Sn  Sn31  1  -0.000279  0.055462  0.441876  1
  Sn  Sn32  1  -0.000279  0.055462  0.058124  1
  Sn  Sn33  1  0.499721  0.444539  0.441876  1
  Sn  Sn34  1  0.500279  0.555461  0.941876  1
  Sn  Sn35  1  1.000279  0.944538  0.558124  1
  Sn  Sn36  1  0.841413  0.524832  0.400857  1
  Sn  Sn37  1  0.341412  0.975168  0.099143  1
  Sn  Sn38  1  0.658588  0.024832  0.599143  1
  Sn  Sn39  1  0.158587  0.475168  0.900857  1
  Sn  Sn40  1  0.158587  0.475168  0.599143  1
  Sn  Sn41  1  0.658588  0.024832  0.900857  1
  Sn  Sn42  1  0.341412  0.975168  0.400857  1
  Sn  Sn43  1  0.841413  0.524832  0.099143  1
  Sn  Sn44  1  0.793130  0.386726  0.750000  1
  Sn  Sn45  1  0.293129  0.113275  0.750000  1
  Sn  Sn46  1  0.706871  0.886725  0.250000  1
  Sn  Sn47  1  0.206870  0.613274  0.250000  1
  Sn  Sn48  1  0.541908  0.635286  0.750000  1
  Sn  Sn49  1  0.041908  0.864713  0.750000  1
  Sn  Sn50  1  0.958092  0.135287  0.250000  1
  Sn  Sn51  1  0.458092  0.364714  0.250000  1
