# generated using pymatgen
data_P2O9
_symmetry_space_group_name_H-M   'P 1'
_cell_length_a   8.67442280
_cell_length_b   9.41524169
_cell_length_c   14.73750305
_cell_angle_alpha   90.00000000
_cell_angle_beta   90.00000000
_cell_angle_gamma   90.00000000
_symmetry_Int_Tables_number   1
_chemical_formula_structural   P2O9
_chemical_formula_sum   'P16 O72'
_cell_volume   1203.63821271
_cell_formula_units_Z   8
loop_
 _symmetry_equiv_pos_site_id
 _symmetry_equiv_pos_as_xyz
  1  'x, y, z'
loop_
 _atom_site_type_symbol
 _atom_site_label
 _atom_site_symmetry_multiplicity
 _atom_site_fract_x
 _atom_site_fract_y
 _atom_site_fract_z
 _atom_site_occupancy
  O  O0  1  0.240351  0.609155  0.016157  1
  O  O1  1  0.740351  0.890845  0.983843  1
  O  O2  1  0.759649  0.109155  0.483843  1
  O  O3  1  0.259649  0.390845  0.516157  1
  O  O4  1  0.063518  0.466308  0.107815  1
  O  O5  1  0.563518  0.033692  0.892185  1
  O  O6  1  0.936482  0.966308  0.392185  1
  O  O7  1  0.436482  0.533692  0.607815  1
  O  O8  1  0.343634  0.470403  0.152889  1
  O  O9  1  0.843634  0.029597  0.847111  1
  O  O10  1  0.656366  0.970403  0.347111  1
  O  O11  1  0.156366  0.529597  0.652889  1
  O  O12  1  0.042936  0.723494  0.122694  1
  O  O13  1  0.542936  0.776506  0.877306  1
  O  O14  1  0.957064  0.223494  0.377306  1
  O  O15  1  0.457064  0.276506  0.622694  1
  O  O16  1  0.315572  0.727714  0.162152  1
  O  O17  1  0.815572  0.772286  0.837848  1
  O  O18  1  0.684428  0.227714  0.337848  1
  O  O19  1  0.184428  0.272286  0.662152  1
  O  O20  1  0.138996  0.576924  0.258011  1
  O  O21  1  0.638996  0.923076  0.741989  1
  O  O22  1  0.861004  0.076924  0.241989  1
  O  O23  1  0.361004  0.423076  0.758011  1
  O  O24  1  0.197998  0.278061  0.055368  1
  O  O25  1  0.697998  0.221939  0.944632  1
  O  O26  1  0.802002  0.778061  0.444632  1
  O  O27  1  0.302002  0.721939  0.555368  1
  O  O28  1  0.328626  0.249818  0.994351  1
  O  O29  1  0.828626  0.250182  0.005649  1
  O  O30  1  0.671374  0.749818  0.505649  1
  O  O31  1  0.171374  0.750182  0.494351  1
  O  O32  1  0.364833  0.401292  0.984322  1
  O  O33  1  0.864833  0.098708  0.015678  1
  O  O34  1  0.635167  0.901292  0.515678  1
  O  O35  1  0.135167  0.598708  0.484322  1
  O  O36  1  0.335297  0.877011  0.044601  1
  O  O37  1  0.835297  0.622989  0.955399  1
  O  O38  1  0.664703  0.377011  0.455399  1
  O  O39  1  0.164703  0.122989  0.544601  1
  O  O40  1  0.240764  0.937608  0.971597  1
  O  O41  1  0.740764  0.562392  0.028403  1
  O  O42  1  0.759236  0.437608  0.528403  1
  O  O43  1  0.259236  0.062392  0.471597  1
  O  O44  1  0.108069  0.848013  0.993992  1
  O  O45  1  0.608069  0.651987  0.006008  1
  O  O46  1  0.891931  0.348013  0.506008  1
  O  O47  1  0.391931  0.151987  0.493992  1
  O  O48  1  0.865165  0.680358  0.232214  1
  O  O49  1  0.365165  0.819642  0.767786  1
  O  O50  1  0.134835  0.180358  0.267786  1
  O  O51  1  0.634835  0.319642  0.732214  1
  O  O52  1  0.779507  0.556714  0.265722  1
  O  O53  1  0.279507  0.943286  0.734278  1
  O  O54  1  0.220493  0.056714  0.234278  1
  O  O55  1  0.720493  0.443286  0.765722  1
  O  O56  1  0.877301  0.456139  0.215381  1
  O  O57  1  0.377301  0.043861  0.784619  1
  O  O58  1  0.122699  0.956139  0.284619  1
  O  O59  1  0.622699  0.543861  0.715381  1
  O  O60  1  0.395954  0.705187  0.307428  1
  O  O61  1  0.895954  0.794813  0.692572  1
  O  O62  1  0.604046  0.205187  0.192572  1
  O  O63  1  0.104046  0.294813  0.807428  1
  O  O64  1  0.451007  0.590923  0.367036  1
  O  O65  1  0.951007  0.909077  0.632964  1
  O  O66  1  0.548993  0.090923  0.132964  1
  O  O67  1  0.048993  0.409077  0.867036  1
  O  O68  1  0.408601  0.479633  0.301899  1
  O  O69  1  0.908601  0.020367  0.698101  1
  O  O70  1  0.591399  0.979633  0.198101  1
  O  O71  1  0.091399  0.520367  0.801899  1
  P  P72  1  0.238446  0.449575  0.063533  1
  P  P73  1  0.738446  0.050425  0.936467  1
  P  P74  1  0.761554  0.949575  0.436467  1
  P  P75  1  0.261554  0.550425  0.563533  1
  P  P76  1  0.206578  0.753577  0.071275  1
  P  P77  1  0.706578  0.746423  0.928725  1
  P  P78  1  0.793422  0.253577  0.428725  1
  P  P79  1  0.293422  0.246423  0.571275  1
  P  P80  1  1.001081  0.581145  0.183460  1
  P  P81  1  0.501081  0.918855  0.816540  1
  P  P82  1  -0.001081  0.081145  0.316540  1
  P  P83  1  0.498919  0.418855  0.683460  1
  P  P84  1  0.320517  0.593262  0.232543  1
  P  P85  1  0.820517  0.906738  0.767457  1
  P  P86  1  0.679483  0.093262  0.267457  1
  P  P87  1  0.179483  0.406738  0.732543  1
