# generated using pymatgen
data_Na5GeP3
_symmetry_space_group_name_H-M   'P 1'
_cell_length_a   7.40148667
_cell_length_b   8.10447488
_cell_length_c   13.20985784
_cell_angle_alpha   90.22243563
_cell_angle_beta   90.00000000
_cell_angle_gamma   90.00000000
_symmetry_Int_Tables_number   1
_chemical_formula_structural   Na5GeP3
_chemical_formula_sum   'Na20 Ge4 P12'
_cell_volume   792.38950153
_cell_formula_units_Z   4
loop_
 _symmetry_equiv_pos_site_id
 _symmetry_equiv_pos_as_xyz
  1  'x, y, z'
loop_
 _atom_site_type_symbol
 _atom_site_label
 _atom_site_symmetry_multiplicity
 _atom_site_fract_x
 _atom_site_fract_y
 _atom_site_fract_z
 _atom_site_occupancy
  Na  Na0  1  0.148835  0.074854  0.241917  1
  Na  Na1  1  0.837158  0.922439  0.081404  1
  Na  Na2  1  0.337158  0.577561  0.418596  1
  Na  Na3  1  0.162842  0.077561  0.918596  1
  Na  Na4  1  0.493350  0.178415  0.742129  1
  Na  Na5  1  0.993350  0.321585  0.757871  1
  Na  Na6  1  0.506650  0.821585  0.257871  1
  Na  Na7  1  0.006650  0.678415  0.242129  1
  Na  Na8  1  0.018685  0.672889  0.586925  1
  Na  Na9  1  0.518685  0.827111  0.913075  1
  Na  Na10  1  0.981315  0.327111  0.413075  1
  Na  Na11  1  0.481315  0.172889  0.086925  1
  Na  Na12  1  0.466240  0.167504  0.415745  1
  Na  Na13  1  0.966240  0.332496  0.084255  1
  Na  Na14  1  0.533760  0.832496  0.584255  1
  Na  Na15  1  0.648835  0.425146  0.258084  1
  Na  Na16  1  0.851165  0.925146  0.758084  1
  Na  Na17  1  0.351165  0.574854  0.741916  1
  Na  Na18  1  0.033760  0.667504  0.915745  1
  Na  Na19  1  0.662842  0.422439  0.581404  1
  P  P20  1  0.237397  0.843146  0.080928  1
  P  P21  1  0.236211  0.914290  0.726559  1
  P  P22  1  0.736211  0.585710  0.773441  1
  P  P23  1  0.763789  0.085710  0.273441  1
  P  P24  1  0.813609  0.088501  0.566608  1
  P  P25  1  0.313609  0.411499  0.933392  1
  P  P26  1  0.186391  0.911499  0.433392  1
  P  P27  1  0.686391  0.588501  0.066608  1
  P  P28  1  0.263789  0.414290  0.226559  1
  P  P29  1  0.762603  0.156854  0.919072  1
  P  P30  1  0.737397  0.656854  0.419072  1
  P  P31  1  0.262603  0.343146  0.580928  1
  Ge  Ge32  1  0.357632  0.571327  0.086182  1
  Ge  Ge33  1  0.857632  0.928673  0.413818  1
  Ge  Ge34  1  0.642368  0.428673  0.913818  1
  Ge  Ge35  1  0.142368  0.071327  0.586182  1
