# generated using pymatgen
data_PrNbO4
_symmetry_space_group_name_H-M   'P 1'
_cell_length_a   5.25101100
_cell_length_b   5.57368174
_cell_length_c   6.83634815
_cell_angle_alpha   112.14576980
_cell_angle_beta   110.57596714
_cell_angle_gamma   94.57625743
_symmetry_Int_Tables_number   1
_chemical_formula_structural   PrNbO4
_chemical_formula_sum   'Pr2 Nb2 O8'
_cell_volume   168.22115392
_cell_formula_units_Z   2
loop_
 _symmetry_equiv_pos_site_id
 _symmetry_equiv_pos_as_xyz
  1  'x, y, z'
loop_
 _atom_site_type_symbol
 _atom_site_label
 _atom_site_symmetry_multiplicity
 _atom_site_fract_x
 _atom_site_fract_y
 _atom_site_fract_z
 _atom_site_occupancy
  O  O0  1  0.300799  0.142535  0.087305  1
  O  O1  1  0.786449  0.444802  0.087356  1
  O  O2  1  0.699200  0.857463  0.912694  1
  O  O3  1  0.213551  0.555199  0.912643  1
  O  O4  1  0.514153  0.709170  0.435500  1
  O  O5  1  0.921299  0.226293  0.435450  1
  O  O6  1  0.078701  0.773709  0.564551  1
  O  O7  1  0.485846  0.290829  0.564499  1
  Nb  Nb8  1  0.353195  0.603196  0.706312  1
  Nb  Nb9  1  0.646806  0.396805  0.293690  1
  Pr  Pr10  1  0.879584  0.129663  0.759310  1
  Pr  Pr11  1  0.120416  0.870338  0.240691  1
