# generated using pymatgen
data_BaNdNiSbO6
_symmetry_space_group_name_H-M   'P 1'
_cell_length_a   5.78868134
_cell_length_b   5.72556886
_cell_length_c   8.04626474
_cell_angle_alpha   90.03427172
_cell_angle_beta   90.00000000
_cell_angle_gamma   90.00000000
_symmetry_Int_Tables_number   1
_chemical_formula_structural   BaNdNiSbO6
_chemical_formula_sum   'Ba2 Nd2 Ni2 Sb2 O12'
_cell_volume   266.68127652
_cell_formula_units_Z   2
loop_
 _symmetry_equiv_pos_site_id
 _symmetry_equiv_pos_as_xyz
  1  'x, y, z'
loop_
 _atom_site_type_symbol
 _atom_site_label
 _atom_site_symmetry_multiplicity
 _atom_site_fract_x
 _atom_site_fract_y
 _atom_site_fract_z
 _atom_site_occupancy
  Ba  Ba0  1  0.509505  0.499038  0.250616  1
  Ba  Ba1  1  0.990495  0.999038  0.750616  1
  Nd  Nd2  1  0.045555  0.018131  0.252044  1
  Nd  Nd3  1  0.454445  0.518131  0.752044  1
  Ni  Ni4  1  0.991306  0.503194  0.000624  1
  Ni  Ni5  1  0.508694  0.003194  0.500624  1
  Sb  Sb6  1  0.994099  0.500635  0.499899  1
  Sb  Sb7  1  0.505901  0.000635  -0.000101  1
  O  O8  1  0.034026  0.452238  0.744968  1
  O  O9  1  0.255449  0.758820  0.961265  1
  O  O10  1  0.241691  0.746084  0.532167  1
  O  O11  1  0.258309  0.246084  0.032167  1
  O  O12  1  0.244551  0.258820  0.461265  1
  O  O13  1  0.465974  0.952238  0.244968  1
  O  O14  1  0.510786  0.101142  0.757892  1
  O  O15  1  0.717033  0.700911  0.549044  1
  O  O16  1  0.707749  0.719806  0.951480  1
  O  O17  1  0.792251  0.219806  0.451480  1
  O  O18  1  0.782967  0.200911  0.049044  1
  O  O19  1  0.989214  0.601142  0.257892  1
