# generated using pymatgen
data_HfSiO4
_symmetry_space_group_name_H-M   'P 1'
_cell_length_a   5.56457926
_cell_length_b   5.56457926
_cell_length_c   5.56457925
_cell_angle_alpha   106.93889084
_cell_angle_beta   106.93889080
_cell_angle_gamma   114.66404216
_symmetry_Int_Tables_number   1
_chemical_formula_structural   HfSiO4
_chemical_formula_sum   'Hf2 Si2 O8'
_cell_volume   131.81550742
_cell_formula_units_Z   2
loop_
 _symmetry_equiv_pos_site_id
 _symmetry_equiv_pos_as_xyz
  1  'x, y, z'
loop_
 _atom_site_type_symbol
 _atom_site_label
 _atom_site_symmetry_multiplicity
 _atom_site_fract_x
 _atom_site_fract_y
 _atom_site_fract_z
 _atom_site_occupancy
  O  O0  1  0.806591  0.371976  0.065384  1
  O  O1  1  0.741207  0.806591  0.934616  1
  O  O2  1  0.371976  0.806591  0.565384  1
  O  O3  1  0.806591  0.741207  0.434616  1
  O  O4  1  0.258793  0.193409  0.065384  1
  O  O5  1  0.193409  0.628024  0.934616  1
  O  O6  1  0.193409  0.258793  0.565384  1
  O  O7  1  0.628024  0.193409  0.434616  1
  Si  Si8  1  0.375000  0.625000  0.750000  1
  Si  Si9  1  0.625000  0.375000  0.250000  1
  Hf  Hf10  1  0.125000  0.875000  0.250000  1
  Hf  Hf11  1  0.875000  0.125000  0.750000  1
