# generated using pymatgen
data_Na4Ga3Si3IO12
_symmetry_space_group_name_H-M   'P 1'
_cell_length_a   9.19053053
_cell_length_b   9.19053053
_cell_length_c   9.19053053
_cell_angle_alpha   90.00000000
_cell_angle_beta   90.00000000
_cell_angle_gamma   90.00000000
_symmetry_Int_Tables_number   1
_chemical_formula_structural   Na4Ga3Si3IO12
_chemical_formula_sum   'Na8 Ga6 Si6 I2 O24'
_cell_volume   776.28598624
_cell_formula_units_Z   2
loop_
 _symmetry_equiv_pos_site_id
 _symmetry_equiv_pos_as_xyz
  1  'x, y, z'
loop_
 _atom_site_type_symbol
 _atom_site_label
 _atom_site_symmetry_multiplicity
 _atom_site_fract_x
 _atom_site_fract_y
 _atom_site_fract_z
 _atom_site_occupancy
  Ga  Ga0  1  0.000000  0.500000  0.250000  1
  Ga  Ga1  1  0.000000  0.500000  0.750000  1
  Ga  Ga2  1  0.250000  0.000000  0.500000  1
  Ga  Ga3  1  0.500000  0.750000  0.000000  1
  Ga  Ga4  1  0.500000  0.250000  0.000000  1
  Ga  Ga5  1  0.750000  0.000000  0.500000  1
  I  I6  1  0.000000  0.000000  0.000000  1
  I  I7  1  0.500000  0.500000  0.500000  1
  Na  Na8  1  0.806571  0.806571  0.193429  1
  Na  Na9  1  0.806571  0.193429  0.806571  1
  Na  Na10  1  0.193429  0.806571  0.806571  1
  Na  Na11  1  0.193429  0.193429  0.193429  1
  Na  Na12  1  0.306571  0.306571  0.693429  1
  Na  Na13  1  0.306571  0.693429  0.306571  1
  Na  Na14  1  0.693429  0.306571  0.306571  1
  Na  Na15  1  0.693429  0.693429  0.693429  1
  O  O16  1  0.562333  0.862380  0.154091  1
  O  O17  1  0.562333  0.137620  0.845909  1
  O  O18  1  0.845909  0.562333  0.137620  1
  O  O19  1  0.845909  0.437667  0.862380  1
  O  O20  1  0.862380  0.154091  0.562333  1
  O  O21  1  0.862380  0.845909  0.437667  1
  O  O22  1  0.062333  0.345909  0.637620  1
  O  O23  1  0.062333  0.654091  0.362380  1
  O  O24  1  0.137620  0.845909  0.562333  1
  O  O25  1  0.137620  0.154091  0.437667  1
  O  O26  1  0.154091  0.562333  0.862380  1
  O  O27  1  0.154091  0.437667  0.137620  1
  O  O28  1  0.345909  0.362380  0.937667  1
  O  O29  1  0.345909  0.637620  0.062333  1
  O  O30  1  0.362380  0.062333  0.654091  1
  O  O31  1  0.362380  0.937667  0.345909  1
  O  O32  1  0.437667  0.862380  0.845909  1
  O  O33  1  0.437667  0.137620  0.154091  1
  O  O34  1  0.637620  0.062333  0.345909  1
  O  O35  1  0.637620  0.937667  0.654091  1
  O  O36  1  0.654091  0.362380  0.062333  1
  O  O37  1  0.654091  0.637620  0.937667  1
  O  O38  1  0.937667  0.345909  0.362380  1
  O  O39  1  0.937667  0.654091  0.637620  1
  Si  Si40  1  0.750000  0.500000  0.000000  1
  Si  Si41  1  0.000000  0.750000  0.500000  1
  Si  Si42  1  0.250000  0.500000  0.000000  1
  Si  Si43  1  0.500000  0.000000  0.750000  1
  Si  Si44  1  0.500000  0.000000  0.250000  1
  Si  Si45  1  0.000000  0.250000  0.500000  1
