# generated using pymatgen
data_NaYTiNbO6F
_symmetry_space_group_name_H-M   'P 1'
_cell_length_a   7.33528292
_cell_length_b   14.66700983
_cell_length_c   12.70113808
_cell_angle_alpha   30.00744959
_cell_angle_beta   54.72302674
_cell_angle_gamma   59.99197952
_symmetry_Int_Tables_number   1
_chemical_formula_structural   NaYTiNbO6F
_chemical_formula_sum   'Na4 Y4 Ti4 Nb4 O24 F4'
_cell_volume   557.89926945
_cell_formula_units_Z   4
loop_
 _symmetry_equiv_pos_site_id
 _symmetry_equiv_pos_as_xyz
  1  'x, y, z'
loop_
 _atom_site_type_symbol
 _atom_site_label
 _atom_site_symmetry_multiplicity
 _atom_site_fract_x
 _atom_site_fract_y
 _atom_site_fract_z
 _atom_site_occupancy
  F  F0  1  0.122284  0.002737  0.122273  1
  F  F1  1  0.127746  0.497264  0.127724  1
  F  F2  1  0.877722  0.002736  0.872276  1
  F  F3  1  0.872303  0.497263  0.877727  1
  Na  Na4  1  0.500030  0.983990  0.015970  1
  Na  Na5  1  -0.000051  0.516010  0.984030  1
  Na  Na6  1  0.984094  0.750000  0.000000  1
  Na  Na7  1  0.015865  0.750000  0.500000  1
  Nb  Nb8  1  0.489164  0.750000  0.000000  1
  Nb  Nb9  1  -0.000030  0.011002  0.488979  1
  Nb  Nb10  1  0.499932  0.488998  0.511021  1
  Nb  Nb11  1  0.510765  0.750000  0.500000  1
  O  O12  1  0.184203  0.203912  0.162813  1
  O  O13  1  0.175370  0.028244  0.547391  1
  O  O14  1  0.578951  0.203959  0.171060  1
  O  O15  1  0.162845  0.699079  0.184173  1
  O  O16  1  0.421012  0.203962  0.421044  1
  O  O17  1  0.171025  0.296038  0.578956  1
  O  O18  1  0.547404  0.499006  0.175339  1
  O  O19  1  0.396094  0.000994  0.824661  1
  O  O20  1  0.173342  0.471730  0.603931  1
  O  O21  1  0.582363  0.296116  0.570619  1
  O  O22  1  0.815832  0.203884  0.429381  1
  O  O23  1  0.560563  0.685608  0.189423  1
  O  O24  1  0.417653  0.296088  0.837187  1
  O  O25  1  0.439427  0.685589  0.439404  1
  O  O26  1  0.189415  0.814411  0.560596  1
  O  O27  1  0.603925  0.000985  0.173369  1
  O  O28  1  0.826640  0.471756  0.452609  1
  O  O29  1  0.452634  0.499015  0.826631  1
  O  O30  1  0.570675  0.800912  0.582345  1
  O  O31  1  0.828988  0.296041  0.828940  1
  O  O32  1  0.837188  0.699088  0.417655  1
  O  O33  1  0.429350  0.800921  0.815827  1
  O  O34  1  0.824663  0.028270  0.396069  1
  O  O35  1  0.810624  0.814392  0.810577  1
  Ti  Ti36  1  0.516797  0.250000  0.000000  1
  Ti  Ti37  1  0.499970  0.016602  0.483406  1
  Ti  Ti38  1  0.483164  0.250000  0.500000  1
  Ti  Ti39  1  0.999987  0.483398  0.516594  1
  Y  Y40  1  -0.000011  0.966312  0.033696  1
  Y  Y41  1  0.500004  0.533688  0.966304  1
  Y  Y42  1  0.033713  0.250000  0.000000  1
  Y  Y43  1  0.966365  0.250000  0.500000  1
