# generated using pymatgen
data_RbTiZnOF5
_symmetry_space_group_name_H-M   'P 1'
_cell_length_a   7.42560124
_cell_length_b   7.32424684
_cell_length_c   7.42560200
_cell_angle_alpha   60.45050343
_cell_angle_beta   58.81185741
_cell_angle_gamma   60.45050084
_symmetry_Int_Tables_number   1
_chemical_formula_structural   RbTiZnOF5
_chemical_formula_sum   'Rb2 Ti2 Zn2 O2 F10'
_cell_volume   284.79492293
_cell_formula_units_Z   2
loop_
 _symmetry_equiv_pos_site_id
 _symmetry_equiv_pos_as_xyz
  1  'x, y, z'
loop_
 _atom_site_type_symbol
 _atom_site_label
 _atom_site_symmetry_multiplicity
 _atom_site_fract_x
 _atom_site_fract_y
 _atom_site_fract_z
 _atom_site_occupancy
  F  F0  1  0.092817  0.064674  0.660184  1
  F  F1  1  0.075055  0.674945  0.075055  1
  F  F2  1  0.092817  0.682325  0.660184  1
  F  F3  1  0.660184  0.064674  0.092817  1
  F  F4  1  0.339816  0.317675  0.907183  1
  F  F5  1  0.660184  0.682325  0.092817  1
  F  F6  1  0.339816  0.935326  0.907183  1
  F  F7  1  0.907183  0.317675  0.339816  1
  F  F8  1  0.907183  0.935326  0.339816  1
  F  F9  1  0.924945  0.325055  0.924945  1
  O  O10  1  0.284299  0.965701  0.284299  1
  O  O11  1  0.715701  0.034299  0.715701  1
  Rb  Rb12  1  0.375403  0.374597  0.375403  1
  Rb  Rb13  1  0.624597  0.625403  0.624597  1
  Ti  Ti14  1  0.000000  0.000000  0.500000  1
  Ti  Ti15  1  0.500000  0.000000  0.000000  1
  Zn  Zn16  1  0.000000  0.000000  0.000000  1
  Zn  Zn17  1  0.000000  0.500000  0.000000  1
