# generated using pymatgen
data_NaCeTiNbO6F
_symmetry_space_group_name_H-M   'P 1'
_cell_length_a   7.37884274
_cell_length_b   14.79322831
_cell_length_c   12.82067410
_cell_angle_alpha   29.92691436
_cell_angle_beta   54.86236780
_cell_angle_gamma   60.07944698
_symmetry_Int_Tables_number   1
_chemical_formula_structural   NaCeTiNbO6F
_chemical_formula_sum   'Na4 Ce4 Ti4 Nb4 O24 F4'
_cell_volume   570.95688330
_cell_formula_units_Z   4
loop_
 _symmetry_equiv_pos_site_id
 _symmetry_equiv_pos_as_xyz
  1  'x, y, z'
loop_
 _atom_site_type_symbol
 _atom_site_label
 _atom_site_symmetry_multiplicity
 _atom_site_fract_x
 _atom_site_fract_y
 _atom_site_fract_z
 _atom_site_occupancy
  Ce  Ce0  1  0.999976  0.978512  0.021501  1
  Ce  Ce1  1  0.021588  0.250000  0.000000  1
  Ce  Ce2  1  0.500002  0.521488  0.978499  1
  Ce  Ce3  1  0.978503  0.250000  0.500000  1
  F  F4  1  0.136848  0.988161  0.136854  1
  F  F5  1  0.113124  0.511863  0.113176  1
  F  F6  1  0.863202  0.988137  0.886824  1
  F  F7  1  0.886878  0.511839  0.863146  1
  Na  Na8  1  0.500024  0.977710  0.022241  1
  Na  Na9  1  -0.000073  0.522290  0.977759  1
  Na  Na10  1  0.977476  0.750000  0.000000  1
  Na  Na11  1  0.022483  0.750000  0.500000  1
  Nb  Nb12  1  -0.000079  0.007623  0.492526  1
  Nb  Nb13  1  0.500220  0.492377  0.507474  1
  Nb  Nb14  1  0.507456  0.750000  0.500000  1
  Nb  Nb15  1  0.492189  0.750000  0.000000  1
  O  O16  1  0.188070  0.198888  0.168647  1
  O  O17  1  0.583945  0.208905  0.166094  1
  O  O18  1  0.168658  0.694412  0.188054  1
  O  O19  1  0.166086  0.291103  0.583895  1
  O  O20  1  0.416083  0.208897  0.416105  1
  O  O21  1  0.176429  0.476442  0.595704  1
  O  O22  1  0.820721  0.023558  0.404296  1
  O  O23  1  0.548655  0.498544  0.179278  1
  O  O24  1  0.811985  0.198935  0.433518  1
  O  O25  1  0.561860  0.686800  0.188182  1
  O  O26  1  0.576893  0.301065  0.566482  1
  O  O27  1  0.188177  0.813211  0.561785  1
  O  O28  1  0.438168  0.686789  0.438215  1
  O  O29  1  0.423140  0.301112  0.831353  1
  O  O30  1  0.179352  0.023562  0.548578  1
  O  O31  1  0.823631  0.476438  0.451422  1
  O  O32  1  0.451361  0.498549  0.823623  1
  O  O33  1  0.595705  0.001451  0.176377  1
  O  O34  1  0.831371  0.694384  0.423154  1
  O  O35  1  0.833944  0.291095  0.833906  1
  O  O36  1  0.566447  0.805616  0.576846  1
  O  O37  1  0.433590  0.805588  0.811946  1
  O  O38  1  0.404299  0.001456  0.820722  1
  O  O39  1  0.811824  0.813200  0.811818  1
  Ti  Ti40  1  0.500291  0.013664  0.486144  1
  Ti  Ti41  1  0.486167  0.250000  0.500000  1
  Ti  Ti42  1  0.513426  0.250000  0.000000  1
  Ti  Ti43  1  -0.000092  0.486336  0.513856  1
