# generated using pymatgen
data_ErP5O14
_symmetry_space_group_name_H-M   'P 1'
_cell_length_a   9.17991353
_cell_length_b   9.17991353
_cell_length_c   12.55056132
_cell_angle_alpha   88.90080344
_cell_angle_beta   88.90080344
_cell_angle_gamma   89.58541198
_symmetry_Int_Tables_number   1
_chemical_formula_structural   ErP5O14
_chemical_formula_sum   'Er4 P20 O56'
_cell_volume   1057.23182880
_cell_formula_units_Z   4
loop_
 _symmetry_equiv_pos_site_id
 _symmetry_equiv_pos_as_xyz
  1  'x, y, z'
loop_
 _atom_site_type_symbol
 _atom_site_label
 _atom_site_symmetry_multiplicity
 _atom_site_fract_x
 _atom_site_fract_y
 _atom_site_fract_z
 _atom_site_occupancy
  O  O0  1  0.966022  0.149366  0.367807  1
  O  O1  1  0.850634  0.033978  0.132193  1
  O  O2  1  0.033978  0.850634  0.632193  1
  O  O3  1  0.149366  0.966022  0.867807  1
  O  O4  1  0.078316  0.871532  0.426161  1
  O  O5  1  0.128468  0.921684  0.073839  1
  O  O6  1  0.921684  0.128468  0.573839  1
  O  O7  1  0.871532  0.078316  0.926161  1
  O  O8  1  0.359129  0.484594  0.089378  1
  O  O9  1  0.515406  0.640871  0.410622  1
  O  O10  1  0.640871  0.515406  0.910622  1
  O  O11  1  0.484594  0.359129  0.589378  1
  O  O12  1  0.645407  0.577689  0.112123  1
  O  O13  1  0.422311  0.354593  0.387877  1
  O  O14  1  0.354593  0.422311  0.887877  1
  O  O15  1  0.577689  0.645407  0.612123  1
  O  O16  1  0.151413  0.346198  0.008326  1
  O  O17  1  0.653802  0.848587  0.491674  1
  O  O18  1  0.848587  0.653802  0.991674  1
  O  O19  1  0.898205  0.288219  0.056197  1
  O  O20  1  0.346198  0.151413  0.508326  1
  O  O21  1  0.800002  0.895267  0.318690  1
  O  O22  1  0.895267  0.800002  0.818690  1
  O  O23  1  0.199998  0.104733  0.681310  1
  O  O24  1  0.540789  0.231415  0.783520  1
  O  O25  1  0.768585  0.459211  0.716480  1
  O  O26  1  0.459211  0.768585  0.216480  1
  O  O27  1  0.231415  0.540789  0.283520  1
  O  O28  1  0.720284  0.024246  0.731002  1
  O  O29  1  0.975754  0.279716  0.768998  1
  O  O30  1  0.279716  0.975754  0.268998  1
  O  O31  1  0.024246  0.720284  0.231002  1
  O  O32  1  0.469389  0.020911  0.661682  1
  O  O33  1  0.979089  0.530611  0.838318  1
  O  O34  1  0.530611  0.979089  0.338318  1
  O  O35  1  0.020911  0.469389  0.161682  1
  O  O36  1  0.503731  0.982458  0.860080  1
  O  O37  1  0.017542  0.496269  0.639920  1
  O  O38  1  0.496269  0.017542  0.139920  1
  O  O39  1  0.982458  0.503731  0.360080  1
  O  O40  1  0.606316  0.778707  0.971113  1
  O  O41  1  0.221293  0.393684  0.528887  1
  O  O42  1  0.393684  0.221293  0.028887  1
  O  O43  1  0.778707  0.606316  0.471113  1
  O  O44  1  0.462443  0.718011  0.803309  1
  O  O45  1  0.281989  0.537557  0.696691  1
  O  O46  1  0.537557  0.281989  0.196691  1
  O  O47  1  0.718011  0.462443  0.303309  1
  O  O48  1  0.342437  0.825364  0.972384  1
  O  O49  1  0.174636  0.657563  0.527616  1
  O  O50  1  0.657563  0.174636  0.027616  1
  O  O51  1  0.825364  0.342437  0.472384  1
  O  O52  1  0.288219  0.898205  0.556197  1
  O  O53  1  0.101795  0.711781  0.943803  1
  O  O54  1  0.711781  0.101795  0.443803  1
  O  O55  1  0.104733  0.199998  0.181310  1
  P  P56  1  0.324496  0.384608  0.001157  1
  P  P57  1  0.615392  0.675504  0.498843  1
  P  P58  1  0.675504  0.615392  0.998843  1
  P  P59  1  0.384608  0.324496  0.501157  1
  P  P60  1  0.049673  0.316573  0.109910  1
  P  P61  1  0.683427  0.950327  0.390090  1
  P  P62  1  0.950327  0.683427  0.890090  1
  P  P63  1  0.316573  0.049673  0.609910  1
  P  P64  1  0.874115  0.171801  0.465673  1
  P  P65  1  0.828199  0.125885  0.034327  1
  P  P66  1  0.125885  0.828199  0.534327  1
  P  P67  1  0.171801  0.874115  0.965673  1
  P  P68  1  0.817857  0.477980  0.392897  1
  P  P69  1  0.522020  0.182143  0.107103  1
  P  P70  1  0.182143  0.522020  0.607103  1
  P  P71  1  0.477980  0.817857  0.892897  1
  P  P72  1  0.076851  0.571013  0.258225  1
  P  P73  1  0.428987  0.923149  0.241775  1
  P  P74  1  0.923149  0.428987  0.741775  1
  P  P75  1  0.571013  0.076851  0.758225  1
  Er  Er76  1  0.479833  0.520167  0.250000  1
  Er  Er77  1  0.520167  0.479833  0.750000  1
  Er  Er78  1  0.033856  0.966144  0.250000  1
  Er  Er79  1  0.966144  0.033856  0.750000  1
