# generated using pymatgen
data_CsNa2Si17
_symmetry_space_group_name_H-M   'P 1'
_cell_length_a   10.49269937
_cell_length_b   10.49269938
_cell_length_c   10.49269938
_cell_angle_alpha   60.00000000
_cell_angle_beta   59.99999998
_cell_angle_gamma   60.00000002
_symmetry_Int_Tables_number   1
_chemical_formula_structural   CsNa2Si17
_chemical_formula_sum   'Cs2 Na4 Si34'
_cell_volume   816.85823731
_cell_formula_units_Z   2
loop_
 _symmetry_equiv_pos_site_id
 _symmetry_equiv_pos_as_xyz
  1  'x, y, z'
loop_
 _atom_site_type_symbol
 _atom_site_label
 _atom_site_symmetry_multiplicity
 _atom_site_fract_x
 _atom_site_fract_y
 _atom_site_fract_z
 _atom_site_occupancy
  Na  Na0  1  0.000000  0.500000  0.000000  1
  Na  Na1  1  0.500000  0.000000  0.000000  1
  Na  Na2  1  0.000000  0.000000  0.500000  1
  Na  Na3  1  0.000000  0.000000  0.000000  1
  Si  Si4  1  0.629976  0.234524  0.005524  1
  Si  Si5  1  0.629976  0.005524  0.629976  1
  Si  Si6  1  0.234524  0.629976  0.005524  1
  Si  Si7  1  0.234524  0.005524  0.629976  1
  Si  Si8  1  0.005524  0.234524  0.629976  1
  Si  Si9  1  0.765476  0.370024  0.370024  1
  Si  Si10  1  0.370024  0.765476  0.370024  1
  Si  Si11  1  0.994476  0.370024  0.765476  1
  Si  Si12  1  0.370024  0.994476  0.765476  1
  Si  Si13  1  0.994476  0.370024  0.370024  1
  Si  Si14  1  0.765476  0.370024  0.994476  1
  Si  Si15  1  0.370024  0.765476  0.994476  1
  Si  Si16  1  0.370024  0.994476  0.370024  1
  Si  Si17  1  0.005524  0.629976  0.234524  1
  Si  Si18  1  0.005524  0.629976  0.629976  1
  Si  Si19  1  0.629976  0.629976  0.005524  1
  Si  Si20  1  0.629976  0.629976  0.234524  1
  Si  Si21  1  0.234524  0.629976  0.629976  1
  Si  Si22  1  0.629976  0.234524  0.629976  1
  Si  Si23  1  0.765476  0.994476  0.370024  1
  Si  Si24  1  0.994476  0.765476  0.370024  1
  Si  Si25  1  0.370024  0.370024  0.994476  1
  Si  Si26  1  0.217210  0.217210  0.217210  1
  Si  Si27  1  0.782790  0.782790  0.151630  1
  Si  Si28  1  0.151630  0.782790  0.782790  1
  Si  Si29  1  0.782790  0.151630  0.782790  1
  Si  Si30  1  0.848370  0.217210  0.217210  1
  Si  Si31  1  0.217210  0.848370  0.217210  1
  Si  Si32  1  0.217210  0.217210  0.848370  1
  Si  Si33  1  0.782790  0.782790  0.782790  1
  Si  Si34  1  0.125000  0.125000  0.125000  1
  Si  Si35  1  0.875000  0.875000  0.875000  1
  Si  Si36  1  0.629976  0.005524  0.234524  1
  Si  Si37  1  0.370024  0.370024  0.765476  1
  Cs  Cs38  1  0.625000  0.625000  0.625000  1
  Cs  Cs39  1  0.375000  0.375000  0.375000  1
