# generated using pymatgen
data_Ce(TeO3)2
_symmetry_space_group_name_H-M   'P 1'
_cell_length_a   7.12645200
_cell_length_b   7.42035937
_cell_length_c   11.33018497
_cell_angle_alpha   90.00000000
_cell_angle_beta   90.00000000
_cell_angle_gamma   107.46503775
_symmetry_Int_Tables_number   1
_chemical_formula_structural   Ce(TeO3)2
_chemical_formula_sum   'Ce4 Te8 O24'
_cell_volume   571.52900185
_cell_formula_units_Z   4
loop_
 _symmetry_equiv_pos_site_id
 _symmetry_equiv_pos_as_xyz
  1  'x, y, z'
loop_
 _atom_site_type_symbol
 _atom_site_label
 _atom_site_symmetry_multiplicity
 _atom_site_fract_x
 _atom_site_fract_y
 _atom_site_fract_z
 _atom_site_occupancy
  O  O0  1  0.185689  0.624186  0.775714  1
  O  O1  1  0.314311  0.875814  0.275714  1
  O  O2  1  0.814311  0.375814  0.224286  1
  O  O3  1  0.685689  0.124186  0.724286  1
  O  O4  1  0.046311  0.182468  0.597470  1
  O  O5  1  0.453689  0.317532  0.097470  1
  O  O6  1  0.953689  0.817532  0.402530  1
  O  O7  1  0.546311  0.682468  0.902530  1
  O  O8  1  0.317502  0.795927  0.522013  1
  O  O9  1  0.182498  0.704073  0.022013  1
  O  O10  1  0.682498  0.204073  0.477987  1
  O  O11  1  0.817502  0.295927  0.977987  1
  O  O12  1  0.860684  0.834981  0.746771  1
  O  O13  1  0.639316  0.665019  0.246771  1
  O  O14  1  0.139316  0.165019  0.253229  1
  O  O15  1  0.360684  0.334981  0.753229  1
  O  O16  1  0.584495  0.590469  0.598454  1
  O  O17  1  0.915505  0.909531  0.098454  1
  O  O18  1  0.415505  0.409531  0.401546  1
  O  O19  1  0.084495  0.090469  0.901546  1
  O  O20  1  0.927804  0.539808  0.597605  1
  O  O21  1  0.572196  0.960192  0.097605  1
  O  O22  1  0.072196  0.460192  0.402395  1
  O  O23  1  0.427804  0.039808  0.902395  1
  Te  Te24  1  0.272974  0.540721  0.918575  1
  Te  Te25  1  0.227026  0.959279  0.418575  1
  Te  Te26  1  0.727026  0.459279  0.081425  1
  Te  Te27  1  0.772974  0.040721  0.581425  1
  Te  Te28  1  0.258188  0.069112  0.776387  1
  Te  Te29  1  0.241812  0.430888  0.276387  1
  Te  Te30  1  0.741812  0.930888  0.223613  1
  Te  Te31  1  0.758188  0.569112  0.723613  1
  Ce  Ce32  1  0.240092  0.501487  0.591397  1
  Ce  Ce33  1  0.259908  0.998513  0.091397  1
  Ce  Ce34  1  0.759908  0.498513  0.408603  1
  Ce  Ce35  1  0.740092  0.001487  0.908603  1
