# generated using pymatgen
data_CaSiO3
_symmetry_space_group_name_H-M   'P 1'
_cell_length_a   6.25039720
_cell_length_b   6.25039721
_cell_length_c   6.25039721
_cell_angle_alpha   109.40116692
_cell_angle_beta   109.40116690
_cell_angle_gamma   109.61141907
_symmetry_Int_Tables_number   1
_chemical_formula_structural   CaSiO3
_chemical_formula_sum   'Ca4 Si4 O12'
_cell_volume   187.97453105
_cell_formula_units_Z   4
loop_
 _symmetry_equiv_pos_site_id
 _symmetry_equiv_pos_as_xyz
  1  'x, y, z'
loop_
 _atom_site_type_symbol
 _atom_site_label
 _atom_site_symmetry_multiplicity
 _atom_site_fract_x
 _atom_site_fract_y
 _atom_site_fract_z
 _atom_site_occupancy
  O  O0  1  0.739040  0.989242  0.250202  1
  O  O1  1  0.488838  0.739040  0.749798  1
  O  O2  1  0.989242  0.739040  0.250202  1
  O  O3  1  0.739040  0.488838  0.749798  1
  O  O4  1  0.010758  0.260960  0.749798  1
  O  O5  1  0.260960  0.511162  0.250202  1
  O  O6  1  0.260960  0.010758  0.749798  1
  O  O7  1  0.511162  0.260960  0.250202  1
  O  O8  1  0.239151  0.239151  0.478302  1
  O  O9  1  0.239151  0.760849  0.000000  1
  O  O10  1  0.760849  0.239151  0.000000  1
  O  O11  1  0.760849  0.760849  0.521698  1
  Si  Si12  1  0.000000  0.000000  0.500000  1
  Si  Si13  1  0.000000  0.500000  0.000000  1
  Si  Si14  1  0.500000  0.000000  0.000000  1
  Si  Si15  1  0.500000  0.500000  0.500000  1
  Ca  Ca16  1  0.000000  0.500000  0.500000  1
  Ca  Ca17  1  0.500000  0.000000  0.500000  1
  Ca  Ca18  1  0.500000  0.500000  0.000000  1
  Ca  Ca19  1  0.000000  0.000000  0.000000  1
