# generated using pymatgen
data_Ba4Nb14O23
_symmetry_space_group_name_H-M   'P 1'
_cell_length_a   4.22424697
_cell_length_b   12.34311858
_cell_length_c   12.34311858
_cell_angle_alpha   118.16487568
_cell_angle_beta   90.00000000
_cell_angle_gamma   90.00000000
_symmetry_Int_Tables_number   1
_chemical_formula_structural   Ba4Nb14O23
_chemical_formula_sum   'Ba4 Nb14 O23'
_cell_volume   567.37111985
_cell_formula_units_Z   1
loop_
 _symmetry_equiv_pos_site_id
 _symmetry_equiv_pos_as_xyz
  1  'x, y, z'
loop_
 _atom_site_type_symbol
 _atom_site_label
 _atom_site_symmetry_multiplicity
 _atom_site_fract_x
 _atom_site_fract_y
 _atom_site_fract_z
 _atom_site_occupancy
  O  O0  1  0.499999  0.338683  0.338684  1
  O  O1  1  0.499999  0.661317  0.661317  1
  O  O2  1  0.000000  0.500000  0.500000  1
  O  O3  1  0.499999  0.595796  0.404203  1
  O  O4  1  0.499999  0.404204  0.595797  1
  O  O5  1  0.499999  0.135031  0.531539  1
  O  O6  1  0.499999  0.864968  0.468461  1
  O  O7  1  0.499999  0.531539  0.135031  1
  O  O8  1  0.499999  0.468461  0.864969  1
  O  O9  1  0.000000  0.029316  0.637016  1
  O  O10  1  0.000000  0.970683  0.362984  1
  O  O11  1  0.000000  0.637016  0.029317  1
  O  O12  1  0.000000  0.362984  0.970683  1
  O  O13  1  0.499999  0.929608  0.730263  1
  O  O14  1  0.499999  0.070391  0.269737  1
  O  O15  1  0.499999  0.730263  0.929609  1
  O  O16  1  0.499999  0.269737  0.070391  1
  O  O17  1  0.000000  0.829161  0.829161  1
  O  O18  1  0.000000  0.100353  0.899647  1
  O  O19  1  0.000000  0.899647  0.100353  1
  O  O20  1  0.000000  0.170840  0.170840  1
  O  O21  1  0.000000  0.695582  0.304418  1
  O  O22  1  0.000000  0.304418  0.695582  1
  Nb  Nb23  1  0.499999  0.500000  0.500000  1
  Nb  Nb24  1  0.499999  0.041840  0.639295  1
  Nb  Nb25  1  0.499999  0.958161  0.360705  1
  Nb  Nb26  1  0.499999  0.639295  0.041839  1
  Nb  Nb27  1  0.499999  0.360705  0.958160  1
  Nb  Nb28  1  0.499999  0.837364  0.837364  1
  Nb  Nb29  1  0.499999  0.162636  0.162636  1
  Nb  Nb30  1  0.499999  0.702079  0.297921  1
  Nb  Nb31  1  0.499999  0.297921  0.702080  1
  Nb  Nb32  1  0.000000  0.000000  0.000000  1
  Nb  Nb33  1  0.000000  0.203558  0.796442  1
  Nb  Nb34  1  0.499999  0.900683  0.099318  1
  Nb  Nb35  1  0.499999  0.099317  0.900682  1
  Nb  Nb36  1  0.000000  0.796442  0.203558  1
  Ba  Ba37  1  0.000000  0.771416  0.567659  1
  Ba  Ba38  1  0.000000  0.228583  0.432340  1
  Ba  Ba39  1  0.000000  0.567660  0.771416  1
  Ba  Ba40  1  0.000000  0.432341  0.228584  1
