# generated using pymatgen
data_Ta6Si7Ni16
_symmetry_space_group_name_H-M   'P 1'
_cell_length_a   7.94185099
_cell_length_b   7.94185099
_cell_length_c   7.94185099
_cell_angle_alpha   59.99999997
_cell_angle_beta   59.99999997
_cell_angle_gamma   60.00000000
_symmetry_Int_Tables_number   1
_chemical_formula_structural   Ta6Si7Ni16
_chemical_formula_sum   'Ta6 Si7 Ni16'
_cell_volume   354.20134424
_cell_formula_units_Z   1
loop_
 _symmetry_equiv_pos_site_id
 _symmetry_equiv_pos_as_xyz
  1  'x, y, z'
loop_
 _atom_site_type_symbol
 _atom_site_label
 _atom_site_symmetry_multiplicity
 _atom_site_fract_x
 _atom_site_fract_y
 _atom_site_fract_z
 _atom_site_occupancy
  Si  Si0  1  0.500000  0.500000  0.500000  1
  Si  Si1  1  0.500000  0.000000  0.500000  1
  Si  Si2  1  0.000000  0.500000  0.000000  1
  Si  Si3  1  0.000000  0.500000  0.500000  1
  Si  Si4  1  0.500000  0.500000  0.000000  1
  Si  Si5  1  0.000000  0.000000  0.500000  1
  Si  Si6  1  0.500000  0.000000  0.000000  1
  Ni  Ni7  1  0.832759  0.832759  0.501724  1
  Ni  Ni8  1  0.501724  0.832759  0.832759  1
  Ni  Ni9  1  0.832759  0.501724  0.832759  1
  Ni  Ni10  1  0.498276  0.167241  0.167241  1
  Ni  Ni11  1  0.167241  0.498276  0.167241  1
  Ni  Ni12  1  0.167241  0.167241  0.498276  1
  Ni  Ni13  1  0.832759  0.832759  0.832759  1
  Ni  Ni14  1  0.383350  0.383350  0.383350  1
  Ni  Ni15  1  0.616650  0.616650  0.150051  1
  Ni  Ni16  1  0.150051  0.616650  0.616650  1
  Ni  Ni17  1  0.616650  0.150051  0.616650  1
  Ni  Ni18  1  0.849949  0.383350  0.383350  1
  Ni  Ni19  1  0.383350  0.849949  0.383350  1
  Ni  Ni20  1  0.383350  0.383350  0.849949  1
  Ni  Ni21  1  0.616650  0.616650  0.616650  1
  Ni  Ni22  1  0.167241  0.167241  0.167241  1
  Ta  Ta23  1  0.202819  0.797181  0.797181  1
  Ta  Ta24  1  0.202819  0.797181  0.202819  1
  Ta  Ta25  1  0.797181  0.202819  0.797181  1
  Ta  Ta26  1  0.202819  0.202819  0.797181  1
  Ta  Ta27  1  0.797181  0.797181  0.202819  1
  Ta  Ta28  1  0.797181  0.202819  0.202819  1
