# generated using pymatgen
data_CaSnO3
_symmetry_space_group_name_H-M   'P 1'
_cell_length_a   6.08219617
_cell_length_b   6.08219671
_cell_length_c   6.08219635
_cell_angle_alpha   54.51383253
_cell_angle_beta   54.51382886
_cell_angle_gamma   54.51383629
_symmetry_Int_Tables_number   1
_chemical_formula_structural   CaSnO3
_chemical_formula_sum   'Ca2 Sn2 O6'
_cell_volume   138.75074948
_cell_formula_units_Z   2
loop_
 _symmetry_equiv_pos_site_id
 _symmetry_equiv_pos_as_xyz
  1  'x, y, z'
loop_
 _atom_site_type_symbol
 _atom_site_label
 _atom_site_symmetry_multiplicity
 _atom_site_fract_x
 _atom_site_fract_y
 _atom_site_fract_z
 _atom_site_occupancy
  Ca  Ca0  1  0.363280  0.363280  0.363280  1
  Ca  Ca1  1  0.636720  0.636720  0.636720  1
  Sn  Sn2  1  0.845387  0.845387  0.845387  1
  Sn  Sn3  1  0.154613  0.154613  0.154613  1
  O  O4  1  0.208470  0.556503  0.963475  1
  O  O5  1  0.556503  0.963475  0.208470  1
  O  O6  1  0.443497  0.036525  0.791530  1
  O  O7  1  0.036525  0.791530  0.443497  1
  O  O8  1  0.963475  0.208470  0.556503  1
  O  O9  1  0.791530  0.443497  0.036525  1
