# generated using pymatgen
data_Ba10Ta10(N3O7)3
_symmetry_space_group_name_H-M   'P 1'
_cell_length_a   4.13157633
_cell_length_b   4.13789903
_cell_length_c   41.51311658
_cell_angle_alpha   90.00000000
_cell_angle_beta   90.00000000
_cell_angle_gamma   90.00000000
_symmetry_Int_Tables_number   1
_chemical_formula_structural   Ba10Ta10(N3O7)3
_chemical_formula_sum   'Ba10 Ta10 N9 O21'
_cell_volume   709.71013771
_cell_formula_units_Z   1
loop_
 _symmetry_equiv_pos_site_id
 _symmetry_equiv_pos_as_xyz
  1  'x, y, z'
loop_
 _atom_site_type_symbol
 _atom_site_label
 _atom_site_symmetry_multiplicity
 _atom_site_fract_x
 _atom_site_fract_y
 _atom_site_fract_z
 _atom_site_occupancy
  Ba  Ba0  1  0.000000  0.000000  0.998465  1
  Ba  Ba1  1  0.000000  0.000000  0.100285  1
  Ba  Ba2  1  0.000000  0.000000  0.200000  1
  Ba  Ba3  1  0.000000  0.000000  0.401535  1
  Ba  Ba4  1  0.000000  0.000000  0.500318  1
  Ba  Ba5  1  0.000000  0.000000  0.799930  1
  Ba  Ba6  1  0.000000  0.000000  0.299715  1
  Ba  Ba7  1  0.000000  0.000000  0.700000  1
  Ba  Ba8  1  0.000000  0.000000  0.600070  1
  Ba  Ba9  1  0.000000  0.000000  0.899682  1
  N  N10  1  0.500000  0.500000  0.200000  1
  N  N11  1  0.500000  0.500000  0.098888  1
  N  N12  1  0.500000  0.500000  0.301112  1
  N  N13  1  0.500000  0.000000  0.550012  1
  N  N14  1  0.500000  0.000000  0.650015  1
  N  N15  1  0.500000  0.000000  0.749985  1
  N  N16  1  0.500000  0.000000  0.449782  1
  N  N17  1  0.500000  0.000000  0.849988  1
  N  N18  1  0.500000  0.000000  0.950218  1
  O  O19  1  0.000000  0.500000  0.048855  1
  O  O20  1  0.000000  0.500000  0.149793  1
  O  O21  1  0.000000  0.500000  0.250207  1
  O  O22  1  0.000000  0.500000  0.351145  1
  O  O23  1  0.000000  0.500000  0.550028  1
  O  O24  1  0.000000  0.500000  0.650016  1
  O  O25  1  0.000000  0.500000  0.749984  1
  O  O26  1  0.000000  0.500000  0.849972  1
  O  O27  1  0.500000  0.000000  0.049365  1
  O  O28  1  0.500000  0.500000  0.999464  1
  O  O29  1  0.500000  0.000000  0.250172  1
  O  O30  1  0.500000  0.500000  0.400536  1
  O  O31  1  0.500000  0.000000  0.149828  1
  O  O32  1  0.500000  0.500000  0.600042  1
  O  O33  1  0.500000  0.500000  0.500124  1
  O  O34  1  0.500000  0.000000  0.350635  1
  O  O35  1  0.500000  0.500000  0.700000  1
  O  O36  1  0.500000  0.500000  0.799958  1
  O  O37  1  0.500000  0.500000  0.899876  1
  O  O38  1  0.000000  0.500000  0.450085  1
  O  O39  1  0.000000  0.500000  0.949915  1
  Ta  Ta40  1  0.500000  0.500000  0.052586  1
  Ta  Ta41  1  0.500000  0.500000  0.248807  1
  Ta  Ta42  1  0.500000  0.500000  0.151193  1
  Ta  Ta43  1  0.500000  0.500000  0.347414  1
  Ta  Ta44  1  0.500000  0.500000  0.549948  1
  Ta  Ta45  1  0.500000  0.500000  0.449665  1
  Ta  Ta46  1  0.500000  0.500000  0.750004  1
  Ta  Ta47  1  0.500000  0.500000  0.649996  1
  Ta  Ta48  1  0.500000  0.500000  0.950335  1
  Ta  Ta49  1  0.500000  0.500000  0.850052  1
