# generated using pymatgen
data_Na2ZnP2O7
_symmetry_space_group_name_H-M   'P 1'
_cell_length_a   7.81645714
_cell_length_b   7.80279631
_cell_length_c   10.35920692
_cell_angle_alpha   91.45554353
_cell_angle_beta   90.00000000
_cell_angle_gamma   90.00000000
_symmetry_Int_Tables_number   1
_chemical_formula_structural   Na2ZnP2O7
_chemical_formula_sum   'Na8 Zn4 P8 O28'
_cell_volume   631.60647585
_cell_formula_units_Z   4
loop_
 _symmetry_equiv_pos_site_id
 _symmetry_equiv_pos_as_xyz
  1  'x, y, z'
loop_
 _atom_site_type_symbol
 _atom_site_label
 _atom_site_symmetry_multiplicity
 _atom_site_fract_x
 _atom_site_fract_y
 _atom_site_fract_z
 _atom_site_occupancy
  Na  Na0  1  0.142944  0.860960  0.503634  1
  Na  Na1  1  0.200329  0.806051  0.009375  1
  Na  Na2  1  0.299671  0.306051  0.509375  1
  Na  Na3  1  0.357056  0.360960  1.003634  1
  Na  Na4  1  0.642944  0.639040  -0.003634  1
  Na  Na5  1  0.700329  0.693949  0.490625  1
  Na  Na6  1  0.799671  0.193949  0.990625  1
  Na  Na7  1  0.857056  0.139040  0.496366  1
  O  O8  1  0.028989  0.966170  0.842627  1
  O  O9  1  0.110832  0.316374  0.157272  1
  O  O10  1  0.048903  0.289633  0.860616  1
  O  O11  1  0.136829  0.134069  0.647786  1
  O  O12  1  0.130502  0.138596  0.364148  1
  O  O13  1  0.188229  0.605917  0.359483  1
  O  O14  1  0.207271  0.549504  0.656566  1
  O  O15  1  0.292729  0.049504  0.156566  1
  O  O16  1  0.311771  0.105917  0.859483  1
  O  O17  1  0.369498  0.638596  0.864148  1
  O  O18  1  0.363171  0.634069  0.147786  1
  O  O19  1  0.451097  0.789633  0.360616  1
  O  O20  1  0.389168  0.816374  0.657272  1
  O  O21  1  0.471011  0.466170  0.342627  1
  O  O22  1  0.528989  0.533830  0.657373  1
  O  O23  1  0.548903  0.210367  0.639384  1
  O  O24  1  0.610832  0.183626  0.342728  1
  O  O25  1  0.636829  0.365931  0.852214  1
  O  O26  1  0.630502  0.361404  0.135852  1
  O  O27  1  0.688229  0.894083  0.140517  1
  O  O28  1  0.707271  0.950496  0.843434  1
  O  O29  1  0.792729  0.450496  0.343434  1
  O  O30  1  0.811771  0.394083  0.640517  1
  O  O31  1  0.869498  0.861404  0.635852  1
  O  O32  1  0.863171  0.865931  0.352214  1
  O  O33  1  0.951097  0.710367  0.139384  1
  O  O34  1  0.889168  0.683626  0.842728  1
  O  O35  1  0.971011  0.033830  0.157373  1
  P  P36  1  0.137149  0.133643  0.793614  1
  P  P37  1  0.135327  0.139735  0.218023  1
  P  P38  1  0.364673  0.639735  0.718023  1
  P  P39  1  0.362851  0.633643  0.293614  1
  P  P40  1  0.637149  0.366357  0.706386  1
  P  P41  1  0.635327  0.360265  0.281977  1
  P  P42  1  0.864673  0.860265  0.781977  1
  P  P43  1  0.862851  0.866357  0.206386  1
  Zn  Zn44  1  1.002127  0.512241  0.249174  1
  Zn  Zn45  1  -0.002127  0.487759  0.750826  1
  Zn  Zn46  1  0.502127  0.987759  0.250826  1
  Zn  Zn47  1  0.497873  0.012241  0.749174  1
