# generated using pymatgen
data_NaNbO3
_symmetry_space_group_name_H-M   'P 1'
_cell_length_a   5.67432541
_cell_length_b   5.67432542
_cell_length_c   5.67432541
_cell_angle_alpha   58.93654915
_cell_angle_beta   58.93654917
_cell_angle_gamma   58.93654917
_symmetry_Int_Tables_number   1
_chemical_formula_structural   NaNbO3
_chemical_formula_sum   'Na2 Nb2 O6'
_cell_volume   126.05463204
_cell_formula_units_Z   2
loop_
 _symmetry_equiv_pos_site_id
 _symmetry_equiv_pos_as_xyz
  1  'x, y, z'
loop_
 _atom_site_type_symbol
 _atom_site_label
 _atom_site_symmetry_multiplicity
 _atom_site_fract_x
 _atom_site_fract_y
 _atom_site_fract_z
 _atom_site_occupancy
  O  O0  1  0.244594  0.818807  0.680802  1
  O  O1  1  0.818808  0.680802  0.244594  1
  O  O2  1  0.680803  0.244595  0.818807  1
  O  O3  1  0.180802  0.318809  0.744594  1
  O  O4  1  0.744596  0.180801  0.318808  1
  O  O5  1  0.318808  0.744595  0.180802  1
  Na  Na6  1  0.273123  0.273123  0.273122  1
  Na  Na7  1  0.773122  0.773122  0.773122  1
  Nb  Nb8  1  0.011173  0.011172  0.011172  1
  Nb  Nb9  1  0.511172  0.511174  0.511173  1
