# generated using pymatgen
data_Sr6(RhO3)5
_symmetry_space_group_name_H-M   'P 1'
_cell_length_a   7.17353822
_cell_length_b   7.17353822
_cell_length_c   7.17353823
_cell_angle_alpha   86.13172741
_cell_angle_beta   86.13172744
_cell_angle_gamma   86.13172742
_symmetry_Int_Tables_number   1
_chemical_formula_structural   Sr6(RhO3)5
_chemical_formula_sum   'Sr6 Rh5 O15'
_cell_volume   366.73310051
_cell_formula_units_Z   1
loop_
 _symmetry_equiv_pos_site_id
 _symmetry_equiv_pos_as_xyz
  1  'x, y, z'
loop_
 _atom_site_type_symbol
 _atom_site_label
 _atom_site_symmetry_multiplicity
 _atom_site_fract_x
 _atom_site_fract_y
 _atom_site_fract_z
 _atom_site_occupancy
  O  O0  1  0.567041  0.269456  0.343833  1
  O  O1  1  0.269456  0.343833  0.567041  1
  O  O2  1  0.343833  0.567041  0.269456  1
  O  O3  1  0.656167  0.730544  0.432959  1
  O  O4  1  0.730544  0.432959  0.656167  1
  O  O5  1  0.432959  0.656167  0.730544  1
  O  O6  1  0.835142  0.000000  0.164858  1
  O  O7  1  0.000000  0.164858  0.835142  1
  O  O8  1  0.164858  0.835142  0.000000  1
  O  O9  1  0.017385  0.347835  0.211437  1
  O  O10  1  0.347835  0.211437  0.017385  1
  O  O11  1  0.982615  0.788563  0.652165  1
  O  O12  1  0.652165  0.982615  0.788563  1
  O  O13  1  0.788563  0.652165  0.982615  1
  O  O14  1  0.211437  0.017385  0.347835  1
  Sr  Sr15  1  0.682746  0.317254  0.000000  1
  Sr  Sr16  1  0.000000  0.682746  0.317254  1
  Sr  Sr17  1  0.317254  0.000000  0.682746  1
  Sr  Sr18  1  0.852799  0.147201  0.500000  1
  Sr  Sr19  1  0.500000  0.852799  0.147201  1
  Sr  Sr20  1  0.147201  0.500000  0.852799  1
  Rh  Rh21  1  0.903250  0.903250  0.903250  1
  Rh  Rh22  1  0.096750  0.096750  0.096750  1
  Rh  Rh23  1  0.707455  0.707455  0.707455  1
  Rh  Rh24  1  0.292545  0.292545  0.292545  1
  Rh  Rh25  1  0.500000  0.500000  0.500000  1
