# generated using pymatgen
data_BaIrO3
_symmetry_space_group_name_H-M   'P 1'
_cell_length_a   5.79428196
_cell_length_b   5.79428196
_cell_length_c   14.62414134
_cell_angle_alpha   90.94936713
_cell_angle_beta   90.94936711
_cell_angle_gamma   119.71561067
_symmetry_Int_Tables_number   1
_chemical_formula_structural   BaIrO3
_chemical_formula_sum   'Ba6 Ir6 O18'
_cell_volume   426.18793332
_cell_formula_units_Z   6
loop_
 _symmetry_equiv_pos_site_id
 _symmetry_equiv_pos_as_xyz
  1  'x, y, z'
loop_
 _atom_site_type_symbol
 _atom_site_label
 _atom_site_symmetry_multiplicity
 _atom_site_fract_x
 _atom_site_fract_y
 _atom_site_fract_z
 _atom_site_occupancy
  O  O0  1  0.110087  0.289596  0.406794  1
  O  O1  1  0.710404  0.889914  0.093206  1
  O  O2  1  0.889914  0.710404  0.593206  1
  O  O3  1  0.289596  0.110087  0.906794  1
  O  O4  1  0.202234  0.900410  0.092435  1
  O  O5  1  0.099590  0.797766  0.407565  1
  O  O6  1  0.797766  0.099590  0.907565  1
  O  O7  1  0.900410  0.202234  0.592435  1
  O  O8  1  0.620528  0.813424  0.447109  1
  O  O9  1  0.186576  0.379472  0.052891  1
  O  O10  1  0.379472  0.186576  0.552891  1
  O  O11  1  0.813424  0.620528  0.947109  1
  O  O12  1  0.514744  0.485256  0.750000  1
  O  O13  1  0.485256  0.514744  0.250000  1
  O  O14  1  0.513266  0.044001  0.741616  1
  O  O15  1  0.955999  0.486734  0.758384  1
  O  O16  1  0.486734  0.955999  0.258384  1
  O  O17  1  0.044001  0.513266  0.241616  1
  Ba  Ba18  1  0.996111  0.003889  0.750000  1
  Ba  Ba19  1  0.003889  0.996111  0.250000  1
  Ba  Ba20  1  0.323458  0.656780  0.904457  1
  Ba  Ba21  1  0.343220  0.676542  0.595543  1
  Ba  Ba22  1  0.676542  0.343220  0.095543  1
  Ba  Ba23  1  0.656780  0.323458  0.404457  1
  Ir  Ir24  1  0.000000  0.000000  0.000000  1
  Ir  Ir25  1  0.000000  0.000000  0.500000  1
  Ir  Ir26  1  0.345936  0.675553  0.153255  1
  Ir  Ir27  1  0.324447  0.654064  0.346745  1
  Ir  Ir28  1  0.654064  0.324447  0.846745  1
  Ir  Ir29  1  0.675553  0.345936  0.653255  1
