# generated using pymatgen
data_Pr6Fe13Au
_symmetry_space_group_name_H-M   'P 1'
_cell_length_a   8.05618166
_cell_length_b   8.05618166
_cell_length_c   12.97892176
_cell_angle_alpha   108.08070730
_cell_angle_beta   108.08070727
_cell_angle_gamma   90.00000001
_symmetry_Int_Tables_number   1
_chemical_formula_structural   Pr6Fe13Au
_chemical_formula_sum   'Pr12 Fe26 Au2'
_cell_volume   756.88545058
_cell_formula_units_Z   2
loop_
 _symmetry_equiv_pos_site_id
 _symmetry_equiv_pos_as_xyz
  1  'x, y, z'
loop_
 _atom_site_type_symbol
 _atom_site_label
 _atom_site_symmetry_multiplicity
 _atom_site_fract_x
 _atom_site_fract_y
 _atom_site_fract_z
 _atom_site_occupancy
  Fe  Fe0  1  0.433615  0.709628  0.000000  1
  Fe  Fe1  1  0.980392  0.707380  0.187771  1
  Fe  Fe2  1  0.019608  0.292620  0.812229  1
  Fe  Fe3  1  0.792620  0.519608  0.812229  1
  Fe  Fe4  1  0.292620  0.792620  0.812229  1
  Fe  Fe5  1  0.519608  0.019608  0.812229  1
  Fe  Fe6  1  0.480392  0.980392  0.187771  1
  Fe  Fe7  1  0.707380  0.207380  0.187771  1
  Fe  Fe8  1  0.207380  0.480392  0.187771  1
  Fe  Fe9  1  0.737393  0.879894  0.117287  1
  Fe  Fe10  1  0.262607  0.120106  0.882713  1
  Fe  Fe11  1  0.620106  0.762607  0.882713  1
  Fe  Fe12  1  0.500000  0.000000  0.000000  1
  Fe  Fe13  1  0.000000  0.500000  0.000000  1
  Fe  Fe14  1  0.790372  0.066385  0.000000  1
  Fe  Fe15  1  0.933615  0.790372  0.000000  1
  Fe  Fe16  1  0.066385  0.209628  0.000000  1
  Fe  Fe17  1  0.290372  0.433615  0.000000  1
  Fe  Fe18  1  0.709628  0.566385  0.000000  1
  Fe  Fe19  1  0.566385  0.290372  0.000000  1
  Fe  Fe20  1  0.762607  0.262607  0.882713  1
  Fe  Fe21  1  0.209628  0.933615  0.000000  1
  Fe  Fe22  1  0.379894  0.237393  0.117287  1
  Fe  Fe23  1  0.879894  0.379894  0.117287  1
  Fe  Fe24  1  0.237393  0.737393  0.117287  1
  Fe  Fe25  1  0.120106  0.620106  0.882713  1
  Pr  Pr26  1  0.106584  0.106584  0.213169  1
  Pr  Pr27  1  0.850171  0.022122  0.372292  1
  Pr  Pr28  1  0.149829  0.977878  0.627708  1
  Pr  Pr29  1  0.477878  0.649829  0.627708  1
  Pr  Pr30  1  0.977878  0.477878  0.627708  1
  Pr  Pr31  1  0.649829  0.149829  0.627708  1
  Pr  Pr32  1  0.350171  0.850171  0.372292  1
  Pr  Pr33  1  0.022122  0.522122  0.372292  1
  Pr  Pr34  1  0.522122  0.350171  0.372292  1
  Pr  Pr35  1  0.606584  0.606584  0.213169  1
  Pr  Pr36  1  0.893416  0.893416  0.786831  1
  Pr  Pr37  1  0.393416  0.393416  0.786831  1
  Au  Au38  1  0.250000  0.250000  0.500000  1
  Au  Au39  1  0.750000  0.750000  0.500000  1
