# generated using pymatgen
data_Nd6Al7Si5N3O25
_symmetry_space_group_name_H-M   'P 1'
_cell_length_a   8.01619300
_cell_length_b   8.09336751
_cell_length_c   9.93049931
_cell_angle_alpha   90.27366780
_cell_angle_beta   89.13689129
_cell_angle_gamma   120.33303099
_symmetry_Int_Tables_number   1
_chemical_formula_structural   Nd6Al7Si5N3O25
_chemical_formula_sum   'Nd6 Al7 Si5 N3 O25'
_cell_volume   556.00705429
_cell_formula_units_Z   1
loop_
 _symmetry_equiv_pos_site_id
 _symmetry_equiv_pos_as_xyz
  1  'x, y, z'
loop_
 _atom_site_type_symbol
 _atom_site_label
 _atom_site_symmetry_multiplicity
 _atom_site_fract_x
 _atom_site_fract_y
 _atom_site_fract_z
 _atom_site_occupancy
  Al  Al0  1  0.999528  0.753293  0.750591  1
  Al  Al1  1  0.994714  0.001554  0.996416  1
  Al  Al2  1  0.006495  0.008010  0.500011  1
  Al  Al3  1  0.234594  0.235259  0.253248  1
  Al  Al4  1  0.198048  0.232544  0.769210  1
  Al  Al5  1  0.767439  0.002610  0.246814  1
  Al  Al6  1  0.765079  0.011066  0.743172  1
  N  N7  1  0.156657  0.695674  0.341769  1
  N  N8  1  0.839057  0.541120  0.159116  1
  N  N9  1  0.949299  0.151990  0.863872  1
  Nd  Nd10  1  -0.000263  0.406192  1.000184  1
  Nd  Nd11  1  -0.000206  0.412113  0.498351  1
  Nd  Nd12  1  0.597457  0.583633  0.009217  1
  Nd  Nd13  1  0.584949  0.583780  0.500607  1
  Nd  Nd14  1  0.412266  0.998866  0.007701  1
  Nd  Nd15  1  0.402358  0.990935  0.494180  1
  O  O16  1  0.122319  0.908602  0.133946  1
  O  O17  1  0.126020  0.905745  0.616353  1
  O  O18  1  0.156553  0.683796  0.835378  1
  O  O19  1  0.081476  0.215925  0.122762  1
  O  O20  1  0.098656  0.230658  0.607378  1
  O  O21  1  0.339287  0.668162  0.103812  1
  O  O22  1  0.337979  0.663681  0.606877  1
  O  O23  1  0.320068  0.471312  0.332807  1
  O  O24  1  0.325975  0.480111  0.842522  1
  O  O25  1  0.539836  0.837835  0.336555  1
  O  O26  1  0.533626  0.856085  0.833254  1
  O  O27  1  0.230492  0.101559  0.391526  1
  O  O28  1  0.231786  0.083747  0.890169  1
  O  O29  1  0.459452  0.292294  0.163206  1
  O  O30  1  0.459593  0.314939  0.669789  1
  O  O31  1  0.768458  0.875536  0.104445  1
  O  O32  1  0.775302  0.869083  0.608884  1
  O  O33  1  0.875762  0.786287  0.368602  1
  O  O34  1  0.867920  0.771810  0.884613  1
  O  O35  1  0.660739  0.331707  0.397247  1
  O  O36  1  0.664212  0.322719  0.894359  1
  O  O37  1  0.837066  0.527796  0.663506  1
  O  O38  1  0.686626  0.155896  0.168004  1
  O  O39  1  0.680777  0.157488  0.655837  1
  O  O40  1  0.917216  0.135921  0.380401  1
  Si  Si41  1  0.332840  0.668559  0.269110  1
  Si  Si42  1  0.340675  0.669896  0.770977  1
  Si  Si43  1  0.654294  0.327532  0.730549  1
  Si  Si44  1  0.668320  0.337392  0.231842  1
  Si  Si45  1  0.999205  0.739288  0.250828  1
