# generated using pymatgen
data_Fe3H10S2NO14
_symmetry_space_group_name_H-M   'P 1'
_cell_length_a   7.29690652
_cell_length_b   7.29690710
_cell_length_c   7.29690689
_cell_angle_alpha   61.32429417
_cell_angle_beta   61.32428971
_cell_angle_gamma   61.32429063
_symmetry_Int_Tables_number   1
_chemical_formula_structural   Fe3H10S2NO14
_chemical_formula_sum   'Fe3 H10 S2 N1 O14'
_cell_volume   282.90383728
_cell_formula_units_Z   1
loop_
 _symmetry_equiv_pos_site_id
 _symmetry_equiv_pos_as_xyz
  1  'x, y, z'
loop_
 _atom_site_type_symbol
 _atom_site_label
 _atom_site_symmetry_multiplicity
 _atom_site_fract_x
 _atom_site_fract_y
 _atom_site_fract_z
 _atom_site_occupancy
  Fe  Fe0  1  0.498702  0.999344  0.999344  1
  Fe  Fe1  1  0.999344  0.999344  0.498702  1
  Fe  Fe2  1  0.999344  0.498702  0.999344  1
  H  H3  1  0.095693  0.095693  0.871851  1
  H  H4  1  0.095693  0.871851  0.095693  1
  H  H5  1  0.313707  0.313707  0.715744  1
  H  H6  1  0.313707  0.715744  0.313707  1
  H  H7  1  0.278009  0.696452  0.696452  1
  H  H8  1  0.871851  0.095693  0.095693  1
  H  H9  1  0.715744  0.313707  0.313707  1
  H  H10  1  0.696452  0.278009  0.696452  1
  H  H11  1  0.696452  0.696452  0.278009  1
  H  H12  1  0.942655  0.942655  0.942655  1
  N  N13  1  0.000684  0.000684  0.000684  1
  O  O14  1  0.167104  0.167104  0.495504  1
  O  O15  1  0.167104  0.495504  0.167104  1
  O  O16  1  0.495504  0.167104  0.167104  1
  O  O17  1  0.388534  0.388534  0.388534  1
  O  O18  1  0.264201  0.264201  0.878004  1
  O  O19  1  0.264201  0.878004  0.264201  1
  O  O20  1  0.118282  0.733991  0.733991  1
  O  O21  1  0.878004  0.264201  0.264201  1
  O  O22  1  0.733991  0.733991  0.118282  1
  O  O23  1  0.733991  0.118282  0.733991  1
  O  O24  1  0.610784  0.610784  0.610784  1
  O  O25  1  0.503854  0.832056  0.832056  1
  O  O26  1  0.832056  0.503854  0.832056  1
  O  O27  1  0.832056  0.832056  0.503854  1
  S  S28  1  0.305277  0.305277  0.305277  1
  S  S29  1  0.694020  0.694020  0.694020  1
