# generated using pymatgen
data_CaSiO3
_symmetry_space_group_name_H-M   'P 1'
_cell_length_a   6.25055250
_cell_length_b   6.25055249
_cell_length_c   6.25055250
_cell_angle_alpha   109.47122066
_cell_angle_beta   109.47122064
_cell_angle_gamma   109.47122060
_symmetry_Int_Tables_number   1
_chemical_formula_structural   CaSiO3
_chemical_formula_sum   'Ca4 Si4 O12'
_cell_volume   187.98938647
_cell_formula_units_Z   4
loop_
 _symmetry_equiv_pos_site_id
 _symmetry_equiv_pos_as_xyz
  1  'x, y, z'
loop_
 _atom_site_type_symbol
 _atom_site_label
 _atom_site_symmetry_multiplicity
 _atom_site_fract_x
 _atom_site_fract_y
 _atom_site_fract_z
 _atom_site_occupancy
  O  O0  1  0.500294  0.759405  0.740889  1
  O  O1  1  0.018516  0.759405  0.259111  1
  O  O2  1  0.981484  0.240595  0.740889  1
  O  O3  1  0.240595  0.259111  0.499706  1
  O  O4  1  0.259111  0.499706  0.240595  1
  O  O5  1  0.740889  0.500294  0.759405  1
  O  O6  1  0.759405  0.259111  0.018516  1
  O  O7  1  0.740889  0.981484  0.240595  1
  O  O8  1  0.499706  0.240595  0.259111  1
  O  O9  1  0.240595  0.740889  0.981484  1
  O  O10  1  0.259111  0.018516  0.759405  1
  O  O11  1  0.759405  0.740889  0.500294  1
  Si  Si12  1  0.500000  0.000000  0.000000  1
  Si  Si13  1  0.000000  0.000000  0.500000  1
  Si  Si14  1  0.000000  0.500000  0.000000  1
  Si  Si15  1  0.500000  0.500000  0.500000  1
  Ca  Ca16  1  0.500000  0.000000  0.500000  1
  Ca  Ca17  1  0.500000  0.500000  0.000000  1
  Ca  Ca18  1  0.000000  0.500000  0.500000  1
  Ca  Ca19  1  0.000000  0.000000  0.000000  1
