# generated using pymatgen
data_NaNd3Ti2(SbO7)2
_symmetry_space_group_name_H-M   'P 1'
_cell_length_a   7.43327679
_cell_length_b   14.84612178
_cell_length_c   12.88073407
_cell_angle_alpha   29.81823030
_cell_angle_beta   54.39618561
_cell_angle_gamma   59.66222640
_symmetry_Int_Tables_number   1
_chemical_formula_structural   NaNd3Ti2(SbO7)2
_chemical_formula_sum   'Na2 Nd6 Ti4 Sb4 O28'
_cell_volume   574.68840050
_cell_formula_units_Z   2
loop_
 _symmetry_equiv_pos_site_id
 _symmetry_equiv_pos_as_xyz
  1  'x, y, z'
loop_
 _atom_site_type_symbol
 _atom_site_label
 _atom_site_symmetry_multiplicity
 _atom_site_fract_x
 _atom_site_fract_y
 _atom_site_fract_z
 _atom_site_occupancy
  Na  Na0  1  0.000000  0.750000  0.500000  1
  Na  Na1  1  -0.000000  0.750000  0.000000  1
  Nd  Nd2  1  0.000031  0.979447  0.020520  1
  Nd  Nd3  1  0.500024  0.992025  0.007951  1
  Nd  Nd4  1  0.499976  0.507974  0.992049  1
  Nd  Nd5  1  0.000000  0.250000  0.000000  1
  Nd  Nd6  1  0.999969  0.520553  0.979480  1
  Nd  Nd7  1  -0.000000  0.250000  0.500000  1
  O  O8  1  0.125647  0.001381  0.121513  1
  O  O9  1  0.183586  0.196692  0.175717  1
  O  O10  1  0.575521  0.000101  0.174339  1
  O  O11  1  0.125619  0.498631  0.124307  1
  O  O12  1  0.576205  0.203734  0.169087  1
  O  O13  1  0.181688  0.695135  0.185790  1
  O  O14  1  0.183553  0.303295  0.569100  1
  O  O15  1  0.423820  0.203716  0.423465  1
  O  O16  1  0.180449  0.481801  0.587448  1
  O  O17  1  0.575511  0.499897  0.174555  1
  O  O18  1  0.819551  0.018199  0.412552  1
  O  O19  1  0.424489  0.000103  0.825445  1
  O  O20  1  0.571685  0.701003  0.176712  1
  O  O21  1  0.816447  0.196706  0.430899  1
  O  O22  1  0.576180  0.296284  0.576535  1
  O  O23  1  0.428317  0.701008  0.421274  1
  O  O24  1  0.181689  0.804859  0.576076  1
  O  O25  1  0.423795  0.296266  0.830913  1
  O  O26  1  0.819543  0.481797  0.448949  1
  O  O27  1  0.180457  0.018202  0.551051  1
  O  O28  1  0.874381  0.001369  0.875693  1
  O  O29  1  0.424479  0.499899  0.825661  1
  O  O30  1  0.818311  0.695141  0.423924  1
  O  O31  1  0.571684  0.798991  0.578726  1
  O  O32  1  0.816414  0.303308  0.824283  1
  O  O33  1  0.428315  0.798997  0.823288  1
  O  O34  1  0.874353  0.498619  0.878487  1
  O  O35  1  0.818312  0.804866  0.814210  1
  Sb  Sb36  1  0.500021  0.005063  0.494929  1
  Sb  Sb37  1  0.499979  0.494937  0.505071  1
  Sb  Sb38  1  0.500000  0.750000  0.500000  1
  Sb  Sb39  1  0.500000  0.750000  0.000000  1
  Ti  Ti40  1  0.500000  0.250000  0.500000  1
  Ti  Ti41  1  0.500000  0.250000  0.000000  1
  Ti  Ti42  1  1.000003  0.487868  0.512132  1
  Ti  Ti43  1  -0.000003  0.012132  0.487868  1
