# generated using pymatgen
data_NaNdTiNbO6F
_symmetry_space_group_name_H-M   'P 1'
_cell_length_a   7.37826399
_cell_length_b   14.78588892
_cell_length_c   12.81305569
_cell_angle_alpha   29.93581070
_cell_angle_beta   54.84155366
_cell_angle_gamma   60.06566606
_symmetry_Int_Tables_number   1
_chemical_formula_structural   NaNdTiNbO6F
_chemical_formula_sum   'Na4 Nd4 Ti4 Nb4 O24 F4'
_cell_volume   570.29770381
_cell_formula_units_Z   4
loop_
 _symmetry_equiv_pos_site_id
 _symmetry_equiv_pos_as_xyz
  1  'x, y, z'
loop_
 _atom_site_type_symbol
 _atom_site_label
 _atom_site_symmetry_multiplicity
 _atom_site_fract_x
 _atom_site_fract_y
 _atom_site_fract_z
 _atom_site_occupancy
  F  F0  1  0.116260  0.508717  0.116303  1
  F  F1  1  0.133727  0.991308  0.133680  1
  F  F2  1  0.883702  0.508692  0.866320  1
  F  F3  1  0.866299  0.991283  0.883697  1
  Na  Na4  1  0.500019  0.979606  0.020373  1
  Na  Na5  1  -0.000024  0.520394  0.979627  1
  Na  Na6  1  0.979661  0.750000  0.000000  1
  Na  Na7  1  0.020290  0.750000  0.500000  1
  Nb  Nb8  1  -0.000039  0.007483  0.492500  1
  Nb  Nb9  1  0.492579  0.750000  0.000000  1
  Nb  Nb10  1  0.499926  0.492517  0.507500  1
  Nb  Nb11  1  0.507400  0.750000  0.500000  1
  Nd  Nd12  1  1.000031  0.975994  0.023982  1
  Nd  Nd13  1  0.024103  0.250000  0.000000  1
  Nd  Nd14  1  0.975829  0.250000  0.500000  1
  Nd  Nd15  1  0.499982  0.524006  0.976018  1
  O  O16  1  0.189008  0.198101  0.169609  1
  O  O17  1  0.179726  0.023190  0.548549  1
  O  O18  1  0.583391  0.208343  0.166653  1
  O  O19  1  0.166637  0.291644  0.583368  1
  O  O20  1  0.169584  0.693305  0.188988  1
  O  O21  1  0.416662  0.208356  0.416631  1
  O  O22  1  0.548517  0.498546  0.179720  1
  O  O23  1  0.405049  0.001454  0.820280  1
  O  O24  1  0.176794  0.476809  0.594943  1
  O  O25  1  0.575567  0.301885  0.565838  1
  O  O26  1  0.562825  0.687842  0.187169  1
  O  O27  1  0.811014  0.198115  0.434162  1
  O  O28  1  0.437159  0.687831  0.437169  1
  O  O29  1  0.187160  0.812169  0.562831  1
  O  O30  1  0.424428  0.301899  0.830391  1
  O  O31  1  0.594968  0.001457  0.176800  1
  O  O32  1  0.823203  0.476810  0.451451  1
  O  O33  1  0.451481  0.498543  0.823200  1
  O  O34  1  0.565856  0.806700  0.575590  1
  O  O35  1  0.833382  0.291657  0.833347  1
  O  O36  1  0.830437  0.693300  0.424410  1
  O  O37  1  0.434169  0.806695  0.811012  1
  O  O38  1  0.820297  0.023191  0.405057  1
  O  O39  1  0.812847  0.812158  0.812831  1
  Ti  Ti40  1  0.514668  0.250000  0.000000  1
  Ti  Ti41  1  0.000047  0.485551  0.514463  1
  Ti  Ti42  1  0.485304  0.250000  0.500000  1
  Ti  Ti43  1  0.500075  0.014449  0.485537  1
