# generated using pymatgen
data_Ga2Pd5
_symmetry_space_group_name_H-M   'P 1'
_cell_length_a   4.12309053
_cell_length_b   5.52259790
_cell_length_c   18.67581155
_cell_angle_alpha   90.00000000
_cell_angle_beta   90.00000000
_cell_angle_gamma   90.00000000
_symmetry_Int_Tables_number   1
_chemical_formula_structural   Ga2Pd5
_chemical_formula_sum   'Ga8 Pd20'
_cell_volume   425.25142447
_cell_formula_units_Z   4
loop_
 _symmetry_equiv_pos_site_id
 _symmetry_equiv_pos_as_xyz
  1  'x, y, z'
loop_
 _atom_site_type_symbol
 _atom_site_label
 _atom_site_symmetry_multiplicity
 _atom_site_fract_x
 _atom_site_fract_y
 _atom_site_fract_z
 _atom_site_occupancy
  Ga  Ga0  1  0.750000  0.203331  0.956046  1
  Ga  Ga1  1  0.250000  0.796669  0.043954  1
  Ga  Ga2  1  0.750000  0.703331  0.543954  1
  Ga  Ga3  1  0.250000  0.296669  0.456046  1
  Ga  Ga4  1  0.750000  0.668014  0.823871  1
  Ga  Ga5  1  0.250000  0.331986  0.176129  1
  Ga  Ga6  1  0.750000  0.168014  0.676129  1
  Ga  Ga7  1  0.250000  0.831986  0.323871  1
  Pd  Pd8  1  0.750000  0.138080  0.233579  1
  Pd  Pd9  1  0.250000  0.861920  0.766421  1
  Pd  Pd10  1  0.750000  0.638080  0.266421  1
  Pd  Pd11  1  0.250000  0.361920  0.733579  1
  Pd  Pd12  1  0.750000  0.669588  0.969379  1
  Pd  Pd13  1  0.250000  0.330412  0.030621  1
  Pd  Pd14  1  0.750000  0.169588  0.530621  1
  Pd  Pd15  1  0.250000  0.830412  0.469379  1
  Pd  Pd16  1  0.750000  0.033597  0.087843  1
  Pd  Pd17  1  0.250000  0.966403  0.912157  1
  Pd  Pd18  1  0.750000  0.533597  0.412157  1
  Pd  Pd19  1  0.250000  0.466403  0.587843  1
  Pd  Pd20  1  0.750000  0.165151  0.819997  1
  Pd  Pd21  1  0.250000  0.834849  0.180003  1
  Pd  Pd22  1  0.750000  0.665151  0.680003  1
  Pd  Pd23  1  0.250000  0.334849  0.319997  1
  Pd  Pd24  1  0.750000  0.035482  0.381774  1
  Pd  Pd25  1  0.250000  0.964518  0.618226  1
  Pd  Pd26  1  0.750000  0.535482  0.118226  1
  Pd  Pd27  1  0.250000  0.464518  0.881774  1
