# generated using pymatgen
data_Nd(CuO2)2
_symmetry_space_group_name_H-M   'P 1'
_cell_length_a   5.85650713
_cell_length_b   5.85587246
_cell_length_c   6.34961316
_cell_angle_alpha   116.55387674
_cell_angle_beta   116.57461833
_cell_angle_gamma   91.20653233
_symmetry_Int_Tables_number   1
_chemical_formula_structural   Nd(CuO2)2
_chemical_formula_sum   'Nd2 Cu4 O8'
_cell_volume   167.42833190
_cell_formula_units_Z   2
loop_
 _symmetry_equiv_pos_site_id
 _symmetry_equiv_pos_as_xyz
  1  'x, y, z'
loop_
 _atom_site_type_symbol
 _atom_site_label
 _atom_site_symmetry_multiplicity
 _atom_site_fract_x
 _atom_site_fract_y
 _atom_site_fract_z
 _atom_site_occupancy
  Nd  Nd0  1  0.874135  0.625222  0.748984  1
  Nd  Nd1  1  0.125865  0.374778  0.251016  1
  Cu  Cu2  1  0.500000  0.000000  0.500000  1
  Cu  Cu3  1  0.500000  0.000000  0.000000  1
  Cu  Cu4  1  0.500000  0.500000  0.000000  1
  Cu  Cu5  1  0.000000  0.000000  0.500000  1
  O  O6  1  0.144453  0.326380  0.852010  1
  O  O7  1  0.186334  0.794700  0.649501  1
  O  O8  1  0.467838  0.355548  0.649974  1
  O  O9  1  0.289370  0.972520  0.146529  1
  O  O10  1  0.710630  0.027480  0.853471  1
  O  O11  1  0.532161  0.644452  0.350026  1
  O  O12  1  0.813666  0.205300  0.350499  1
  O  O13  1  0.855547  0.673620  0.147990  1
