# generated using pymatgen
data_NaEuTiNbO6F
_symmetry_space_group_name_H-M   'P 1'
_cell_length_a   7.36989688
_cell_length_b   14.76767483
_cell_length_c   12.79300084
_cell_angle_alpha   29.93572583
_cell_angle_beta   54.82412453
_cell_angle_gamma   60.06243423
_symmetry_Int_Tables_number   1
_chemical_formula_structural   NaEuTiNbO6F
_chemical_formula_sum   'Na4 Eu4 Ti4 Nb4 O24 F4'
_cell_volume   567.93548391
_cell_formula_units_Z   4
loop_
 _symmetry_equiv_pos_site_id
 _symmetry_equiv_pos_as_xyz
  1  'x, y, z'
loop_
 _atom_site_type_symbol
 _atom_site_label
 _atom_site_symmetry_multiplicity
 _atom_site_fract_x
 _atom_site_fract_y
 _atom_site_fract_z
 _atom_site_occupancy
  Eu  Eu0  1  1.000020  0.012634  0.987356  1
  Eu  Eu1  1  0.500001  0.487366  0.012644  1
  Eu  Eu2  1  0.987362  0.750000  0.000000  1
  Eu  Eu3  1  0.012596  0.750000  0.500000  1
  F  F4  1  0.133078  0.008078  0.116909  1
  F  F5  1  0.116961  0.492017  0.132976  1
  F  F6  1  0.866946  0.007983  0.867024  1
  F  F7  1  0.883052  0.491922  0.883091  1
  Na  Na8  1  0.499986  0.014278  0.985878  1
  Na  Na9  1  0.000298  0.485722  0.014122  1
  Na  Na10  1  0.013962  0.250000  0.000000  1
  Na  Na11  1  0.985951  0.250000  0.500000  1
  Nb  Nb12  1  0.493437  0.250000  0.500000  1
  Nb  Nb13  1  0.499812  0.507065  0.493003  1
  Nb  Nb14  1  -0.000052  0.992935  0.506997  1
  Nb  Nb15  1  0.506796  0.250000  0.000000  1
  O  O16  1  0.187665  0.187400  0.187586  1
  O  O17  1  0.566925  0.192457  0.189204  1
  O  O18  1  0.169677  0.307422  0.574297  1
  O  O19  1  0.433116  0.192578  0.425703  1
  O  O20  1  0.166646  0.708332  0.166648  1
  O  O21  1  0.177120  0.521726  0.549013  1
  O  O22  1  0.548860  0.502132  0.177157  1
  O  O23  1  0.818599  0.978274  0.450987  1
  O  O24  1  0.574167  0.698521  0.169761  1
  O  O25  1  0.562284  0.312661  0.562383  1
  O  O26  1  0.812372  0.187339  0.437617  1
  O  O27  1  0.189165  0.801402  0.566911  1
  O  O28  1  0.425791  0.698598  0.433089  1
  O  O29  1  0.437636  0.312600  0.812414  1
  O  O30  1  0.181449  0.978111  0.592535  1
  O  O31  1  0.592486  0.997909  0.181438  1
  O  O32  1  0.822742  0.521889  0.407465  1
  O  O33  1  0.451180  0.502091  0.818562  1
  O  O34  1  0.583451  0.791455  0.583571  1
  O  O35  1  0.830246  0.307543  0.810796  1
  O  O36  1  0.833504  0.708545  0.416429  1
  O  O37  1  0.416605  0.791668  0.833352  1
  O  O38  1  0.407438  0.997868  0.822843  1
  O  O39  1  0.810732  0.801479  0.830239  1
  Ti  Ti40  1  0.499905  0.990985  0.509070  1
  Ti  Ti41  1  0.000016  0.509015  0.490930  1
  Ti  Ti42  1  0.509358  0.750000  0.500000  1
  Ti  Ti43  1  0.490658  0.750000  0.000000  1
