# generated using pymatgen
data_Rb2Sb4S7
_symmetry_space_group_name_H-M   'P 1'
_cell_length_a   7.28532912
_cell_length_b   8.72096468
_cell_length_c   12.55568311
_cell_angle_alpha   90.00000000
_cell_angle_beta   90.00000000
_cell_angle_gamma   92.57154531
_symmetry_Int_Tables_number   1
_chemical_formula_structural   Rb2Sb4S7
_chemical_formula_sum   'Rb4 Sb8 S14'
_cell_volume   796.92322545
_cell_formula_units_Z   2
loop_
 _symmetry_equiv_pos_site_id
 _symmetry_equiv_pos_as_xyz
  1  'x, y, z'
loop_
 _atom_site_type_symbol
 _atom_site_label
 _atom_site_symmetry_multiplicity
 _atom_site_fract_x
 _atom_site_fract_y
 _atom_site_fract_z
 _atom_site_occupancy
  S  S0  1  0.976918  0.165151  0.732600  1
  S  S1  1  0.664095  0.279833  0.967426  1
  S  S2  1  0.835905  0.220167  0.467426  1
  S  S3  1  0.335905  0.720167  0.032574  1
  S  S4  1  0.000000  0.000000  0.000000  1
  S  S5  1  0.500000  0.500000  0.500000  1
  S  S6  1  0.001400  0.678632  0.797437  1
  S  S7  1  0.498600  0.821368  0.297437  1
  S  S8  1  0.998600  0.321368  0.202563  1
  S  S9  1  0.501400  0.178632  0.702563  1
  S  S10  1  0.476918  0.665151  0.767400  1
  S  S11  1  0.023082  0.834849  0.267400  1
  S  S12  1  0.523082  0.334849  0.232600  1
  S  S13  1  0.164095  0.779833  0.532574  1
  Rb  Rb14  1  0.707049  0.848428  0.560435  1
  Rb  Rb15  1  0.207049  0.348428  0.939565  1
  Rb  Rb16  1  0.292951  0.151572  0.439565  1
  Rb  Rb17  1  0.792951  0.651572  0.060435  1
  Sb  Sb18  1  0.228637  0.561327  0.654353  1
  Sb  Sb19  1  0.271363  0.938673  0.154353  1
  Sb  Sb20  1  0.771363  0.438673  0.345647  1
  Sb  Sb21  1  0.728637  0.061327  0.845647  1
  Sb  Sb22  1  0.251729  0.850258  0.862758  1
  Sb  Sb23  1  0.248271  0.649742  0.362758  1
  Sb  Sb24  1  0.748271  0.149742  0.137242  1
  Sb  Sb25  1  0.751729  0.350258  0.637242  1
