# generated using pymatgen
data_Hg(CO2)2
_symmetry_space_group_name_H-M   'P 1'
_cell_length_a   5.11117549
_cell_length_b   5.35050446
_cell_length_c   6.77332825
_cell_angle_alpha   90.00000000
_cell_angle_beta   108.71797925
_cell_angle_gamma   90.00000000
_symmetry_Int_Tables_number   1
_chemical_formula_structural   Hg(CO2)2
_chemical_formula_sum   'Hg2 C4 O8'
_cell_volume   175.43566799
_cell_formula_units_Z   2
loop_
 _symmetry_equiv_pos_site_id
 _symmetry_equiv_pos_as_xyz
  1  'x, y, z'
loop_
 _atom_site_type_symbol
 _atom_site_label
 _atom_site_symmetry_multiplicity
 _atom_site_fract_x
 _atom_site_fract_y
 _atom_site_fract_z
 _atom_site_occupancy
  C  C0  1  0.049204  0.129437  0.717895  1
  C  C1  1  0.950796  0.629437  0.282105  1
  C  C2  1  0.049861  0.885302  0.218009  1
  C  C3  1  0.950139  0.385302  0.781991  1
  O  O4  1  0.112083  0.495032  0.416067  1
  O  O5  1  0.887917  0.995032  0.583933  1
  O  O6  1  0.888182  0.020310  0.084796  1
  O  O7  1  0.111818  0.520310  0.915204  1
  O  O8  1  0.307262  0.930426  0.319059  1
  O  O9  1  0.692738  0.430426  0.680941  1
  O  O10  1  0.693759  0.583564  0.180303  1
  O  O11  1  0.306241  0.083564  0.819697  1
  Hg  Hg12  1  0.499250  0.756929  0.750161  1
  Hg  Hg13  1  0.500750  0.256929  0.249839  1
