# generated using pymatgen
data_Na2Li2Al3Si3ClO12
_symmetry_space_group_name_H-M   'P 1'
_cell_length_a   8.75770676
_cell_length_b   8.74417800
_cell_length_c   8.74427853
_cell_angle_alpha   90.00024470
_cell_angle_beta   90.00211698
_cell_angle_gamma   90.01000432
_symmetry_Int_Tables_number   1
_chemical_formula_structural   Na2Li2Al3Si3ClO12
_chemical_formula_sum   'Na4 Li4 Al6 Si6 Cl2 O24'
_cell_volume   669.62762950
_cell_formula_units_Z   2
loop_
 _symmetry_equiv_pos_site_id
 _symmetry_equiv_pos_as_xyz
  1  'x, y, z'
loop_
 _atom_site_type_symbol
 _atom_site_label
 _atom_site_symmetry_multiplicity
 _atom_site_fract_x
 _atom_site_fract_y
 _atom_site_fract_z
 _atom_site_occupancy
  Al  Al0  1  0.006210  0.249739  0.503590  1
  Al  Al1  1  0.006200  0.750245  0.498299  1
  Al  Al2  1  0.249993  0.499770  0.001068  1
  Al  Al3  1  0.493661  0.997568  0.750855  1
  Al  Al4  1  0.493912  0.002928  0.251348  1
  Al  Al5  1  0.750007  0.499803  0.000805  1
  Cl  Cl6  1  0.455540  0.501476  0.501519  1
  Cl  Cl7  1  0.044489  -0.001487  1.001491  1
  Li  Li8  1  0.187426  0.188826  0.189614  1
  Li  Li9  1  0.187884  0.809781  0.811961  1
  Li  Li10  1  0.312539  0.311819  0.690281  1
  Li  Li11  1  0.312109  0.689540  0.311159  1
  Na  Na12  1  0.665963  0.337536  0.339000  1
  Na  Na13  1  0.667000  0.664198  0.663857  1
  Na  Na14  1  0.834083  0.161530  0.838076  1
  Na  Na15  1  0.832988  0.836724  0.164716  1
  O  O16  1  0.086059  0.354218  0.658294  1
  O  O17  1  0.085767  0.645810  0.343381  1
  O  O18  1  0.137775  0.416677  0.147130  1
  O  O19  1  0.137614  0.582660  0.855089  1
  O  O20  1  0.147659  0.134034  0.417455  1
  O  O21  1  0.147749  0.865974  0.584365  1
  O  O22  1  0.352152  0.083755  0.635189  1
  O  O23  1  0.352455  0.916856  0.367128  1
  O  O24  1  0.362319  0.353902  0.917903  1
  O  O25  1  0.362266  0.645935  0.083888  1
  O  O26  1  0.413976  0.157519  0.146832  1
  O  O27  1  0.414192  0.842522  0.855172  1
  O  O28  1  0.567827  0.135910  0.875129  1
  O  O29  1  0.567457  0.864102  0.127294  1
  O  O30  1  0.634589  0.352012  0.073111  1
  O  O31  1  0.634950  0.648306  0.929280  1
  O  O32  1  0.646361  0.071833  0.362316  1
  O  O33  1  0.645973  0.928953  0.639646  1
  O  O34  1  0.854071  0.138547  0.572680  1
  O  O35  1  0.853599  0.861227  0.429797  1
  O  O36  1  0.865390  0.571575  0.148874  1
  O  O37  1  0.865079  0.427718  0.852582  1
  O  O38  1  0.932176  0.373882  0.365124  1
  O  O39  1  0.932493  0.626109  0.636969  1
  Si  Si40  1  0.005919  0.501694  0.250848  1
  Si  Si41  1  0.005864  0.497883  0.751036  1
  Si  Si42  1  0.250010  0.000181  0.501096  1
  Si  Si43  1  0.494126  0.749924  -0.000853  1
  Si  Si44  1  0.494122  0.250099  0.002928  1
  Si  Si45  1  0.750009  0.000189  0.501079  1
