# generated using pymatgen
data_K3(Cu4Se3)2
_symmetry_space_group_name_H-M   'P 1'
_cell_length_a   3.98645083
_cell_length_b   9.22750905
_cell_length_c   10.12313252
_cell_angle_alpha   104.86953299
_cell_angle_beta   90.00000000
_cell_angle_gamma   102.47473243
_symmetry_Int_Tables_number   1
_chemical_formula_structural   K3(Cu4Se3)2
_chemical_formula_sum   'K3 Cu8 Se6'
_cell_volume   350.80580770
_cell_formula_units_Z   1
loop_
 _symmetry_equiv_pos_site_id
 _symmetry_equiv_pos_as_xyz
  1  'x, y, z'
loop_
 _atom_site_type_symbol
 _atom_site_label
 _atom_site_symmetry_multiplicity
 _atom_site_fract_x
 _atom_site_fract_y
 _atom_site_fract_z
 _atom_site_occupancy
  K  K0  1  0.309343  0.618687  0.699044  1
  K  K1  1  0.500000  0.000000  0.000000  1
  K  K2  1  0.690657  0.381313  0.300956  1
  Cu  Cu3  1  0.895448  0.790896  0.217316  1
  Cu  Cu4  1  0.482976  0.965953  0.362654  1
  Cu  Cu5  1  0.104552  0.209104  0.782684  1
  Cu  Cu6  1  0.920970  0.841939  0.472275  1
  Cu  Cu7  1  0.079030  0.158061  0.527725  1
  Cu  Cu8  1  0.302258  0.604517  0.088724  1
  Cu  Cu9  1  0.517024  0.034047  0.637346  1
  Cu  Cu10  1  0.697742  0.395483  0.911276  1
  Se  Se11  1  0.960838  0.921677  0.715597  1
  Se  Se12  1  0.343128  0.686256  0.353395  1
  Se  Se13  1  0.656872  0.313744  0.646605  1
  Se  Se14  1  0.039162  0.078323  0.284403  1
  Se  Se15  1  0.158729  0.317458  0.024263  1
  Se  Se16  1  0.841271  0.682542  0.975737  1
