# generated using pymatgen
data_DyAl
_symmetry_space_group_name_H-M   'P 1'
_cell_length_a   5.61743598
_cell_length_b   5.84650193
_cell_length_c   11.43295586
_cell_angle_alpha   90.00000000
_cell_angle_beta   90.00000000
_cell_angle_gamma   90.00000000
_symmetry_Int_Tables_number   1
_chemical_formula_structural   DyAl
_chemical_formula_sum   'Dy8 Al8'
_cell_volume   375.48514130
_cell_formula_units_Z   8
loop_
 _symmetry_equiv_pos_site_id
 _symmetry_equiv_pos_as_xyz
  1  'x, y, z'
loop_
 _atom_site_type_symbol
 _atom_site_label
 _atom_site_symmetry_multiplicity
 _atom_site_fract_x
 _atom_site_fract_y
 _atom_site_fract_z
 _atom_site_occupancy
  Al  Al0  1  0.500000  0.931478  0.250000  1
  Al  Al1  1  0.000000  0.068522  0.750000  1
  Al  Al2  1  0.500000  0.068522  0.750000  1
  Al  Al3  1  0.000000  0.931478  0.250000  1
  Al  Al4  1  0.250000  0.338376  0.598370  1
  Al  Al5  1  0.750000  0.661624  0.401630  1
  Al  Al6  1  0.750000  0.338376  0.901630  1
  Al  Al7  1  0.250000  0.661624  0.098370  1
  Dy  Dy8  1  0.250000  0.599444  0.832190  1
  Dy  Dy9  1  0.750000  0.400556  0.167810  1
  Dy  Dy10  1  0.750000  0.599444  0.667810  1
  Dy  Dy11  1  0.250000  0.400556  0.332190  1
  Dy  Dy12  1  0.250000  0.837842  0.515746  1
  Dy  Dy13  1  0.750000  0.162158  0.484254  1
  Dy  Dy14  1  0.750000  0.837842  0.984254  1
  Dy  Dy15  1  0.250000  0.162158  0.015746  1
