# generated using pymatgen
data_TbNiGe2
_symmetry_space_group_name_H-M   'P 1'
_cell_length_a   4.20681181
_cell_length_b   4.09335375
_cell_length_c   8.62576975
_cell_angle_alpha   103.72574620
_cell_angle_beta   90.00000000
_cell_angle_gamma   90.00000000
_symmetry_Int_Tables_number   1
_chemical_formula_structural   TbNiGe2
_chemical_formula_sum   'Tb2 Ni2 Ge4'
_cell_volume   144.29369919
_cell_formula_units_Z   2
loop_
 _symmetry_equiv_pos_site_id
 _symmetry_equiv_pos_as_xyz
  1  'x, y, z'
loop_
 _atom_site_type_symbol
 _atom_site_label
 _atom_site_symmetry_multiplicity
 _atom_site_fract_x
 _atom_site_fract_y
 _atom_site_fract_z
 _atom_site_occupancy
  Ni  Ni0  1  0.750000  0.321855  0.643710  1
  Ni  Ni1  1  0.250000  0.678145  0.356290  1
  Ge  Ge2  1  0.750000  0.459165  0.918330  1
  Ge  Ge3  1  0.250000  0.251887  0.503773  1
  Ge  Ge4  1  0.250000  0.540835  0.081670  1
  Ge  Ge5  1  0.750000  0.748113  0.496227  1
  Tb  Tb6  1  0.750000  0.108690  0.217380  1
  Tb  Tb7  1  0.250000  0.891310  0.782620  1
