# generated using pymatgen
data_Sr4PtO6
_symmetry_space_group_name_H-M   'P 1'
_cell_length_a   6.96296879
_cell_length_b   6.96296879
_cell_length_c   6.96296880
_cell_angle_alpha   90.19060980
_cell_angle_beta   90.19060977
_cell_angle_gamma   90.19060980
_symmetry_Int_Tables_number   1
_chemical_formula_structural   Sr4PtO6
_chemical_formula_sum   'Sr8 Pt2 O12'
_cell_volume   337.57954308
_cell_formula_units_Z   2
loop_
 _symmetry_equiv_pos_site_id
 _symmetry_equiv_pos_as_xyz
  1  'x, y, z'
loop_
 _atom_site_type_symbol
 _atom_site_label
 _atom_site_symmetry_multiplicity
 _atom_site_fract_x
 _atom_site_fract_y
 _atom_site_fract_z
 _atom_site_occupancy
  O  O0  1  0.786277  0.572169  0.442634  1
  O  O1  1  0.572169  0.442634  0.786277  1
  O  O2  1  0.442634  0.786277  0.572169  1
  O  O3  1  0.057366  0.927831  0.713723  1
  O  O4  1  0.927831  0.713723  0.057366  1
  O  O5  1  0.713723  0.057366  0.927831  1
  O  O6  1  0.213723  0.427831  0.557366  1
  O  O7  1  0.427831  0.557366  0.213723  1
  O  O8  1  0.557366  0.213723  0.427831  1
  O  O9  1  0.942634  0.072169  0.286277  1
  O  O10  1  0.286277  0.942634  0.072169  1
  O  O11  1  0.072169  0.286277  0.942634  1
  Sr  Sr12  1  0.118213  0.750000  0.381787  1
  Sr  Sr13  1  0.750000  0.381787  0.118213  1
  Sr  Sr14  1  0.381787  0.118213  0.750000  1
  Sr  Sr15  1  0.881787  0.250000  0.618213  1
  Sr  Sr16  1  0.250000  0.618213  0.881787  1
  Sr  Sr17  1  0.618213  0.881787  0.250000  1
  Sr  Sr18  1  0.750000  0.750000  0.750000  1
  Sr  Sr19  1  0.250000  0.250000  0.250000  1
  Pt  Pt20  1  0.500000  0.500000  0.500000  1
  Pt  Pt21  1  0.000000  0.000000  0.000000  1
