# generated using pymatgen
data_KBa4Ti5O14F
_symmetry_space_group_name_H-M   'P 1'
_cell_length_a   4.00890353
_cell_length_b   4.00890353
_cell_length_c   20.33079168
_cell_angle_alpha   90.00000000
_cell_angle_beta   90.00000000
_cell_angle_gamma   90.00000000
_symmetry_Int_Tables_number   1
_chemical_formula_structural   KBa4Ti5O14F
_chemical_formula_sum   'K1 Ba4 Ti5 O14 F1'
_cell_volume   326.74240507
_cell_formula_units_Z   1
loop_
 _symmetry_equiv_pos_site_id
 _symmetry_equiv_pos_as_xyz
  1  'x, y, z'
loop_
 _atom_site_type_symbol
 _atom_site_label
 _atom_site_symmetry_multiplicity
 _atom_site_fract_x
 _atom_site_fract_y
 _atom_site_fract_z
 _atom_site_occupancy
  Ba  Ba0  1  0.000000  0.000000  0.997729  1
  Ba  Ba1  1  0.000000  0.000000  0.199601  1
  Ba  Ba2  1  0.000000  0.000000  0.400399  1
  Ba  Ba3  1  0.000000  0.000000  0.602271  1
  F  F4  1  0.500000  0.500000  0.800000  1
  K  K5  1  0.000000  0.000000  0.800000  1
  O  O6  1  0.000000  0.500000  0.100203  1
  O  O7  1  0.000000  0.500000  0.300000  1
  O  O8  1  0.000000  0.500000  0.499797  1
  O  O9  1  0.000000  0.500000  0.698503  1
  O  O10  1  0.000000  0.500000  0.901497  1
  O  O11  1  0.500000  0.000000  0.100203  1
  O  O12  1  0.500000  0.500000  1.000057  1
  O  O13  1  0.500000  0.000000  0.300000  1
  O  O14  1  0.500000  0.000000  0.499797  1
  O  O15  1  0.500000  0.500000  0.400045  1
  O  O16  1  0.500000  0.500000  0.199955  1
  O  O17  1  0.500000  0.000000  0.698503  1
  O  O18  1  0.500000  0.000000  0.901497  1
  O  O19  1  0.500000  0.500000  0.599943  1
  Ti  Ti20  1  0.500000  0.500000  0.100751  1
  Ti  Ti21  1  0.500000  0.500000  0.499249  1
  Ti  Ti22  1  0.500000  0.500000  0.300000  1
  Ti  Ti23  1  0.500000  0.500000  0.904412  1
  Ti  Ti24  1  0.500000  0.500000  0.695588  1
