# generated using pymatgen
data_BaSrLaBiO6
_symmetry_space_group_name_H-M   'P 1'
_cell_length_a   6.24469802
_cell_length_b   6.24469812
_cell_length_c   6.24469838
_cell_angle_alpha   60.00000115
_cell_angle_beta   59.99999579
_cell_angle_gamma   59.99999442
_symmetry_Int_Tables_number   1
_chemical_formula_structural   BaSrLaBiO6
_chemical_formula_sum   'Ba1 Sr1 La1 Bi1 O6'
_cell_volume   172.19452170
_cell_formula_units_Z   1
loop_
 _symmetry_equiv_pos_site_id
 _symmetry_equiv_pos_as_xyz
  1  'x, y, z'
loop_
 _atom_site_type_symbol
 _atom_site_label
 _atom_site_symmetry_multiplicity
 _atom_site_fract_x
 _atom_site_fract_y
 _atom_site_fract_z
 _atom_site_occupancy
  Ba  Ba0  1  0.750000  0.750000  0.750000  1
  Bi  Bi1  1  0.500000  0.500000  0.500000  1
  La  La2  1  0.250000  0.250000  0.250000  1
  O  O3  1  0.262687  0.737313  0.262687  1
  O  O4  1  0.262687  0.262687  0.737313  1
  O  O5  1  0.737313  0.262687  0.262687  1
  O  O6  1  0.262687  0.737313  0.737313  1
  O  O7  1  0.737313  0.262687  0.737313  1
  O  O8  1  0.737313  0.737313  0.262687  1
  Sr  Sr9  1  0.000000  0.000000  0.000000  1
