# generated using pymatgen
data_SiNiH12(OF)6
_symmetry_space_group_name_H-M   'P 1'
_cell_length_a   6.35763032
_cell_length_b   6.35761474
_cell_length_c   6.35756320
_cell_angle_alpha   96.24236085
_cell_angle_beta   96.24320617
_cell_angle_gamma   96.24291631
_symmetry_Int_Tables_number   1
_chemical_formula_structural   SiNiH12(OF)6
_chemical_formula_sum   'Si1 Ni1 H12 O6 F6'
_cell_volume   252.03288123
_cell_formula_units_Z   1
loop_
 _symmetry_equiv_pos_site_id
 _symmetry_equiv_pos_as_xyz
  1  'x, y, z'
loop_
 _atom_site_type_symbol
 _atom_site_label
 _atom_site_symmetry_multiplicity
 _atom_site_fract_x
 _atom_site_fract_y
 _atom_site_fract_z
 _atom_site_occupancy
  Si  Si0  1  0.500000  0.500000  0.500000  1
  Ni  Ni1  1  0.999997  -0.000000  0.000000  1
  H  H2  1  0.063148  0.398461  0.195782  1
  H  H3  1  0.176013  0.699394  0.796542  1
  H  H4  1  0.203457  0.823988  0.300605  1
  H  H5  1  0.195783  0.063148  0.398463  1
  H  H6  1  0.300606  0.203458  0.823989  1
  H  H7  1  0.398463  0.195783  0.063150  1
  H  H8  1  0.601537  0.804217  0.936850  1
  H  H9  1  0.699395  0.796542  0.176011  1
  H  H10  1  0.804217  0.936852  0.601537  1
  H  H11  1  0.796543  0.176011  0.699394  1
  H  H12  1  0.823987  0.300606  0.203459  1
  H  H13  1  0.936853  0.601539  0.804218  1
  O  O14  1  0.057561  0.698907  0.883031  1
  O  O15  1  0.116970  0.942445  0.301093  1
  O  O16  1  0.301095  0.116969  0.942445  1
  O  O17  1  0.698904  0.883031  0.057555  1
  O  O18  1  0.883031  0.057556  0.698908  1
  O  O19  1  0.942440  0.301093  0.116970  1
  F  F20  1  0.272221  0.562038  0.361348  1
  F  F21  1  0.361353  0.272211  0.562040  1
  F  F22  1  0.437960  0.638652  0.727786  1
  F  F23  1  0.562040  0.361348  0.272213  1
  F  F24  1  0.638648  0.727790  0.437960  1
  F  F25  1  0.727779  0.437961  0.638651  1
