# generated using pymatgen
data_CaLaMnFeO6
_symmetry_space_group_name_H-M   'P 1'
_cell_length_a   5.49390717
_cell_length_b   5.48771722
_cell_length_c   7.73168344
_cell_angle_alpha   90.08985843
_cell_angle_beta   90.00000000
_cell_angle_gamma   90.00000000
_symmetry_Int_Tables_number   1
_chemical_formula_structural   CaLaMnFeO6
_chemical_formula_sum   'Ca2 La2 Mn2 Fe2 O12'
_cell_volume   233.10230685
_cell_formula_units_Z   2
loop_
 _symmetry_equiv_pos_site_id
 _symmetry_equiv_pos_as_xyz
  1  'x, y, z'
loop_
 _atom_site_type_symbol
 _atom_site_label
 _atom_site_symmetry_multiplicity
 _atom_site_fract_x
 _atom_site_fract_y
 _atom_site_fract_z
 _atom_site_occupancy
  Ca  Ca0  1  0.534890  0.509676  0.250009  1
  Ca  Ca1  1  0.965110  0.009676  0.750009  1
  La  La2  1  0.023193  0.994330  0.250103  1
  La  La3  1  0.476807  0.494330  0.750103  1
  Mn  Mn4  1  0.499485  0.999790  0.499504  1
  Mn  Mn5  1  0.000515  0.499790  0.999504  1
  Fe  Fe6  1  0.499190  0.000008  0.000722  1
  Fe  Fe7  1  0.000810  0.500008  0.500722  1
  O  O8  1  0.012434  0.578125  0.754452  1
  O  O9  1  0.217402  0.225426  0.958748  1
  O  O10  1  0.224866  0.215729  0.541446  1
  O  O11  1  0.275134  0.715729  0.041446  1
  O  O12  1  0.282598  0.725426  0.458748  1
  O  O13  1  0.487566  0.078125  0.254451  1
  O  O14  1  0.514791  0.930692  0.745679  1
  O  O15  1  0.722640  0.268654  0.537663  1
  O  O16  1  0.729907  0.277569  0.961674  1
  O  O17  1  0.770093  0.777569  0.461674  1
  O  O18  1  0.777360  0.768654  0.037663  1
  O  O19  1  0.985209  0.430692  0.245679  1
