# generated using pymatgen
data_RbPO3
_symmetry_space_group_name_H-M   'P 1'
_cell_length_a   4.31826920
_cell_length_b   6.62542762
_cell_length_c   12.32631446
_cell_angle_alpha   95.70331359
_cell_angle_beta   90.00000000
_cell_angle_gamma   90.00000000
_symmetry_Int_Tables_number   1
_chemical_formula_structural   RbPO3
_chemical_formula_sum   'Rb4 P4 O12'
_cell_volume   350.91480958
_cell_formula_units_Z   4
loop_
 _symmetry_equiv_pos_site_id
 _symmetry_equiv_pos_as_xyz
  1  'x, y, z'
loop_
 _atom_site_type_symbol
 _atom_site_label
 _atom_site_symmetry_multiplicity
 _atom_site_fract_x
 _atom_site_fract_y
 _atom_site_fract_z
 _atom_site_occupancy
  O  O0  1  0.868850  0.024552  0.677093  1
  O  O1  1  0.368850  0.475448  0.822907  1
  O  O2  1  0.131150  0.975448  0.322907  1
  O  O3  1  0.631150  0.524552  0.177093  1
  O  O4  1  0.154974  0.712303  0.578470  1
  O  O5  1  0.654974  0.787697  0.921530  1
  O  O6  1  0.845026  0.287697  0.421530  1
  O  O7  1  0.345026  0.212303  0.078470  1
  O  O8  1  0.742356  0.157724  0.219829  1
  O  O9  1  0.242356  0.342276  0.280171  1
  O  O10  1  0.257644  0.842276  0.780171  1
  O  O11  1  0.757644  0.657724  0.719829  1
  P  P12  1  0.010139  0.817878  0.679157  1
  P  P13  1  0.510139  0.682122  0.820843  1
  P  P14  1  0.989861  0.182122  0.320843  1
  P  P15  1  0.489861  0.317878  0.179157  1
  Rb  Rb16  1  0.365845  0.278738  0.592521  1
  Rb  Rb17  1  0.865845  0.221262  0.907479  1
  Rb  Rb18  1  0.634155  0.721262  0.407479  1
  Rb  Rb19  1  0.134155  0.778738  0.092521  1
