# generated using pymatgen
data_Li(PrGe3)2
_symmetry_space_group_name_H-M   'P 1'
_cell_length_a   4.14830904
_cell_length_b   4.29788135
_cell_length_c   11.01981509
_cell_angle_alpha   90.00000000
_cell_angle_beta   100.84894967
_cell_angle_gamma   90.00000000
_symmetry_Int_Tables_number   1
_chemical_formula_structural   Li(PrGe3)2
_chemical_formula_sum   'Li1 Pr2 Ge6'
_cell_volume   192.96004716
_cell_formula_units_Z   1
loop_
 _symmetry_equiv_pos_site_id
 _symmetry_equiv_pos_as_xyz
  1  'x, y, z'
loop_
 _atom_site_type_symbol
 _atom_site_label
 _atom_site_symmetry_multiplicity
 _atom_site_fract_x
 _atom_site_fract_y
 _atom_site_fract_z
 _atom_site_occupancy
  Li  Li0  1  0.000000  0.000000  0.000000  1
  Ge  Ge1  1  0.287185  0.500000  0.574370  1
  Ge  Ge2  1  0.712815  0.500000  0.425630  1
  Ge  Ge3  1  0.438816  0.000000  0.877632  1
  Ge  Ge4  1  0.938704  0.500000  0.877407  1
  Ge  Ge5  1  0.061296  0.500000  0.122593  1
  Ge  Ge6  1  0.561184  0.000000  0.122368  1
  Pr  Pr7  1  0.833644  0.000000  0.667287  1
  Pr  Pr8  1  0.166356  0.000000  0.332713  1
