# generated using pymatgen
data_CaNdTiMnO6
_symmetry_space_group_name_H-M   'P 1'
_cell_length_a   5.51242933
_cell_length_b   5.67314468
_cell_length_c   7.60129758
_cell_angle_alpha   90.00000000
_cell_angle_beta   90.62848881
_cell_angle_gamma   90.00000000
_symmetry_Int_Tables_number   1
_chemical_formula_structural   CaNdTiMnO6
_chemical_formula_sum   'Ca2 Nd2 Ti2 Mn2 O12'
_cell_volume   237.69962731
_cell_formula_units_Z   2
loop_
 _symmetry_equiv_pos_site_id
 _symmetry_equiv_pos_as_xyz
  1  'x, y, z'
loop_
 _atom_site_type_symbol
 _atom_site_label
 _atom_site_symmetry_multiplicity
 _atom_site_fract_x
 _atom_site_fract_y
 _atom_site_fract_z
 _atom_site_occupancy
  Ca  Ca0  1  0.512053  0.451081  0.750011  1
  Ca  Ca1  1  0.012053  0.048919  0.250011  1
  Nd  Nd2  1  0.986741  0.947085  0.750212  1
  Nd  Nd3  1  0.486741  0.552915  0.250212  1
  Ti  Ti4  1  0.998430  0.494058  0.999115  1
  Ti  Ti5  1  0.498430  0.005942  0.499115  1
  Mn  Mn6  1  0.998642  0.497564  0.500525  1
  Mn  Mn7  1  0.498642  0.002436  0.000525  1
  O  O8  1  0.088120  0.523474  0.745882  1
  O  O9  1  0.203452  0.782803  0.046214  1
  O  O10  1  0.220406  0.801150  0.453305  1
  O  O11  1  0.281534  0.301767  0.047317  1
  O  O12  1  0.298572  0.285112  0.453318  1
  O  O13  1  0.412049  0.025632  0.754100  1
  O  O14  1  0.588120  0.976526  0.245882  1
  O  O15  1  0.703452  0.717197  0.546214  1
  O  O16  1  0.720406  0.698850  0.953305  1
  O  O17  1  0.781534  0.198233  0.547317  1
  O  O18  1  0.798572  0.214888  0.953318  1
  O  O19  1  0.912049  0.474368  0.254100  1
