# generated using pymatgen
data_Na3PO4
_symmetry_space_group_name_H-M   'P 1'
_cell_length_a   6.87761369
_cell_length_b   10.94302934
_cell_length_c   10.94302934
_cell_angle_alpha   90.00000000
_cell_angle_beta   90.00000000
_cell_angle_gamma   90.00000000
_symmetry_Int_Tables_number   1
_chemical_formula_structural   Na3PO4
_chemical_formula_sum   'Na24 P8 O32'
_cell_volume   823.59349065
_cell_formula_units_Z   8
loop_
 _symmetry_equiv_pos_site_id
 _symmetry_equiv_pos_as_xyz
  1  'x, y, z'
loop_
 _atom_site_type_symbol
 _atom_site_label
 _atom_site_symmetry_multiplicity
 _atom_site_fract_x
 _atom_site_fract_y
 _atom_site_fract_z
 _atom_site_occupancy
  O  O0  1  0.203771  0.375067  0.896537  1
  O  O1  1  0.832227  0.604795  0.808171  1
  O  O2  1  0.832227  0.395205  0.191829  1
  O  O3  1  0.167773  0.191829  0.604795  1
  O  O4  1  0.167773  0.808171  0.395205  1
  O  O5  1  0.332227  0.691829  0.895205  1
  O  O6  1  0.667773  0.895205  0.308171  1
  O  O7  1  0.667773  0.104795  0.691829  1
  O  O8  1  0.358391  0.166178  0.918598  1
  O  O9  1  0.641609  0.918598  0.833822  1
  O  O10  1  0.641609  0.081402  0.166178  1
  O  O11  1  0.358391  0.833822  0.081402  1
  O  O12  1  0.141609  0.666178  0.581402  1
  O  O13  1  0.141609  0.333822  0.418598  1
  O  O14  1  0.858391  0.581402  0.333822  1
  O  O15  1  0.858391  0.418598  0.666178  1
  O  O16  1  0.332227  0.308171  0.104795  1
  O  O17  1  0.796229  0.896537  0.624933  1
  O  O18  1  0.796229  0.103463  0.375067  1
  O  O19  1  0.203771  0.624933  0.103463  1
  O  O20  1  0.296229  0.875067  0.603463  1
  O  O21  1  0.296229  0.124933  0.396537  1
  O  O22  1  0.703771  0.603463  0.124933  1
  O  O23  1  0.703771  0.396537  0.875067  1
  O  O24  1  0.027142  0.209023  0.014927  1
  O  O25  1  0.972858  0.014927  0.790977  1
  O  O26  1  0.972858  0.985073  0.209023  1
  O  O27  1  0.527142  0.514927  0.709023  1
  O  O28  1  0.472858  0.709023  0.485073  1
  O  O29  1  0.472858  0.290977  0.514927  1
  O  O30  1  0.527142  0.485073  0.290977  1
  O  O31  1  0.027142  0.790977  0.985073  1
  Na  Na32  1  0.538207  0.741204  0.716626  1
  Na  Na33  1  0.000000  0.000000  0.000000  1
  Na  Na34  1  0.500000  0.500000  0.500000  1
  Na  Na35  1  0.500000  0.000000  0.000000  1
  Na  Na36  1  0.000000  0.500000  0.500000  1
  Na  Na37  1  0.050791  0.000000  0.500000  1
  Na  Na38  1  0.949209  0.500000  0.000000  1
  Na  Na39  1  0.449209  0.500000  0.000000  1
  Na  Na40  1  0.695584  0.257984  0.035466  1
  Na  Na41  1  0.304416  0.035466  0.742016  1
  Na  Na42  1  0.304416  0.964534  0.257984  1
  Na  Na43  1  0.695584  0.742016  0.964534  1
  Na  Na44  1  0.804416  0.757984  0.464534  1
  Na  Na45  1  0.804416  0.242016  0.535466  1
  Na  Na46  1  0.195584  0.464534  0.242016  1
  Na  Na47  1  0.195584  0.535466  0.757984  1
  Na  Na48  1  0.038207  0.216626  0.241204  1
  Na  Na49  1  0.961793  0.241204  0.783374  1
  Na  Na50  1  0.961793  0.758796  0.216626  1
  Na  Na51  1  0.038207  0.783374  0.758796  1
  Na  Na52  1  0.461793  0.716626  0.258796  1
  Na  Na53  1  0.461793  0.283374  0.741204  1
  Na  Na54  1  0.538207  0.258796  0.283374  1
  Na  Na55  1  0.550791  0.000000  0.500000  1
  P  P56  1  0.730157  0.485217  0.763685  1
  P  P57  1  0.730157  0.514783  0.236315  1
  P  P58  1  0.269843  0.236315  0.485217  1
  P  P59  1  0.269843  0.763685  0.514783  1
  P  P60  1  0.230157  0.736315  0.014783  1
  P  P61  1  0.769843  0.014783  0.263685  1
  P  P62  1  0.769843  0.985217  0.736315  1
  P  P63  1  0.230157  0.263685  0.985217  1
