# generated using pymatgen
data_LaAsO4
_symmetry_space_group_name_H-M   'P 1'
_cell_length_a   6.85237427
_cell_length_b   7.11768763
_cell_length_c   7.30217581
_cell_angle_alpha   90.00000000
_cell_angle_beta   90.00000000
_cell_angle_gamma   105.00452199
_symmetry_Int_Tables_number   1
_chemical_formula_structural   LaAsO4
_chemical_formula_sum   'La4 As4 O16'
_cell_volume   344.00668174
_cell_formula_units_Z   4
loop_
 _symmetry_equiv_pos_site_id
 _symmetry_equiv_pos_as_xyz
  1  'x, y, z'
loop_
 _atom_site_type_symbol
 _atom_site_label
 _atom_site_symmetry_multiplicity
 _atom_site_fract_x
 _atom_site_fract_y
 _atom_site_fract_z
 _atom_site_occupancy
  O  O0  1  0.172574  0.519236  0.394567  1
  O  O1  1  0.327426  0.980764  0.894567  1
  O  O2  1  0.827426  0.480764  0.605433  1
  O  O3  1  0.672574  0.019236  0.105433  1
  O  O4  1  0.503119  0.608199  0.158637  1
  O  O5  1  0.996881  0.891801  0.658637  1
  O  O6  1  0.496881  0.391801  0.841363  1
  O  O7  1  0.003119  0.108199  0.341363  1
  O  O8  1  0.779737  0.381851  0.212646  1
  O  O9  1  0.720263  0.118149  0.712646  1
  O  O10  1  0.220263  0.618149  0.787354  1
  O  O11  1  0.279737  0.881851  0.287354  1
  O  O12  1  0.073313  0.246123  0.996654  1
  O  O13  1  0.426687  0.253877  0.496654  1
  O  O14  1  0.926687  0.753877  0.003346  1
  O  O15  1  0.573313  0.746123  0.503346  1
  As  As16  1  0.388253  0.696121  0.337917  1
  As  As17  1  0.111747  0.803879  0.837917  1
  As  As18  1  0.611747  0.303879  0.662083  1
  As  As19  1  0.888253  0.196121  0.162083  1
  La  La20  1  0.904144  0.716098  0.347106  1
  La  La21  1  0.595856  0.783902  0.847106  1
  La  La22  1  0.095856  0.283902  0.652894  1
  La  La23  1  0.404144  0.216098  0.152894  1
