# generated using pymatgen
data_ErCo3
_symmetry_space_group_name_H-M   'P 1'
_cell_length_a   8.57419625
_cell_length_b   8.57419625
_cell_length_c   8.57419625
_cell_angle_alpha   33.61388525
_cell_angle_beta   33.61388527
_cell_angle_gamma   33.61388525
_symmetry_Int_Tables_number   1
_chemical_formula_structural   ErCo3
_chemical_formula_sum   'Er3 Co9'
_cell_volume   172.08594946
_cell_formula_units_Z   3
loop_
 _symmetry_equiv_pos_site_id
 _symmetry_equiv_pos_as_xyz
  1  'x, y, z'
loop_
 _atom_site_type_symbol
 _atom_site_label
 _atom_site_symmetry_multiplicity
 _atom_site_fract_x
 _atom_site_fract_y
 _atom_site_fract_z
 _atom_site_occupancy
  Co  Co0  1  0.416616  0.416616  0.921955  1
  Co  Co1  1  0.416616  0.921955  0.416616  1
  Co  Co2  1  0.921955  0.416616  0.416616  1
  Co  Co3  1  0.500000  0.500000  0.500000  1
  Co  Co4  1  0.335044  0.335044  0.335044  1
  Co  Co5  1  0.664956  0.664956  0.664956  1
  Co  Co6  1  0.583384  0.078045  0.583384  1
  Co  Co7  1  0.583384  0.583384  0.078045  1
  Co  Co8  1  0.078045  0.583384  0.583384  1
  Er  Er9  1  0.860258  0.860258  0.860258  1
  Er  Er10  1  0.139742  0.139742  0.139742  1
  Er  Er11  1  0.000000  0.000000  0.000000  1
