# generated using pymatgen
data_ThTi2O6
_symmetry_space_group_name_H-M   'P 1'
_cell_length_a   5.23574566
_cell_length_b   6.95288403
_cell_length_c   6.95288403
_cell_angle_alpha   76.88737572
_cell_angle_beta   70.74364600
_cell_angle_gamma   70.74364591
_symmetry_Int_Tables_number   1
_chemical_formula_structural   ThTi2O6
_chemical_formula_sum   'Th2 Ti4 O12'
_cell_volume   223.59073382
_cell_formula_units_Z   2
loop_
 _symmetry_equiv_pos_site_id
 _symmetry_equiv_pos_as_xyz
  1  'x, y, z'
loop_
 _atom_site_type_symbol
 _atom_site_label
 _atom_site_symmetry_multiplicity
 _atom_site_fract_x
 _atom_site_fract_y
 _atom_site_fract_z
 _atom_site_occupancy
  O  O0  1  0.465666  0.882577  0.398430  1
  O  O1  1  0.034334  0.601570  0.117423  1
  O  O2  1  0.534334  0.117423  0.601570  1
  O  O3  1  0.965666  0.398430  0.882577  1
  O  O4  1  0.033227  0.270884  0.450229  1
  O  O5  1  0.466773  0.549771  0.729116  1
  O  O6  1  0.651100  0.822060  0.905757  1
  O  O7  1  0.848900  0.094243  0.177940  1
  O  O8  1  0.348900  0.177940  0.094243  1
  O  O9  1  0.151100  0.905757  0.822060  1
  O  O10  1  0.533227  0.450229  0.270884  1
  O  O11  1  0.966773  0.729116  0.549771  1
  Ti  Ti12  1  0.440349  0.188102  0.351365  1
  Ti  Ti13  1  0.059651  0.648635  0.811898  1
  Ti  Ti14  1  0.559651  0.811898  0.648635  1
  Ti  Ti15  1  0.940349  0.351365  0.188102  1
  Th  Th16  1  0.250000  0.811379  0.188621  1
  Th  Th17  1  0.750000  0.188621  0.811379  1
