# generated using pymatgen
data_USiO4
_symmetry_space_group_name_H-M   'P 1'
_cell_length_a   5.87726296
_cell_length_b   5.87726296
_cell_length_c   5.87726296
_cell_angle_alpha   106.72902911
_cell_angle_beta   106.72902910
_cell_angle_gamma   115.10689938
_symmetry_Int_Tables_number   1
_chemical_formula_structural   USiO4
_chemical_formula_sum   'U2 Si2 O8'
_cell_volume   155.13484131
_cell_formula_units_Z   2
loop_
 _symmetry_equiv_pos_site_id
 _symmetry_equiv_pos_as_xyz
  1  'x, y, z'
loop_
 _atom_site_type_symbol
 _atom_site_label
 _atom_site_symmetry_multiplicity
 _atom_site_fract_x
 _atom_site_fract_y
 _atom_site_fract_z
 _atom_site_occupancy
  O  O0  1  0.137716  0.707269  0.430447  1
  O  O1  1  0.707269  0.776822  0.569553  1
  O  O2  1  0.707269  0.137716  0.930447  1
  O  O3  1  0.776822  0.707269  0.069553  1
  O  O4  1  0.292731  0.862284  0.069553  1
  O  O5  1  0.223178  0.292731  0.930447  1
  O  O6  1  0.862284  0.292731  0.569553  1
  O  O7  1  0.292731  0.223178  0.430447  1
  Si  Si8  1  0.125000  0.875000  0.250000  1
  Si  Si9  1  0.875000  0.125000  0.750000  1
  U  U10  1  0.625000  0.375000  0.250000  1
  U  U11  1  0.375000  0.625000  0.750000  1
