# generated using pymatgen
data_La2MgNi2
_symmetry_space_group_name_H-M   'P 1'
_cell_length_a   3.90301923
_cell_length_b   7.62319992
_cell_length_c   7.62319992
_cell_angle_alpha   90.00000000
_cell_angle_beta   90.00000000
_cell_angle_gamma   90.00000000
_symmetry_Int_Tables_number   1
_chemical_formula_structural   La2MgNi2
_chemical_formula_sum   'La4 Mg2 Ni4'
_cell_volume   226.81684743
_cell_formula_units_Z   2
loop_
 _symmetry_equiv_pos_site_id
 _symmetry_equiv_pos_as_xyz
  1  'x, y, z'
loop_
 _atom_site_type_symbol
 _atom_site_label
 _atom_site_symmetry_multiplicity
 _atom_site_fract_x
 _atom_site_fract_y
 _atom_site_fract_z
 _atom_site_occupancy
  Mg  Mg0  1  0.000000  0.500000  0.500000  1
  Mg  Mg1  1  0.000000  0.000000  0.000000  1
  Ni  Ni2  1  0.000000  0.622067  0.122067  1
  Ni  Ni3  1  0.000000  0.877933  0.622067  1
  Ni  Ni4  1  0.000000  0.377933  0.877933  1
  Ni  Ni5  1  0.000000  0.122067  0.377933  1
  La  La6  1  0.500000  0.827760  0.327760  1
  La  La7  1  0.500000  0.672240  0.827760  1
  La  La8  1  0.500000  0.327760  0.172240  1
  La  La9  1  0.500000  0.172240  0.672240  1
