# generated using pymatgen
data_CaNbO3
_symmetry_space_group_name_H-M   'P 1'
_cell_length_a   5.55846453
_cell_length_b   5.80289604
_cell_length_c   7.96588316
_cell_angle_alpha   90.00000000
_cell_angle_beta   90.00000000
_cell_angle_gamma   90.00000000
_symmetry_Int_Tables_number   1
_chemical_formula_structural   CaNbO3
_chemical_formula_sum   'Ca4 Nb4 O12'
_cell_volume   256.94108926
_cell_formula_units_Z   4
loop_
 _symmetry_equiv_pos_site_id
 _symmetry_equiv_pos_as_xyz
  1  'x, y, z'
loop_
 _atom_site_type_symbol
 _atom_site_label
 _atom_site_symmetry_multiplicity
 _atom_site_fract_x
 _atom_site_fract_y
 _atom_site_fract_z
 _atom_site_occupancy
  O  O0  1  0.804656  0.205643  0.551376  1
  O  O1  1  0.304657  0.294357  0.448624  1
  O  O2  1  0.695342  0.705644  0.948624  1
  O  O3  1  0.195343  0.794357  0.051376  1
  O  O4  1  0.195343  0.794357  0.448624  1
  O  O5  1  0.695342  0.705644  0.551376  1
  O  O6  1  0.304657  0.294357  0.051376  1
  O  O7  1  0.804656  0.205643  0.948624  1
  O  O8  1  0.606747  0.956155  0.250000  1
  O  O9  1  0.106748  0.543844  0.750000  1
  O  O10  1  0.393252  0.043846  0.750000  1
  O  O11  1  0.893253  0.456155  0.250000  1
  Ca  Ca12  1  0.015836  0.051515  0.250000  1
  Ca  Ca13  1  0.515838  0.448485  0.750000  1
  Ca  Ca14  1  0.484163  0.551515  0.250000  1
  Ca  Ca15  1  0.984162  0.948486  0.750000  1
  Nb  Nb16  1  0.499999  0.000000  0.000000  1
  Nb  Nb17  1  0.000000  0.500000  0.000000  1
  Nb  Nb18  1  0.000000  0.500000  0.500000  1
  Nb  Nb19  1  0.499999  0.000000  0.500000  1
