# generated using pymatgen
data_Ca2Nd2Nb3FeO14
_symmetry_space_group_name_H-M   'P 1'
_cell_length_a   7.40522528
_cell_length_b   14.96624935
_cell_length_c   12.88974011
_cell_angle_alpha   30.07428781
_cell_angle_beta   54.94653079
_cell_angle_gamma   60.35755388
_symmetry_Int_Tables_number   1
_chemical_formula_structural   Ca2Nd2Nb3FeO14
_chemical_formula_sum   'Ca4 Nd4 Nb6 Fe2 O28'
_cell_volume   586.01949367
_cell_formula_units_Z   2
loop_
 _symmetry_equiv_pos_site_id
 _symmetry_equiv_pos_as_xyz
  1  'x, y, z'
loop_
 _atom_site_type_symbol
 _atom_site_label
 _atom_site_symmetry_multiplicity
 _atom_site_fract_x
 _atom_site_fract_y
 _atom_site_fract_z
 _atom_site_occupancy
  Ca  Ca0  1  0.000433  0.004001  0.496588  1
  Ca  Ca1  1  0.494378  0.248227  0.999935  1
  Ca  Ca2  1  0.507190  0.746689  0.001373  1
  Ca  Ca3  1  0.498370  0.498759  0.501710  1
  Nd  Nd4  1  0.507859  0.248654  0.501064  1
  Nd  Nd5  1  0.491964  0.750815  0.497998  1
  Nd  Nd6  1  0.500057  0.998818  0.501166  1
  Nd  Nd7  1  0.999721  0.499149  0.501547  1
  Nb  Nb8  1  0.498207  0.999022  0.000682  1
  Nb  Nb9  1  0.001957  0.499727  0.000338  1
  Nb  Nb10  1  0.011627  0.750937  0.999302  1
  Nb  Nb11  1  0.012807  0.250362  0.499707  1
  Nb  Nb12  1  0.987226  0.247935  0.003117  1
  Nb  Nb13  1  0.986813  0.747451  0.502939  1
  Fe  Fe14  1  0.997172  0.999228  0.001742  1
  Fe  Fe15  1  0.500530  0.499628  0.001347  1
  O  O16  1  0.071100  0.305519  0.067956  1
  O  O17  1  0.078523  0.000353  0.676131  1
  O  O18  1  0.372415  0.999775  0.374872  1
  O  O19  1  0.674419  0.993840  0.079831  1
  O  O20  1  0.078045  0.201995  0.672900  1
  O  O21  1  0.070887  0.795653  0.081632  1
  O  O22  1  0.328246  0.294418  0.330422  1
  O  O23  1  0.676607  0.297924  0.079416  1
  O  O24  1  0.069291  0.500765  0.675767  1
  O  O25  1  0.322387  0.003107  0.924813  1
  O  O26  1  0.377827  0.498438  0.376441  1
  O  O27  1  0.922314  0.997386  0.325723  1
  O  O28  1  0.678598  0.494175  0.079315  1
  O  O29  1  0.075475  0.694720  0.676758  1
  O  O30  1  0.318116  0.193021  0.931976  1
  O  O31  1  0.317680  0.803182  0.325204  1
  O  O32  1  0.925867  0.300674  0.326734  1
  O  O33  1  0.682639  0.194014  0.677385  1
  O  O34  1  0.682555  0.804913  0.069635  1
  O  O35  1  0.321435  0.503637  0.924653  1
  O  O36  1  0.932564  0.496867  0.325209  1
  O  O37  1  0.621573  0.499629  0.625096  1
  O  O38  1  0.324810  0.701808  0.921761  1
  O  O39  1  0.672448  0.703069  0.672619  1
  O  O40  1  0.926868  0.202241  0.921666  1
  O  O41  1  0.921196  0.795205  0.330329  1
  O  O42  1  0.628310  0.998584  0.626483  1
  O  O43  1  0.930469  0.691769  0.934371  1
