# generated using pymatgen
data_Hg3AsO4
_symmetry_space_group_name_H-M   'P 1'
_cell_length_a   5.29483786
_cell_length_b   9.33114173
_cell_length_c   12.38573348
_cell_angle_alpha   96.04035264
_cell_angle_beta   90.00000000
_cell_angle_gamma   90.00000000
_symmetry_Int_Tables_number   1
_chemical_formula_structural   Hg3AsO4
_chemical_formula_sum   'Hg12 As4 O16'
_cell_volume   608.54300427
_cell_formula_units_Z   4
loop_
 _symmetry_equiv_pos_site_id
 _symmetry_equiv_pos_as_xyz
  1  'x, y, z'
loop_
 _atom_site_type_symbol
 _atom_site_label
 _atom_site_symmetry_multiplicity
 _atom_site_fract_x
 _atom_site_fract_y
 _atom_site_fract_z
 _atom_site_occupancy
  O  O0  1  0.440021  0.465459  0.228884  1
  O  O1  1  0.940021  0.034541  0.271116  1
  O  O2  1  0.559979  0.534541  0.771116  1
  O  O3  1  0.059979  0.965459  0.728884  1
  O  O4  1  0.021937  0.339647  0.116170  1
  O  O5  1  0.521937  0.160353  0.383830  1
  O  O6  1  0.978063  0.660353  0.883830  1
  O  O7  1  0.478063  0.839647  0.616170  1
  O  O8  1  0.013323  0.393813  0.347031  1
  O  O9  1  0.505495  0.129684  0.722668  1
  O  O10  1  0.986677  0.606187  0.652968  1
  O  O11  1  0.486677  0.893813  0.847032  1
  O  O12  1  0.994505  0.629684  0.222668  1
  O  O13  1  0.494505  0.870316  0.277332  1
  O  O14  1  0.005495  0.370316  0.777332  1
  O  O15  1  0.513323  0.106187  0.152969  1
  As  As16  1  0.885190  0.543965  0.772822  1
  As  As17  1  0.114810  0.456035  0.227178  1
  As  As18  1  0.385190  0.956035  0.727178  1
  As  As19  1  0.614810  0.043965  0.272822  1
  Hg  Hg20  1  0.846037  0.171956  0.625752  1
  Hg  Hg21  1  0.636078  0.314356  0.043729  1
  Hg  Hg22  1  0.863922  0.814356  0.543729  1
  Hg  Hg23  1  0.363922  0.685644  0.956271  1
  Hg  Hg24  1  0.136078  0.185644  0.456271  1
  Hg  Hg25  1  0.346037  0.328044  0.874248  1
  Hg  Hg26  1  0.153963  0.828044  0.374248  1
  Hg  Hg27  1  0.653963  0.671956  0.125752  1
  Hg  Hg28  1  0.632851  0.452076  0.415027  1
  Hg  Hg29  1  0.132851  0.047924  0.084973  1
  Hg  Hg30  1  0.367149  0.547924  0.584973  1
  Hg  Hg31  1  0.867149  0.952076  0.915027  1
