# generated using pymatgen
data_SiP2O7
_symmetry_space_group_name_H-M   'P 1'
_cell_length_a   4.81301848
_cell_length_b   6.39682026
_cell_length_c   14.97215666
_cell_angle_alpha   90.00000000
_cell_angle_beta   90.02227059
_cell_angle_gamma   90.00000000
_symmetry_Int_Tables_number   1
_chemical_formula_structural   SiP2O7
_chemical_formula_sum   'Si4 P8 O28'
_cell_volume   460.96293604
_cell_formula_units_Z   4
loop_
 _symmetry_equiv_pos_site_id
 _symmetry_equiv_pos_as_xyz
  1  'x, y, z'
loop_
 _atom_site_type_symbol
 _atom_site_label
 _atom_site_symmetry_multiplicity
 _atom_site_fract_x
 _atom_site_fract_y
 _atom_site_fract_z
 _atom_site_occupancy
  O  O0  1  0.829608  0.989662  0.753131  1
  O  O1  1  0.170392  0.489662  0.746869  1
  O  O2  1  0.170392  0.010338  0.246869  1
  O  O3  1  0.829608  0.510338  0.253131  1
  O  O4  1  0.453359  0.202673  0.677661  1
  O  O5  1  0.546641  0.702673  0.822339  1
  O  O6  1  0.546641  0.797327  0.322339  1
  O  O7  1  0.453359  0.297327  0.177661  1
  O  O8  1  0.955115  0.254394  0.633753  1
  O  O9  1  0.044885  0.754394  0.866247  1
  O  O10  1  0.044885  0.745606  0.366247  1
  O  O11  1  0.955115  0.245606  0.133753  1
  O  O12  1  0.716922  0.565805  0.089895  1
  O  O13  1  0.283078  0.065805  0.410105  1
  O  O14  1  0.283078  0.434195  0.910105  1
  O  O15  1  0.716922  0.934195  0.589895  1
  O  O16  1  0.667960  0.831461  0.975162  1
  O  O17  1  0.332040  0.331461  0.524838  1
  O  O18  1  0.332040  0.168539  0.024838  1
  O  O19  1  0.667960  0.668539  0.475162  1
  O  O20  1  0.542212  0.918937  0.135412  1
  O  O21  1  0.457788  0.418937  0.364588  1
  O  O22  1  0.457788  0.081063  0.864588  1
  O  O23  1  0.542212  0.581063  0.635412  1
  O  O24  1  0.048013  0.869488  0.093059  1
  O  O25  1  0.951987  0.369488  0.406941  1
  O  O26  1  0.951987  0.130512  0.906941  1
  O  O27  1  0.048013  0.630512  0.593059  1
  Si  Si28  1  0.250346  0.085236  0.135009  1
  Si  Si29  1  0.749654  0.585236  0.364991  1
  Si  Si30  1  0.749654  0.914764  0.864991  1
  Si  Si31  1  0.250346  0.414764  0.635009  1
  P  P32  1  0.746884  0.689079  0.572880  1
  P  P33  1  0.253116  0.189079  0.927120  1
  P  P34  1  0.253116  0.310921  0.427120  1
  P  P35  1  0.746884  0.810921  0.072880  1
  P  P36  1  0.739217  0.396965  0.168792  1
  P  P37  1  0.260783  0.896965  0.331208  1
  P  P38  1  0.260783  0.603035  0.831208  1
  P  P39  1  0.739217  0.103035  0.668792  1
