# generated using pymatgen
data_NaGd3Ti2(SbO7)2
_symmetry_space_group_name_H-M   'P 1'
_cell_length_a   7.35683763
_cell_length_b   14.71639687
_cell_length_c   12.76500226
_cell_angle_alpha   29.84636012
_cell_angle_beta   54.39300393
_cell_angle_gamma   59.66703167
_symmetry_Int_Tables_number   1
_chemical_formula_structural   NaGd3Ti2(SbO7)2
_chemical_formula_sum   'Na2 Gd6 Ti4 Sb4 O28'
_cell_volume   559.19927452
_cell_formula_units_Z   2
loop_
 _symmetry_equiv_pos_site_id
 _symmetry_equiv_pos_as_xyz
  1  'x, y, z'
loop_
 _atom_site_type_symbol
 _atom_site_label
 _atom_site_symmetry_multiplicity
 _atom_site_fract_x
 _atom_site_fract_y
 _atom_site_fract_z
 _atom_site_occupancy
  Gd  Gd0  1  -0.000014  0.982984  0.017043  1
  Gd  Gd1  1  1.000014  0.517016  0.982957  1
  Gd  Gd2  1  0.499934  0.995265  0.004774  1
  Gd  Gd3  1  0.500066  0.504735  0.995226  1
  Gd  Gd4  1  0.000000  0.250000  0.000000  1
  Gd  Gd5  1  0.000000  0.250000  0.500000  1
  Na  Na6  1  0.000000  0.750000  0.000000  1
  Na  Na7  1  0.000000  0.750000  0.500000  1
  O  O8  1  0.129691  0.010189  0.108624  1
  O  O9  1  0.182083  0.196519  0.175796  1
  O  O10  1  0.177100  0.017712  0.554586  1
  O  O11  1  0.129661  0.489728  0.129129  1
  O  O12  1  0.577196  0.000715  0.172373  1
  O  O13  1  0.578549  0.204503  0.168133  1
  O  O14  1  0.178440  0.699718  0.182448  1
  O  O15  1  0.421449  0.204506  0.422894  1
  O  O16  1  0.182087  0.303446  0.568854  1
  O  O17  1  0.422829  0.000748  0.826154  1
  O  O18  1  0.577171  0.499252  0.173846  1
  O  O19  1  0.177220  0.482268  0.589939  1
  O  O20  1  0.817913  0.196554  0.431146  1
  O  O21  1  0.578551  0.295494  0.577106  1
  O  O22  1  0.572258  0.705167  0.173423  1
  O  O23  1  0.421451  0.295497  0.831867  1
  O  O24  1  0.427694  0.705132  0.416297  1
  O  O25  1  0.178432  0.800304  0.581859  1
  O  O26  1  0.822900  0.482288  0.445414  1
  O  O27  1  0.422804  0.499285  0.827627  1
  O  O28  1  0.817917  0.303481  0.824204  1
  O  O29  1  0.572306  0.794868  0.583703  1
  O  O30  1  0.821568  0.699696  0.418141  1
  O  O31  1  0.427742  0.794833  0.826577  1
  O  O32  1  0.870309  0.489811  0.891376  1
  O  O33  1  0.822780  0.017732  0.410061  1
  O  O34  1  0.821560  0.800282  0.817552  1
  O  O35  1  0.870339  0.010272  0.870871  1
  Sb  Sb36  1  0.499955  0.004102  0.495897  1
  Sb  Sb37  1  0.500000  0.750000  0.000000  1
  Sb  Sb38  1  0.500045  0.495898  0.504103  1
  Sb  Sb39  1  0.500000  0.750000  0.500000  1
  Ti  Ti40  1  0.500000  0.250000  0.000000  1
  Ti  Ti41  1  0.500000  0.250000  0.500000  1
  Ti  Ti42  1  0.999944  0.010818  0.489182  1
  Ti  Ti43  1  0.000056  0.489182  0.510818  1
