# generated using pymatgen
data_Na5Al3F14
_symmetry_space_group_name_H-M   'P 1'
_cell_length_a   7.11760245
_cell_length_b   7.11760245
_cell_length_c   10.56160566
_cell_angle_alpha   90.00000000
_cell_angle_beta   90.00000000
_cell_angle_gamma   90.00000000
_symmetry_Int_Tables_number   1
_chemical_formula_structural   Na5Al3F14
_chemical_formula_sum   'Na10 Al6 F28'
_cell_volume   535.05373772
_cell_formula_units_Z   2
loop_
 _symmetry_equiv_pos_site_id
 _symmetry_equiv_pos_as_xyz
  1  'x, y, z'
loop_
 _atom_site_type_symbol
 _atom_site_label
 _atom_site_symmetry_multiplicity
 _atom_site_fract_x
 _atom_site_fract_y
 _atom_site_fract_z
 _atom_site_occupancy
  F  F0  1  0.034798  0.680019  0.620130  1
  F  F1  1  0.965202  0.319981  0.620130  1
  F  F2  1  0.180019  0.534798  0.879870  1
  F  F3  1  0.680019  0.965202  0.620130  1
  F  F4  1  0.319981  0.034798  0.620130  1
  F  F5  1  0.465202  0.180019  0.879870  1
  F  F6  1  0.534798  0.819981  0.879870  1
  F  F7  1  0.819981  0.465202  0.879870  1
  F  F8  1  0.965202  0.319981  0.379870  1
  F  F9  1  0.034798  0.680019  0.379870  1
  F  F10  1  0.819981  0.465202  0.120130  1
  F  F11  1  0.319981  0.034798  0.379870  1
  F  F12  1  0.680019  0.965202  0.379870  1
  F  F13  1  0.534798  0.819981  0.120130  1
  F  F14  1  0.465202  0.180019  0.120130  1
  F  F15  1  0.180019  0.534798  0.120130  1
  F  F16  1  0.000000  0.000000  0.171481  1
  F  F17  1  0.500000  0.500000  0.328519  1
  F  F18  1  0.000000  0.000000  0.828519  1
  F  F19  1  0.500000  0.500000  0.671481  1
  F  F20  1  0.063382  0.247916  0.000000  1
  F  F21  1  0.752084  0.063382  0.000000  1
  F  F22  1  0.247916  0.936618  0.000000  1
  F  F23  1  0.563382  0.252084  0.500000  1
  F  F24  1  0.436618  0.747916  0.500000  1
  F  F25  1  0.936618  0.752084  0.000000  1
  F  F26  1  0.747916  0.563382  0.500000  1
  F  F27  1  0.252084  0.436618  0.500000  1
  Na  Na28  1  0.000000  0.000000  0.500000  1
  Na  Na29  1  0.500000  0.500000  0.000000  1
  Na  Na30  1  0.275197  0.775197  0.250000  1
  Na  Na31  1  0.224803  0.275197  0.250000  1
  Na  Na32  1  0.775197  0.724803  0.250000  1
  Na  Na33  1  0.724803  0.224803  0.250000  1
  Na  Na34  1  0.275197  0.775197  0.750000  1
  Na  Na35  1  0.224803  0.275197  0.750000  1
  Na  Na36  1  0.775197  0.724803  0.750000  1
  Na  Na37  1  0.724803  0.224803  0.750000  1
  Al  Al38  1  0.000000  0.000000  0.000000  1
  Al  Al39  1  0.500000  0.500000  0.500000  1
  Al  Al40  1  0.000000  0.500000  0.000000  1
  Al  Al41  1  0.500000  0.000000  0.000000  1
  Al  Al42  1  0.500000  0.000000  0.500000  1
  Al  Al43  1  0.000000  0.500000  0.500000  1
