# generated using pymatgen
data_K4Gd2C3O9F4
_symmetry_space_group_name_H-M   'P 1'
_cell_length_a   7.00350917
_cell_length_b   14.05090869
_cell_length_c   10.65804609
_cell_angle_alpha   40.66515460
_cell_angle_beta   79.12384090
_cell_angle_gamma   81.77129671
_symmetry_Int_Tables_number   1
_chemical_formula_structural   K4Gd2C3O9F4
_chemical_formula_sum   'K8 Gd4 C6 O18 F8'
_cell_volume   671.16850987
_cell_formula_units_Z   2
loop_
 _symmetry_equiv_pos_site_id
 _symmetry_equiv_pos_as_xyz
  1  'x, y, z'
loop_
 _atom_site_type_symbol
 _atom_site_label
 _atom_site_symmetry_multiplicity
 _atom_site_fract_x
 _atom_site_fract_y
 _atom_site_fract_z
 _atom_site_occupancy
  C  C0  1  0.989469  0.142478  0.350536  1
  C  C1  1  0.010531  0.642478  0.364508  1
  C  C2  1  0.353120  0.177585  0.643723  1
  C  C3  1  0.647973  0.175807  0.012132  1
  C  C4  1  0.352027  0.675807  0.636255  1
  C  C5  1  0.646880  0.677585  1.001108  1
  F  F6  1  0.192060  0.500010  0.193597  1
  F  F7  1  0.197014  1.002982  0.190942  1
  F  F8  1  0.409226  0.107430  0.440255  1
  F  F9  1  0.427831  0.381693  0.655833  1
  F  F10  1  0.590774  0.607430  0.344885  1
  F  F11  1  0.572169  0.881693  0.580781  1
  F  F12  1  0.807940  0.000010  0.806382  1
  F  F13  1  0.802986  0.502982  0.803095  1
  Gd  Gd14  1  0.355819  0.493754  0.361409  1
  Gd  Gd15  1  0.356029  0.003413  0.354675  1
  Gd  Gd16  1  0.644181  0.993754  0.651083  1
  Gd  Gd17  1  0.643971  0.503413  0.638498  1
  K  K18  1  0.000549  0.999677  1.000348  1
  K  K19  1  0.999451  0.499677  0.000299  1
  K  K20  1  0.119575  0.311457  0.876176  1
  K  K21  1  0.135872  0.817164  0.869208  1
  K  K22  1  0.498353  0.378214  0.123337  1
  K  K23  1  0.501647  0.878214  0.120236  1
  K  K24  1  0.864128  0.317164  0.496465  1
  K  K25  1  0.880425  0.811457  0.500910  1
  O  O26  1  0.002137  0.000026  0.499496  1
  O  O27  1  0.126825  0.213936  0.207670  1
  O  O28  1  0.997863  0.500026  0.500451  1
  O  O29  1  0.162860  0.706487  0.234526  1
  O  O30  1  0.201128  0.245850  0.634569  1
  O  O31  1  0.512646  0.242449  0.025752  1
  O  O32  1  0.359901  0.035980  0.777395  1
  O  O33  1  0.227461  0.751005  0.640887  1
  O  O34  1  0.652695  0.033803  0.157425  1
  O  O35  1  0.504474  0.253901  0.514400  1
  O  O36  1  0.495526  0.753901  0.977797  1
  O  O37  1  0.347305  0.533803  0.774970  1
  O  O38  1  0.640099  0.535980  0.150645  1
  O  O39  1  0.487354  0.742449  0.489350  1
  O  O40  1  0.837140  0.206487  0.352500  1
  O  O41  1  0.772539  0.251005  0.857102  1
  O  O42  1  0.873175  0.713936  0.364458  1
  O  O43  1  0.798872  0.745850  0.873732  1
