# generated using pymatgen
data_NaCdF3
_symmetry_space_group_name_H-M   'P 1'
_cell_length_a   6.12137870
_cell_length_b   6.12137830
_cell_length_c   6.12137892
_cell_angle_alpha   56.67483605
_cell_angle_beta   56.67483853
_cell_angle_gamma   56.67483751
_symmetry_Int_Tables_number   1
_chemical_formula_structural   NaCdF3
_chemical_formula_sum   'Na2 Cd2 F6'
_cell_volume   149.73804042
_cell_formula_units_Z   2
loop_
 _symmetry_equiv_pos_site_id
 _symmetry_equiv_pos_as_xyz
  1  'x, y, z'
loop_
 _atom_site_type_symbol
 _atom_site_label
 _atom_site_symmetry_multiplicity
 _atom_site_fract_x
 _atom_site_fract_y
 _atom_site_fract_z
 _atom_site_occupancy
  Na  Na0  1  0.291631  0.291631  0.291631  1
  Na  Na1  1  0.791631  0.791631  0.791631  1
  Cd  Cd2  1  0.501983  0.501983  0.501983  1
  Cd  Cd3  1  0.001983  0.001983  0.001983  1
  F  F4  1  0.610662  0.204578  0.887147  1
  F  F5  1  0.704578  0.110662  0.387147  1
  F  F6  1  0.887147  0.610662  0.204578  1
  F  F7  1  0.204578  0.887147  0.610662  1
  F  F8  1  0.387147  0.704578  0.110662  1
  F  F9  1  0.110662  0.387147  0.704578  1
