# generated using pymatgen
data_Na8Al6Si6SO28
_symmetry_space_group_name_H-M   'P 1'
_cell_length_a   9.15993068
_cell_length_b   9.15993068
_cell_length_c   9.15993068
_cell_angle_alpha   90.00000000
_cell_angle_beta   90.00000000
_cell_angle_gamma   90.00000000
_symmetry_Int_Tables_number   1
_chemical_formula_structural   Na8Al6Si6SO28
_chemical_formula_sum   'Na8 Al6 Si6 S1 O28'
_cell_volume   768.55784712
_cell_formula_units_Z   1
loop_
 _symmetry_equiv_pos_site_id
 _symmetry_equiv_pos_as_xyz
  1  'x, y, z'
loop_
 _atom_site_type_symbol
 _atom_site_label
 _atom_site_symmetry_multiplicity
 _atom_site_fract_x
 _atom_site_fract_y
 _atom_site_fract_z
 _atom_site_occupancy
  Al  Al0  1  0.000000  0.250470  0.500000  1
  Al  Al1  1  0.000000  0.749530  0.500000  1
  Al  Al2  1  0.250470  0.500000  0.000000  1
  Al  Al3  1  0.500000  0.000000  0.749530  1
  Al  Al4  1  0.500000  0.000000  0.250470  1
  Al  Al5  1  0.749530  0.500000  0.000000  1
  Na  Na6  1  0.194033  0.194033  0.194033  1
  Na  Na7  1  0.194033  0.805967  0.805967  1
  Na  Na8  1  0.242797  0.242797  0.757203  1
  Na  Na9  1  0.242797  0.757203  0.242797  1
  Na  Na10  1  0.757203  0.242797  0.242797  1
  Na  Na11  1  0.757203  0.757203  0.757203  1
  Na  Na12  1  0.805967  0.194033  0.805967  1
  Na  Na13  1  0.805967  0.805967  0.194033  1
  O  O14  1  0.044579  0.357160  0.652708  1
  O  O15  1  0.044579  0.642840  0.347292  1
  O  O16  1  0.093951  0.093951  0.906049  1
  O  O17  1  0.093951  0.906049  0.093951  1
  O  O18  1  0.151754  0.142496  0.453555  1
  O  O19  1  0.142496  0.453555  0.151754  1
  O  O20  1  0.142496  0.546445  0.848246  1
  O  O21  1  0.151754  0.857504  0.546445  1
  O  O22  1  0.347292  0.044579  0.642840  1
  O  O23  1  0.357160  0.347292  0.955421  1
  O  O24  1  0.357160  0.652708  0.044579  1
  O  O25  1  0.347292  0.955421  0.357160  1
  O  O26  1  0.453555  0.151754  0.142496  1
  O  O27  1  0.453555  0.848246  0.857504  1
  O  O28  1  0.546445  0.151754  0.857504  1
  O  O29  1  0.546445  0.848246  0.142496  1
  O  O30  1  0.652708  0.044579  0.357160  1
  O  O31  1  0.642840  0.347292  0.044579  1
  O  O32  1  0.642840  0.652708  0.955421  1
  O  O33  1  0.652708  0.955421  0.642840  1
  O  O34  1  0.848246  0.142496  0.546445  1
  O  O35  1  0.857504  0.453555  0.848246  1
  O  O36  1  0.857504  0.546445  0.151754  1
  O  O37  1  0.848246  0.857504  0.453555  1
  O  O38  1  0.906049  0.093951  0.093951  1
  O  O39  1  0.906049  0.906049  0.906049  1
  O  O40  1  0.955421  0.357160  0.347292  1
  O  O41  1  0.955421  0.642840  0.652708  1
  S  S42  1  0.000000  0.000000  0.000000  1
  Si  Si43  1  0.000000  0.500000  0.249502  1
  Si  Si44  1  0.000000  0.500000  0.750498  1
  Si  Si45  1  0.249502  0.000000  0.500000  1
  Si  Si46  1  0.500000  0.750498  0.000000  1
  Si  Si47  1  0.500000  0.249502  0.000000  1
  Si  Si48  1  0.750498  0.000000  0.500000  1
