# generated using pymatgen
data_NaNbO3
_symmetry_space_group_name_H-M   'P 1'
_cell_length_a   5.59863007
_cell_length_b   5.59863007
_cell_length_c   7.96903160
_cell_angle_alpha   90.00000000
_cell_angle_beta   90.00000000
_cell_angle_gamma   90.59768715
_symmetry_Int_Tables_number   1
_chemical_formula_structural   NaNbO3
_chemical_formula_sum   'Na4 Nb4 O12'
_cell_volume   249.77298449
_cell_formula_units_Z   4
loop_
 _symmetry_equiv_pos_site_id
 _symmetry_equiv_pos_as_xyz
  1  'x, y, z'
loop_
 _atom_site_type_symbol
 _atom_site_label
 _atom_site_symmetry_multiplicity
 _atom_site_fract_x
 _atom_site_fract_y
 _atom_site_fract_z
 _atom_site_occupancy
  O  O0  1  0.952680  0.466010  0.750000  1
  O  O1  1  0.047321  0.533991  0.250000  1
  O  O2  1  0.466009  0.952678  0.250000  1
  O  O3  1  0.533991  0.047321  0.750000  1
  O  O4  1  0.291479  0.708521  0.539585  1
  O  O5  1  0.708522  0.291478  0.039585  1
  O  O6  1  0.708522  0.291478  0.460415  1
  O  O7  1  0.291479  0.708521  0.960416  1
  O  O8  1  0.206563  0.206563  0.000000  1
  O  O9  1  0.793437  0.793438  0.500000  1
  O  O10  1  0.206563  0.206563  0.500000  1
  O  O11  1  0.793437  0.793438  0.000000  1
  Na  Na12  1  0.488987  0.511013  0.250000  1
  Na  Na13  1  0.511014  0.488988  0.750000  1
  Na  Na14  1  0.996604  0.003396  0.250000  1
  Na  Na15  1  0.003397  0.996604  0.750000  1
  Nb  Nb16  1  0.000001  0.500000  0.500000  1
  Nb  Nb17  1  0.000001  0.500000  0.000000  1
  Nb  Nb18  1  0.500000  0.000000  0.500000  1
  Nb  Nb19  1  0.500000  0.000000  0.000000  1
