# generated using pymatgen
data_Nd7Al7Co6
_symmetry_space_group_name_H-M   'P 1'
_cell_length_a   4.17515436
_cell_length_b   13.85095856
_cell_length_c   13.85095856
_cell_angle_alpha   90.00000000
_cell_angle_beta   90.00000000
_cell_angle_gamma   90.00000000
_symmetry_Int_Tables_number   1
_chemical_formula_structural   Nd7Al7Co6
_chemical_formula_sum   'Nd14 Al14 Co12'
_cell_volume   800.99941022
_cell_formula_units_Z   2
loop_
 _symmetry_equiv_pos_site_id
 _symmetry_equiv_pos_as_xyz
  1  'x, y, z'
loop_
 _atom_site_type_symbol
 _atom_site_label
 _atom_site_symmetry_multiplicity
 _atom_site_fract_x
 _atom_site_fract_y
 _atom_site_fract_z
 _atom_site_occupancy
  Al  Al0  1  0.000000  0.000000  0.500000  1
  Al  Al1  1  0.000000  0.500000  0.000000  1
  Al  Al2  1  0.500000  0.214435  0.714435  1
  Al  Al3  1  0.500000  0.285565  0.214435  1
  Al  Al4  1  0.500000  0.714435  0.785565  1
  Al  Al5  1  0.500000  0.785565  0.285565  1
  Al  Al6  1  0.500000  0.098129  0.138929  1
  Al  Al7  1  0.500000  0.861071  0.098129  1
  Al  Al8  1  0.500000  0.138929  0.901871  1
  Al  Al9  1  0.500000  0.901871  0.861071  1
  Al  Al10  1  0.500000  0.598129  0.361071  1
  Al  Al11  1  0.500000  0.401871  0.638929  1
  Al  Al12  1  0.500000  0.638929  0.598129  1
  Al  Al13  1  0.500000  0.361071  0.401871  1
  Co  Co14  1  0.500000  0.073432  0.573432  1
  Co  Co15  1  0.500000  0.426568  0.073432  1
  Co  Co16  1  0.500000  0.573432  0.926568  1
  Co  Co17  1  0.500000  0.926568  0.426568  1
  Co  Co18  1  0.000000  0.288483  0.335343  1
  Co  Co19  1  0.000000  0.664657  0.288483  1
  Co  Co20  1  0.000000  0.335343  0.711517  1
  Co  Co21  1  0.000000  0.711517  0.664657  1
  Co  Co22  1  0.000000  0.788483  0.164657  1
  Co  Co23  1  0.000000  0.211517  0.835343  1
  Co  Co24  1  0.000000  0.835343  0.788483  1
  Co  Co25  1  0.000000  0.164657  0.211517  1
  Nd  Nd26  1  0.000000  0.000000  0.000000  1
  Nd  Nd27  1  0.000000  0.500000  0.500000  1
  Nd  Nd28  1  0.500000  0.368493  0.868493  1
  Nd  Nd29  1  0.500000  0.131507  0.368493  1
  Nd  Nd30  1  0.500000  0.868493  0.631507  1
  Nd  Nd31  1  0.500000  0.631507  0.131507  1
  Nd  Nd32  1  0.000000  0.261476  0.047686  1
  Nd  Nd33  1  0.000000  0.952314  0.261476  1
  Nd  Nd34  1  0.000000  0.047686  0.738524  1
  Nd  Nd35  1  0.000000  0.738524  0.952314  1
  Nd  Nd36  1  0.000000  0.761476  0.452314  1
  Nd  Nd37  1  0.000000  0.238524  0.547686  1
  Nd  Nd38  1  0.000000  0.547686  0.761476  1
  Nd  Nd39  1  0.000000  0.452314  0.238524  1
