# generated using pymatgen
data_SrAu2
_symmetry_space_group_name_H-M   'P 1'
_cell_length_a   4.84020989
_cell_length_b   6.14461019
_cell_length_c   6.14461019
_cell_angle_alpha   76.88849443
_cell_angle_beta   66.80521982
_cell_angle_gamma   66.80521976
_symmetry_Int_Tables_number   1
_chemical_formula_structural   SrAu2
_chemical_formula_sum   'Sr2 Au4'
_cell_volume   153.84208685
_cell_formula_units_Z   2
loop_
 _symmetry_equiv_pos_site_id
 _symmetry_equiv_pos_as_xyz
  1  'x, y, z'
loop_
 _atom_site_type_symbol
 _atom_site_label
 _atom_site_symmetry_multiplicity
 _atom_site_fract_x
 _atom_site_fract_y
 _atom_site_fract_z
 _atom_site_occupancy
  Sr  Sr0  1  0.534214  0.715786  0.215786  1
  Sr  Sr1  1  0.465786  0.284214  0.784214  1
  Au  Au2  1  0.164518  0.295105  0.375859  1
  Au  Au3  1  0.835482  0.704895  0.624141  1
  Au  Au4  1  0.164518  0.875859  0.795105  1
  Au  Au5  1  0.835482  0.124141  0.204895  1
