# generated using pymatgen
data_SrAl3P2(HO2)7
_symmetry_space_group_name_H-M   'P 1'
_cell_length_a   6.84120044
_cell_length_b   6.84120075
_cell_length_c   6.84120101
_cell_angle_alpha   63.26834737
_cell_angle_beta   63.26835104
_cell_angle_gamma   63.26834988
_symmetry_Int_Tables_number   1
_chemical_formula_structural   SrAl3P2(HO2)7
_chemical_formula_sum   'Sr1 Al3 P2 H7 O14'
_cell_volume   242.79609355
_cell_formula_units_Z   1
loop_
 _symmetry_equiv_pos_site_id
 _symmetry_equiv_pos_as_xyz
  1  'x, y, z'
loop_
 _atom_site_type_symbol
 _atom_site_label
 _atom_site_symmetry_multiplicity
 _atom_site_fract_x
 _atom_site_fract_y
 _atom_site_fract_z
 _atom_site_occupancy
  Al  Al0  1  0.002057  0.495979  0.002057  1
  Al  Al1  1  0.002057  0.002057  0.495979  1
  Al  Al2  1  0.495979  0.002057  0.002057  1
  H  H3  1  0.304889  0.713490  0.304889  1
  H  H4  1  0.304889  0.304889  0.713490  1
  H  H5  1  0.270692  0.707077  0.707077  1
  H  H6  1  0.713490  0.304889  0.304889  1
  H  H7  1  0.537363  0.537363  0.537363  1
  H  H8  1  0.707077  0.270692  0.707077  1
  H  H9  1  0.707077  0.707077  0.270692  1
  O  O10  1  0.158985  0.512601  0.158985  1
  O  O11  1  0.158985  0.158985  0.512601  1
  O  O12  1  0.512601  0.158985  0.158985  1
  O  O13  1  0.404466  0.404466  0.404466  1
  O  O14  1  0.259588  0.259588  0.884355  1
  O  O15  1  0.259588  0.884355  0.259588  1
  O  O16  1  0.106511  0.740953  0.740953  1
  O  O17  1  0.884355  0.259588  0.259588  1
  O  O18  1  0.740953  0.106511  0.740953  1
  O  O19  1  0.740953  0.740953  0.106511  1
  O  O20  1  0.597136  0.597136  0.597136  1
  O  O21  1  0.484733  0.839182  0.839182  1
  O  O22  1  0.839182  0.484733  0.839182  1
  O  O23  1  0.839182  0.839182  0.484733  1
  P  P24  1  0.309910  0.309910  0.309910  1
  P  P25  1  0.694603  0.694603  0.694603  1
  Sr  Sr26  1  0.999694  0.999694  0.999694  1
