# generated using pymatgen
data_Ag3SbS3
_symmetry_space_group_name_H-M   'P 1'
_cell_length_a   7.09183838
_cell_length_b   7.09183839
_cell_length_c   7.09183839
_cell_angle_alpha   101.07735772
_cell_angle_beta   101.07735766
_cell_angle_gamma   101.07735770
_symmetry_Int_Tables_number   1
_chemical_formula_structural   Ag3SbS3
_chemical_formula_sum   'Ag6 Sb2 S6'
_cell_volume   333.65479595
_cell_formula_units_Z   2
loop_
 _symmetry_equiv_pos_site_id
 _symmetry_equiv_pos_as_xyz
  1  'x, y, z'
loop_
 _atom_site_type_symbol
 _atom_site_label
 _atom_site_symmetry_multiplicity
 _atom_site_fract_x
 _atom_site_fract_y
 _atom_site_fract_z
 _atom_site_occupancy
  S  S0  1  0.098563  0.760231  0.753605  1
  S  S1  1  0.760231  0.753605  0.098563  1
  S  S2  1  0.260231  0.598563  0.253605  1
  S  S3  1  0.598563  0.253605  0.260231  1
  S  S4  1  0.753605  0.098563  0.760231  1
  S  S5  1  0.253605  0.260231  0.598563  1
  Ag  Ag6  1  0.413135  0.742333  0.956897  1
  Ag  Ag7  1  0.956897  0.413135  0.742333  1
  Ag  Ag8  1  0.913135  0.456897  0.242333  1
  Ag  Ag9  1  0.456897  0.242333  0.913135  1
  Ag  Ag10  1  0.742333  0.956897  0.413135  1
  Ag  Ag11  1  0.242333  0.913135  0.456897  1
  Sb  Sb12  1  0.501135  0.501135  0.501135  1
  Sb  Sb13  1  0.001135  0.001135  0.001135  1
