# generated using pymatgen
data_Cu(BO2)2
_symmetry_space_group_name_H-M   'P 1'
_cell_length_a   5.68073935
_cell_length_b   8.67887245
_cell_length_c   8.67887245
_cell_angle_alpha   83.85135169
_cell_angle_beta   70.89659573
_cell_angle_gamma   70.89659579
_symmetry_Int_Tables_number   1
_chemical_formula_structural   Cu(BO2)2
_chemical_formula_sum   'Cu6 B12 O24'
_cell_volume   382.05884753
_cell_formula_units_Z   6
loop_
 _symmetry_equiv_pos_site_id
 _symmetry_equiv_pos_as_xyz
  1  'x, y, z'
loop_
 _atom_site_type_symbol
 _atom_site_label
 _atom_site_symmetry_multiplicity
 _atom_site_fract_x
 _atom_site_fract_y
 _atom_site_fract_z
 _atom_site_occupancy
  B  B0  1  0.625299  0.749701  0.249701  1
  B  B1  1  0.125000  0.249701  0.250299  1
  B  B2  1  0.625000  0.750299  0.749701  1
  B  B3  1  0.624701  0.250299  0.750299  1
  B  B4  1  0.799655  0.462407  0.832732  1
  B  B5  1  0.094794  0.537593  0.167268  1
  B  B6  1  0.512062  0.037593  0.332732  1
  B  B7  1  0.155206  0.332732  0.962407  1
  B  B8  1  0.450345  0.667268  0.037593  1
  B  B9  1  0.882387  0.962407  0.667268  1
  B  B10  1  0.737938  0.167268  0.462407  1
  B  B11  1  0.367613  0.832732  0.537593  1
  O  O12  1  0.915819  0.270010  0.410484  1
  O  O13  1  0.673697  0.410484  0.729990  1
  O  O14  1  0.877401  0.997599  0.497599  1
  O  O15  1  0.625000  0.497599  0.002401  1
  O  O16  1  0.125000  0.502401  0.997599  1
  O  O17  1  0.814171  0.589516  0.270010  1
  O  O18  1  0.125000  0.834257  0.665743  1
  O  O19  1  0.209257  0.665743  0.165743  1
  O  O20  1  0.040743  0.334257  0.834257  1
  O  O21  1  0.625000  0.165743  0.334257  1
  O  O22  1  0.870454  0.113420  0.738760  1
  O  O23  1  0.390786  0.738760  0.886580  1
  O  O24  1  0.016126  0.261240  0.113420  1
  O  O25  1  0.722634  0.886580  0.261240  1
  O  O26  1  0.379546  0.761240  0.386580  1
  O  O27  1  0.527366  0.238760  0.613420  1
  O  O28  1  0.233874  0.386580  0.238760  1
  O  O29  1  0.859214  0.613420  0.761240  1
  O  O30  1  0.334181  0.089516  0.229990  1
  O  O31  1  0.435829  0.229990  0.910484  1
  O  O32  1  0.576303  0.770010  0.089516  1
  O  O33  1  0.653687  0.910484  0.770010  1
  O  O34  1  0.372599  0.002401  0.502401  1
  O  O35  1  0.596313  0.729990  0.589516  1
  Cu  Cu36  1  0.043212  0.831788  0.331788  1
  Cu  Cu37  1  0.625000  0.331788  0.168212  1
  Cu  Cu38  1  0.125000  0.668212  0.831788  1
  Cu  Cu39  1  0.206788  0.168212  0.668212  1
  Cu  Cu40  1  0.750000  0.500000  0.500000  1
  Cu  Cu41  1  0.500000  0.000000  0.000000  1
