# generated using pymatgen
data_Ca11(CN5)2
_symmetry_space_group_name_H-M   'P 1'
_cell_length_a   3.61379865
_cell_length_b   14.57016175
_cell_length_c   14.57016175
_cell_angle_alpha   90.00000000
_cell_angle_beta   90.00000000
_cell_angle_gamma   90.00000000
_symmetry_Int_Tables_number   1
_chemical_formula_structural   Ca11(CN5)2
_chemical_formula_sum   'Ca22 C4 N20'
_cell_volume   767.17191839
_cell_formula_units_Z   2
loop_
 _symmetry_equiv_pos_site_id
 _symmetry_equiv_pos_as_xyz
  1  'x, y, z'
loop_
 _atom_site_type_symbol
 _atom_site_label
 _atom_site_symmetry_multiplicity
 _atom_site_fract_x
 _atom_site_fract_y
 _atom_site_fract_z
 _atom_site_occupancy
  C  C0  1  0.000000  0.815798  0.815798  1
  C  C1  1  0.500000  0.684202  0.315798  1
  C  C2  1  0.500000  0.315798  0.684202  1
  C  C3  1  0.000000  0.184202  0.184202  1
  N  N4  1  0.000000  0.876265  0.876265  1
  N  N5  1  0.500000  0.623735  0.376265  1
  N  N6  1  0.500000  0.376265  0.623735  1
  N  N7  1  0.000000  0.123735  0.123735  1
  N  N8  1  0.000000  0.755841  0.755841  1
  N  N9  1  0.500000  0.744159  0.255841  1
  N  N10  1  0.500000  0.255841  0.744159  1
  N  N11  1  0.000000  0.244159  0.244159  1
  N  N12  1  0.000000  0.972011  0.311230  1
  N  N13  1  0.000000  0.027989  0.688770  1
  N  N14  1  0.500000  0.811230  0.527989  1
  N  N15  1  0.500000  0.188770  0.472011  1
  N  N16  1  0.000000  0.311230  0.972011  1
  N  N17  1  0.500000  0.527989  0.811230  1
  N  N18  1  0.500000  0.472011  0.188770  1
  N  N19  1  0.000000  0.688770  0.027989  1
  N  N20  1  0.000000  0.589769  0.589769  1
  N  N21  1  0.500000  0.910231  0.089769  1
  N  N22  1  0.000000  0.410231  0.410231  1
  N  N23  1  0.500000  0.089769  0.910231  1
  Ca  Ca24  1  0.000000  0.881725  0.606339  1
  Ca  Ca25  1  0.000000  0.118275  0.393661  1
  Ca  Ca26  1  0.500000  0.106339  0.618275  1
  Ca  Ca27  1  0.500000  0.893661  0.381725  1
  Ca  Ca28  1  0.000000  0.606339  0.881725  1
  Ca  Ca29  1  0.500000  0.618275  0.106339  1
  Ca  Ca30  1  0.500000  0.381725  0.893661  1
  Ca  Ca31  1  0.000000  0.393661  0.118275  1
  Ca  Ca32  1  0.000000  0.832748  0.167252  1
  Ca  Ca33  1  0.500000  0.332748  0.332748  1
  Ca  Ca34  1  0.500000  0.667252  0.667252  1
  Ca  Ca35  1  0.000000  0.167252  0.832748  1
  Ca  Ca36  1  0.000000  0.480428  0.704788  1
  Ca  Ca37  1  0.000000  0.519572  0.295212  1
  Ca  Ca38  1  0.500000  0.204788  0.019572  1
  Ca  Ca39  1  0.500000  0.795212  0.980428  1
  Ca  Ca40  1  0.000000  0.704788  0.480428  1
  Ca  Ca41  1  0.500000  0.019572  0.204788  1
  Ca  Ca42  1  0.500000  0.980428  0.795212  1
  Ca  Ca43  1  0.000000  0.295212  0.519572  1
  Ca  Ca44  1  0.500000  0.500000  0.500000  1
  Ca  Ca45  1  0.000000  0.000000  0.000000  1
