# generated using pymatgen
data_Na8BeAl4Si7(BrO12)2
_symmetry_space_group_name_H-M   'P 1'
_cell_length_a   15.69138535
_cell_length_b   9.04259014
_cell_length_c   9.04265141
_cell_angle_alpha   90.00012280
_cell_angle_beta   54.81068126
_cell_angle_gamma   54.81095178
_symmetry_Int_Tables_number   1
_chemical_formula_structural   Na8BeAl4Si7(BrO12)2
_chemical_formula_sum   'Na8 Be1 Al4 Si7 Br2 O24'
_cell_volume   743.52235120
_cell_formula_units_Z   1
loop_
 _symmetry_equiv_pos_site_id
 _symmetry_equiv_pos_as_xyz
  1  'x, y, z'
loop_
 _atom_site_type_symbol
 _atom_site_label
 _atom_site_symmetry_multiplicity
 _atom_site_fract_x
 _atom_site_fract_y
 _atom_site_fract_z
 _atom_site_occupancy
  Al  Al0  1  0.000037  0.499716  0.747971  1
  Al  Al1  1  0.499968  0.252030  0.499784  1
  Al  Al2  1  0.499968  0.748034  0.500280  1
  Al  Al3  1  0.000037  0.500210  0.251955  1
  Be  Be4  1  0.750002  0.249998  0.749998  1
  Br  Br5  1  0.002692  0.997308  0.997308  1
  Br  Br6  1  0.497321  0.002679  0.002679  1
  Na  Na7  1  0.309403  0.005868  0.996645  1
  Na  Na8  1  0.190669  0.003347  0.624497  1
  Na  Na9  1  0.190669  0.615315  0.994166  1
  Na  Na10  1  0.309403  0.375326  0.384549  1
  Na  Na11  1  0.805431  0.008799  0.986793  1
  Na  Na12  1  0.694487  0.013214  0.619810  1
  Na  Na13  1  0.694487  0.597812  0.991216  1
  Na  Na14  1  0.805431  0.380340  0.402345  1
  O  O15  1  0.154319  0.302814  0.991674  1
  O  O16  1  0.044563  0.295981  0.601233  1
  O  O17  1  0.044563  0.614894  0.309641  1
  O  O18  1  0.148932  0.706904  0.389221  1
  O  O19  1  0.154319  0.388548  0.699688  1
  O  O20  1  0.345700  0.008317  0.611415  1
  O  O21  1  0.351069  0.610770  0.004773  1
  O  O22  1  0.148932  0.995233  0.312916  1
  O  O23  1  0.351069  0.687093  0.293090  1
  O  O24  1  0.345700  0.300282  0.697185  1
  O  O25  1  0.455437  0.398747  0.385087  1
  O  O26  1  0.646892  0.313559  0.996585  1
  O  O27  1  0.533833  0.322146  0.625630  1
  O  O28  1  0.533833  0.610188  0.306704  1
  O  O29  1  0.455437  0.690379  0.704039  1
  O  O30  1  0.654814  0.698015  0.388174  1
  O  O31  1  0.646892  0.392657  0.709631  1
  O  O32  1  0.853102  0.003413  0.607352  1
  O  O33  1  0.845189  0.611819  0.007637  1
  O  O34  1  0.654814  0.992358  0.302198  1
  O  O35  1  0.853102  0.290383  0.686445  1
  O  O36  1  0.845189  0.697803  0.301984  1
  O  O37  1  0.966155  0.374381  0.389814  1
  O  O38  1  0.966155  0.693310  0.677876  1
  Si  Si39  1  0.249996  0.750004  0.250004  1
  Si  Si40  1  0.250007  0.249993  0.749993  1
  Si  Si41  1  0.504421  0.492293  0.236838  1
  Si  Si42  1  0.504421  0.498864  0.754320  1
  Si  Si43  1  0.750003  0.749997  0.249997  1
  Si  Si44  1  0.995570  0.245692  0.507706  1
  Si  Si45  1  0.995570  0.763168  0.501154  1
