# generated using pymatgen
data_Na6Al4Fe(Si4O13)2
_symmetry_space_group_name_H-M   'P 1'
_cell_length_a   8.10162877
_cell_length_b   8.60781022
_cell_length_c   10.49971088
_cell_angle_alpha   110.74796031
_cell_angle_beta   89.83982130
_cell_angle_gamma   117.80300738
_symmetry_Int_Tables_number   1
_chemical_formula_structural   Na6Al4Fe(Si4O13)2
_chemical_formula_sum   'Na6 Al4 Fe1 Si8 O26'
_cell_volume   593.89319451
_cell_formula_units_Z   1
loop_
 _symmetry_equiv_pos_site_id
 _symmetry_equiv_pos_as_xyz
  1  'x, y, z'
loop_
 _atom_site_type_symbol
 _atom_site_label
 _atom_site_symmetry_multiplicity
 _atom_site_fract_x
 _atom_site_fract_y
 _atom_site_fract_z
 _atom_site_occupancy
  Al  Al0  1  0.159924  0.712662  0.346847  1
  Al  Al1  1  0.445732  0.287091  0.651589  1
  Al  Al2  1  0.748791  0.880143  0.658851  1
  Al  Al3  1  0.869724  0.120030  0.343324  1
  Fe  Fe4  1  0.991341  0.000246  0.000051  1
  Na  Na5  1  0.158234  0.318713  0.891608  1
  Na  Na6  1  0.277339  0.540307  0.558131  1
  Na  Na7  1  0.480623  0.935298  0.167396  1
  Na  Na8  1  0.536421  0.063946  0.832094  1
  Na  Na9  1  0.736625  0.459882  0.442215  1
  Na  Na10  1  0.836272  0.680864  0.107928  1
  O  O11  1  0.064068  0.797867  -0.016104  1
  O  O12  1  0.058619  0.722879  0.497238  1
  O  O13  1  0.014865  0.461422  0.791538  1
  O  O14  1  0.256975  0.925579  0.320309  1
  O  O15  1  0.200878  0.778984  0.744105  1
  O  O16  1  0.052600  0.081948  0.274633  1
  O  O17  1  0.336951  0.653339  0.365526  1
  O  O18  1  0.355378  0.731588  0.936827  1
  O  O19  1  0.277122  0.203335  1.009608  1
  O  O20  1  0.336791  0.276878  0.500520  1
  O  O21  1  0.573431  0.781093  0.749700  1
  O  O22  1  0.433662  0.461793  0.795353  1
  O  O23  1  0.666387  0.904165  0.323233  1
  O  O24  1  0.328790  0.072837  0.676475  1
  O  O25  1  0.557162  0.538797  0.209915  1
  O  O26  1  0.420665  0.218063  0.252120  1
  O  O27  1  0.663196  0.714778  0.483788  1
  O  O28  1  0.706660  0.801453  -0.001382  1
  O  O29  1  0.630541  0.268567  0.063287  1
  O  O30  1  0.682271  0.346572  0.634543  1
  O  O31  1  0.969994  0.917988  0.725215  1
  O  O32  1  0.794934  0.222531  0.254332  1
  O  O33  1  0.761330  0.097254  0.680177  1
  O  O34  1  0.975097  0.538638  0.203212  1
  O  O35  1  0.949434  0.284577  0.518450  1
  O  O36  1  0.915376  0.197741  1.007880  1
  Si  Si37  1  0.135542  0.877629  0.658517  1
  Si  Si38  1  0.149900  0.697052  0.868697  1
  Si  Si39  1  0.258639  0.121771  0.339180  1
  Si  Si40  1  0.532808  0.695407  0.871264  1
  Si  Si41  1  0.555249  0.707950  0.348836  1
  Si  Si42  1  0.456381  0.302811  0.128881  1
  Si  Si43  1  0.841278  0.305414  0.131373  1
  Si  Si44  1  0.845999  0.292118  0.652720  1
