# generated using pymatgen
data_K4Sn3Se8
_symmetry_space_group_name_H-M   'P 1'
_cell_length_a   8.42020177
_cell_length_b   8.46026816
_cell_length_c   14.73955863
_cell_angle_alpha   106.67795145
_cell_angle_beta   90.00000000
_cell_angle_gamma   90.00000000
_symmetry_Int_Tables_number   1
_chemical_formula_structural   K4Sn3Se8
_chemical_formula_sum   'K8 Sn6 Se16'
_cell_volume   1005.83384229
_cell_formula_units_Z   2
loop_
 _symmetry_equiv_pos_site_id
 _symmetry_equiv_pos_as_xyz
  1  'x, y, z'
loop_
 _atom_site_type_symbol
 _atom_site_label
 _atom_site_symmetry_multiplicity
 _atom_site_fract_x
 _atom_site_fract_y
 _atom_site_fract_z
 _atom_site_occupancy
  K  K0  1  0.250000  0.646858  0.293717  1
  K  K1  1  0.250000  0.853142  0.706283  1
  K  K2  1  0.750000  0.353142  0.706283  1
  K  K3  1  0.750000  0.146858  0.293717  1
  K  K4  1  0.250000  0.982998  0.965996  1
  K  K5  1  0.250000  0.517002  0.034004  1
  K  K6  1  0.750000  0.017002  0.034004  1
  K  K7  1  0.750000  0.482998  0.965996  1
  Se  Se8  1  0.911492  0.649998  0.622261  1
  Se  Se9  1  0.588508  0.527737  0.377739  1
  Se  Se10  1  0.088508  0.149998  0.622261  1
  Se  Se11  1  0.588508  0.972263  0.622261  1
  Se  Se12  1  0.411492  0.027737  0.377739  1
  Se  Se13  1  0.411492  0.472263  0.622261  1
  Se  Se14  1  0.930307  0.397364  0.154060  1
  Se  Se15  1  0.930307  0.102636  0.845940  1
  Se  Se16  1  0.569693  0.743304  0.845940  1
  Se  Se17  1  0.569693  0.756696  0.154060  1
  Se  Se18  1  0.069693  0.602636  0.845940  1
  Se  Se19  1  0.069693  0.897364  0.154060  1
  Se  Se20  1  0.430307  0.256696  0.154060  1
  Se  Se21  1  0.430307  0.243304  0.845940  1
  Se  Se22  1  0.088508  0.350002  0.377739  1
  Se  Se23  1  0.911492  0.850002  0.377739  1
  Sn  Sn24  1  0.250000  0.123592  0.247183  1
  Sn  Sn25  1  0.250000  0.376408  0.752817  1
  Sn  Sn26  1  0.750000  0.876408  0.752817  1
  Sn  Sn27  1  0.750000  0.623592  0.247183  1
  Sn  Sn28  1  0.250000  0.250000  0.500000  1
  Sn  Sn29  1  0.750000  0.750000  0.500000  1
