# generated using pymatgen
data_NaSbO3
_symmetry_space_group_name_H-M   'P 1'
_cell_length_a   6.24692606
_cell_length_b   6.24692605
_cell_length_c   6.24692606
_cell_angle_alpha   51.04890315
_cell_angle_beta   51.04890314
_cell_angle_gamma   51.04890311
_symmetry_Int_Tables_number   1
_chemical_formula_structural   NaSbO3
_chemical_formula_sum   'Na2 Sb2 O6'
_cell_volume   136.00988398
_cell_formula_units_Z   2
loop_
 _symmetry_equiv_pos_site_id
 _symmetry_equiv_pos_as_xyz
  1  'x, y, z'
loop_
 _atom_site_type_symbol
 _atom_site_label
 _atom_site_symmetry_multiplicity
 _atom_site_fract_x
 _atom_site_fract_y
 _atom_site_fract_z
 _atom_site_occupancy
  O  O0  1  0.959487  0.190963  0.560198  1
  O  O1  1  0.190963  0.560198  0.959487  1
  O  O2  1  0.560198  0.959487  0.190963  1
  O  O3  1  0.040513  0.809037  0.439802  1
  O  O4  1  0.439802  0.040513  0.809037  1
  O  O5  1  0.809037  0.439802  0.040513  1
  Na  Na6  1  0.638165  0.638165  0.638165  1
  Na  Na7  1  0.361835  0.361835  0.361835  1
  Sb  Sb8  1  0.838857  0.838857  0.838857  1
  Sb  Sb9  1  0.161143  0.161143  0.161143  1
