# generated using pymatgen
data_CsTiNiOF5
_symmetry_space_group_name_H-M   'P 1'
_cell_length_a   7.39328355
_cell_length_b   7.39328382
_cell_length_c   7.26154650
_cell_angle_alpha   60.58770175
_cell_angle_beta   60.58770057
_cell_angle_gamma   59.76962523
_symmetry_Int_Tables_number   1
_chemical_formula_structural   CsTiNiOF5
_chemical_formula_sum   'Cs2 Ti2 Ni2 O2 F10'
_cell_volume   282.62805027
_cell_formula_units_Z   2
loop_
 _symmetry_equiv_pos_site_id
 _symmetry_equiv_pos_as_xyz
  1  'x, y, z'
loop_
 _atom_site_type_symbol
 _atom_site_label
 _atom_site_symmetry_multiplicity
 _atom_site_fract_x
 _atom_site_fract_y
 _atom_site_fract_z
 _atom_site_occupancy
  Cs  Cs0  1  0.373842  0.373842  0.376158  1
  Cs  Cs1  1  0.626158  0.626158  0.623842  1
  Ti  Ti2  1  0.000000  0.000000  0.000000  1
  Ti  Ti3  1  0.000000  0.000000  0.500000  1
  Ni  Ni4  1  0.000000  0.500000  0.000000  1
  Ni  Ni5  1  0.500000  0.000000  0.000000  1
  O  O6  1  0.042994  0.042994  0.707006  1
  O  O7  1  0.957006  0.957006  0.292994  1
  F  F8  1  0.063196  0.685032  0.081753  1
  F  F9  1  0.685032  0.063196  0.081753  1
  F  F10  1  0.063196  0.685032  0.670019  1
  F  F11  1  0.322931  0.322931  0.927069  1
  F  F12  1  0.314968  0.936804  0.329981  1
  F  F13  1  0.677069  0.677069  0.072931  1
  F  F14  1  0.685032  0.063196  0.670019  1
  F  F15  1  0.936804  0.314968  0.329981  1
  F  F16  1  0.314968  0.936804  0.918247  1
  F  F17  1  0.936804  0.314968  0.918247  1
