# generated using pymatgen
data_KReO4
_symmetry_space_group_name_H-M   'P 1'
_cell_length_a   5.82932328
_cell_length_b   5.82914265
_cell_length_c   7.68727917
_cell_angle_alpha   112.27553894
_cell_angle_beta   112.27483516
_cell_angle_gamma   90.00497614
_symmetry_Int_Tables_number   1
_chemical_formula_structural   KReO4
_chemical_formula_sum   'K2 Re2 O8'
_cell_volume   220.50636010
_cell_formula_units_Z   2
loop_
 _symmetry_equiv_pos_site_id
 _symmetry_equiv_pos_as_xyz
  1  'x, y, z'
loop_
 _atom_site_type_symbol
 _atom_site_label
 _atom_site_symmetry_multiplicity
 _atom_site_fract_x
 _atom_site_fract_y
 _atom_site_fract_z
 _atom_site_occupancy
  O  O0  1  0.170578  0.818914  0.904090  1
  O  O1  1  0.085139  0.670492  0.404065  1
  O  O2  1  0.318791  0.233458  0.404014  1
  O  O3  1  0.733540  0.585161  0.904057  1
  O  O4  1  0.266460  0.414839  0.095943  1
  O  O5  1  0.681209  0.766542  0.595986  1
  O  O6  1  0.914861  0.329508  0.595935  1
  O  O7  1  0.829422  0.181086  0.095910  1
  K  K8  1  0.375017  0.124993  0.749995  1
  K  K9  1  0.624983  0.875007  0.250005  1
  Re  Re10  1  0.124937  0.374972  0.249977  1
  Re  Re11  1  0.875063  0.625028  0.750023  1
