# generated using pymatgen
data_Li2TbF6
_symmetry_space_group_name_H-M   'P 1'
_cell_length_a   4.34393680
_cell_length_b   7.92517062
_cell_length_c   12.27483457
_cell_angle_alpha   104.53742982
_cell_angle_beta   90.00000000
_cell_angle_gamma   90.00000000
_symmetry_Int_Tables_number   1
_chemical_formula_structural   Li2TbF6
_chemical_formula_sum   'Li8 Tb4 F24'
_cell_volume   409.04951830
_cell_formula_units_Z   4
loop_
 _symmetry_equiv_pos_site_id
 _symmetry_equiv_pos_as_xyz
  1  'x, y, z'
loop_
 _atom_site_type_symbol
 _atom_site_label
 _atom_site_symmetry_multiplicity
 _atom_site_fract_x
 _atom_site_fract_y
 _atom_site_fract_z
 _atom_site_occupancy
  Li  Li0  1  0.559257  0.624503  0.695900  1
  Li  Li1  1  0.059256  0.375497  0.804100  1
  Li  Li2  1  0.440744  0.375497  0.304100  1
  Li  Li3  1  0.940743  0.624503  0.195900  1
  Li  Li4  1  0.028088  0.948268  0.822957  1
  Li  Li5  1  0.528088  0.051732  0.677043  1
  Li  Li6  1  0.971912  0.051732  0.177043  1
  Li  Li7  1  0.471912  0.948268  0.322957  1
  F  F8  1  0.569230  0.532772  0.103808  1
  F  F9  1  0.280013  0.755236  0.830316  1
  F  F10  1  0.780013  0.244764  0.669684  1
  F  F11  1  0.719987  0.244764  0.169684  1
  F  F12  1  0.930770  0.532772  0.603808  1
  F  F13  1  0.430770  0.467228  0.896192  1
  F  F14  1  0.069230  0.467228  0.396192  1
  F  F15  1  0.343407  0.113793  0.817472  1
  F  F16  1  0.656593  0.886207  0.182528  1
  F  F17  1  0.156593  0.113793  0.317472  1
  F  F18  1  0.239842  0.026021  0.558141  1
  F  F19  1  0.843407  0.886207  0.682528  1
  F  F20  1  0.760158  0.973979  0.441859  1
  F  F21  1  0.260159  0.026021  0.058141  1
  F  F22  1  0.048681  0.703504  0.053490  1
  F  F23  1  0.739842  0.973979  0.941859  1
  F  F24  1  0.661978  0.608647  0.336654  1
  F  F25  1  0.161978  0.391353  0.163346  1
  F  F26  1  0.338022  0.391353  0.663346  1
  F  F27  1  0.838022  0.608647  0.836654  1
  F  F28  1  0.451319  0.703504  0.553490  1
  F  F29  1  0.951319  0.296496  0.946510  1
  F  F30  1  0.548681  0.296496  0.446510  1
  F  F31  1  0.219987  0.755236  0.330316  1
  Tb  Tb32  1  0.532269  0.750917  0.002309  1
  Tb  Tb33  1  0.967731  0.750917  0.502309  1
  Tb  Tb34  1  0.467731  0.249083  0.997691  1
  Tb  Tb35  1  0.032269  0.249083  0.497691  1
