# generated using pymatgen
data_DySi2Ni
_symmetry_space_group_name_H-M   'P 1'
_cell_length_a   3.97516545
_cell_length_b   3.97533879
_cell_length_c   8.46453909
_cell_angle_alpha   103.58119590
_cell_angle_beta   90.00000000
_cell_angle_gamma   90.00000000
_symmetry_Int_Tables_number   1
_chemical_formula_structural   DySi2Ni
_chemical_formula_sum   'Dy2 Si4 Ni2'
_cell_volume   130.02173812
_cell_formula_units_Z   2
loop_
 _symmetry_equiv_pos_site_id
 _symmetry_equiv_pos_as_xyz
  1  'x, y, z'
loop_
 _atom_site_type_symbol
 _atom_site_label
 _atom_site_symmetry_multiplicity
 _atom_site_fract_x
 _atom_site_fract_y
 _atom_site_fract_z
 _atom_site_occupancy
  Si  Si0  1  0.250000  0.250588  0.501176  1
  Si  Si1  1  0.750000  0.749412  0.498824  1
  Si  Si2  1  0.750000  0.460274  0.920548  1
  Si  Si3  1  0.250000  0.539726  0.079452  1
  Ni  Ni4  1  0.750000  0.322743  0.645487  1
  Ni  Ni5  1  0.250000  0.677257  0.354513  1
  Dy  Dy6  1  0.250000  0.894126  0.788252  1
  Dy  Dy7  1  0.750000  0.105874  0.211748  1
