# generated using pymatgen
data_Si2N2O
_symmetry_space_group_name_H-M   'P 1'
_cell_length_a   5.49450656
_cell_length_b   5.49450655
_cell_length_c   12.31211626
_cell_angle_alpha   102.89318212
_cell_angle_beta   102.89318213
_cell_angle_gamma   90.00000001
_symmetry_Int_Tables_number   1
_chemical_formula_structural   Si2N2O
_chemical_formula_sum   'Si16 N16 O8'
_cell_volume   352.70630773
_cell_formula_units_Z   8
loop_
 _symmetry_equiv_pos_site_id
 _symmetry_equiv_pos_as_xyz
  1  'x, y, z'
loop_
 _atom_site_type_symbol
 _atom_site_label
 _atom_site_symmetry_multiplicity
 _atom_site_fract_x
 _atom_site_fract_y
 _atom_site_fract_z
 _atom_site_occupancy
  N  N0  1  0.262382  0.749509  0.499017  1
  N  N1  1  0.249509  0.762382  0.999017  1
  N  N2  1  0.249509  0.236636  0.999017  1
  N  N3  1  0.263364  0.250491  0.500983  1
  N  N4  1  0.736636  0.749509  0.499017  1
  N  N5  1  0.750491  0.763364  0.000983  1
  N  N6  1  0.750491  0.237618  0.000983  1
  N  N7  1  0.737618  0.250491  0.500983  1
  N  N8  1  0.925921  0.412750  0.825500  1
  N  N9  1  0.087250  0.100421  0.674500  1
  N  N10  1  0.087250  0.574079  0.674500  1
  N  N11  1  0.600421  0.587250  0.174500  1
  N  N12  1  0.074079  0.587250  0.174500  1
  N  N13  1  0.912750  0.425921  0.325500  1
  N  N14  1  0.912750  0.899579  0.325500  1
  N  N15  1  0.399579  0.412750  0.825500  1
  O  O16  1  0.041586  0.076450  0.152900  1
  O  O17  1  0.576450  0.541586  0.652900  1
  O  O18  1  0.576450  0.111314  0.652900  1
  O  O19  1  0.388686  0.923550  0.847100  1
  O  O20  1  0.611314  0.076450  0.152900  1
  O  O21  1  0.423550  0.888686  0.347100  1
  O  O22  1  0.423550  0.458414  0.347100  1
  O  O23  1  0.958414  0.923550  0.847100  1
  Si  Si24  1  0.832190  0.331923  0.663846  1
  Si  Si25  1  0.168077  0.168343  0.836154  1
  Si  Si26  1  0.168077  0.667810  0.836154  1
  Si  Si27  1  0.668343  0.668077  0.336154  1
  Si  Si28  1  0.167810  0.668077  0.336154  1
  Si  Si29  1  0.831923  0.332190  0.163846  1
  Si  Si30  1  0.831923  0.831657  0.163846  1
  Si  Si31  1  0.331657  0.331923  0.663846  1
  Si  Si32  1  0.293867  0.543867  0.087735  1
  Si  Si33  1  0.043867  0.793867  0.587735  1
  Si  Si34  1  0.706133  0.456133  0.912265  1
  Si  Si35  1  0.956133  0.206133  0.412265  1
  Si  Si36  1  0.500000  0.000000  0.000000  1
  Si  Si37  1  0.500000  0.000000  0.500000  1
  Si  Si38  1  0.500000  0.500000  0.500000  1
  Si  Si39  1  0.000000  0.000000  0.000000  1
