# generated using pymatgen
data_Y4Al23Ni6
_symmetry_space_group_name_H-M   'P 1'
_cell_length_a   4.06984806
_cell_length_b   8.16796796
_cell_length_c   17.03543568
_cell_angle_alpha   85.75620563
_cell_angle_beta   83.13949866
_cell_angle_gamma   75.57368745
_symmetry_Int_Tables_number   1
_chemical_formula_structural   Y4Al23Ni6
_chemical_formula_sum   'Y4 Al23 Ni6'
_cell_volume   543.93897112
_cell_formula_units_Z   1
loop_
 _symmetry_equiv_pos_site_id
 _symmetry_equiv_pos_as_xyz
  1  'x, y, z'
loop_
 _atom_site_type_symbol
 _atom_site_label
 _atom_site_symmetry_multiplicity
 _atom_site_fract_x
 _atom_site_fract_y
 _atom_site_fract_z
 _atom_site_occupancy
  Al  Al0  1  0.000000  0.500000  0.500000  1
  Al  Al1  1  0.855218  0.432477  0.857088  1
  Al  Al2  1  0.918987  0.476178  0.685849  1
  Al  Al3  1  0.081013  0.523822  0.314151  1
  Al  Al4  1  0.910319  0.127027  0.052336  1
  Al  Al5  1  0.089681  0.872973  0.947664  1
  Al  Al6  1  0.909328  0.899559  0.281785  1
  Al  Al7  1  0.090672  0.100442  0.718215  1
  Al  Al8  1  0.799433  0.880836  0.520298  1
  Al  Al9  1  0.200567  0.119164  0.479702  1
  Al  Al10  1  0.144782  0.567523  0.142912  1
  Al  Al11  1  0.610656  0.942919  0.835768  1
  Al  Al12  1  0.743912  0.465693  0.046483  1
  Al  Al13  1  0.256088  0.534307  0.953517  1
  Al  Al14  1  0.389344  0.057081  0.164232  1
  Al  Al15  1  0.467479  0.283571  0.781472  1
  Al  Al16  1  0.726115  0.872742  0.675027  1
  Al  Al17  1  0.273885  0.127258  0.324973  1
  Al  Al18  1  0.621855  0.350949  0.405341  1
  Al  Al19  1  0.378145  0.649051  0.594659  1
  Al  Al20  1  0.565707  0.809245  0.059342  1
  Al  Al21  1  0.434293  0.190755  0.940658  1
  Al  Al22  1  0.532521  0.716429  0.218528  1
  Ni  Ni23  1  0.991608  0.877766  0.139018  1
  Ni  Ni24  1  0.008392  0.122234  0.860982  1
  Ni  Ni25  1  0.772569  0.055610  0.399253  1
  Ni  Ni26  1  0.689014  0.690187  0.931784  1
  Ni  Ni27  1  0.227431  0.944390  0.600747  1
  Ni  Ni28  1  0.310986  0.309813  0.068216  1
  Y  Y29  1  0.734616  0.311736  0.219032  1
  Y  Y30  1  0.571937  0.262560  0.593566  1
  Y  Y31  1  0.428063  0.737440  0.406434  1
  Y  Y32  1  0.265384  0.688264  0.780968  1
