# generated using pymatgen
data_SNF
_symmetry_space_group_name_H-M   'P 1'
_cell_length_a   4.53287083
_cell_length_b   9.61529325
_cell_length_c   9.61529325
_cell_angle_alpha   90.00000000
_cell_angle_beta   90.00000000
_cell_angle_gamma   90.00000000
_symmetry_Int_Tables_number   1
_chemical_formula_structural   SNF
_chemical_formula_sum   'S8 N8 F8'
_cell_volume   419.08142453
_cell_formula_units_Z   8
loop_
 _symmetry_equiv_pos_site_id
 _symmetry_equiv_pos_as_xyz
  1  'x, y, z'
loop_
 _atom_site_type_symbol
 _atom_site_label
 _atom_site_symmetry_multiplicity
 _atom_site_fract_x
 _atom_site_fract_y
 _atom_site_fract_z
 _atom_site_occupancy
  N  N0  1  0.348539  0.624561  0.612910  1
  N  N1  1  0.348539  0.375439  0.387090  1
  N  N2  1  0.651461  0.387090  0.624561  1
  N  N3  1  0.151461  0.875439  0.112910  1
  N  N4  1  0.848539  0.112910  0.124561  1
  N  N5  1  0.848539  0.887090  0.875439  1
  N  N6  1  0.151461  0.124561  0.887090  1
  N  N7  1  0.651461  0.612910  0.375439  1
  F  F8  1  0.188367  0.983249  0.682533  1
  F  F9  1  0.188367  0.016751  0.317467  1
  F  F10  1  0.811633  0.682533  0.016751  1
  F  F11  1  0.688367  0.817467  0.516751  1
  F  F12  1  0.311633  0.483249  0.817467  1
  F  F13  1  0.311633  0.516751  0.182533  1
  F  F14  1  0.811633  0.317467  0.983249  1
  F  F15  1  0.688367  0.182533  0.483249  1
  S  S16  1  0.424105  0.296396  0.522850  1
  S  S17  1  0.424105  0.703604  0.477150  1
  S  S18  1  0.575895  0.477150  0.296396  1
  S  S19  1  0.575895  0.522850  0.703604  1
  S  S20  1  0.924105  0.977150  0.203604  1
  S  S21  1  0.075895  0.203604  0.022850  1
  S  S22  1  0.075895  0.796396  0.977150  1
  S  S23  1  0.924105  0.022850  0.796396  1
