# generated using pymatgen
data_Sr(GaO2)2
_symmetry_space_group_name_H-M   'P 1'
_cell_length_a   8.48728166
_cell_length_b   9.11135639
_cell_length_c   10.82817916
_cell_angle_alpha   90.00000000
_cell_angle_beta   94.04060456
_cell_angle_gamma   90.00000000
_symmetry_Int_Tables_number   1
_chemical_formula_structural   Sr(GaO2)2
_chemical_formula_sum   'Sr8 Ga16 O32'
_cell_volume   835.26876421
_cell_formula_units_Z   8
loop_
 _symmetry_equiv_pos_site_id
 _symmetry_equiv_pos_as_xyz
  1  'x, y, z'
loop_
 _atom_site_type_symbol
 _atom_site_label
 _atom_site_symmetry_multiplicity
 _atom_site_fract_x
 _atom_site_fract_y
 _atom_site_fract_z
 _atom_site_occupancy
  O  O0  1  0.347184  0.254921  0.426051  1
  O  O1  1  0.652816  0.754921  0.073949  1
  O  O2  1  0.652816  0.745079  0.573949  1
  O  O3  1  0.347184  0.245079  0.926051  1
  O  O4  1  0.217094  0.420826  0.202234  1
  O  O5  1  0.782906  0.920826  0.297766  1
  O  O6  1  0.782906  0.579174  0.797766  1
  O  O7  1  0.217094  0.079174  0.702234  1
  O  O8  1  0.282372  0.934067  0.458739  1
  O  O9  1  0.717628  0.434067  0.041261  1
  O  O10  1  0.717628  0.065933  0.541261  1
  O  O11  1  0.282372  0.565933  0.958739  1
  O  O12  1  0.728304  0.251890  0.292060  1
  O  O13  1  0.271696  0.751890  0.207940  1
  O  O14  1  0.271696  0.748110  0.707940  1
  O  O15  1  0.728304  0.248110  0.792060  1
  O  O16  1  0.150275  0.060890  0.214324  1
  O  O17  1  0.849725  0.560890  0.285676  1
  O  O18  1  0.849725  0.939110  0.785676  1
  O  O19  1  0.150275  0.439110  0.714324  1
  O  O20  1  0.520257  0.511106  0.321387  1
  O  O21  1  0.479743  0.011106  0.178613  1
  O  O22  1  0.479743  0.488894  0.678613  1
  O  O23  1  0.520257  0.988894  0.821387  1
  O  O24  1  0.009681  0.339115  0.933871  1
  O  O25  1  0.990319  0.839115  0.566129  1
  O  O26  1  0.990319  0.660885  0.066129  1
  O  O27  1  0.009681  0.160885  0.433871  1
  O  O28  1  0.238636  0.583750  0.460673  1
  O  O29  1  0.761364  0.083750  0.039327  1
  O  O30  1  0.761364  0.416250  0.539327  1
  O  O31  1  0.238636  0.916250  0.960673  1
  Ga  Ga32  1  0.321882  0.442038  0.360807  1
  Ga  Ga33  1  0.678118  0.942038  0.139193  1
  Ga  Ga34  1  0.678118  0.557962  0.639193  1
  Ga  Ga35  1  0.321882  0.057962  0.860807  1
  Ga  Ga36  1  0.804477  0.094845  0.389071  1
  Ga  Ga37  1  0.195523  0.594845  0.110929  1
  Ga  Ga38  1  0.195523  0.905155  0.610929  1
  Ga  Ga39  1  0.804477  0.405155  0.889071  1
  Ga  Ga40  1  0.205100  0.106828  0.380459  1
  Ga  Ga41  1  0.794900  0.606828  0.119541  1
  Ga  Ga42  1  0.794900  0.893172  0.619541  1
  Ga  Ga43  1  0.205100  0.393172  0.880459  1
  Ga  Ga44  1  0.279803  0.936452  0.130308  1
  Ga  Ga45  1  0.720197  0.436452  0.369692  1
  Ga  Ga46  1  0.720197  0.063548  0.869692  1
  Ga  Ga47  1  0.279803  0.563548  0.630308  1
  Sr  Sr48  1  0.497986  0.286810  0.130602  1
  Sr  Sr49  1  0.502014  0.786810  0.369398  1
  Sr  Sr50  1  0.502014  0.713190  0.869398  1
  Sr  Sr51  1  0.497986  0.213190  0.630602  1
  Sr  Sr52  1  0.965419  0.260403  0.148849  1
  Sr  Sr53  1  0.034581  0.760403  0.351151  1
  Sr  Sr54  1  0.034581  0.739597  0.851151  1
  Sr  Sr55  1  0.965419  0.239597  0.648849  1
