# generated using pymatgen
data_Ba2Ce3Si3O12F
_symmetry_space_group_name_H-M   'P 1'
_cell_length_a   9.94105010
_cell_length_b   9.94105020
_cell_length_c   7.44973938
_cell_angle_alpha   90.00000000
_cell_angle_beta   90.00000000
_cell_angle_gamma   119.99999966
_symmetry_Int_Tables_number   1
_chemical_formula_structural   Ba2Ce3Si3O12F
_chemical_formula_sum   'Ba4 Ce6 Si6 O24 F2'
_cell_volume   637.58228590
_cell_formula_units_Z   2
loop_
 _symmetry_equiv_pos_site_id
 _symmetry_equiv_pos_as_xyz
  1  'x, y, z'
loop_
 _atom_site_type_symbol
 _atom_site_label
 _atom_site_symmetry_multiplicity
 _atom_site_fract_x
 _atom_site_fract_y
 _atom_site_fract_z
 _atom_site_occupancy
  Ba  Ba0  1  0.333333  0.666667  0.505319  1
  Ba  Ba1  1  0.333333  0.666667  0.001037  1
  Ba  Ba2  1  0.666667  0.333333  0.005319  1
  Ba  Ba3  1  0.666667  0.333333  0.501036  1
  Ce  Ce4  1  0.251175  0.997117  0.253591  1
  Ce  Ce5  1  0.002883  0.254058  0.253591  1
  Ce  Ce6  1  0.254058  0.251175  0.753591  1
  Ce  Ce7  1  0.745942  0.748825  0.253591  1
  Ce  Ce8  1  0.997117  0.745942  0.753591  1
  Ce  Ce9  1  0.748825  0.002883  0.753591  1
  F  F10  1  0.000000  0.000000  0.761818  1
  F  F11  1  0.000000  0.000000  0.261818  1
  O  O12  1  0.242229  0.909955  0.928460  1
  O  O13  1  0.241356  0.911516  0.578564  1
  O  O14  1  0.171305  0.718476  0.253855  1
  O  O15  1  0.085777  0.568315  0.752143  1
  O  O16  1  0.088484  0.329839  0.578564  1
  O  O17  1  0.090045  0.332275  0.928460  1
  O  O18  1  0.482539  0.914223  0.752143  1
  O  O19  1  0.547171  0.828695  0.253855  1
  O  O20  1  0.281524  0.452829  0.253855  1
  O  O21  1  0.431685  0.517461  0.752143  1
  O  O22  1  0.332275  0.242229  0.428460  1
  O  O23  1  0.329839  0.241356  0.078564  1
  O  O24  1  0.670161  0.758644  0.578564  1
  O  O25  1  0.667725  0.757771  0.928460  1
  O  O26  1  0.568315  0.482539  0.252143  1
  O  O27  1  0.718476  0.547171  0.753855  1
  O  O28  1  0.452829  0.171305  0.753855  1
  O  O29  1  0.517461  0.085777  0.252143  1
  O  O30  1  0.911516  0.670161  0.078564  1
  O  O31  1  0.909955  0.667725  0.428460  1
  O  O32  1  0.914223  0.431685  0.252143  1
  O  O33  1  0.828695  0.281524  0.753855  1
  O  O34  1  0.757771  0.090045  0.428460  1
  O  O35  1  0.758644  0.088484  0.078564  1
  Si  Si36  1  0.018264  0.378809  0.753330  1
  Si  Si37  1  0.360545  0.981736  0.753330  1
  Si  Si38  1  0.378809  0.360545  0.253330  1
  Si  Si39  1  0.621191  0.639455  0.753330  1
  Si  Si40  1  0.639455  0.018264  0.253330  1
  Si  Si41  1  0.981736  0.621191  0.253330  1
