# generated using pymatgen
data_CuSnF6
_symmetry_space_group_name_H-M   'P 1'
_cell_length_a   5.17790952
_cell_length_b   5.27189789
_cell_length_c   5.49356565
_cell_angle_alpha   62.63697265
_cell_angle_beta   89.77824412
_cell_angle_gamma   62.29293779
_symmetry_Int_Tables_number   1
_chemical_formula_structural   CuSnF6
_chemical_formula_sum   'Cu1 Sn1 F6'
_cell_volume   113.63403923
_cell_formula_units_Z   1
loop_
 _symmetry_equiv_pos_site_id
 _symmetry_equiv_pos_as_xyz
  1  'x, y, z'
loop_
 _atom_site_type_symbol
 _atom_site_label
 _atom_site_symmetry_multiplicity
 _atom_site_fract_x
 _atom_site_fract_y
 _atom_site_fract_z
 _atom_site_occupancy
  F  F0  1  0.755469  0.875265  0.246539  1
  F  F1  1  0.244531  0.124735  0.753461  1
  F  F2  1  0.606197  0.532582  0.734321  1
  F  F3  1  0.393803  0.467418  0.265679  1
  F  F4  1  0.129314  0.115119  0.247476  1
  F  F5  1  0.870686  0.884881  0.752524  1
  Cu  Cu6  1  0.000000  0.000000  0.000000  1
  Sn  Sn7  1  0.500000  0.000000  0.500000  1
