# generated using pymatgen
data_Na3Sr3AlP4
_symmetry_space_group_name_H-M   'P 1'
_cell_length_a   9.43700932
_cell_length_b   9.43700920
_cell_length_c   7.39839095
_cell_angle_alpha   90.00000000
_cell_angle_beta   90.00000000
_cell_angle_gamma   120.00000042
_symmetry_Int_Tables_number   1
_chemical_formula_structural   Na3Sr3AlP4
_chemical_formula_sum   'Na6 Sr6 Al2 P8'
_cell_volume   570.60644035
_cell_formula_units_Z   2
loop_
 _symmetry_equiv_pos_site_id
 _symmetry_equiv_pos_as_xyz
  1  'x, y, z'
loop_
 _atom_site_type_symbol
 _atom_site_label
 _atom_site_symmetry_multiplicity
 _atom_site_fract_x
 _atom_site_fract_y
 _atom_site_fract_z
 _atom_site_occupancy
  Al  Al0  1  0.333333  0.666667  0.873982  1
  Al  Al1  1  0.666667  0.333333  0.373982  1
  Na  Na2  1  0.728139  0.864070  0.170512  1
  Na  Na3  1  0.864070  0.135930  0.670512  1
  Na  Na4  1  0.864070  0.728139  0.670512  1
  Na  Na5  1  0.135930  0.271861  0.170512  1
  Na  Na6  1  0.135930  0.864070  0.170512  1
  Na  Na7  1  0.271861  0.135930  0.670512  1
  P  P8  1  0.666667  0.333333  0.709975  1
  P  P9  1  0.616308  0.808154  0.778976  1
  P  P10  1  0.808154  0.191846  0.278976  1
  P  P11  1  0.808154  0.616308  0.278976  1
  P  P12  1  0.333333  0.666667  0.209975  1
  P  P13  1  0.191846  0.383692  0.778976  1
  P  P14  1  0.191846  0.808154  0.778976  1
  P  P15  1  0.383692  0.191846  0.278976  1
  Sr  Sr16  1  0.048188  0.524094  0.498926  1
  Sr  Sr17  1  0.475906  0.951812  0.498926  1
  Sr  Sr18  1  0.475906  0.524094  0.498926  1
  Sr  Sr19  1  0.524094  0.475906  0.998926  1
  Sr  Sr20  1  0.524094  0.048188  0.998926  1
  Sr  Sr21  1  0.951812  0.475906  0.998926  1
