# generated using pymatgen
data_Sr2Sb2O7
_symmetry_space_group_name_H-M   'P 1'
_cell_length_a   7.57285192
_cell_length_b   7.56575627
_cell_length_c   7.56575628
_cell_angle_alpha   62.05459540
_cell_angle_beta   59.96897087
_cell_angle_gamma   59.96897087
_symmetry_Int_Tables_number   1
_chemical_formula_structural   Sr2Sb2O7
_chemical_formula_sum   'Sr4 Sb4 O14'
_cell_volume   310.83590458
_cell_formula_units_Z   2
loop_
 _symmetry_equiv_pos_site_id
 _symmetry_equiv_pos_as_xyz
  1  'x, y, z'
loop_
 _atom_site_type_symbol
 _atom_site_label
 _atom_site_symmetry_multiplicity
 _atom_site_fract_x
 _atom_site_fract_y
 _atom_site_fract_z
 _atom_site_occupancy
  O  O0  1  0.323488  0.313242  0.449087  1
  O  O1  1  0.085817  0.686758  0.550913  1
  O  O2  1  0.176512  0.050913  0.186758  1
  O  O3  1  0.414183  0.949087  0.813242  1
  O  O4  1  0.676512  0.686758  0.550913  1
  O  O5  1  0.914183  0.313242  0.449087  1
  O  O6  1  0.823488  0.949087  0.813242  1
  O  O7  1  0.585817  0.050913  0.186758  1
  O  O8  1  0.250000  0.901917  0.598083  1
  O  O9  1  0.750000  0.098083  0.401917  1
  O  O10  1  0.091585  0.627120  0.189710  1
  O  O11  1  0.908415  0.372880  0.810290  1
  O  O12  1  0.408415  0.310290  0.872880  1
  O  O13  1  0.591585  0.689710  0.127120  1
  Sr  Sr14  1  0.500000  0.500000  0.000000  1
  Sr  Sr15  1  0.000000  0.500000  0.000000  1
  Sr  Sr16  1  0.000000  0.000000  0.000000  1
  Sr  Sr17  1  0.500000  0.500000  0.500000  1
  Sb  Sb18  1  0.500000  0.000000  0.500000  1
  Sb  Sb19  1  0.000000  0.000000  0.500000  1
  Sb  Sb20  1  0.000000  0.500000  0.500000  1
  Sb  Sb21  1  0.500000  0.000000  0.000000  1
