# generated using pymatgen
data_NaDy3Ti2(SbO7)2
_symmetry_space_group_name_H-M   'P 1'
_cell_length_a   7.30736598
_cell_length_b   14.62911603
_cell_length_c   12.68291840
_cell_angle_alpha   29.89143840
_cell_angle_beta   54.42306399
_cell_angle_gamma   59.70867887
_symmetry_Int_Tables_number   1
_chemical_formula_structural   NaDy3Ti2(SbO7)2
_chemical_formula_sum   'Na2 Dy6 Ti4 Sb4 O28'
_cell_volume   549.55254210
_cell_formula_units_Z   2
loop_
 _symmetry_equiv_pos_site_id
 _symmetry_equiv_pos_as_xyz
  1  'x, y, z'
loop_
 _atom_site_type_symbol
 _atom_site_label
 _atom_site_symmetry_multiplicity
 _atom_site_fract_x
 _atom_site_fract_y
 _atom_site_fract_z
 _atom_site_occupancy
  Dy  Dy0  1  0.000003  0.023308  0.976703  1
  Dy  Dy1  1  0.500006  0.004177  0.995836  1
  Dy  Dy2  1  0.999997  0.476692  0.023297  1
  Dy  Dy3  1  0.000000  0.750000  0.000000  1
  Dy  Dy4  1  0.499994  0.495823  0.004165  1
  Dy  Dy5  1  -0.000000  0.750000  0.500000  1
  Na  Na6  1  -0.000000  0.250000  0.500000  1
  Na  Na7  1  0.000000  0.250000  0.000000  1
  O  O8  1  0.130671  0.986442  0.130820  1
  O  O9  1  0.176789  0.201555  0.181650  1
  O  O10  1  0.175366  0.980231  0.593909  1
  O  O11  1  0.130638  0.513572  0.103678  1
  O  O12  1  0.572305  0.207298  0.172085  1
  O  O13  1  0.181645  0.696475  0.174746  1
  O  O14  1  0.427710  0.207309  0.413287  1
  O  O15  1  0.176799  0.298458  0.584757  1
  O  O16  1  0.579766  0.500623  0.170494  1
  O  O17  1  0.175285  0.519749  0.554455  1
  O  O18  1  0.420235  0.999377  0.829506  1
  O  O19  1  0.580251  0.706838  0.165817  1
  O  O20  1  0.823201  0.201542  0.415243  1
  O  O21  1  0.572290  0.292691  0.586713  1
  O  O22  1  0.427695  0.292702  0.827915  1
  O  O23  1  0.181617  0.803479  0.567754  1
  O  O24  1  0.419726  0.706835  0.420525  1
  O  O25  1  0.579736  0.999374  0.171752  1
  O  O26  1  0.824634  0.519769  0.406091  1
  O  O27  1  0.869362  0.986428  0.896323  1
  O  O28  1  0.420264  0.500626  0.828248  1
  O  O29  1  0.823211  0.298446  0.818350  1
  O  O30  1  0.818383  0.696521  0.432246  1
  O  O31  1  0.580274  0.793165  0.579475  1
  O  O32  1  0.419749  0.793161  0.834184  1
  O  O33  1  0.869329  0.513558  0.869180  1
  O  O34  1  0.824715  0.980251  0.445545  1
  O  O35  1  0.818355  0.803525  0.825253  1
  Sb  Sb36  1  0.500041  0.995388  0.504596  1
  Sb  Sb37  1  0.500001  0.250000  0.500000  1
  Sb  Sb38  1  0.499959  0.504611  0.495404  1
  Sb  Sb39  1  0.499999  0.250000  0.000000  1
  Ti  Ti40  1  0.000023  0.986988  0.513006  1
  Ti  Ti41  1  0.500000  0.750000  0.500000  1
  Ti  Ti42  1  0.999977  0.513012  0.486994  1
  Ti  Ti43  1  0.500000  0.750000  -0.000000  1
