# generated using pymatgen
data_NaSr3LaTi5O15
_symmetry_space_group_name_H-M   'P 1'
_cell_length_a   5.53594669
_cell_length_b   5.53594669
_cell_length_c   27.78519960
_cell_angle_alpha   119.87449372
_cell_angle_beta   119.87449372
_cell_angle_gamma   90.00006103
_symmetry_Int_Tables_number   1
_chemical_formula_structural   NaSr3LaTi5O15
_chemical_formula_sum   'Na2 Sr6 La2 Ti10 O30'
_cell_volume   604.39593828
_cell_formula_units_Z   2
loop_
 _symmetry_equiv_pos_site_id
 _symmetry_equiv_pos_as_xyz
  1  'x, y, z'
loop_
 _atom_site_type_symbol
 _atom_site_label
 _atom_site_symmetry_multiplicity
 _atom_site_fract_x
 _atom_site_fract_y
 _atom_site_fract_z
 _atom_site_occupancy
  La  La0  1  0.748062  0.248062  0.899221  1
  La  La1  1  0.751969  0.251969  0.700782  1
  Na  Na2  1  0.248205  0.748205  0.899292  1
  Na  Na3  1  0.251834  0.751834  0.700720  1
  O  O4  1  0.247057  0.247067  0.898828  1
  O  O5  1  0.198973  0.698973  0.798092  1
  O  O6  1  0.300995  0.208498  0.801905  1
  O  O7  1  0.252906  0.252905  0.701167  1
  O  O8  1  0.747067  0.747057  0.898828  1
  O  O9  1  0.227540  0.727540  0.601495  1
  O  O10  1  0.708498  0.800995  0.801905  1
  O  O11  1  0.296254  0.221813  0.603615  1
  O  O12  1  0.791467  0.291467  0.798091  1
  O  O13  1  0.253763  0.253755  0.501505  1
  O  O14  1  0.752905  0.752906  0.701167  1
  O  O15  1  0.231239  0.731239  0.400441  1
  O  O16  1  0.721813  0.796254  0.603615  1
  O  O17  1  0.272704  0.232552  0.401051  1
  O  O18  1  0.779932  0.279932  0.601495  1
  O  O19  1  0.249992  0.249992  0.299997  1
  O  O20  1  0.753755  0.753763  0.501505  1
  O  O21  1  0.227278  0.727278  0.198943  1
  O  O22  1  0.732552  0.772704  0.401051  1
  O  O23  1  0.268750  0.229015  0.199553  1
  O  O24  1  0.770980  0.270980  0.400444  1
  O  O25  1  0.246225  0.246219  0.098489  1
  O  O26  1  0.749992  0.749992  0.299997  1
  O  O27  1  0.203727  0.703727  0.996381  1
  O  O28  1  0.729015  0.768750  0.199553  1
  O  O29  1  0.272462  0.220039  0.998500  1
  O  O30  1  0.767440  0.267440  0.198945  1
  O  O31  1  0.746219  0.746225  0.098489  1
  O  O32  1  0.720039  0.772462  0.998500  1
  O  O33  1  0.778187  0.278187  0.996379  1
  Sr  Sr34  1  0.251470  0.751470  0.500588  1
  Sr  Sr35  1  0.250006  0.750006  0.300002  1
  Sr  Sr36  1  0.753854  0.253854  0.501541  1
  Sr  Sr37  1  0.248534  0.748534  0.099416  1
  Sr  Sr38  1  0.749998  0.249998  0.300002  1
  Sr  Sr39  1  0.746159  0.246159  0.098464  1
  Ti  Ti40  1  1.000044  0.000033  0.800004  1
  Ti  Ti41  1  0.500033  0.500044  0.800004  1
  Ti  Ti42  1  0.001733  0.001710  0.400689  1
  Ti  Ti43  1  0.505442  0.505441  0.602174  1
  Ti  Ti44  1  0.998286  0.998311  0.199321  1
  Ti  Ti45  1  0.501710  0.501733  0.400689  1
  Ti  Ti46  1  0.005441  0.005442  0.602174  1
  Ti  Ti47  1  0.994598  0.994588  0.997836  1
  Ti  Ti48  1  0.498311  0.498286  0.199321  1
  Ti  Ti49  1  0.494588  0.494598  0.997836  1
