# generated using pymatgen
data_CaLaTiMnO6
_symmetry_space_group_name_H-M   'P 1'
_cell_length_a   5.58388309
_cell_length_b   5.64919428
_cell_length_c   7.63399072
_cell_angle_alpha   90.00000000
_cell_angle_beta   90.72609221
_cell_angle_gamma   90.00000000
_symmetry_Int_Tables_number   1
_chemical_formula_structural   CaLaTiMnO6
_chemical_formula_sum   'Ca2 La2 Ti2 Mn2 O12'
_cell_volume   240.79062881
_cell_formula_units_Z   2
loop_
 _symmetry_equiv_pos_site_id
 _symmetry_equiv_pos_as_xyz
  1  'x, y, z'
loop_
 _atom_site_type_symbol
 _atom_site_label
 _atom_site_symmetry_multiplicity
 _atom_site_fract_x
 _atom_site_fract_y
 _atom_site_fract_z
 _atom_site_occupancy
  Ca  Ca0  1  0.487936  0.542675  0.250123  1
  Ca  Ca1  1  0.987936  0.957325  0.750123  1
  La  La2  1  0.008744  0.033185  0.249684  1
  La  La3  1  0.508744  0.466815  0.749684  1
  Ti  Ti4  1  0.000810  0.500540  0.000988  1
  Ti  Ti5  1  0.500810  0.999460  0.500988  1
  Mn  Mn6  1  0.999706  0.500041  0.499436  1
  Mn  Mn7  1  0.499706  0.999959  0.999436  1
  O  O8  1  0.079275  0.521662  0.745511  1
  O  O9  1  0.211935  0.774282  0.043398  1
  O  O10  1  0.229255  0.789177  0.456287  1
  O  O11  1  0.275499  0.294496  0.045935  1
  O  O12  1  0.293623  0.276679  0.454451  1
  O  O13  1  0.413217  0.018908  0.754188  1
  O  O14  1  0.579275  0.978338  0.245511  1
  O  O15  1  0.711935  0.725718  0.543398  1
  O  O16  1  0.729255  0.710823  0.956287  1
  O  O17  1  0.775499  0.205504  0.545935  1
  O  O18  1  0.793623  0.223321  0.954451  1
  O  O19  1  0.913217  0.481092  0.254188  1
