# generated using pymatgen
data_Ca3Er3Ge2BO13
_symmetry_space_group_name_H-M   'P 1'
_cell_length_a   7.40769710
_cell_length_b   14.82474011
_cell_length_c   12.84197523
_cell_angle_alpha   29.97836392
_cell_angle_beta   54.77157399
_cell_angle_gamma   60.02043898
_symmetry_Int_Tables_number   1
_chemical_formula_structural   Ca3Er3Ge2BO13
_chemical_formula_sum   'Ca6 Er6 Ge4 B2 O26'
_cell_volume   575.61878330
_cell_formula_units_Z   2
loop_
 _symmetry_equiv_pos_site_id
 _symmetry_equiv_pos_as_xyz
  1  'x, y, z'
loop_
 _atom_site_type_symbol
 _atom_site_label
 _atom_site_symmetry_multiplicity
 _atom_site_fract_x
 _atom_site_fract_y
 _atom_site_fract_z
 _atom_site_occupancy
  B  B0  1  0.503798  0.499996  0.496221  1
  B  B1  1  0.503800  1.000001  0.496219  1
  Ca  Ca2  1  0.232419  0.270722  0.227171  1
  Ca  Ca3  1  0.231426  0.000005  0.768562  1
  Ca  Ca4  1  0.232439  0.229277  0.768606  1
  Ca  Ca5  1  0.231438  0.500004  0.768559  1
  Ca  Ca6  1  0.771803  0.770734  0.227162  1
  Ca  Ca7  1  0.771807  0.729271  0.768616  1
  Er  Er8  1  0.229871  0.772372  0.225732  1
  Er  Er9  1  0.773922  0.272398  0.225713  1
  Er  Er10  1  0.774163  0.499980  0.225850  1
  Er  Er11  1  0.229859  0.727630  0.770483  1
  Er  Er12  1  0.773920  0.227613  0.770510  1
  Er  Er13  1  0.774167  0.999979  0.225849  1
  Ge  Ge14  1  0.246932  0.499991  0.253053  1
  Ge  Ge15  1  0.246918  -0.000006  0.253047  1
  Ge  Ge16  1  0.745975  0.500047  0.753943  1
  Ge  Ge17  1  0.745956  1.000045  0.753946  1
  O  O18  1  0.991371  -0.000019  0.008651  1
  O  O19  1  0.146639  0.991093  0.162611  1
  O  O20  1  0.991394  0.499979  0.008652  1
  O  O21  1  0.138549  0.196334  0.155921  1
  O  O22  1  0.545900  0.008838  0.144880  1
  O  O23  1  0.146658  0.508843  0.144872  1
  O  O24  1  0.431459  0.164850  0.410523  1
  O  O25  1  0.156932  0.696335  0.155927  1
  O  O26  1  0.138568  0.303613  0.548654  1
  O  O27  1  0.545919  0.491104  0.162622  1
  O  O28  1  0.425862  0.505529  0.405758  1
  O  O29  1  0.431442  0.335148  0.740215  1
  O  O30  1  0.417830  0.664848  0.410520  1
  O  O31  1  0.156960  0.803616  0.548644  1
  O  O32  1  0.829989  0.196751  0.459809  1
  O  O33  1  0.751596  0.494484  0.416811  1
  O  O34  1  0.454831  0.514235  0.837419  1
  O  O35  1  0.425859  0.994499  0.416795  1
  O  O36  1  0.829984  0.303276  0.853297  1
  O  O37  1  0.417825  0.835155  0.740212  1
  O  O38  1  0.856895  0.696757  0.459808  1
  O  O39  1  0.751595  0.005522  0.405765  1
  O  O40  1  0.841809  0.485812  0.865843  1
  O  O41  1  0.454837  0.985820  0.865835  1
  O  O42  1  0.856867  0.803275  0.853296  1
  O  O43  1  0.841817  0.014243  0.837415  1
