# generated using pymatgen
data_AsSClOF8
_symmetry_space_group_name_H-M   'P 1'
_cell_length_a   8.49197734
_cell_length_b   9.09052752
_cell_length_c   9.87135503
_cell_angle_alpha   90.00000000
_cell_angle_beta   95.86161976
_cell_angle_gamma   90.00000000
_symmetry_Int_Tables_number   1
_chemical_formula_structural   AsSClOF8
_chemical_formula_sum   'As4 S4 Cl4 O4 F32'
_cell_volume   758.05025404
_cell_formula_units_Z   4
loop_
 _symmetry_equiv_pos_site_id
 _symmetry_equiv_pos_as_xyz
  1  'x, y, z'
loop_
 _atom_site_type_symbol
 _atom_site_label
 _atom_site_symmetry_multiplicity
 _atom_site_fract_x
 _atom_site_fract_y
 _atom_site_fract_z
 _atom_site_occupancy
  As  As0  1  0.245823  0.186413  0.440613  1
  As  As1  1  0.254177  0.686413  0.059387  1
  As  As2  1  0.745823  0.313587  0.940613  1
  As  As3  1  0.754177  0.813587  0.559387  1
  Cl  Cl4  1  0.211985  0.204180  0.063920  1
  Cl  Cl5  1  0.288015  0.704180  0.436080  1
  Cl  Cl6  1  0.711985  0.295820  0.563920  1
  Cl  Cl7  1  0.788015  0.795820  0.936080  1
  F  F8  1  0.105772  0.091886  0.811554  1
  F  F9  1  0.078545  0.231922  0.527035  1
  F  F10  1  0.127325  0.555787  0.622547  1
  F  F11  1  0.160647  0.851822  0.996713  1
  F  F12  1  0.087869  0.649364  0.148965  1
  F  F13  1  0.169024  0.589214  0.915734  1
  F  F14  1  0.150952  0.025695  0.373766  1
  F  F15  1  0.157611  0.286726  0.295094  1
  F  F16  1  0.330976  0.089214  0.584266  1
  F  F17  1  0.339353  0.351822  0.503287  1
  F  F18  1  0.372675  0.055787  0.877453  1
  F  F19  1  0.342389  0.786726  0.204906  1
  F  F20  1  0.421455  0.731922  0.972965  1
  F  F21  1  0.349048  0.525695  0.126234  1
  F  F22  1  0.394228  0.591886  0.688446  1
  F  F23  1  0.412131  0.149364  0.351035  1
  F  F24  1  0.587869  0.850636  0.648965  1
  F  F25  1  0.605772  0.408114  0.311554  1
  F  F26  1  0.650952  0.474305  0.873766  1
  F  F27  1  0.578545  0.268078  0.027035  1
  F  F28  1  0.657611  0.213274  0.795094  1
  F  F29  1  0.627325  0.944213  0.122547  1
  F  F30  1  0.660647  0.648178  0.496713  1
  F  F31  1  0.669024  0.910786  0.415734  1
  F  F32  1  0.842389  0.713274  0.704906  1
  F  F33  1  0.849048  0.974305  0.626234  1
  F  F34  1  0.830976  0.410786  0.084266  1
  F  F35  1  0.912131  0.350636  0.851035  1
  F  F36  1  0.839353  0.148178  0.003287  1
  F  F37  1  0.872675  0.444213  0.377453  1
  F  F38  1  0.921455  0.768078  0.472965  1
  F  F39  1  0.894228  0.908114  0.188446  1
  O  O40  1  0.215727  0.803088  0.696483  1
  O  O41  1  0.284273  0.303088  0.803517  1
  O  O42  1  0.715727  0.696912  0.196483  1
  O  O43  1  0.784273  0.196912  0.303517  1
  S  S44  1  0.248381  0.178420  0.877674  1
  S  S45  1  0.251619  0.678420  0.622326  1
  S  S46  1  0.748381  0.321580  0.377674  1
  S  S47  1  0.751619  0.821580  0.122326  1
