# generated using pymatgen
data_TbSi2Ni
_symmetry_space_group_name_H-M   'P 1'
_cell_length_a   3.98889554
_cell_length_b   4.00047398
_cell_length_c   8.45947991
_cell_angle_alpha   103.67706173
_cell_angle_beta   90.00000000
_cell_angle_gamma   90.00000000
_symmetry_Int_Tables_number   1
_chemical_formula_structural   TbSi2Ni
_chemical_formula_sum   'Tb2 Si4 Ni2'
_cell_volume   131.16407100
_cell_formula_units_Z   2
loop_
 _symmetry_equiv_pos_site_id
 _symmetry_equiv_pos_as_xyz
  1  'x, y, z'
loop_
 _atom_site_type_symbol
 _atom_site_label
 _atom_site_symmetry_multiplicity
 _atom_site_fract_x
 _atom_site_fract_y
 _atom_site_fract_z
 _atom_site_occupancy
  Si  Si0  1  0.250000  0.250476  0.500952  1
  Si  Si1  1  0.750000  0.749524  0.499048  1
  Si  Si2  1  0.250000  0.539852  0.079704  1
  Si  Si3  1  0.750000  0.460148  0.920296  1
  Ni  Ni4  1  0.250000  0.677889  0.355778  1
  Ni  Ni5  1  0.750000  0.322111  0.644222  1
  Tb  Tb6  1  0.250000  0.893959  0.787918  1
  Tb  Tb7  1  0.750000  0.106041  0.212082  1
