# generated using pymatgen
data_UP2
_symmetry_space_group_name_H-M   'P 1'
_cell_length_a   3.77864580
_cell_length_b   3.77864580
_cell_length_c   7.72475997
_cell_angle_alpha   90.00000000
_cell_angle_beta   90.00000000
_cell_angle_gamma   90.00000000
_symmetry_Int_Tables_number   1
_chemical_formula_structural   UP2
_chemical_formula_sum   'U2 P4'
_cell_volume   110.29539034
_cell_formula_units_Z   2
loop_
 _symmetry_equiv_pos_site_id
 _symmetry_equiv_pos_as_xyz
  1  'x, y, z'
loop_
 _atom_site_type_symbol
 _atom_site_label
 _atom_site_symmetry_multiplicity
 _atom_site_fract_x
 _atom_site_fract_y
 _atom_site_fract_z
 _atom_site_occupancy
  P  P0  1  0.250000  0.750000  0.000000  1
  P  P1  1  0.750000  0.250000  0.000000  1
  P  P2  1  0.250000  0.250000  0.643323  1
  P  P3  1  0.750000  0.750000  0.356677  1
  U  U4  1  0.250000  0.250000  0.282901  1
  U  U5  1  0.750000  0.750000  0.717099  1
