# generated using pymatgen
data_Sr2RuO4
_symmetry_space_group_name_H-M   'P 1'
_cell_length_a   3.90349194
_cell_length_b   3.90349194
_cell_length_c   7.01667238
_cell_angle_alpha   106.15031963
_cell_angle_beta   106.15031959
_cell_angle_gamma   90.00000005
_symmetry_Int_Tables_number   1
_chemical_formula_structural   Sr2RuO4
_chemical_formula_sum   'Sr2 Ru1 O4'
_cell_volume   98.29510059
_cell_formula_units_Z   1
loop_
 _symmetry_equiv_pos_site_id
 _symmetry_equiv_pos_as_xyz
  1  'x, y, z'
loop_
 _atom_site_type_symbol
 _atom_site_label
 _atom_site_symmetry_multiplicity
 _atom_site_fract_x
 _atom_site_fract_y
 _atom_site_fract_z
 _atom_site_occupancy
  O  O0  1  0.837101  0.837101  0.674202  1
  O  O1  1  0.162899  0.162899  0.325798  1
  O  O2  1  0.000000  0.500000  0.000000  1
  O  O3  1  0.500000  0.000000  0.000000  1
  Sr  Sr4  1  0.352579  0.352579  0.705157  1
  Sr  Sr5  1  0.647421  0.647421  0.294843  1
  Ru  Ru6  1  0.000000  0.000000  0.000000  1
