# generated using pymatgen
data_Na3ScF6
_symmetry_space_group_name_H-M   'P 1'
_cell_length_a   5.65264455
_cell_length_b   5.88220694
_cell_length_c   8.23578747
_cell_angle_alpha   90.00000000
_cell_angle_beta   90.80088388
_cell_angle_gamma   90.00000000
_symmetry_Int_Tables_number   1
_chemical_formula_structural   Na3ScF6
_chemical_formula_sum   'Na6 Sc2 F12'
_cell_volume   273.81338770
_cell_formula_units_Z   2
loop_
 _symmetry_equiv_pos_site_id
 _symmetry_equiv_pos_as_xyz
  1  'x, y, z'
loop_
 _atom_site_type_symbol
 _atom_site_label
 _atom_site_symmetry_multiplicity
 _atom_site_fract_x
 _atom_site_fract_y
 _atom_site_fract_z
 _atom_site_occupancy
  F  F0  1  0.669838  0.214819  0.421187  1
  F  F1  1  0.830162  0.714819  0.078813  1
  F  F2  1  0.330162  0.785181  0.578813  1
  F  F3  1  0.169838  0.285181  0.921187  1
  F  F4  1  0.204704  0.321319  0.554369  1
  F  F5  1  0.295296  0.821319  0.945631  1
  F  F6  1  0.795296  0.678681  0.445631  1
  F  F7  1  0.704704  0.178681  0.054369  1
  F  F8  1  0.125508  0.067572  0.229085  1
  F  F9  1  0.374492  0.567572  0.270915  1
  F  F10  1  0.874492  0.932428  0.770915  1
  F  F11  1  0.625508  0.432428  0.729085  1
  Na  Na12  1  0.016614  0.555249  0.741177  1
  Na  Na13  1  0.483386  0.055249  0.758823  1
  Na  Na14  1  0.983386  0.444751  0.258823  1
  Na  Na15  1  0.516614  0.944751  0.241177  1
  Na  Na16  1  0.500000  0.500000  0.000000  1
  Na  Na17  1  0.000000  0.000000  0.500000  1
  Sc  Sc18  1  0.500000  0.500000  0.500000  1
  Sc  Sc19  1  0.000000  0.000000  0.000000  1
