# generated using pymatgen
data_Na8Be3Si9(ClO12)2
_symmetry_space_group_name_H-M   'P 1'
_cell_length_a   7.61212315
_cell_length_b   7.61174924
_cell_length_c   15.18303529
_cell_angle_alpha   109.36382468
_cell_angle_beta   109.41075089
_cell_angle_gamma   109.56903553
_symmetry_Int_Tables_number   1
_chemical_formula_structural   Na8Be3Si9(ClO12)2
_chemical_formula_sum   'Na8 Be3 Si9 Cl2 O24'
_cell_volume   677.79869854
_cell_formula_units_Z   1
loop_
 _symmetry_equiv_pos_site_id
 _symmetry_equiv_pos_as_xyz
  1  'x, y, z'
loop_
 _atom_site_type_symbol
 _atom_site_label
 _atom_site_symmetry_multiplicity
 _atom_site_fract_x
 _atom_site_fract_y
 _atom_site_fract_z
 _atom_site_occupancy
  Be  Be0  1  0.500645  0.245410  0.874460  1
  Be  Be1  1  0.751718  0.498814  0.626209  1
  Be  Be2  1  0.750196  0.254548  0.250897  1
  Cl  Cl3  1  0.999322  0.997034  0.498868  1
  Cl  Cl4  1  -0.000555  0.002907  0.002425  1
  Na  Na5  1  0.010096  0.986215  0.814394  1
  Na  Na6  1  0.383378  0.358270  0.685071  1
  Na  Na7  1  0.982995  0.012444  0.320279  1
  Na  Na8  1  0.676917  0.051667  0.520455  1
  Na  Na9  1  0.375858  0.333352  0.180397  1
  Na  Na10  1  0.977803  0.620176  0.496947  1
  Na  Na11  1  0.631334  0.018369  0.997833  1
  Na  Na12  1  0.958665  0.624410  0.989626  1
  O  O13  1  0.997455  0.587247  0.647135  1
  O  O14  1  0.290461  0.690064  0.845291  1
  O  O15  1  0.401020  0.700226  0.699259  1
  O  O16  1  0.405929  0.399651  0.850644  1
  O  O17  1  0.997277  0.606423  0.152707  1
  O  O18  1  0.306930  0.996351  0.799939  1
  O  O19  1  0.311586  0.608969  0.501000  1
  O  O20  1  0.300500  0.696404  0.346402  1
  O  O21  1  0.600542  0.000857  0.653553  1
  O  O22  1  0.701701  0.288148  0.851581  1
  O  O23  1  0.702733  0.698269  0.649048  1
  O  O24  1  0.393815  0.704903  0.195968  1
  O  O25  1  0.401999  0.401886  0.352673  1
  O  O26  1  0.298130  1.000687  0.298131  1
  O  O27  1  0.300272  0.594477  0.996887  1
  O  O28  1  0.713063  0.401642  0.702988  1
  O  O29  1  0.586404  0.300616  0.501028  1
  O  O30  1  0.595850  0.004079  0.148757  1
  O  O31  1  0.001351  0.296395  0.797893  1
  O  O32  1  0.690349  0.287083  0.346357  1
  O  O33  1  0.693196  0.699804  0.147610  1
  O  O34  1  0.714723  0.415929  0.207989  1
  O  O35  1  0.596865  0.309255  0.001204  1
  O  O36  1  0.000763  0.306973  0.300941  1
  Si  Si37  1  0.254637  0.490604  0.870684  1
  Si  Si38  1  0.240323  0.747759  0.745270  1
  Si  Si39  1  0.512397  0.750491  0.627913  1
  Si  Si40  1  0.247468  0.752518  0.248761  1
  Si  Si41  1  0.244358  0.495297  0.373135  1
  Si  Si42  1  0.500316  0.760773  0.121975  1
  Si  Si43  1  0.509596  0.254048  0.380390  1
  Si  Si44  1  0.750521  0.256073  0.754485  1
  Si  Si45  1  0.739100  0.492483  0.124537  1
