# generated using pymatgen
data_K2NbF7
_symmetry_space_group_name_H-M   'P 1'
_cell_length_a   5.95572570
_cell_length_b   8.72375547
_cell_length_c   12.91753938
_cell_angle_alpha   90.00000000
_cell_angle_beta   90.00000000
_cell_angle_gamma   90.28844392
_symmetry_Int_Tables_number   1
_chemical_formula_structural   K2NbF7
_chemical_formula_sum   'K8 Nb4 F28'
_cell_volume   671.13897807
_cell_formula_units_Z   4
loop_
 _symmetry_equiv_pos_site_id
 _symmetry_equiv_pos_as_xyz
  1  'x, y, z'
loop_
 _atom_site_type_symbol
 _atom_site_label
 _atom_site_symmetry_multiplicity
 _atom_site_fract_x
 _atom_site_fract_y
 _atom_site_fract_z
 _atom_site_occupancy
  F  F0  1  0.442601  0.367132  0.578843  1
  F  F1  1  0.557399  0.132868  0.078843  1
  F  F2  1  0.557399  0.632868  0.421157  1
  F  F3  1  0.442601  0.867132  0.921157  1
  F  F4  1  0.817975  0.493451  0.621388  1
  F  F5  1  0.182025  0.006549  0.121388  1
  F  F6  1  0.182025  0.506549  0.378612  1
  F  F7  1  0.817975  0.993451  0.878612  1
  F  F8  1  0.789636  0.283328  0.478070  1
  F  F9  1  0.210364  0.216672  0.978070  1
  F  F10  1  0.210364  0.716672  0.521930  1
  F  F11  1  0.789636  0.783328  0.021930  1
  F  F12  1  0.956697  0.798746  0.755853  1
  F  F13  1  0.043303  0.701254  0.255853  1
  F  F14  1  0.043303  0.201254  0.244147  1
  F  F15  1  0.956697  0.298746  0.744147  1
  F  F16  1  0.543203  0.786772  0.741881  1
  F  F17  1  0.456797  0.713228  0.241881  1
  F  F18  1  0.456797  0.213228  0.258119  1
  F  F19  1  0.543203  0.286772  0.758119  1
  F  F20  1  0.957065  0.609192  0.892022  1
  F  F21  1  0.042935  0.890808  0.392022  1
  F  F22  1  0.042935  0.390808  0.107978  1
  F  F23  1  0.957065  0.109192  0.607978  1
  F  F24  1  0.537780  0.588795  0.890052  1
  F  F25  1  0.462220  0.911205  0.390052  1
  F  F26  1  0.462220  0.411205  0.109948  1
  F  F27  1  0.537780  0.088795  0.609948  1
  K  K28  1  0.237720  0.053520  0.784578  1
  K  K29  1  0.762280  0.446480  0.284578  1
  K  K30  1  0.762280  0.946480  0.215422  1
  K  K31  1  0.237720  0.553520  0.715422  1
  K  K32  1  0.761837  0.319093  0.941398  1
  K  K33  1  0.238163  0.180907  0.441398  1
  K  K34  1  0.238163  0.680907  0.058602  1
  K  K35  1  0.761837  0.819093  0.558602  1
  Nb  Nb36  1  0.729999  0.275685  0.629187  1
  Nb  Nb37  1  0.270001  0.224315  0.129187  1
  Nb  Nb38  1  0.270001  0.724315  0.370813  1
  Nb  Nb39  1  0.729999  0.775685  0.870813  1
