# generated using pymatgen
data_Sr3(GaO3)2
_symmetry_space_group_name_H-M   'P 1'
_cell_length_a   16.30477455
_cell_length_b   16.30477455
_cell_length_c   16.30477455
_cell_angle_alpha   90.00000000
_cell_angle_beta   90.00000000
_cell_angle_gamma   90.00000000
_symmetry_Int_Tables_number   1
_chemical_formula_structural   Sr3(GaO3)2
_chemical_formula_sum   'Sr72 Ga48 O144'
_cell_volume   4334.55376542
_cell_formula_units_Z   24
loop_
 _symmetry_equiv_pos_site_id
 _symmetry_equiv_pos_as_xyz
  1  'x, y, z'
loop_
 _atom_site_type_symbol
 _atom_site_label
 _atom_site_symmetry_multiplicity
 _atom_site_fract_x
 _atom_site_fract_y
 _atom_site_fract_z
 _atom_site_occupancy
  O  O0  1  0.279725  0.123205  0.005300  1
  O  O1  1  0.005300  0.279725  0.123205  1
  O  O2  1  0.123205  0.005300  0.279725  1
  O  O3  1  0.376795  0.994700  0.779725  1
  O  O4  1  0.505300  0.220275  0.876795  1
  O  O5  1  0.876795  0.505300  0.220275  1
  O  O6  1  0.494700  0.720275  0.623205  1
  O  O7  1  0.994700  0.779725  0.376795  1
  O  O8  1  0.623205  0.494700  0.720275  1
  O  O9  1  0.779725  0.376795  0.994700  1
  O  O10  1  0.720275  0.623205  0.494700  1
  O  O11  1  0.220275  0.876795  0.505300  1
  O  O12  1  0.720275  0.876795  0.994700  1
  O  O13  1  0.994700  0.720275  0.876795  1
  O  O14  1  0.876795  0.994700  0.720275  1
  O  O15  1  0.623205  0.005300  0.220275  1
  O  O16  1  0.494700  0.779725  0.123205  1
  O  O17  1  0.123205  0.494700  0.779725  1
  O  O18  1  0.505300  0.279725  0.376795  1
  O  O19  1  0.005300  0.220275  0.623205  1
  O  O20  1  0.376795  0.505300  0.279725  1
  O  O21  1  0.220275  0.623205  0.005300  1
  O  O22  1  0.279725  0.376795  0.505300  1
  O  O23  1  0.779725  0.123205  0.494700  1
  O  O24  1  0.481891  0.130421  0.251605  1
  O  O25  1  0.251605  0.481891  0.130421  1
  O  O26  1  0.130421  0.251605  0.481891  1
  O  O27  1  0.369579  0.748395  0.981891  1
  O  O28  1  0.751605  0.018109  0.869579  1
  O  O29  1  0.869579  0.751605  0.018109  1
  O  O30  1  0.248395  0.518109  0.630421  1
  O  O31  1  0.748395  0.981891  0.369579  1
  O  O32  1  0.630421  0.248395  0.518109  1
  O  O33  1  0.981891  0.369579  0.748395  1
  O  O34  1  0.518109  0.630421  0.248395  1
  O  O35  1  0.018109  0.869579  0.751605  1
  O  O36  1  0.518109  0.869579  0.748395  1
  O  O37  1  0.748395  0.518109  0.869579  1
  O  O38  1  0.869579  0.748395  0.518109  1
  O  O39  1  0.630421  0.251605  0.018109  1
  O  O40  1  0.248395  0.981891  0.130421  1
  O  O41  1  0.130421  0.248395  0.981891  1
  O  O42  1  0.751605  0.481891  0.369579  1
  O  O43  1  0.251605  0.018109  0.630421  1
  O  O44  1  0.369579  0.751605  0.481891  1
  O  O45  1  0.018109  0.630421  0.251605  1
  O  O46  1  0.481891  0.369579  0.751605  1
  O  O47  1  0.981891  0.130421  0.248395  1
  O  O48  1  0.266078  0.280485  0.103126  1
  O  O49  1  0.103126  0.266078  0.280485  1
  O  O50  1  0.280485  0.103126  0.266078  1
  O  O51  1  0.219515  0.896874  0.766078  1
  O  O52  1  0.603126  0.233922  0.719515  1
  O  O53  1  0.719515  0.603126  0.233922  1
  O  O54  1  0.396874  0.733922  0.780485  1
  O  O55  1  0.896874  0.766078  0.219515  1
  O  O56  1  0.780485  0.396874  0.733922  1
  O  O57  1  0.766078  0.219515  0.896874  1
  O  O58  1  0.733922  0.780485  0.396874  1
  O  O59  1  0.233922  0.719515  0.603126  1
  O  O60  1  0.733922  0.719515  0.896874  1
  O  O61  1  0.896874  0.733922  0.719515  1
  O  O62  1  0.719515  0.896874  0.733922  1
  O  O63  1  0.780485  0.103126  0.233922  1
  O  O64  1  0.396874  0.766078  0.280485  1
  O  O65  1  0.280485  0.396874  0.766078  1
  O  O66  1  0.603126  0.266078  0.219515  1
  O  O67  1  0.103126  0.233922  0.780485  1
  O  O68  1  0.219515  0.603126  0.266078  1
  O  O69  1  0.233922  0.780485  0.103126  1
  O  O70  1  0.266078  0.219515  0.603126  1
  O  O71  1  0.766078  0.280485  0.396874  1
  O  O72  1  0.236836  0.402375  0.287695  1
  O  O73  1  0.287695  0.236836  0.402375  1
  O  O74  1  0.402375  0.287695  0.236836  1
  O  O75  1  0.097625  0.712305  0.736836  1
  O  O76  1  0.787695  0.263164  0.597625  1
  O  O77  1  0.597625  0.787695  0.263164  1
  O  O78  1  0.212305  0.763164  0.902375  1
  O  O79  1  0.712305  0.736836  0.097625  1
  O  O80  1  0.902375  0.212305  0.763164  1
  O  O81  1  0.736836  0.097625  0.712305  1
  O  O82  1  0.763164  0.902375  0.212305  1
  O  O83  1  0.263164  0.597625  0.787695  1
  O  O84  1  0.763164  0.597625  0.712305  1
  O  O85  1  0.712305  0.763164  0.597625  1
  O  O86  1  0.597625  0.712305  0.763164  1
  O  O87  1  0.902375  0.287695  0.263164  1
  O  O88  1  0.212305  0.736836  0.402375  1
  O  O89  1  0.402375  0.212305  0.736836  1
  O  O90  1  0.787695  0.236836  0.097625  1
  O  O91  1  0.287695  0.263164  0.902375  1
  O  O92  1  0.097625  0.787695  0.236836  1
  O  O93  1  0.263164  0.902375  0.287695  1
  O  O94  1  0.236836  0.097625  0.787695  1
  O  O95  1  0.736836  0.402375  0.212305  1
  O  O96  1  0.349642  0.962038  0.986020  1
  O  O97  1  0.986020  0.349642  0.962038  1
  O  O98  1  0.962038  0.986020  0.349642  1
  O  O99  1  0.537962  0.013980  0.849642  1
  O  O100  1  0.486020  0.150358  0.037962  1
  O  O101  1  0.037962  0.486020  0.150358  1
  O  O102  1  0.513980  0.650358  0.462038  1
  O  O103  1  0.013980  0.849642  0.537962  1
  O  O104  1  0.462038  0.513980  0.650358  1
  O  O105  1  0.849642  0.537962  0.013980  1
  O  O106  1  0.650358  0.462038  0.513980  1
  O  O107  1  0.150358  0.037962  0.486020  1
  O  O108  1  0.650358  0.037962  0.013980  1
  O  O109  1  0.013980  0.650358  0.037962  1
  O  O110  1  0.037962  0.013980  0.650358  1
  O  O111  1  0.462038  0.986020  0.150358  1
  O  O112  1  0.513980  0.849642  0.962038  1
  O  O113  1  0.962038  0.513980  0.849642  1
  O  O114  1  0.486020  0.349642  0.537962  1
  O  O115  1  0.986020  0.150358  0.462038  1
  O  O116  1  0.537962  0.486020  0.349642  1
  O  O117  1  0.150358  0.462038  0.986020  1
  O  O118  1  0.349642  0.537962  0.486020  1
  O  O119  1  0.849642  0.962038  0.513980  1
  O  O120  1  0.150643  0.988853  0.975165  1
  O  O121  1  0.975165  0.150643  0.988853  1
  O  O122  1  0.988853  0.975165  0.150643  1
  O  O123  1  0.511147  0.024835  0.650643  1
  O  O124  1  0.475165  0.349357  0.011147  1
  O  O125  1  0.011147  0.475165  0.349357  1
  O  O126  1  0.524835  0.849357  0.488853  1
  O  O127  1  0.024835  0.650643  0.511147  1
  O  O128  1  0.488853  0.524835  0.849357  1
  O  O129  1  0.650643  0.511147  0.024835  1
  O  O130  1  0.849357  0.488853  0.524835  1
  O  O131  1  0.349357  0.011147  0.475165  1
  O  O132  1  0.849357  0.011147  0.024835  1
  O  O133  1  0.024835  0.849357  0.011147  1
  O  O134  1  0.011147  0.024835  0.849357  1
  O  O135  1  0.488853  0.975165  0.349357  1
  O  O136  1  0.524835  0.650643  0.988853  1
  O  O137  1  0.988853  0.524835  0.650643  1
  O  O138  1  0.475165  0.150643  0.511147  1
  O  O139  1  0.975165  0.349357  0.488853  1
  O  O140  1  0.511147  0.475165  0.150643  1
  O  O141  1  0.349357  0.488853  0.975165  1
  O  O142  1  0.150643  0.511147  0.475165  1
  O  O143  1  0.650643  0.988853  0.524835  1
  Ga  Ga144  1  0.251819  0.012150  0.017817  1
  Ga  Ga145  1  0.017817  0.251819  0.012150  1
  Ga  Ga146  1  0.012150  0.017817  0.251819  1
  Ga  Ga147  1  0.487850  0.982183  0.751819  1
  Ga  Ga148  1  0.517817  0.248181  0.987850  1
  Ga  Ga149  1  0.987850  0.517817  0.248181  1
  Ga  Ga150  1  0.482183  0.748181  0.512150  1
  Ga  Ga151  1  0.982183  0.751819  0.487850  1
  Ga  Ga152  1  0.512150  0.482183  0.748181  1
  Ga  Ga153  1  0.751819  0.487850  0.982183  1
  Ga  Ga154  1  0.748181  0.512150  0.482183  1
  Ga  Ga155  1  0.248181  0.987850  0.517817  1
  Ga  Ga156  1  0.748181  0.987850  0.982183  1
  Ga  Ga157  1  0.982183  0.748181  0.987850  1
  Ga  Ga158  1  0.987850  0.982183  0.748181  1
  Ga  Ga159  1  0.512150  0.017817  0.248181  1
  Ga  Ga160  1  0.482183  0.751819  0.012150  1
  Ga  Ga161  1  0.012150  0.482183  0.751819  1
  Ga  Ga162  1  0.517817  0.251819  0.487850  1
  Ga  Ga163  1  0.017817  0.248181  0.512150  1
  Ga  Ga164  1  0.487850  0.517817  0.251819  1
  Ga  Ga165  1  0.248181  0.512150  0.017817  1
  Ga  Ga166  1  0.251819  0.487850  0.517817  1
  Ga  Ga167  1  0.751819  0.012150  0.482183  1
  Ga  Ga168  1  0.243635  0.233522  0.003288  1
  Ga  Ga169  1  0.003288  0.243635  0.233522  1
  Ga  Ga170  1  0.233522  0.003288  0.243635  1
  Ga  Ga171  1  0.266478  0.996712  0.743635  1
  Ga  Ga172  1  0.503288  0.256365  0.766478  1
  Ga  Ga173  1  0.766478  0.503288  0.256365  1
  Ga  Ga174  1  0.496712  0.756365  0.733522  1
  Ga  Ga175  1  0.996712  0.743635  0.266478  1
  Ga  Ga176  1  0.733522  0.496712  0.756365  1
  Ga  Ga177  1  0.743635  0.266478  0.996712  1
  Ga  Ga178  1  0.756365  0.733522  0.496712  1
  Ga  Ga179  1  0.256365  0.766478  0.503288  1
  Ga  Ga180  1  0.756365  0.766478  0.996712  1
  Ga  Ga181  1  0.996712  0.756365  0.766478  1
  Ga  Ga182  1  0.766478  0.996712  0.756365  1
  Ga  Ga183  1  0.733522  0.003288  0.256365  1
  Ga  Ga184  1  0.496712  0.743635  0.233522  1
  Ga  Ga185  1  0.233522  0.496712  0.743635  1
  Ga  Ga186  1  0.503288  0.243635  0.266478  1
  Ga  Ga187  1  0.003288  0.256365  0.733522  1
  Ga  Ga188  1  0.266478  0.503288  0.243635  1
  Ga  Ga189  1  0.256365  0.733522  0.003288  1
  Ga  Ga190  1  0.243635  0.266478  0.503288  1
  Ga  Ga191  1  0.743635  0.233522  0.496712  1
  Sr  Sr192  1  0.000000  0.000000  0.000000  1
  Sr  Sr193  1  0.500000  0.000000  0.500000  1
  Sr  Sr194  1  0.500000  0.500000  0.000000  1
  Sr  Sr195  1  0.000000  0.500000  0.500000  1
  Sr  Sr196  1  0.500000  0.000000  0.000000  1
  Sr  Sr197  1  0.000000  0.500000  0.000000  1
  Sr  Sr198  1  0.000000  0.000000  0.500000  1
  Sr  Sr199  1  0.500000  0.500000  0.500000  1
  Sr  Sr200  1  0.252078  0.252078  0.252078  1
  Sr  Sr201  1  0.247922  0.747922  0.752078  1
  Sr  Sr202  1  0.752078  0.247922  0.747922  1
  Sr  Sr203  1  0.747922  0.752078  0.247922  1
  Sr  Sr204  1  0.747922  0.747922  0.747922  1
  Sr  Sr205  1  0.752078  0.252078  0.247922  1
  Sr  Sr206  1  0.247922  0.752078  0.252078  1
  Sr  Sr207  1  0.252078  0.247922  0.752078  1
  Sr  Sr208  1  0.373235  0.373235  0.373235  1
  Sr  Sr209  1  0.126765  0.626765  0.873235  1
  Sr  Sr210  1  0.873235  0.126765  0.626765  1
  Sr  Sr211  1  0.626765  0.873235  0.126765  1
  Sr  Sr212  1  0.626765  0.626765  0.626765  1
  Sr  Sr213  1  0.873235  0.373235  0.126765  1
  Sr  Sr214  1  0.126765  0.873235  0.373235  1
  Sr  Sr215  1  0.373235  0.126765  0.873235  1
  Sr  Sr216  1  0.136626  0.375164  0.121597  1
  Sr  Sr217  1  0.121597  0.136626  0.375164  1
  Sr  Sr218  1  0.375164  0.121597  0.136626  1
  Sr  Sr219  1  0.124836  0.878403  0.636626  1
  Sr  Sr220  1  0.621597  0.363374  0.624836  1
  Sr  Sr221  1  0.624836  0.621597  0.363374  1
  Sr  Sr222  1  0.378403  0.863374  0.875164  1
  Sr  Sr223  1  0.878403  0.636626  0.124836  1
  Sr  Sr224  1  0.875164  0.378403  0.863374  1
  Sr  Sr225  1  0.636626  0.124836  0.878403  1
  Sr  Sr226  1  0.863374  0.875164  0.378403  1
  Sr  Sr227  1  0.363374  0.624836  0.621597  1
  Sr  Sr228  1  0.863374  0.624836  0.878403  1
  Sr  Sr229  1  0.878403  0.863374  0.624836  1
  Sr  Sr230  1  0.624836  0.878403  0.863374  1
  Sr  Sr231  1  0.875164  0.121597  0.363374  1
  Sr  Sr232  1  0.378403  0.636626  0.375164  1
  Sr  Sr233  1  0.375164  0.378403  0.636626  1
  Sr  Sr234  1  0.621597  0.136626  0.124836  1
  Sr  Sr235  1  0.121597  0.363374  0.875164  1
  Sr  Sr236  1  0.124836  0.621597  0.136626  1
  Sr  Sr237  1  0.363374  0.875164  0.121597  1
  Sr  Sr238  1  0.136626  0.124836  0.621597  1
  Sr  Sr239  1  0.636626  0.375164  0.378403  1
  Sr  Sr240  1  0.378839  0.382747  0.123924  1
  Sr  Sr241  1  0.123924  0.378839  0.382747  1
  Sr  Sr242  1  0.382747  0.123924  0.378839  1
  Sr  Sr243  1  0.117253  0.876076  0.878839  1
  Sr  Sr244  1  0.623924  0.121161  0.617253  1
  Sr  Sr245  1  0.617253  0.623924  0.121161  1
  Sr  Sr246  1  0.376076  0.621161  0.882747  1
  Sr  Sr247  1  0.876076  0.878839  0.117253  1
  Sr  Sr248  1  0.882747  0.376076  0.621161  1
  Sr  Sr249  1  0.878839  0.117253  0.876076  1
  Sr  Sr250  1  0.621161  0.882747  0.376076  1
  Sr  Sr251  1  0.121161  0.617253  0.623924  1
  Sr  Sr252  1  0.621161  0.617253  0.876076  1
  Sr  Sr253  1  0.876076  0.621161  0.617253  1
  Sr  Sr254  1  0.617253  0.876076  0.621161  1
  Sr  Sr255  1  0.882747  0.123924  0.121161  1
  Sr  Sr256  1  0.376076  0.878839  0.382747  1
  Sr  Sr257  1  0.382747  0.376076  0.878839  1
  Sr  Sr258  1  0.623924  0.378839  0.117253  1
  Sr  Sr259  1  0.123924  0.121161  0.882747  1
  Sr  Sr260  1  0.117253  0.623924  0.378839  1
  Sr  Sr261  1  0.121161  0.882747  0.123924  1
  Sr  Sr262  1  0.378839  0.117253  0.623924  1
  Sr  Sr263  1  0.878839  0.382747  0.376076  1
