# generated using pymatgen
data_TbAl4Ni
_symmetry_space_group_name_H-M   'P 1'
_cell_length_a   4.06746712
_cell_length_b   6.61164703
_cell_length_c   8.00065089
_cell_angle_alpha   90.00000000
_cell_angle_beta   104.72595039
_cell_angle_gamma   90.00000000
_symmetry_Int_Tables_number   1
_chemical_formula_structural   TbAl4Ni
_chemical_formula_sum   'Tb2 Al8 Ni2'
_cell_volume   208.09137988
_cell_formula_units_Z   2
loop_
 _symmetry_equiv_pos_site_id
 _symmetry_equiv_pos_as_xyz
  1  'x, y, z'
loop_
 _atom_site_type_symbol
 _atom_site_label
 _atom_site_symmetry_multiplicity
 _atom_site_fract_x
 _atom_site_fract_y
 _atom_site_fract_z
 _atom_site_occupancy
  Al  Al0  1  0.688960  0.447210  0.377921  1
  Al  Al1  1  0.311040  0.552790  0.622079  1
  Al  Al2  1  0.311040  0.947210  0.622079  1
  Al  Al3  1  0.688960  0.052790  0.377921  1
  Al  Al4  1  0.500000  0.000000  0.000000  1
  Al  Al5  1  0.500000  0.500000  0.000000  1
  Al  Al6  1  0.076808  0.250000  0.153616  1
  Al  Al7  1  0.923192  0.750000  0.846384  1
  Ni  Ni8  1  0.773661  0.750000  0.547323  1
  Ni  Ni9  1  0.226339  0.250000  0.452677  1
  Tb  Tb10  1  0.116705  0.750000  0.233410  1
  Tb  Tb11  1  0.883295  0.250000  0.766590  1
