# generated using pymatgen
data_BaLaCuRuO6
_symmetry_space_group_name_H-M   'P 1'
_cell_length_a   5.51418086
_cell_length_b   5.51478376
_cell_length_c   5.80659429
_cell_angle_alpha   118.36339305
_cell_angle_beta   118.35625610
_cell_angle_gamma   89.98450076
_symmetry_Int_Tables_number   1
_chemical_formula_structural   BaLaCuRuO6
_chemical_formula_sum   'Ba1 La1 Cu1 Ru1 O6'
_cell_volume   130.81605086
_cell_formula_units_Z   1
loop_
 _symmetry_equiv_pos_site_id
 _symmetry_equiv_pos_as_xyz
  1  'x, y, z'
loop_
 _atom_site_type_symbol
 _atom_site_label
 _atom_site_symmetry_multiplicity
 _atom_site_fract_x
 _atom_site_fract_y
 _atom_site_fract_z
 _atom_site_occupancy
  Ba  Ba0  1  0.750074  0.250078  0.500089  1
  Cu  Cu1  1  0.500092  0.499799  1.000202  1
  La  La2  1  0.250131  0.750167  0.500083  1
  O  O3  1  0.232169  0.232200  0.464299  1
  O  O4  1  0.222065  0.325140  0.053215  1
  O  O5  1  0.271850  0.777753  0.946779  1
  O  O6  1  0.767744  0.767765  0.535431  1
  O  O7  1  0.674885  0.168846  0.946693  1
  O  O8  1  0.830997  0.728188  0.053336  1
  Ru  Ru9  1  -0.000006  0.000066  -0.000126  1
