# generated using pymatgen
data_CePO4
_symmetry_space_group_name_H-M   'P 1'
_cell_length_a   6.50780047
_cell_length_b   6.89680907
_cell_length_c   7.09086044
_cell_angle_alpha   90.00000000
_cell_angle_beta   90.00000000
_cell_angle_gamma   103.96622555
_symmetry_Int_Tables_number   1
_chemical_formula_structural   CePO4
_chemical_formula_sum   'Ce4 P4 O16'
_cell_volume   308.85116103
_cell_formula_units_Z   4
loop_
 _symmetry_equiv_pos_site_id
 _symmetry_equiv_pos_as_xyz
  1  'x, y, z'
loop_
 _atom_site_type_symbol
 _atom_site_label
 _atom_site_symmetry_multiplicity
 _atom_site_fract_x
 _atom_site_fract_y
 _atom_site_fract_z
 _atom_site_occupancy
  O  O0  1  0.208813  0.627958  0.288016  1
  O  O1  1  0.291187  0.872042  0.788016  1
  O  O2  1  0.791187  0.372042  0.711984  1
  O  O3  1  0.708813  0.127958  0.211984  1
  O  O4  1  0.306683  0.971687  0.397363  1
  O  O5  1  0.193317  0.528313  0.897363  1
  O  O6  1  0.693317  0.028313  0.602637  1
  O  O7  1  0.806683  0.471687  0.102637  1
  O  O8  1  0.439894  0.250479  0.005459  1
  O  O9  1  0.060106  0.249521  0.505459  1
  O  O10  1  0.560106  0.749521  0.994541  1
  O  O11  1  0.939894  0.750479  0.494541  1
  O  O12  1  0.498532  0.382390  0.330373  1
  O  O13  1  0.001468  0.117610  0.830373  1
  O  O14  1  0.501468  0.617610  0.669627  1
  O  O15  1  0.998532  0.882390  0.169627  1
  P  P16  1  0.111040  0.804614  0.338269  1
  P  P17  1  0.388960  0.695386  0.838269  1
  P  P18  1  0.888960  0.195386  0.661731  1
  P  P19  1  0.611040  0.304614  0.161731  1
  Ce  Ce20  1  0.599378  0.786768  0.341984  1
  Ce  Ce21  1  0.900622  0.713232  0.841984  1
  Ce  Ce22  1  0.400622  0.213232  0.658016  1
  Ce  Ce23  1  0.099378  0.286768  0.158016  1
