# generated using pymatgen
data_TbPS4
_symmetry_space_group_name_H-M   'P 1'
_cell_length_a   10.83140284
_cell_length_b   10.83140284
_cell_length_c   12.25727988
_cell_angle_alpha   116.22105222
_cell_angle_beta   116.22105224
_cell_angle_gamma   89.99999998
_symmetry_Int_Tables_number   1
_chemical_formula_structural   TbPS4
_chemical_formula_sum   'Tb8 P8 S32'
_cell_volume   1122.72330779
_cell_formula_units_Z   8
loop_
 _symmetry_equiv_pos_site_id
 _symmetry_equiv_pos_as_xyz
  1  'x, y, z'
loop_
 _atom_site_type_symbol
 _atom_site_label
 _atom_site_symmetry_multiplicity
 _atom_site_fract_x
 _atom_site_fract_y
 _atom_site_fract_z
 _atom_site_occupancy
  P  P0  1  0.288093  0.250000  0.500000  1
  P  P1  1  0.788093  0.250000  0.500000  1
  P  P2  1  0.750000  0.788093  0.000000  1
  P  P3  1  0.250000  0.711907  0.000000  1
  P  P4  1  0.711907  0.750000  0.500000  1
  P  P5  1  0.211907  0.750000  0.500000  1
  P  P6  1  0.250000  0.211907  0.000000  1
  P  P7  1  0.750000  0.288093  0.000000  1
  S  S8  1  0.085397  0.611429  0.994860  1
  S  S9  1  0.909463  0.883430  0.994860  1
  S  S10  1  0.611429  0.909463  0.494860  1
  S  S11  1  0.883430  0.085397  0.494860  1
  S  S12  1  0.414603  0.616570  0.005140  1
  S  S13  1  0.590537  0.888571  0.005140  1
  S  S14  1  0.888571  0.414603  0.505140  1
  S  S15  1  0.616570  0.590537  0.505140  1
  S  S16  1  0.342919  0.404157  0.179335  1
  S  S17  1  0.275178  0.342919  0.679335  1
  S  S18  1  0.404157  0.836416  0.679335  1
  S  S19  1  0.663584  0.095843  0.820665  1
  S  S20  1  0.157081  0.224822  0.820665  1
  S  S21  1  0.224822  0.663584  0.320665  1
  S  S22  1  0.095843  0.157081  0.320665  1
  S  S23  1  0.836416  0.275178  0.179335  1
  S  S24  1  0.657081  0.595843  0.820665  1
  S  S25  1  0.724822  0.657081  0.320665  1
  S  S26  1  0.595843  0.163584  0.320665  1
  S  S27  1  0.336416  0.904157  0.179335  1
  S  S28  1  0.842919  0.775178  0.179335  1
  S  S29  1  0.775178  0.336416  0.679335  1
  S  S30  1  0.904157  0.842919  0.679335  1
  S  S31  1  0.163584  0.724822  0.820665  1
  S  S32  1  0.090537  0.116570  0.005140  1
  S  S33  1  0.388571  0.090537  0.505140  1
  S  S34  1  0.116570  0.914603  0.505140  1
  S  S35  1  0.585397  0.383430  0.994860  1
  S  S36  1  0.409463  0.111429  0.994860  1
  S  S37  1  0.111429  0.585397  0.494860  1
  S  S38  1  0.383430  0.409463  0.494860  1
  S  S39  1  0.914603  0.388571  0.005140  1
  Tb  Tb40  1  0.875000  0.125000  0.750000  1
  Tb  Tb41  1  0.125000  0.875000  0.250000  1
  Tb  Tb42  1  0.625000  0.375000  0.250000  1
  Tb  Tb43  1  0.375000  0.625000  0.750000  1
  Tb  Tb44  1  0.625000  0.875000  0.250000  1
  Tb  Tb45  1  0.875000  0.625000  0.750000  1
  Tb  Tb46  1  0.375000  0.125000  0.750000  1
  Tb  Tb47  1  0.125000  0.375000  0.250000  1
