# generated using pymatgen
data_Ca2Nb2O7
_symmetry_space_group_name_H-M   'P 1'
_cell_length_a   7.50057682
_cell_length_b   7.50057682
_cell_length_c   7.50057682
_cell_angle_alpha   60.00000000
_cell_angle_beta   60.00000000
_cell_angle_gamma   60.00000003
_symmetry_Int_Tables_number   1
_chemical_formula_structural   Ca2Nb2O7
_chemical_formula_sum   'Ca4 Nb4 O14'
_cell_volume   298.37950734
_cell_formula_units_Z   2
loop_
 _symmetry_equiv_pos_site_id
 _symmetry_equiv_pos_as_xyz
  1  'x, y, z'
loop_
 _atom_site_type_symbol
 _atom_site_label
 _atom_site_symmetry_multiplicity
 _atom_site_fract_x
 _atom_site_fract_y
 _atom_site_fract_z
 _atom_site_occupancy
  O  O0  1  0.625000  0.624999  0.625000  1
  O  O1  1  0.375000  0.375000  0.375000  1
  O  O2  1  0.318295  0.931705  0.931706  1
  O  O3  1  0.068295  0.681705  0.681705  1
  O  O4  1  0.931705  0.318295  0.931706  1
  O  O5  1  0.931705  0.931705  0.318295  1
  O  O6  1  0.318295  0.318295  0.931705  1
  O  O7  1  0.318295  0.931705  0.318295  1
  O  O8  1  0.931705  0.318295  0.318295  1
  O  O9  1  0.681705  0.681705  0.068295  1
  O  O10  1  0.068296  0.068294  0.681705  1
  O  O11  1  0.068295  0.681705  0.068294  1
  O  O12  1  0.681705  0.068294  0.681705  1
  O  O13  1  0.681705  0.068294  0.068294  1
  Ca  Ca14  1  0.499999  0.500000  0.500000  1
  Ca  Ca15  1  0.499999  0.500000  1.000000  1
  Ca  Ca16  1  0.000001  0.500000  0.500000  1
  Ca  Ca17  1  0.500000  0.000000  0.500000  1
  Nb  Nb18  1  0.000000  0.000000  0.000000  1
  Nb  Nb19  1  0.000000  0.000000  0.499999  1
  Nb  Nb20  1  0.500000  0.000000  1.000000  1
  Nb  Nb21  1  0.000001  0.500000  0.999999  1
