# generated using pymatgen
data_Na3Al3Si3AgBrO12
_symmetry_space_group_name_H-M   'P 1'
_cell_length_a   9.03909893
_cell_length_b   9.03907650
_cell_length_c   9.04081309
_cell_angle_alpha   90.00448748
_cell_angle_beta   89.98871002
_cell_angle_gamma   89.97050703
_symmetry_Int_Tables_number   1
_chemical_formula_structural   Na3Al3Si3AgBrO12
_chemical_formula_sum   'Na6 Al6 Si6 Ag2 Br2 O24'
_cell_volume   738.68048391
_cell_formula_units_Z   2
loop_
 _symmetry_equiv_pos_site_id
 _symmetry_equiv_pos_as_xyz
  1  'x, y, z'
loop_
 _atom_site_type_symbol
 _atom_site_label
 _atom_site_symmetry_multiplicity
 _atom_site_fract_x
 _atom_site_fract_y
 _atom_site_fract_z
 _atom_site_occupancy
  Ag  Ag0  1  0.164767  0.164861  0.164035  1
  Ag  Ag1  1  0.335109  0.335221  0.664051  1
  Al  Al2  1  0.000340  0.498566  0.250232  1
  Al  Al3  1  0.250106  0.001749  0.498920  1
  Al  Al4  1  0.500079  0.750029  -0.000055  1
  Al  Al5  1  0.498249  0.249897  0.998917  1
  Al  Al6  1  0.749974  -0.000077  0.499935  1
  Al  Al7  1  0.001443  0.499649  0.750230  1
  Br  Br8  1  0.997452  0.997351  0.999232  1
  Br  Br9  1  0.502746  0.502637  0.499141  1
  Na  Na10  1  0.190753  0.811721  0.809203  1
  Na  Na11  1  0.309181  0.689170  0.310176  1
  Na  Na12  1  0.688269  0.309262  0.309209  1
  Na  Na13  1  0.690485  0.689729  0.690643  1
  Na  Na14  1  0.810817  0.190834  0.810167  1
  Na  Na15  1  0.810262  0.809506  0.190653  1
  O  O16  1  0.056634  0.348138  0.641117  1
  O  O17  1  0.056282  0.650802  0.358357  1
  O  O18  1  0.138115  0.149522  0.439576  1
  O  O19  1  0.140770  0.850320  0.555457  1
  O  O20  1  0.151852  0.443351  0.141122  1
  O  O21  1  0.148005  0.560542  0.862135  1
  O  O22  1  0.350476  0.361885  0.939585  1
  O  O23  1  0.349598  0.640945  0.057001  1
  O  O24  1  0.358954  0.056328  0.651064  1
  O  O25  1  0.362114  0.940950  0.351904  1
  O  O26  1  0.443657  0.141044  0.151063  1
  O  O27  1  0.443624  0.858193  0.848457  1
  O  O28  1  0.559041  0.137885  0.851903  1
  O  O29  1  0.556706  0.859196  0.150516  1
  O  O30  1  0.641798  0.056370  0.348450  1
  O  O31  1  0.640809  0.943293  0.650522  1
  O  O32  1  0.649674  0.359222  0.055456  1
  O  O33  1  0.651610  0.641521  0.943931  1
  O  O34  1  0.849198  0.443712  0.858354  1
  O  O35  1  0.849515  0.555253  0.140705  1
  O  O36  1  0.859049  0.150389  0.557003  1
  O  O37  1  0.858483  0.848394  0.443927  1
  O  O38  1  0.939447  0.351989  0.362140  1
  O  O39  1  0.944744  0.650481  0.640719  1
  Si  Si40  1  -0.000660  0.250104  0.499417  1
  Si  Si41  1  0.249887  0.500654  0.999440  1
  Si  Si42  1  0.500173  0.000025  0.750303  1
  Si  Si43  1  0.499972  0.999821  0.250302  1
  Si  Si44  1  0.750023  0.499590  0.999698  1
  Si  Si45  1  0.000415  0.749977  0.499685  1
