# generated using pymatgen
data_BaLa2TiCr2O9
_symmetry_space_group_name_H-M   'P 1'
_cell_length_a   3.96824902
_cell_length_b   35.66148544
_cell_length_c   5.62523357
_cell_angle_alpha   44.78030701
_cell_angle_beta   89.99859447
_cell_angle_gamma   89.99866267
_symmetry_Int_Tables_number   1
_chemical_formula_structural   BaLa2TiCr2O9
_chemical_formula_sum   'Ba3 La6 Ti3 Cr6 O27'
_cell_volume   560.72802608
_cell_formula_units_Z   3
loop_
 _symmetry_equiv_pos_site_id
 _symmetry_equiv_pos_as_xyz
  1  'x, y, z'
loop_
 _atom_site_type_symbol
 _atom_site_label
 _atom_site_symmetry_multiplicity
 _atom_site_fract_x
 _atom_site_fract_y
 _atom_site_fract_z
 _atom_site_occupancy
  Ba  Ba0  1  0.999990  0.996903  0.013933  1
  Ba  Ba1  1  0.000001  0.111021  0.000409  1
  Ba  Ba2  1  0.999995  0.225216  0.986532  1
  La  La3  1  0.000021  0.337885  0.979496  1
  La  La4  1  0.000024  0.444364  0.000373  1
  La  La5  1  0.999961  0.556350  0.996443  1
  La  La6  1  0.000009  0.666111  0.002456  1
  La  La7  1  0.000021  0.777952  0.999193  1
  La  La8  1  0.000000  0.884325  0.020556  1
  Ti  Ti9  1  0.500005  0.996626  0.515186  1
  Ti  Ti10  1  0.499997  0.111066  0.500203  1
  Ti  Ti11  1  0.500000  0.225504  0.485239  1
  Cr  Cr12  1  0.499990  0.335559  0.489974  1
  Cr  Cr13  1  0.500043  0.446053  0.492728  1
  Cr  Cr14  1  0.500013  0.555938  0.498284  1
  Cr  Cr15  1  0.499990  0.666410  0.501152  1
  Cr  Cr16  1  0.500006  0.776238  0.506947  1
  Cr  Cr17  1  0.499965  0.886637  0.510156  1
  O  O18  1  -0.000021  0.881088  0.535088  1
  O  O19  1  0.499995  0.054035  0.507208  1
  O  O20  1  0.499995  0.168048  0.493407  1
  O  O21  1  0.499987  0.282138  0.466226  1
  O  O22  1  0.500012  0.500918  0.495064  1
  O  O23  1  0.500010  0.390663  0.492068  1
  O  O24  1  0.499986  0.611179  0.499670  1
  O  O25  1  0.500001  0.721392  0.504584  1
  O  O26  1  0.500007  0.831561  0.507963  1
  O  O27  1  0.499990  0.939996  0.534186  1
  O  O28  1  0.500001  0.054037  0.006531  1
  O  O29  1  0.500003  0.168044  0.994129  1
  O  O30  1  0.499981  0.282146  0.994541  1
  O  O31  1  0.500004  0.390652  0.991922  1
  O  O32  1  0.500011  0.500916  0.996649  1
  O  O33  1  0.499993  0.721397  0.002909  1
  O  O34  1  0.499991  0.611178  0.999708  1
  O  O35  1  0.499990  0.939989  0.005852  1
  O  O36  1  0.500010  0.831569  0.008039  1
  O  O37  1  0.999990  0.994162  0.526305  1
  O  O38  1  0.999996  0.111032  0.500366  1
  O  O39  1  0.999993  0.227917  0.474333  1
  O  O40  1  -0.000003  0.341096  0.465091  1
  O  O41  1  0.000038  0.444447  0.499953  1
  O  O42  1  0.000009  0.556746  0.494615  1
  O  O43  1  0.999986  0.665650  0.504615  1
  O  O44  1  0.000012  0.777848  0.499722  1
