# generated using pymatgen
data_Sm2As4O9
_symmetry_space_group_name_H-M   'P 1'
_cell_length_a   6.89698698
_cell_length_b   7.69751542
_cell_length_c   9.90055557
_cell_angle_alpha   95.27390532
_cell_angle_beta   104.17596227
_cell_angle_gamma   104.66683260
_symmetry_Int_Tables_number   1
_chemical_formula_structural   Sm2As4O9
_chemical_formula_sum   'Sm4 As8 O18'
_cell_volume   486.32128737
_cell_formula_units_Z   2
loop_
 _symmetry_equiv_pos_site_id
 _symmetry_equiv_pos_as_xyz
  1  'x, y, z'
loop_
 _atom_site_type_symbol
 _atom_site_label
 _atom_site_symmetry_multiplicity
 _atom_site_fract_x
 _atom_site_fract_y
 _atom_site_fract_z
 _atom_site_occupancy
  O  O0  1  0.721194  0.751823  0.252645  1
  O  O1  1  0.278806  0.248177  0.747355  1
  O  O2  1  0.316718  0.979323  0.874881  1
  O  O3  1  0.683282  0.020677  0.125119  1
  O  O4  1  0.605599  0.317994  0.985875  1
  O  O5  1  0.394401  0.682006  0.014125  1
  O  O6  1  0.136037  0.652517  0.739384  1
  O  O7  1  0.863963  0.347483  0.260616  1
  O  O8  1  0.845287  0.871586  0.559699  1
  O  O9  1  0.154713  0.128414  0.440301  1
  O  O10  1  0.493310  0.772068  0.667699  1
  O  O11  1  0.506690  0.227932  0.332301  1
  O  O12  1  0.372029  0.539397  0.377230  1
  O  O13  1  0.627971  0.460603  0.622770  1
  O  O14  1  0.090276  0.668055  0.451332  1
  O  O15  1  0.909724  0.331945  0.548668  1
  O  O16  1  0.368648  0.898684  0.359976  1
  O  O17  1  0.631352  0.101316  0.640024  1
  As  As18  1  0.678472  0.777755  0.073661  1
  As  As19  1  0.321528  0.222245  0.926339  1
  As  As20  1  0.176353  0.754980  0.913449  1
  As  As21  1  0.823647  0.245020  0.086551  1
  As  As22  1  0.747654  0.917677  0.709155  1
  As  As23  1  0.252346  0.082323  0.290845  1
  As  As24  1  0.808176  0.348647  0.701185  1
  As  As25  1  0.191824  0.651353  0.298815  1
  Sm  Sm26  1  0.248130  0.940172  0.616528  1
  Sm  Sm27  1  0.751870  0.059828  0.383472  1
  Sm  Sm28  1  0.719773  0.531407  0.407310  1
  Sm  Sm29  1  0.280227  0.468593  0.592690  1
