# generated using pymatgen
data_K3Sn2S3ClO12
_symmetry_space_group_name_H-M   'P 1'
_cell_length_a   10.28750742
_cell_length_b   10.46874499
_cell_length_c   7.67659470
_cell_angle_alpha   90.00000000
_cell_angle_beta   90.00000000
_cell_angle_gamma   119.83995896
_symmetry_Int_Tables_number   1
_chemical_formula_structural   K3Sn2S3ClO12
_chemical_formula_sum   'K6 Sn4 S6 Cl2 O24'
_cell_volume   717.13702847
_cell_formula_units_Z   2
loop_
 _symmetry_equiv_pos_site_id
 _symmetry_equiv_pos_as_xyz
  1  'x, y, z'
loop_
 _atom_site_type_symbol
 _atom_site_label
 _atom_site_symmetry_multiplicity
 _atom_site_fract_x
 _atom_site_fract_y
 _atom_site_fract_z
 _atom_site_occupancy
  Cl  Cl0  1  0.017520  0.020749  0.997431  1
  Cl  Cl1  1  0.982480  0.979251  0.497431  1
  K  K2  1  0.347101  0.668421  0.024331  1
  K  K3  1  0.333464  0.661857  0.508917  1
  K  K4  1  0.242715  0.250561  0.280513  1
  K  K5  1  0.757285  0.749439  0.780513  1
  K  K6  1  0.652899  0.331579  0.524331  1
  K  K7  1  0.666536  0.338143  0.008917  1
  O  O8  1  0.099355  0.744922  0.896707  1
  O  O9  1  0.077494  0.707100  0.583227  1
  O  O10  1  0.105865  0.534427  0.771401  1
  O  O11  1  0.129979  0.459847  0.273207  1
  O  O12  1  0.357237  0.863066  0.259747  1
  O  O13  1  0.417209  0.892124  0.762254  1
  O  O14  1  0.256381  0.364763  0.929570  1
  O  O15  1  0.256023  0.351736  0.617096  1
  O  O16  1  0.629442  0.935531  0.581604  1
  O  O17  1  0.458870  0.565147  0.765732  1
  O  O18  1  0.645975  0.926802  0.897443  1
  O  O19  1  0.551994  0.672882  0.281537  1
  O  O20  1  0.448006  0.327118  0.781537  1
  O  O21  1  0.354025  0.073198  0.397443  1
  O  O22  1  0.541130  0.434853  0.265732  1
  O  O23  1  0.370558  0.064468  0.081604  1
  O  O24  1  0.743977  0.648264  0.117096  1
  O  O25  1  0.743619  0.635237  0.429570  1
  O  O26  1  0.582791  0.107876  0.262254  1
  O  O27  1  0.642763  0.136934  0.759747  1
  O  O28  1  0.870021  0.540153  0.773207  1
  O  O29  1  0.894135  0.465573  0.271401  1
  O  O30  1  0.922506  0.292900  0.083227  1
  O  O31  1  0.900645  0.255078  0.396707  1
  S  S32  1  0.033639  0.626901  0.755536  1
  S  S33  1  0.588022  0.977586  0.754403  1
  S  S34  1  0.360667  0.403692  0.769689  1
  S  S35  1  0.639333  0.596308  0.269689  1
  S  S36  1  0.411978  0.022414  0.254403  1
  S  S37  1  0.966361  0.373099  0.255536  1
  Sn  Sn38  1  0.257130  0.986667  0.814325  1
  Sn  Sn39  1  0.021818  0.255231  0.815028  1
  Sn  Sn40  1  0.978182  0.744769  0.315028  1
  Sn  Sn41  1  0.742870  0.013333  0.314325  1
