# generated using pymatgen
data_GdScGe
_symmetry_space_group_name_H-M   'P 1'
_cell_length_a   4.26460119
_cell_length_b   4.26460119
_cell_length_c   8.42327556
_cell_angle_alpha   104.66362862
_cell_angle_beta   104.66362860
_cell_angle_gamma   90.00000010
_symmetry_Int_Tables_number   1
_chemical_formula_structural   GdScGe
_chemical_formula_sum   'Gd2 Sc2 Ge2'
_cell_volume   143.03928980
_cell_formula_units_Z   2
loop_
 _symmetry_equiv_pos_site_id
 _symmetry_equiv_pos_as_xyz
  1  'x, y, z'
loop_
 _atom_site_type_symbol
 _atom_site_label
 _atom_site_symmetry_multiplicity
 _atom_site_fract_x
 _atom_site_fract_y
 _atom_site_fract_z
 _atom_site_occupancy
  Sc  Sc0  1  0.000000  0.500000  0.000000  1
  Sc  Sc1  1  0.500000  0.000000  0.000000  1
  Ge  Ge2  1  0.125812  0.125812  0.251624  1
  Ge  Ge3  1  0.874188  0.874188  0.748376  1
  Gd  Gd4  1  0.677246  0.677246  0.354493  1
  Gd  Gd5  1  0.322754  0.322754  0.645507  1
