# generated using pymatgen
data_Hg3(BO3)2
_symmetry_space_group_name_H-M   'P 1'
_cell_length_a   7.09713114
_cell_length_b   7.09713114
_cell_length_c   7.09713115
_cell_angle_alpha   79.18854844
_cell_angle_beta   79.18854849
_cell_angle_gamma   79.18854839
_symmetry_Int_Tables_number   1
_chemical_formula_structural   Hg3(BO3)2
_chemical_formula_sum   'Hg6 B4 O12'
_cell_volume   340.56987495
_cell_formula_units_Z   2
loop_
 _symmetry_equiv_pos_site_id
 _symmetry_equiv_pos_as_xyz
  1  'x, y, z'
loop_
 _atom_site_type_symbol
 _atom_site_label
 _atom_site_symmetry_multiplicity
 _atom_site_fract_x
 _atom_site_fract_y
 _atom_site_fract_z
 _atom_site_occupancy
  B  B0  1  0.107652  0.107652  0.107652  1
  B  B1  1  0.892348  0.892348  0.892348  1
  B  B2  1  0.607652  0.607652  0.607652  1
  B  B3  1  0.392348  0.392348  0.392348  1
  O  O4  1  0.966996  0.715777  0.993448  1
  O  O5  1  0.715777  0.993448  0.966996  1
  O  O6  1  0.993448  0.966996  0.715777  1
  O  O7  1  0.784223  0.533004  0.506552  1
  O  O8  1  0.506552  0.784223  0.533004  1
  O  O9  1  0.533004  0.506552  0.784223  1
  O  O10  1  0.284223  0.006552  0.033004  1
  O  O11  1  0.033004  0.284223  0.006552  1
  O  O12  1  0.006552  0.033004  0.284223  1
  O  O13  1  0.493448  0.215777  0.466996  1
  O  O14  1  0.466996  0.493448  0.215777  1
  O  O15  1  0.215777  0.466996  0.493448  1
  Hg  Hg16  1  0.108346  0.750000  0.391654  1
  Hg  Hg17  1  0.750000  0.391654  0.108346  1
  Hg  Hg18  1  0.391654  0.108346  0.750000  1
  Hg  Hg19  1  0.891654  0.250000  0.608346  1
  Hg  Hg20  1  0.250000  0.608346  0.891654  1
  Hg  Hg21  1  0.608346  0.891654  0.250000  1
