# generated using pymatgen
data_Ca3TiAl2Si3O13F2
_symmetry_space_group_name_H-M   'P 1'
_cell_length_a   5.42390499
_cell_length_b   16.29652792
_cell_length_c   7.06792620
_cell_angle_alpha   104.72872241
_cell_angle_beta   104.63878297
_cell_angle_gamma   105.57465992
_symmetry_Int_Tables_number   1
_chemical_formula_structural   Ca3TiAl2Si3O13F2
_chemical_formula_sum   'Ca6 Ti2 Al4 Si6 O26 F4'
_cell_volume   546.38801225
_cell_formula_units_Z   2
loop_
 _symmetry_equiv_pos_site_id
 _symmetry_equiv_pos_as_xyz
  1  'x, y, z'
loop_
 _atom_site_type_symbol
 _atom_site_label
 _atom_site_symmetry_multiplicity
 _atom_site_fract_x
 _atom_site_fract_y
 _atom_site_fract_z
 _atom_site_occupancy
  Al  Al0  1  0.498234  0.830991  0.496583  1
  Al  Al1  1  0.498539  0.831799  0.997799  1
  Al  Al2  1  0.501766  0.502342  0.503417  1
  Al  Al3  1  0.501461  0.501534  0.002201  1
  Ca  Ca4  1  0.161007  0.941704  0.749123  1
  Ca  Ca5  1  0.164422  0.612991  0.748925  1
  Ca  Ca6  1  0.171490  0.279282  0.752985  1
  Ca  Ca7  1  0.835578  0.720343  0.251075  1
  Ca  Ca8  1  0.838993  0.391629  0.250877  1
  Ca  Ca9  1  0.828510  0.054052  0.247015  1
  F  F10  1  0.432835  0.854905  0.747724  1
  F  F11  1  0.435174  0.525233  0.753617  1
  F  F12  1  0.564826  0.808100  0.246383  1
  F  F13  1  0.567165  0.478428  0.252276  1
  O  O14  1  0.129388  0.753116  0.901727  1
  O  O15  1  0.196296  0.866394  0.385020  1
  O  O16  1  0.134428  0.423214  0.908461  1
  O  O17  1  0.260610  0.709846  0.405101  1
  O  O18  1  0.387939  0.931065  0.108535  1
  O  O19  1  0.199558  0.537400  0.390507  1
  O  O20  1  0.606949  0.731883  0.886475  1
  O  O21  1  0.739274  0.952710  0.587515  1
  O  O22  1  0.117675  0.081078  0.910330  1
  O  O23  1  0.260726  0.380624  0.412485  1
  O  O24  1  0.393051  0.601450  0.113525  1
  O  O25  1  0.186005  0.205864  0.384645  1
  O  O26  1  0.800442  0.795934  0.609493  1
  O  O27  1  0.612061  0.402269  0.891465  1
  O  O28  1  0.739390  0.623487  0.594899  1
  O  O29  1  0.424780  0.188962  0.748965  1
  O  O30  1  0.865572  0.910119  0.091539  1
  O  O31  1  0.252150  0.037662  0.402754  1
  O  O32  1  0.396151  0.274495  0.120449  1
  O  O33  1  0.803704  0.466939  0.614980  1
  O  O34  1  0.603849  0.058838  0.879551  1
  O  O35  1  0.747850  0.295671  0.597246  1
  O  O36  1  0.870612  0.580217  0.098273  1
  O  O37  1  0.575220  0.144372  0.251035  1
  O  O38  1  0.813995  0.127469  0.615355  1
  O  O39  1  0.882325  0.252256  0.089670  1
  Si  Si40  1  0.178995  0.933435  0.244099  1
  Si  Si41  1  0.186492  0.605221  0.250926  1
  Si  Si42  1  0.189203  0.277258  0.255868  1
  Si  Si43  1  0.813508  0.728112  0.749074  1
  Si  Si44  1  0.821005  0.399898  0.755901  1
  Si  Si45  1  0.810797  0.056076  0.744132  1
  Ti  Ti46  1  0.500000  0.166667  0.500000  1
  Ti  Ti47  1  0.500000  0.166667  0.000000  1
