# generated using pymatgen
data_Si2N2O
_symmetry_space_group_name_H-M   'P 1'
_cell_length_a   4.67561041
_cell_length_b   4.70777403
_cell_length_c   12.79627514
_cell_angle_alpha   90.08329471
_cell_angle_beta   90.00000000
_cell_angle_gamma   119.77425476
_symmetry_Int_Tables_number   1
_chemical_formula_structural   Si2N2O
_chemical_formula_sum   'Si12 N12 O6'
_cell_volume   244.48428303
_cell_formula_units_Z   6
loop_
 _symmetry_equiv_pos_site_id
 _symmetry_equiv_pos_as_xyz
  1  'x, y, z'
loop_
 _atom_site_type_symbol
 _atom_site_label
 _atom_site_symmetry_multiplicity
 _atom_site_fract_x
 _atom_site_fract_y
 _atom_site_fract_z
 _atom_site_occupancy
  N  N0  1  0.291171  0.297307  0.752162  1
  N  N1  1  0.980349  0.639747  0.417022  1
  N  N2  1  0.340602  0.360253  0.082978  1
  N  N3  1  0.993864  0.702693  0.747838  1
  N  N4  1  0.708829  0.702693  0.247838  1
  N  N5  1  0.006136  0.297307  0.252162  1
  N  N6  1  0.628564  0.675698  0.585247  1
  N  N7  1  0.952866  0.324302  0.914753  1
  N  N8  1  0.371436  0.324302  0.414753  1
  N  N9  1  0.047134  0.675698  0.085247  1
  N  N10  1  0.659398  0.639747  0.917022  1
  N  N11  1  0.019651  0.360253  0.582978  1
  O  O12  1  0.667069  0.011986  0.418173  1
  O  O13  1  0.655083  0.988014  0.081827  1
  O  O14  1  0.332931  0.988014  0.581827  1
  O  O15  1  0.667798  0.000000  0.750000  1
  O  O16  1  0.332202  0.000000  0.250000  1
  O  O17  1  0.344917  0.011986  0.918173  1
  Si  Si18  1  0.671836  0.356830  0.519917  1
  Si  Si19  1  0.315006  0.643170  0.980083  1
  Si  Si20  1  0.328164  0.643170  0.480083  1
  Si  Si21  1  0.684994  0.356830  0.019917  1
  Si  Si22  1  0.668380  0.355125  0.813619  1
  Si  Si23  1  0.313255  0.644875  0.686381  1
  Si  Si24  1  0.331620  0.644875  0.186381  1
  Si  Si25  1  0.686745  0.355125  0.313619  1
  Si  Si26  1  0.996377  0.997687  0.852879  1
  Si  Si27  1  0.998690  0.002313  0.647121  1
  Si  Si28  1  0.003623  0.002313  0.147121  1
  Si  Si29  1  0.001310  0.997687  0.352879  1
