# generated using pymatgen
data_PrPO4
_symmetry_space_group_name_H-M   'P 1'
_cell_length_a   6.48784102
_cell_length_b   6.88805511
_cell_length_c   7.08696247
_cell_angle_alpha   90.00000000
_cell_angle_beta   90.00000000
_cell_angle_gamma   103.84433380
_symmetry_Int_Tables_number   1
_chemical_formula_structural   PrPO4
_chemical_formula_sum   'Pr4 P4 O16'
_cell_volume   307.50596964
_cell_formula_units_Z   4
loop_
 _symmetry_equiv_pos_site_id
 _symmetry_equiv_pos_as_xyz
  1  'x, y, z'
loop_
 _atom_site_type_symbol
 _atom_site_label
 _atom_site_symmetry_multiplicity
 _atom_site_fract_x
 _atom_site_fract_y
 _atom_site_fract_z
 _atom_site_occupancy
  O  O0  1  0.208896  0.626023  0.288801  1
  O  O1  1  0.291104  0.873977  0.788801  1
  O  O2  1  0.791104  0.373977  0.711199  1
  O  O3  1  0.708896  0.126023  0.211199  1
  O  O4  1  0.306752  0.970033  0.397841  1
  O  O5  1  0.193248  0.529967  0.897841  1
  O  O6  1  0.693248  0.029967  0.602159  1
  O  O7  1  0.806752  0.470033  0.102159  1
  O  O8  1  0.438905  0.249434  0.005083  1
  O  O9  1  0.061095  0.250566  0.505083  1
  O  O10  1  0.561095  0.750566  0.994917  1
  O  O11  1  0.938905  0.749434  0.494917  1
  O  O12  1  0.498226  0.381138  0.330294  1
  O  O13  1  0.001774  0.118862  0.830294  1
  O  O14  1  0.501774  0.618862  0.669706  1
  O  O15  1  0.998226  0.881138  0.169706  1
  P  P16  1  0.110830  0.802950  0.338974  1
  P  P17  1  0.389170  0.697050  0.838974  1
  P  P18  1  0.889170  0.197050  0.661026  1
  P  P19  1  0.610830  0.302950  0.161026  1
  Pr  Pr20  1  0.597779  0.784412  0.342530  1
  Pr  Pr21  1  0.902221  0.715588  0.842530  1
  Pr  Pr22  1  0.402221  0.215588  0.657470  1
  Pr  Pr23  1  0.097779  0.284412  0.157470  1
