# generated using pymatgen
data_Na3Sr7Ta3Ti7O30
_symmetry_space_group_name_H-M   'P 1'
_cell_length_a   3.95631697
_cell_length_b   7.94250673
_cell_length_c   19.81127525
_cell_angle_alpha   90.05299630
_cell_angle_beta   90.00000000
_cell_angle_gamma   90.00000000
_symmetry_Int_Tables_number   1
_chemical_formula_structural   Na3Sr7Ta3Ti7O30
_chemical_formula_sum   'Na3 Sr7 Ta3 Ti7 O30'
_cell_volume   622.53090500
_cell_formula_units_Z   1
loop_
 _symmetry_equiv_pos_site_id
 _symmetry_equiv_pos_as_xyz
  1  'x, y, z'
loop_
 _atom_site_type_symbol
 _atom_site_label
 _atom_site_symmetry_multiplicity
 _atom_site_fract_x
 _atom_site_fract_y
 _atom_site_fract_z
 _atom_site_occupancy
  Na  Na0  1  0.000000  0.506105  0.008957  1
  Na  Na1  1  0.000000  0.479645  0.791401  1
  Na  Na2  1  0.000000  0.019703  0.793265  1
  O  O3  1  0.000000  0.243776  0.103035  1
  O  O4  1  0.000000  0.244162  0.902733  1
  O  O5  1  0.000000  0.753651  0.903218  1
  O  O6  1  0.500000  0.246408  0.201820  1
  O  O7  1  0.500000  0.496381  0.103284  1
  O  O8  1  0.500000  0.755256  0.001743  1
  O  O9  1  0.500000  0.994233  0.102844  1
  O  O10  1  0.500000  0.239302  0.001932  1
  O  O11  1  0.500000  0.495413  0.301513  1
  O  O12  1  0.500000  0.744618  0.201734  1
  O  O13  1  0.500000  0.248058  0.599981  1
  O  O14  1  0.500000  0.495975  0.500152  1
  O  O15  1  0.500000  0.746453  0.400804  1
  O  O16  1  0.500000  0.995084  0.301142  1
  O  O17  1  0.500000  0.245797  0.400935  1
  O  O18  1  0.500000  0.499162  0.697747  1
  O  O19  1  0.500000  0.747703  0.599909  1
  O  O20  1  0.500000  0.499130  0.902695  1
  O  O21  1  0.500000  0.748305  0.800829  1
  O  O22  1  0.500000  -0.000993  0.697780  1
  O  O23  1  0.500000  0.249679  0.800356  1
  O  O24  1  0.500000  -0.003602  0.500303  1
  O  O25  1  0.500000  0.999087  0.903053  1
  O  O26  1  0.000000  0.245592  0.301547  1
  O  O27  1  0.000000  0.246945  0.500364  1
  O  O28  1  0.000000  0.748859  0.102851  1
  O  O29  1  0.000000  0.249517  0.697347  1
  O  O30  1  0.000000  0.745577  0.301340  1
  O  O31  1  0.000000  0.746871  0.500218  1
  O  O32  1  0.000000  0.749129  0.697805  1
  Sr  Sr33  1  0.000000  0.004946  0.005728  1
  Sr  Sr34  1  0.000000  0.506108  0.198366  1
  Sr  Sr35  1  0.000000  0.504680  0.397792  1
  Sr  Sr36  1  0.000000  0.007852  0.198824  1
  Sr  Sr37  1  0.000000  0.004190  0.397880  1
  Sr  Sr38  1  0.000000  0.494614  0.596308  1
  Sr  Sr39  1  0.000000  0.008042  0.596447  1
  Ta  Ta40  1  0.500000  0.750217  0.700885  1
  Ta  Ta41  1  0.500000  0.252164  0.897381  1
  Ta  Ta42  1  0.500000  0.747522  0.900928  1
  Ti  Ti43  1  0.500000  0.263613  0.097934  1
  Ti  Ti44  1  0.500000  0.757989  0.298287  1
  Ti  Ti45  1  0.500000  0.258255  0.297291  1
  Ti  Ti46  1  0.500000  0.756779  0.100396  1
  Ti  Ti47  1  0.500000  0.255767  0.496462  1
  Ti  Ti48  1  0.500000  0.250381  0.697293  1
  Ti  Ti49  1  0.500000  0.755899  0.497159  1
