# generated using pymatgen
data_PdSe2O5
_symmetry_space_group_name_H-M   'P 1'
_cell_length_a   5.89836218
_cell_length_b   6.99528064
_cell_length_c   7.48924249
_cell_angle_alpha   105.29369064
_cell_angle_beta   90.00000000
_cell_angle_gamma   114.93537944
_symmetry_Int_Tables_number   1
_chemical_formula_structural   PdSe2O5
_chemical_formula_sum   'Pd2 Se4 O10'
_cell_volume   268.09012658
_cell_formula_units_Z   2
loop_
 _symmetry_equiv_pos_site_id
 _symmetry_equiv_pos_as_xyz
  1  'x, y, z'
loop_
 _atom_site_type_symbol
 _atom_site_label
 _atom_site_symmetry_multiplicity
 _atom_site_fract_x
 _atom_site_fract_y
 _atom_site_fract_z
 _atom_site_occupancy
  O  O0  1  0.657531  0.749865  0.372727  1
  O  O1  1  0.907666  0.250135  0.127273  1
  O  O2  1  0.342469  0.250135  0.627273  1
  O  O3  1  0.092334  0.749865  0.872727  1
  O  O4  1  0.469143  0.000000  0.250000  1
  O  O5  1  0.530857  0.000000  0.750000  1
  O  O6  1  0.095408  0.750420  0.502553  1
  O  O7  1  0.344987  0.249580  0.997447  1
  O  O8  1  0.904592  0.249580  0.497447  1
  O  O9  1  0.655013  0.750420  0.002553  1
  Se  Se10  1  0.253780  0.731694  0.684637  1
  Se  Se11  1  0.522086  0.268306  0.815363  1
  Se  Se12  1  0.477914  0.731694  0.184637  1
  Se  Se13  1  0.746220  0.268306  0.315363  1
  Pd  Pd14  1  0.000000  0.000000  0.500000  1
  Pd  Pd15  1  0.000000  0.000000  0.000000  1
