# generated using pymatgen
data_Ba3Na2Ti3Nb2O15
_symmetry_space_group_name_H-M   'P 1'
_cell_length_a   4.02806574
_cell_length_b   20.11868768
_cell_length_c   5.68598658
_cell_angle_alpha   45.04466401
_cell_angle_beta   90.00000000
_cell_angle_gamma   90.00000000
_symmetry_Int_Tables_number   1
_chemical_formula_structural   Ba3Na2Ti3Nb2O15
_chemical_formula_sum   'Ba3 Na2 Ti3 Nb2 O15'
_cell_volume   326.08086537
_cell_formula_units_Z   1
loop_
 _symmetry_equiv_pos_site_id
 _symmetry_equiv_pos_as_xyz
  1  'x, y, z'
loop_
 _atom_site_type_symbol
 _atom_site_label
 _atom_site_symmetry_multiplicity
 _atom_site_fract_x
 _atom_site_fract_y
 _atom_site_fract_z
 _atom_site_occupancy
  Ba  Ba0  1  0.000000  0.001818  0.995456  1
  Ba  Ba1  1  0.000000  0.200000  0.000000  1
  Ba  Ba2  1  0.000000  0.398182  0.004544  1
  Na  Na3  1  0.000000  0.597346  0.006636  1
  Na  Na4  1  0.000000  0.802654  0.993364  1
  Nb  Nb5  1  0.500000  0.601237  0.496908  1
  Nb  Nb6  1  0.500000  0.798763  0.503092  1
  O  O7  1  0.500000  0.099572  1.000530  1
  O  O8  1  0.500000  0.300428  -0.000530  1
  O  O9  1  0.500000  0.099572  0.501612  1
  O  O10  1  0.500000  0.500062  -0.000385  1
  O  O11  1  0.500000  0.700000  0.000000  1
  O  O12  1  0.500000  0.300428  0.498388  1
  O  O13  1  0.500000  0.500062  0.500073  1
  O  O14  1  0.500000  0.899938  1.000385  1
  O  O15  1  0.500000  0.700000  0.500000  1
  O  O16  1  0.500000  0.899938  0.499927  1
  O  O17  1  0.000000  0.200000  0.500000  1
  O  O18  1  0.000000  0.401321  0.496698  1
  O  O19  1  0.000000  0.601186  0.497034  1
  O  O20  1  0.000000  0.798814  0.502966  1
  O  O21  1  0.000000  0.998679  0.503302  1
  Ti  Ti22  1  0.500000  0.200000  0.500000  1
  Ti  Ti23  1  0.500000  0.402086  0.494784  1
  Ti  Ti24  1  0.500000  0.997914  0.505216  1
