# generated using pymatgen
data_Na8BeAl4Si7(ClO12)2
_symmetry_space_group_name_H-M   'P 1'
_cell_length_a   15.59329720
_cell_length_b   8.98611435
_cell_length_c   8.98611453
_cell_angle_alpha   89.99999727
_cell_angle_beta   54.81063438
_cell_angle_gamma   54.81063355
_symmetry_Int_Tables_number   1
_chemical_formula_structural   Na8BeAl4Si7(ClO12)2
_chemical_formula_sum   'Na8 Be1 Al4 Si7 Cl2 O24'
_cell_volume   729.66415396
_cell_formula_units_Z   1
loop_
 _symmetry_equiv_pos_site_id
 _symmetry_equiv_pos_as_xyz
  1  'x, y, z'
loop_
 _atom_site_type_symbol
 _atom_site_label
 _atom_site_symmetry_multiplicity
 _atom_site_fract_x
 _atom_site_fract_y
 _atom_site_fract_z
 _atom_site_occupancy
  Al  Al0  1  0.000336  0.499538  0.747571  1
  Al  Al1  1  0.499664  0.252429  0.500210  1
  Al  Al2  1  0.499664  0.748242  0.500462  1
  Al  Al3  1  0.000336  0.499790  0.251758  1
  Be  Be4  1  0.750000  0.250000  0.750000  1
  Cl  Cl5  1  0.003841  0.996159  0.996159  1
  Cl  Cl6  1  0.496159  0.003841  0.003841  1
  Na  Na7  1  0.316279  0.005181  0.997181  1
  Na  Na8  1  0.183721  0.002819  0.637738  1
  Na  Na9  1  0.183721  0.629738  0.994819  1
  Na  Na10  1  0.316279  0.362262  0.370262  1
  Na  Na11  1  0.810940  0.009384  0.986675  1
  Na  Na12  1  0.689060  0.013325  0.631264  1
  Na  Na13  1  0.689060  0.608555  0.990616  1
  Na  Na14  1  0.810940  0.368736  0.391445  1
  O  O15  1  0.153695  0.296591  0.991305  1
  O  O16  1  0.148354  0.995358  0.307822  1
  O  O17  1  0.050821  0.290580  0.594266  1
  O  O18  1  0.050821  0.607777  0.304091  1
  O  O19  1  0.153695  0.396020  0.701306  1
  O  O20  1  0.148354  0.707934  0.395471  1
  O  O21  1  0.346305  0.008695  0.603980  1
  O  O22  1  0.351646  0.604529  0.004642  1
  O  O23  1  0.351646  0.692178  0.292066  1
  O  O24  1  0.346305  0.298694  0.703409  1
  O  O25  1  0.449179  0.405734  0.392223  1
  O  O26  1  0.645685  0.307237  0.996463  1
  O  O27  1  0.653857  0.992318  0.297090  1
  O  O28  1  0.540124  0.316778  0.618744  1
  O  O29  1  0.540124  0.602974  0.301009  1
  O  O30  1  0.449179  0.695909  0.709420  1
  O  O31  1  0.645685  0.401392  0.712167  1
  O  O32  1  0.653857  0.699969  0.395197  1
  O  O33  1  0.854315  0.003537  0.598608  1
  O  O34  1  0.846143  0.604804  0.007682  1
  O  O35  1  0.854315  0.287833  0.692763  1
  O  O36  1  0.846143  0.702910  0.300031  1
  O  O37  1  0.959876  0.381256  0.397026  1
  O  O38  1  0.959876  0.698991  0.683222  1
  Si  Si39  1  0.250000  0.750000  0.250000  1
  Si  Si40  1  0.250000  0.250000  0.750000  1
  Si  Si41  1  0.504814  0.491197  0.236151  1
  Si  Si42  1  0.504814  0.499175  0.754221  1
  Si  Si43  1  0.750000  0.750000  0.250000  1
  Si  Si44  1  0.995186  0.245779  0.508803  1
  Si  Si45  1  0.995186  0.763849  0.500825  1
