# generated using pymatgen
data_TaBO4
_symmetry_space_group_name_H-M   'P 1'
_cell_length_a   5.23162832
_cell_length_b   5.23162831
_cell_length_c   5.23162831
_cell_angle_alpha   106.20071236
_cell_angle_beta   106.20071239
_cell_angle_gamma   116.23116976
_symmetry_Int_Tables_number   1
_chemical_formula_structural   TaBO4
_chemical_formula_sum   'Ta2 B2 O8'
_cell_volume   109.06327692
_cell_formula_units_Z   2
loop_
 _symmetry_equiv_pos_site_id
 _symmetry_equiv_pos_as_xyz
  1  'x, y, z'
loop_
 _atom_site_type_symbol
 _atom_site_label
 _atom_site_symmetry_multiplicity
 _atom_site_fract_x
 _atom_site_fract_y
 _atom_site_fract_z
 _atom_site_occupancy
  B  B0  1  0.625000  0.375000  0.250000  1
  B  B1  1  0.375000  0.625000  0.750000  1
  O  O2  1  0.800787  0.372884  0.072097  1
  O  O3  1  0.728690  0.800787  0.927903  1
  O  O4  1  0.271310  0.199213  0.072097  1
  O  O5  1  0.199213  0.627116  0.927903  1
  O  O6  1  0.199213  0.271310  0.572097  1
  O  O7  1  0.627116  0.199213  0.427903  1
  O  O8  1  0.800787  0.728690  0.427903  1
  O  O9  1  0.372884  0.800787  0.572097  1
  Ta  Ta10  1  0.125000  0.875000  0.250000  1
  Ta  Ta11  1  0.875000  0.125000  0.750000  1
