# generated using pymatgen
data_CaPrMn2O6
_symmetry_space_group_name_H-M   'P 1'
_cell_length_a   5.45382789
_cell_length_b   5.50013838
_cell_length_c   7.72145010
_cell_angle_alpha   90.00062906
_cell_angle_beta   89.99947594
_cell_angle_gamma   90.00009301
_symmetry_Int_Tables_number   1
_chemical_formula_structural   CaPrMn2O6
_chemical_formula_sum   'Ca2 Pr2 Mn4 O12'
_cell_volume   231.61885686
_cell_formula_units_Z   2
loop_
 _symmetry_equiv_pos_site_id
 _symmetry_equiv_pos_as_xyz
  1  'x, y, z'
loop_
 _atom_site_type_symbol
 _atom_site_label
 _atom_site_symmetry_multiplicity
 _atom_site_fract_x
 _atom_site_fract_y
 _atom_site_fract_z
 _atom_site_occupancy
  Ca  Ca0  1  0.490107  0.458900  0.750005  1
  Ca  Ca1  1  0.990100  0.041100  0.250001  1
  Pr  Pr2  1  0.008957  0.963579  0.750004  1
  Pr  Pr3  1  0.508957  0.536431  0.249997  1
  Mn  Mn4  1  0.000317  0.498743  0.999601  1
  Mn  Mn5  1  0.000319  0.498711  0.500355  1
  Mn  Mn6  1  0.500318  0.001246  0.499631  1
  Mn  Mn7  1  0.500323  0.001282  0.000385  1
  O  O8  1  0.072273  0.483148  0.249995  1
  O  O9  1  0.218969  0.218610  0.960948  1
  O  O10  1  0.218963  0.218618  0.539055  1
  O  O11  1  0.284086  0.716208  0.541712  1
  O  O12  1  0.284106  0.716230  0.958293  1
  O  O13  1  0.421899  0.985586  0.249995  1
  O  O14  1  0.572269  0.016861  0.750015  1
  O  O15  1  0.718959  0.281390  0.039063  1
  O  O16  1  0.718973  0.281390  0.460950  1
  O  O17  1  0.784094  0.783786  0.041714  1
  O  O18  1  0.784110  0.783766  0.458295  1
  O  O19  1  0.921899  0.514415  0.749986  1
