# generated using pymatgen
data_K2TbF6
_symmetry_space_group_name_H-M   'P 1'
_cell_length_a   6.72964474
_cell_length_b   6.72964474
_cell_length_c   7.42427721
_cell_angle_alpha   90.32519155
_cell_angle_beta   90.32519148
_cell_angle_gamma   117.35504414
_symmetry_Int_Tables_number   1
_chemical_formula_structural   K2TbF6
_chemical_formula_sum   'K4 Tb2 F12'
_cell_volume   298.61505603
_cell_formula_units_Z   2
loop_
 _symmetry_equiv_pos_site_id
 _symmetry_equiv_pos_as_xyz
  1  'x, y, z'
loop_
 _atom_site_type_symbol
 _atom_site_label
 _atom_site_symmetry_multiplicity
 _atom_site_fract_x
 _atom_site_fract_y
 _atom_site_fract_z
 _atom_site_occupancy
  F  F0  1  0.150602  0.938654  0.956445  1
  F  F1  1  0.061346  0.849398  0.543555  1
  F  F2  1  0.849398  0.061346  0.043555  1
  F  F3  1  0.938654  0.150602  0.456445  1
  F  F4  1  0.988793  0.601779  0.224197  1
  F  F5  1  0.398221  0.011207  0.275803  1
  F  F6  1  0.707072  0.676859  0.790615  1
  F  F7  1  0.323141  0.292928  0.709385  1
  F  F8  1  0.292928  0.323141  0.209385  1
  F  F9  1  0.676859  0.707072  0.290615  1
  F  F10  1  0.601779  0.988793  0.724197  1
  F  F11  1  0.011207  0.398221  0.775803  1
  K  K12  1  0.636621  0.313736  0.998522  1
  K  K13  1  0.686264  0.363379  0.501478  1
  K  K14  1  0.313736  0.636621  0.498522  1
  K  K15  1  0.363379  0.686264  0.001478  1
  Tb  Tb16  1  0.961580  0.038420  0.750000  1
  Tb  Tb17  1  0.038420  0.961580  0.250000  1
