# generated using pymatgen
data_Ca5P3HO13
_symmetry_space_group_name_H-M   'P 1'
_cell_length_a   6.91907000
_cell_length_b   9.54534453
_cell_length_c   9.54534453
_cell_angle_alpha   120.00000365
_cell_angle_beta   90.00000000
_cell_angle_gamma   90.00000000
_symmetry_Int_Tables_number   1
_chemical_formula_structural   Ca5P3HO13
_chemical_formula_sum   'Ca10 P6 H2 O26'
_cell_volume   545.96091971
_cell_formula_units_Z   2
loop_
 _symmetry_equiv_pos_site_id
 _symmetry_equiv_pos_as_xyz
  1  'x, y, z'
loop_
 _atom_site_type_symbol
 _atom_site_label
 _atom_site_symmetry_multiplicity
 _atom_site_fract_x
 _atom_site_fract_y
 _atom_site_fract_z
 _atom_site_occupancy
  Ca  Ca0  1  0.749102  0.750518  0.748724  1
  Ca  Ca1  1  0.749102  0.998206  0.249482  1
  Ca  Ca2  1  0.998418  0.666667  0.333334  1
  Ca  Ca3  1  0.500944  0.666667  0.333334  1
  Ca  Ca4  1  0.249102  0.748724  0.998206  1
  Ca  Ca5  1  0.749102  0.251276  0.001794  1
  Ca  Ca6  1  0.498418  0.333333  0.666666  1
  Ca  Ca7  1  0.000944  0.333333  0.666666  1
  Ca  Ca8  1  0.249102  0.001794  0.750518  1
  Ca  Ca9  1  0.249102  0.249482  0.251276  1
  P  P10  1  0.247958  0.969671  0.368409  1
  P  P11  1  0.247958  0.631591  0.601262  1
  P  P12  1  0.747958  0.601262  0.969671  1
  P  P13  1  0.247958  0.398738  0.030329  1
  P  P14  1  0.747958  0.368409  0.398738  1
  P  P15  1  0.747958  0.030329  0.631591  1
  H  H16  1  0.570847  0.000000  0.000000  1
  H  H17  1  0.070847  0.000000  0.000000  1
  O  O18  1  0.065283  0.740458  0.652082  1
  O  O19  1  0.426948  0.744986  0.662198  1
  O  O20  1  0.746598  0.844723  0.514739  1
  O  O21  1  0.253251  0.876343  0.464136  1
  O  O22  1  0.426948  0.917211  0.255014  1
  O  O23  1  0.065283  0.911624  0.259542  1
  O  O24  1  0.253251  0.535864  0.412207  1
  O  O25  1  0.746598  0.670015  0.155277  1
  O  O26  1  0.746598  0.485261  0.329985  1
  O  O27  1  0.253251  0.587793  0.123657  1
  O  O28  1  0.565283  0.652082  0.911624  1
  O  O29  1  0.926948  0.662198  0.917211  1
  O  O30  1  0.065283  0.347918  0.088376  1
  O  O31  1  0.426948  0.337802  0.082789  1
  O  O32  1  0.753251  0.412207  0.876343  1
  O  O33  1  0.246598  0.514739  0.670015  1
  O  O34  1  0.246598  0.329985  0.844723  1
  O  O35  1  0.753251  0.464136  0.587793  1
  O  O36  1  0.926948  0.082789  0.744986  1
  O  O37  1  0.565283  0.088376  0.740458  1
  O  O38  1  0.753251  0.123657  0.535864  1
  O  O39  1  0.246598  0.155277  0.485261  1
  O  O40  1  0.565283  0.259542  0.347918  1
  O  O41  1  0.926948  0.255014  0.337802  1
  O  O42  1  0.712070  0.000000  0.000000  1
  O  O43  1  0.212070  0.000000  0.000000  1
