# generated using pymatgen
data_KGaO2
_symmetry_space_group_name_H-M   'P 1'
_cell_length_a   5.61039925
_cell_length_b   11.25135922
_cell_length_c   15.95815986
_cell_angle_alpha   90.00000000
_cell_angle_beta   90.00000000
_cell_angle_gamma   90.00000000
_symmetry_Int_Tables_number   1
_chemical_formula_structural   KGaO2
_chemical_formula_sum   'K16 Ga16 O32'
_cell_volume   1007.35273444
_cell_formula_units_Z   16
loop_
 _symmetry_equiv_pos_site_id
 _symmetry_equiv_pos_as_xyz
  1  'x, y, z'
loop_
 _atom_site_type_symbol
 _atom_site_label
 _atom_site_symmetry_multiplicity
 _atom_site_fract_x
 _atom_site_fract_y
 _atom_site_fract_z
 _atom_site_occupancy
  O  O0  1  0.445811  0.980647  0.286150  1
  O  O1  1  0.945811  0.519353  0.713851  1
  O  O2  1  0.554189  0.480647  0.213850  1
  O  O3  1  0.054189  0.019353  0.786149  1
  O  O4  1  0.554189  0.019353  0.713851  1
  O  O5  1  0.054189  0.480647  0.286150  1
  O  O6  1  0.445811  0.519353  0.786149  1
  O  O7  1  0.945811  0.980647  0.213850  1
  O  O8  1  0.839196  0.165468  0.343242  1
  O  O9  1  0.339196  0.334532  0.656758  1
  O  O10  1  0.160804  0.665468  0.156758  1
  O  O11  1  0.660804  0.834532  0.843242  1
  O  O12  1  0.160804  0.834532  0.656758  1
  O  O13  1  0.660804  0.665468  0.343242  1
  O  O14  1  0.839196  0.334532  0.843242  1
  O  O15  1  0.560916  0.305513  0.010098  1
  O  O16  1  0.645235  0.406023  0.397658  1
  O  O17  1  0.145235  0.093977  0.602342  1
  O  O18  1  0.354765  0.906023  0.102342  1
  O  O19  1  0.854765  0.593977  0.897658  1
  O  O20  1  0.354765  0.593977  0.602342  1
  O  O21  1  0.854765  0.906023  0.397658  1
  O  O22  1  0.645235  0.093977  0.897658  1
  O  O23  1  0.145235  0.406023  0.102342  1
  O  O24  1  0.060916  0.305513  0.489902  1
  O  O25  1  0.560916  0.194487  0.510098  1
  O  O26  1  0.939084  0.805513  0.010098  1
  O  O27  1  0.439084  0.694487  0.989902  1
  O  O28  1  0.939084  0.694487  0.510098  1
  O  O29  1  0.439084  0.805513  0.489902  1
  O  O30  1  0.060916  0.194487  0.989902  1
  O  O31  1  0.339196  0.165468  0.156758  1
  K  K32  1  0.293751  0.266342  0.316119  1
  K  K33  1  0.793751  0.233658  0.683881  1
  K  K34  1  0.706249  0.766342  0.183881  1
  K  K35  1  0.206249  0.733658  0.816119  1
  K  K36  1  0.706249  0.733658  0.683881  1
  K  K37  1  0.206249  0.766342  0.316119  1
  K  K38  1  0.293751  0.233658  0.816119  1
  K  K39  1  0.793751  0.266342  0.183881  1
  K  K40  1  0.257091  0.013870  0.439311  1
  K  K41  1  0.757091  0.486130  0.560689  1
  K  K42  1  0.742909  0.513870  0.060689  1
  K  K43  1  0.242909  0.986130  0.939311  1
  K  K44  1  0.742909  0.986130  0.560689  1
  K  K45  1  0.242909  0.513870  0.439311  1
  K  K46  1  0.257091  0.486130  0.939311  1
  K  K47  1  0.757091  0.013870  0.060689  1
  Ga  Ga48  1  0.777773  0.262538  0.435493  1
  Ga  Ga49  1  0.277773  0.237462  0.564507  1
  Ga  Ga50  1  0.222227  0.762538  0.064507  1
  Ga  Ga51  1  0.722227  0.737462  0.935493  1
  Ga  Ga52  1  0.222227  0.737462  0.564507  1
  Ga  Ga53  1  0.722227  0.762538  0.435493  1
  Ga  Ga54  1  0.777773  0.237462  0.935493  1
  Ga  Ga55  1  0.277773  0.262538  0.064507  1
  Ga  Ga56  1  0.766681  0.009344  0.310982  1
  Ga  Ga57  1  0.266681  0.490656  0.689017  1
  Ga  Ga58  1  0.233319  0.509344  0.189018  1
  Ga  Ga59  1  0.733319  0.990656  0.810983  1
  Ga  Ga60  1  0.233319  0.990656  0.689017  1
  Ga  Ga61  1  0.733319  0.509344  0.310982  1
  Ga  Ga62  1  0.766681  0.490656  0.810983  1
  Ga  Ga63  1  0.266681  0.009344  0.189018  1
