# generated using pymatgen
data_Cd(CN)2
_symmetry_space_group_name_H-M   'P 1'
_cell_length_a   6.46263051
_cell_length_b   6.46263051
_cell_length_c   6.46263051
_cell_angle_alpha   90.00000000
_cell_angle_beta   90.00000000
_cell_angle_gamma   90.00000000
_symmetry_Int_Tables_number   1
_chemical_formula_structural   Cd(CN)2
_chemical_formula_sum   'Cd2 C4 N4'
_cell_volume   269.91559629
_cell_formula_units_Z   2
loop_
 _symmetry_equiv_pos_site_id
 _symmetry_equiv_pos_as_xyz
  1  'x, y, z'
loop_
 _atom_site_type_symbol
 _atom_site_label
 _atom_site_symmetry_multiplicity
 _atom_site_fract_x
 _atom_site_fract_y
 _atom_site_fract_z
 _atom_site_occupancy
  C  C0  1  0.199700  0.800300  0.800300  1
  C  C1  1  0.800300  0.800300  0.199700  1
  C  C2  1  0.199700  0.199700  0.199700  1
  C  C3  1  0.800300  0.199700  0.800300  1
  N  N4  1  0.696008  0.696008  0.303992  1
  N  N5  1  0.303992  0.696008  0.696008  1
  N  N6  1  0.303992  0.303992  0.303992  1
  N  N7  1  0.696008  0.303992  0.696008  1
  Cd  Cd8  1  0.500000  0.500000  0.500000  1
  Cd  Cd9  1  0.000000  0.000000  0.000000  1
