# generated using pymatgen
data_Rb2Mn3Se4
_symmetry_space_group_name_H-M   'P 1'
_cell_length_a   6.26196853
_cell_length_b   9.85437889
_cell_length_c   9.85437888
_cell_angle_alpha   74.80663800
_cell_angle_beta   71.47459120
_cell_angle_gamma   71.47459117
_symmetry_Int_Tables_number   1
_chemical_formula_structural   Rb2Mn3Se4
_chemical_formula_sum   'Rb4 Mn6 Se8'
_cell_volume   537.85395216
_cell_formula_units_Z   2
loop_
 _symmetry_equiv_pos_site_id
 _symmetry_equiv_pos_as_xyz
  1  'x, y, z'
loop_
 _atom_site_type_symbol
 _atom_site_label
 _atom_site_symmetry_multiplicity
 _atom_site_fract_x
 _atom_site_fract_y
 _atom_site_fract_z
 _atom_site_occupancy
  Mn  Mn0  1  0.250000  0.521747  0.978253  1
  Mn  Mn1  1  0.250000  0.978253  0.521747  1
  Mn  Mn2  1  0.750000  0.478253  0.021747  1
  Mn  Mn3  1  0.750000  0.750000  0.750000  1
  Mn  Mn4  1  0.250000  0.250000  0.250000  1
  Mn  Mn5  1  0.750000  0.021747  0.478253  1
  Se  Se6  1  0.368081  0.219851  0.485922  1
  Se  Se7  1  0.573854  0.280149  0.014078  1
  Se  Se8  1  0.131919  0.014078  0.280149  1
  Se  Se9  1  0.926146  0.485922  0.219851  1
  Se  Se10  1  0.631919  0.780149  0.514078  1
  Se  Se11  1  0.426146  0.719851  0.985922  1
  Se  Se12  1  0.868081  0.985922  0.719851  1
  Se  Se13  1  0.073854  0.514078  0.780149  1
  Rb  Rb14  1  0.236845  0.122162  0.877838  1
  Rb  Rb15  1  0.736845  0.377838  0.622162  1
  Rb  Rb16  1  0.263155  0.622162  0.377838  1
  Rb  Rb17  1  0.763155  0.877838  0.122162  1
