# generated using pymatgen
data_Y3(AlNi3)2
_symmetry_space_group_name_H-M   'P 1'
_cell_length_a   7.72975639
_cell_length_b   7.72975640
_cell_length_c   7.72975639
_cell_angle_alpha   109.47122059
_cell_angle_beta   109.47122060
_cell_angle_gamma   109.47122067
_symmetry_Int_Tables_number   1
_chemical_formula_structural   Y3(AlNi3)2
_chemical_formula_sum   'Y6 Al4 Ni12'
_cell_volume   355.52940903
_cell_formula_units_Z   2
loop_
 _symmetry_equiv_pos_site_id
 _symmetry_equiv_pos_as_xyz
  1  'x, y, z'
loop_
 _atom_site_type_symbol
 _atom_site_label
 _atom_site_symmetry_multiplicity
 _atom_site_fract_x
 _atom_site_fract_y
 _atom_site_fract_z
 _atom_site_occupancy
  Al  Al0  1  0.000000  0.000000  0.500000  1
  Al  Al1  1  0.000000  0.500000  0.000000  1
  Al  Al2  1  0.500000  0.000000  0.000000  1
  Al  Al3  1  0.500000  0.500000  0.500000  1
  Ni  Ni4  1  0.665913  0.665913  0.331825  1
  Ni  Ni5  1  0.000000  0.334087  0.665913  1
  Ni  Ni6  1  0.000000  0.665913  0.334087  1
  Ni  Ni7  1  0.331825  0.665913  0.665913  1
  Ni  Ni8  1  0.665913  0.000000  0.334087  1
  Ni  Ni9  1  0.665913  0.334087  0.000000  1
  Ni  Ni10  1  0.665913  0.331825  0.665913  1
  Ni  Ni11  1  0.668175  0.334087  0.334087  1
  Ni  Ni12  1  0.334087  0.000000  0.665913  1
  Ni  Ni13  1  0.334087  0.334087  0.668175  1
  Ni  Ni14  1  0.334087  0.668175  0.334087  1
  Ni  Ni15  1  0.334087  0.665913  0.000000  1
  Y  Y16  1  0.292133  0.292133  0.000000  1
  Y  Y17  1  0.000000  0.707867  0.707867  1
  Y  Y18  1  0.707867  0.707867  0.000000  1
  Y  Y19  1  0.707867  0.000000  0.707867  1
  Y  Y20  1  0.000000  0.292133  0.292133  1
  Y  Y21  1  0.292133  0.000000  0.292133  1
