# generated using pymatgen
data_Ca2AlH10ClO8
_symmetry_space_group_name_H-M   'P 1'
_cell_length_a   16.26456867
_cell_length_b   16.26456848
_cell_length_c   16.16035170
_cell_angle_alpha   20.68085817
_cell_angle_beta   20.68085805
_cell_angle_gamma   20.14351733
_symmetry_Int_Tables_number   1
_chemical_formula_structural   Ca2AlH10ClO8
_chemical_formula_sum   'Ca4 Al2 H20 Cl2 O16'
_cell_volume   458.77202988
_cell_formula_units_Z   2
loop_
 _symmetry_equiv_pos_site_id
 _symmetry_equiv_pos_as_xyz
  1  'x, y, z'
loop_
 _atom_site_type_symbol
 _atom_site_label
 _atom_site_symmetry_multiplicity
 _atom_site_fract_x
 _atom_site_fract_y
 _atom_site_fract_z
 _atom_site_occupancy
  Al  Al0  1  0.000000  0.000000  0.000000  1
  Al  Al1  1  0.500000  0.500000  0.500000  1
  Ca  Ca2  1  0.157503  0.154044  0.150193  1
  Ca  Ca3  1  0.345956  0.342497  0.349807  1
  Ca  Ca4  1  0.654044  0.657503  0.650193  1
  Ca  Ca5  1  0.842497  0.845956  0.849807  1
  Cl  Cl6  1  0.251598  0.248402  0.250000  1
  Cl  Cl7  1  0.748402  0.751598  0.750000  1
  H  H8  1  0.097368  0.167074  0.615241  1
  H  H9  1  0.182775  0.614444  0.083781  1
  H  H10  1  0.612124  0.111196  0.158990  1
  H  H11  1  0.216454  0.500747  0.505351  1
  H  H12  1  0.493554  0.221298  0.508591  1
  H  H13  1  0.278702  0.006446  0.991409  1
  H  H14  1  0.999253  0.283546  -0.005351  1
  H  H15  1  0.114444  0.682775  0.583781  1
  H  H16  1  0.611196  0.112124  0.658990  1
  H  H17  1  0.667074  0.597368  0.115241  1
  H  H18  1  0.332926  0.402632  0.884759  1
  H  H19  1  0.388804  0.887876  0.341010  1
  H  H20  1  0.885556  0.317225  0.416219  1
  H  H21  1  0.000747  0.716454  1.005351  1
  H  H22  1  0.721298  0.993554  0.008591  1
  H  H23  1  0.506446  0.778702  0.491409  1
  H  H24  1  0.783546  0.499253  0.494649  1
  H  H25  1  0.387876  0.888804  0.841010  1
  H  H26  1  0.817225  0.385556  0.916219  1
  H  H27  1  0.902632  0.832926  0.384759  1
  O  O28  1  0.109387  0.112777  0.081765  1
  O  O29  1  0.037082  0.229592  0.669362  1
  O  O30  1  0.237929  0.668179  0.031153  1
  O  O31  1  0.673418  0.037236  0.226093  1
  O  O32  1  0.387223  0.390613  0.418235  1
  O  O33  1  0.168179  0.737929  0.531153  1
  O  O34  1  0.537236  0.173418  0.726093  1
  O  O35  1  0.729592  0.537082  0.169362  1
  O  O36  1  0.270408  0.462918  0.830638  1
  O  O37  1  0.462764  0.826582  0.273907  1
  O  O38  1  0.831821  0.262071  0.468847  1
  O  O39  1  0.612777  0.609387  0.581765  1
  O  O40  1  0.326582  0.962764  0.773907  1
  O  O41  1  0.762071  0.331821  0.968847  1
  O  O42  1  0.962918  0.770408  0.330638  1
  O  O43  1  0.890613  0.887223  0.918235  1
