# generated using pymatgen
data_Cu2SO5
_symmetry_space_group_name_H-M   'P 1'
_cell_length_a   5.72965575
_cell_length_b   5.72965575
_cell_length_c   7.30392480
_cell_angle_alpha   101.54757918
_cell_angle_beta   106.95909730
_cell_angle_gamma   111.89977031
_symmetry_Int_Tables_number   1
_chemical_formula_structural   Cu2SO5
_chemical_formula_sum   'Cu4 S2 O10'
_cell_volume   199.48937948
_cell_formula_units_Z   2
loop_
 _symmetry_equiv_pos_site_id
 _symmetry_equiv_pos_as_xyz
  1  'x, y, z'
loop_
 _atom_site_type_symbol
 _atom_site_label
 _atom_site_symmetry_multiplicity
 _atom_site_fract_x
 _atom_site_fract_y
 _atom_site_fract_z
 _atom_site_occupancy
  O  O0  1  0.429385  0.708647  0.754794  1
  O  O1  1  0.953853  0.674592  0.245206  1
  O  O2  1  0.570615  0.291353  0.245206  1
  O  O3  1  0.046147  0.325408  0.754794  1
  O  O4  1  0.868272  0.149430  0.017701  1
  O  O5  1  0.131728  0.850570  0.982299  1
  O  O6  1  0.469859  0.299936  0.769795  1
  O  O7  1  0.530141  0.700064  0.230205  1
  O  O8  1  0.845336  0.694527  0.539863  1
  O  O9  1  0.154664  0.305473  0.460137  1
  S  S10  1  0.718068  0.595946  0.314014  1
  S  S11  1  0.281932  0.404054  0.685986  1
  Cu  Cu12  1  0.138748  0.080140  0.218888  1
  Cu  Cu13  1  0.861252  0.919860  0.781112  1
  Cu  Cu14  1  0.500000  0.000000  0.000000  1
  Cu  Cu15  1  0.000000  0.500000  0.000000  1
