# generated using pymatgen
data_Na4BeAlSi4ClO12
_symmetry_space_group_name_H-M   'P 1'
_cell_length_a   7.71393624
_cell_length_b   7.71393633
_cell_length_c   15.40449348
_cell_angle_alpha   109.25419640
_cell_angle_beta   109.25419594
_cell_angle_gamma   109.88091111
_symmetry_Int_Tables_number   1
_chemical_formula_structural   Na4BeAlSi4ClO12
_chemical_formula_sum   'Na8 Be2 Al2 Si8 Cl2 O24'
_cell_volume   705.82185175
_cell_formula_units_Z   2
loop_
 _symmetry_equiv_pos_site_id
 _symmetry_equiv_pos_as_xyz
  1  'x, y, z'
loop_
 _atom_site_type_symbol
 _atom_site_label
 _atom_site_symmetry_multiplicity
 _atom_site_fract_x
 _atom_site_fract_y
 _atom_site_fract_z
 _atom_site_occupancy
  Al  Al0  1  0.753872  0.499817  0.622333  1
  Al  Al1  1  0.499817  0.753872  0.122333  1
  Be  Be2  1  0.503222  0.250011  0.878826  1
  Be  Be3  1  0.250011  0.503222  0.378826  1
  Cl  Cl4  1  1.000035  -0.000409  0.500255  1
  Cl  Cl5  1  -0.000409  1.000035  0.000255  1
  Na  Na6  1  0.028832  0.010584  0.821567  1
  Na  Na7  1  0.013069  0.625867  0.489486  1
  Na  Na8  1  0.369347  0.353170  0.690520  1
  Na  Na9  1  0.010584  0.028832  0.321567  1
  Na  Na10  1  0.353170  0.369347  0.190520  1
  Na  Na11  1  0.621334  0.979693  0.496750  1
  Na  Na12  1  0.625867  0.013069  0.989486  1
  Na  Na13  1  0.979693  0.621334  0.996750  1
  O  O14  1  0.991527  0.298151  0.795472  1
  O  O15  1  0.288651  0.674206  0.838000  1
  O  O16  1  0.383645  0.379274  0.849088  1
  O  O17  1  0.415163  0.708679  0.704703  1
  O  O18  1  -0.002701  0.321586  0.309740  1
  O  O19  1  0.321586  -0.002701  0.809740  1
  O  O20  1  0.315909  0.608232  0.504296  1
  O  O21  1  0.297745  0.696363  0.350784  1
  O  O22  1  0.379274  0.383645  0.349088  1
  O  O23  1  0.696363  0.297745  0.850784  1
  O  O24  1  0.392041  0.700963  0.200479  1
  O  O25  1  0.706773  0.713203  0.652575  1
  O  O26  1  0.298151  0.991527  0.295472  1
  O  O27  1  0.289251  0.596333  0.991215  1
  O  O28  1  0.700963  0.392041  0.700479  1
  O  O29  1  0.597682  0.002663  0.656297  1
  O  O30  1  0.596333  0.289251  0.491215  1
  O  O31  1  0.605120  0.017381  0.148306  1
  O  O32  1  0.017381  0.605120  0.648306  1
  O  O33  1  0.713203  0.706773  0.152575  1
  O  O34  1  0.674206  0.288651  0.338000  1
  O  O35  1  0.708679  0.415163  0.204703  1
  O  O36  1  0.608232  0.315909  0.004296  1
  O  O37  1  0.002663  0.597682  0.156297  1
  Si  Si38  1  0.257773  0.754153  0.749249  1
  Si  Si39  1  0.246337  0.486038  0.870590  1
  Si  Si40  1  0.251582  0.744255  0.254830  1
  Si  Si41  1  0.503896  0.749679  0.624638  1
  Si  Si42  1  0.486038  0.246337  0.370590  1
  Si  Si43  1  0.744255  0.251582  0.754830  1
  Si  Si44  1  0.754153  0.257773  0.249249  1
  Si  Si45  1  0.749679  0.503896  0.124638  1
