# generated using pymatgen
data_NaNbO3
_symmetry_space_group_name_H-M   'P 1'
_cell_length_a   5.65567439
_cell_length_b   5.59296352
_cell_length_c   7.91653719
_cell_angle_alpha   90.00000000
_cell_angle_beta   90.00000000
_cell_angle_gamma   90.00000000
_symmetry_Int_Tables_number   1
_chemical_formula_structural   NaNbO3
_chemical_formula_sum   'Na4 Nb4 O12'
_cell_volume   250.41575037
_cell_formula_units_Z   4
loop_
 _symmetry_equiv_pos_site_id
 _symmetry_equiv_pos_as_xyz
  1  'x, y, z'
loop_
 _atom_site_type_symbol
 _atom_site_label
 _atom_site_symmetry_multiplicity
 _atom_site_fract_x
 _atom_site_fract_y
 _atom_site_fract_z
 _atom_site_occupancy
  O  O0  1  0.488804  0.039722  0.283820  1
  O  O1  1  0.988804  0.960279  0.716180  1
  O  O2  1  0.988804  0.960279  0.283820  1
  O  O3  1  0.488804  0.039722  0.716180  1
  O  O4  1  0.911252  0.458862  0.218175  1
  O  O5  1  0.411252  0.541137  0.781825  1
  O  O6  1  0.411252  0.541137  0.218175  1
  O  O7  1  0.911252  0.458862  0.781825  1
  O  O8  1  0.707641  0.813711  0.000000  1
  O  O9  1  0.207641  0.186288  0.000000  1
  O  O10  1  0.183581  0.315903  0.500000  1
  O  O11  1  0.683581  0.684097  0.500000  1
  Na  Na12  1  0.743700  0.242194  0.500000  1
  Na  Na13  1  0.243700  0.757806  0.500000  1
  Na  Na14  1  0.713141  0.241294  0.000000  1
  Na  Na15  1  0.213141  0.758706  0.000000  1
  Nb  Nb16  1  0.222911  0.254503  0.749481  1
  Nb  Nb17  1  0.722911  0.745496  0.250518  1
  Nb  Nb18  1  0.722911  0.745496  0.749481  1
  Nb  Nb19  1  0.222911  0.254503  0.250518  1
