# generated using pymatgen
data_Na2S2O3
_symmetry_space_group_name_H-M   'P 1'
_cell_length_a   6.52238156
_cell_length_b   8.24209852
_cell_length_c   8.62056326
_cell_angle_alpha   90.00000000
_cell_angle_beta   97.33667849
_cell_angle_gamma   90.00000000
_symmetry_Int_Tables_number   1
_chemical_formula_structural   Na2S2O3
_chemical_formula_sum   'Na8 S8 O12'
_cell_volume   459.63109029
_cell_formula_units_Z   4
loop_
 _symmetry_equiv_pos_site_id
 _symmetry_equiv_pos_as_xyz
  1  'x, y, z'
loop_
 _atom_site_type_symbol
 _atom_site_label
 _atom_site_symmetry_multiplicity
 _atom_site_fract_x
 _atom_site_fract_y
 _atom_site_fract_z
 _atom_site_occupancy
  O  O0  1  0.340317  0.587844  0.883638  1
  O  O1  1  0.171839  0.963770  0.378077  1
  O  O2  1  0.671839  0.536230  0.378077  1
  O  O3  1  0.828161  0.036230  0.621923  1
  O  O4  1  0.620087  0.798423  0.662063  1
  O  O5  1  0.328161  0.463770  0.621923  1
  O  O6  1  0.879913  0.298423  0.337937  1
  O  O7  1  0.379913  0.201577  0.337937  1
  O  O8  1  0.159683  0.087844  0.116362  1
  O  O9  1  0.659683  0.412156  0.116362  1
  O  O10  1  0.840317  0.912156  0.883638  1
  O  O11  1  0.120087  0.701577  0.662063  1
  Na  Na12  1  0.123784  0.197977  0.545958  1
  Na  Na13  1  0.376216  0.697977  0.454042  1
  Na  Na14  1  0.707840  0.620992  0.913867  1
  Na  Na15  1  0.623784  0.302023  0.545958  1
  Na  Na16  1  0.207840  0.879008  0.913867  1
  Na  Na17  1  0.292160  0.379008  0.086133  1
  Na  Na18  1  0.792160  0.120992  0.086133  1
  Na  Na19  1  0.876216  0.802023  0.454042  1
  S  S20  1  0.208003  0.548358  0.733649  1
  S  S21  1  0.791997  0.451642  0.266351  1
  S  S22  1  0.708003  0.951642  0.733649  1
  S  S23  1  0.982871  0.396862  0.787081  1
  S  S24  1  0.517129  0.896862  0.212919  1
  S  S25  1  0.017129  0.603138  0.212919  1
  S  S26  1  0.482871  0.103138  0.787081  1
  S  S27  1  0.291997  0.048358  0.266351  1
