# generated using pymatgen
data_K4Ta2S11
_symmetry_space_group_name_H-M   'P 1'
_cell_length_a   7.56644954
_cell_length_b   13.52463224
_cell_length_c   18.43248766
_cell_angle_alpha   90.00000000
_cell_angle_beta   90.00000000
_cell_angle_gamma   90.00000000
_symmetry_Int_Tables_number   1
_chemical_formula_structural   K4Ta2S11
_chemical_formula_sum   'K16 Ta8 S44'
_cell_volume   1886.26000624
_cell_formula_units_Z   4
loop_
 _symmetry_equiv_pos_site_id
 _symmetry_equiv_pos_as_xyz
  1  'x, y, z'
loop_
 _atom_site_type_symbol
 _atom_site_label
 _atom_site_symmetry_multiplicity
 _atom_site_fract_x
 _atom_site_fract_y
 _atom_site_fract_z
 _atom_site_occupancy
  S  S0  1  0.260139  0.170746  0.019804  1
  S  S1  1  0.739861  0.829254  0.519804  1
  S  S2  1  0.739861  0.670746  0.019804  1
  S  S3  1  0.260139  0.329254  0.519804  1
  S  S4  1  0.245804  0.956289  0.672374  1
  S  S5  1  0.754196  0.043711  0.172374  1
  S  S6  1  0.754196  0.456289  0.672374  1
  S  S7  1  0.245804  0.543711  0.172374  1
  S  S8  1  0.029514  0.485329  0.319770  1
  S  S9  1  0.970486  0.514671  0.819770  1
  S  S10  1  0.970486  0.985329  0.319770  1
  S  S11  1  0.029514  0.014671  0.819770  1
  S  S12  1  0.221311  0.265076  0.335214  1
  S  S13  1  0.778689  0.734924  0.835214  1
  S  S14  1  0.778689  0.765076  0.335214  1
  S  S15  1  0.221311  0.234924  0.835214  1
  S  S16  1  0.966821  0.316912  0.170408  1
  S  S17  1  0.607783  0.570766  0.625282  1
  S  S18  1  0.033179  0.816912  0.170408  1
  S  S19  1  0.966821  0.183088  0.670408  1
  S  S20  1  0.464291  0.482398  0.310585  1
  S  S21  1  0.535709  0.517602  0.810585  1
  S  S22  1  0.535709  0.982398  0.310585  1
  S  S23  1  0.464291  0.017602  0.810585  1
  S  S24  1  0.254623  0.588626  0.473294  1
  S  S25  1  0.745377  0.411374  0.973294  1
  S  S26  1  0.745377  0.088626  0.473294  1
  S  S27  1  0.254623  0.911374  0.973294  1
  S  S28  1  0.392217  0.429234  0.125282  1
  S  S29  1  0.017656  0.152259  0.967664  1
  S  S30  1  0.607783  0.929234  0.125282  1
  S  S31  1  0.392217  0.070766  0.625282  1
  S  S32  1  0.575467  0.406111  0.397915  1
  S  S33  1  0.424533  0.593889  0.897915  1
  S  S34  1  0.424533  0.906111  0.397915  1
  S  S35  1  0.575467  0.093889  0.897915  1
  S  S36  1  0.395191  0.239870  0.248993  1
  S  S37  1  0.604809  0.760130  0.748993  1
  S  S38  1  0.604809  0.739870  0.248993  1
  S  S39  1  0.395191  0.260130  0.748993  1
  S  S40  1  0.017656  0.347741  0.467664  1
  S  S41  1  0.982344  0.652259  0.967664  1
  S  S42  1  0.982344  0.847741  0.467664  1
  S  S43  1  0.033179  0.683088  0.670408  1
  K  K44  1  0.328489  0.772312  0.567620  1
  K  K45  1  0.671511  0.227688  0.067620  1
  K  K46  1  0.671511  0.272312  0.567620  1
  K  K47  1  0.328489  0.727688  0.067620  1
  K  K48  1  0.208180  0.715831  0.320199  1
  K  K49  1  0.791820  0.284169  0.820199  1
  K  K50  1  0.791820  0.215831  0.320199  1
  K  K51  1  0.218482  0.463022  0.671525  1
  K  K52  1  0.185022  0.091977  0.468845  1
  K  K53  1  0.814978  0.908023  0.968845  1
  K  K54  1  0.814978  0.591977  0.468845  1
  K  K55  1  0.185022  0.408023  0.968845  1
  K  K56  1  0.208180  0.784169  0.820199  1
  K  K57  1  0.781518  0.963022  0.671525  1
  K  K58  1  0.781518  0.536978  0.171525  1
  K  K59  1  0.218482  0.036978  0.171525  1
  Ta  Ta60  1  0.259130  0.055937  0.912222  1
  Ta  Ta61  1  0.740870  0.944063  0.412222  1
  Ta  Ta62  1  0.740870  0.555937  0.912222  1
  Ta  Ta63  1  0.259130  0.444063  0.412222  1
  Ta  Ta64  1  0.198474  0.117380  0.730717  1
  Ta  Ta65  1  0.801526  0.882620  0.230717  1
  Ta  Ta66  1  0.801526  0.617380  0.730717  1
  Ta  Ta67  1  0.198474  0.382620  0.230717  1
