# generated using pymatgen
data_NaPrTiNbO6F
_symmetry_space_group_name_H-M   'P 1'
_cell_length_a   7.39266112
_cell_length_b   14.81844629
_cell_length_c   12.84289858
_cell_angle_alpha   29.92545411
_cell_angle_beta   54.85676356
_cell_angle_gamma   60.07391647
_symmetry_Int_Tables_number   1
_chemical_formula_structural   NaPrTiNbO6F
_chemical_formula_sum   'Na4 Pr4 Ti4 Nb4 O24 F4'
_cell_volume   573.92961073
_cell_formula_units_Z   4
loop_
 _symmetry_equiv_pos_site_id
 _symmetry_equiv_pos_as_xyz
  1  'x, y, z'
loop_
 _atom_site_type_symbol
 _atom_site_label
 _atom_site_symmetry_multiplicity
 _atom_site_fract_x
 _atom_site_fract_y
 _atom_site_fract_z
 _atom_site_occupancy
  F  F0  1  0.113942  0.511025  0.113997  1
  F  F1  1  0.136001  0.989008  0.135957  1
  F  F2  1  0.863987  0.988975  0.886003  1
  F  F3  1  0.885932  0.510992  0.864043  1
  Na  Na4  1  0.999980  0.524016  0.975994  1
  Na  Na5  1  0.500002  0.975984  0.024006  1
  Na  Na6  1  0.976176  0.750000  0.000000  1
  Na  Na7  1  0.023833  0.750000  0.500000  1
  Nb  Nb8  1  0.493219  0.750000  0.000000  1
  Nb  Nb9  1  0.499994  0.492531  0.507509  1
  Nb  Nb10  1  0.000075  0.007469  0.492491  1
  Nb  Nb11  1  0.506910  0.750000  0.500000  1
  O  O12  1  0.190106  0.197070  0.170919  1
  O  O13  1  0.180405  0.022314  0.548710  1
  O  O14  1  0.583177  0.208186  0.166807  1
  O  O15  1  0.170909  0.691891  0.190115  1
  O  O16  1  0.416838  0.208229  0.416760  1
  O  O17  1  0.166817  0.291771  0.583240  1
  O  O18  1  0.177571  0.477687  0.593308  1
  O  O19  1  0.406669  0.001390  0.819624  1
  O  O20  1  0.548697  0.498610  0.180376  1
  O  O21  1  0.819562  0.022313  0.406692  1
  O  O22  1  0.573918  0.302937  0.565048  1
  O  O23  1  0.562794  0.687836  0.187179  1
  O  O24  1  0.809887  0.197063  0.434952  1
  O  O25  1  0.437202  0.687833  0.437154  1
  O  O26  1  0.426084  0.302930  0.829081  1
  O  O27  1  0.187175  0.812167  0.562846  1
  O  O28  1  0.593355  0.001390  0.177578  1
  O  O29  1  0.822453  0.477686  0.451290  1
  O  O30  1  0.451290  0.498610  0.822422  1
  O  O31  1  0.565045  0.808129  0.573890  1
  O  O32  1  0.833163  0.291814  0.833193  1
  O  O33  1  0.829082  0.691871  0.426110  1
  O  O34  1  0.434920  0.808109  0.809885  1
  O  O35  1  0.812824  0.812164  0.812821  1
  Pr  Pr36  1  0.000069  0.976287  0.023641  1
  Pr  Pr37  1  0.023826  0.250000  0.000000  1
  Pr  Pr38  1  0.499925  0.523713  0.976359  1
  Pr  Pr39  1  0.976040  0.250000  0.500000  1
  Ti  Ti40  1  0.514840  0.250000  0.000000  1
  Ti  Ti41  1  1.000073  0.485875  0.514087  1
  Ti  Ti42  1  0.485243  0.250000  0.500000  1
  Ti  Ti43  1  0.499995  0.014125  0.485913  1
