# generated using pymatgen
data_LiCo2P4H3O14
_symmetry_space_group_name_H-M   'P 1'
_cell_length_a   8.59402706
_cell_length_b   8.59402653
_cell_length_c   8.97774788
_cell_angle_alpha   110.54949119
_cell_angle_beta   110.54948962
_cell_angle_gamma   99.65724576
_symmetry_Int_Tables_number   1
_chemical_formula_structural   LiCo2P4H3O14
_chemical_formula_sum   'Li2 Co4 P8 H6 O28'
_cell_volume   548.42725638
_cell_formula_units_Z   2
loop_
 _symmetry_equiv_pos_site_id
 _symmetry_equiv_pos_as_xyz
  1  'x, y, z'
loop_
 _atom_site_type_symbol
 _atom_site_label
 _atom_site_symmetry_multiplicity
 _atom_site_fract_x
 _atom_site_fract_y
 _atom_site_fract_z
 _atom_site_occupancy
  Li  Li0  1  0.136884  0.853215  0.241906  1
  Li  Li1  1  0.853215  0.136884  0.741906  1
  Co  Co2  1  0.092190  0.907169  0.751932  1
  Co  Co3  1  0.498393  0.996152  0.003615  1
  Co  Co4  1  0.996152  0.498393  0.503615  1
  Co  Co5  1  0.907169  0.092190  0.251932  1
  P  P6  1  0.213426  0.645359  0.935509  1
  P  P7  1  0.177054  0.271427  0.688709  1
  P  P8  1  0.355237  0.781717  0.571582  1
  P  P9  1  0.271427  0.177054  0.188709  1
  P  P10  1  0.729990  0.822071  0.813103  1
  P  P11  1  0.645359  0.213426  0.435509  1
  P  P12  1  0.822071  0.729990  0.313103  1
  P  P13  1  0.781717  0.355237  0.071582  1
  H  H14  1  0.235260  0.437375  0.295595  1
  H  H15  1  0.437375  0.235260  0.795595  1
  H  H16  1  0.471893  0.978271  0.494422  1
  H  H17  1  0.559731  0.764607  0.202327  1
  H  H18  1  0.764607  0.559731  0.702327  1
  H  H19  1  0.978271  0.471893  0.994422  1
  O  O20  1  0.103704  0.670425  0.773027  1
  O  O21  1  0.067983  0.129419  0.708659  1
  O  O22  1  0.078928  0.289395  0.519900  1
  O  O23  1  0.234007  0.452925  0.857673  1
  O  O24  1  0.331926  0.897373  0.730318  1
  O  O25  1  0.221142  0.597958  0.461947  1
  O  O26  1  0.122066  0.639225  0.052024  1
  O  O27  1  0.129419  0.067983  0.208659  1
  O  O28  1  0.356795  0.873751  0.448090  1
  O  O29  1  0.353808  0.246732  0.691610  1
  O  O30  1  0.246732  0.353808  0.191610  1
  O  O31  1  0.547495  0.765859  0.641822  1
  O  O32  1  0.710434  0.920384  0.980422  1
  O  O33  1  0.597958  0.221142  0.961947  1
  O  O34  1  0.401902  0.776569  0.038282  1
  O  O35  1  0.289395  0.078928  0.019900  1
  O  O36  1  0.452925  0.234007  0.357673  1
  O  O37  1  0.751830  0.644034  0.806388  1
  O  O38  1  0.644034  0.751830  0.306388  1
  O  O39  1  0.639225  0.122066  0.552024  1
  O  O40  1  0.869927  0.931585  0.791437  1
  O  O41  1  0.873751  0.356795  0.948090  1
  O  O42  1  0.776569  0.401902  0.538282  1
  O  O43  1  0.670425  0.103704  0.273027  1
  O  O44  1  0.765859  0.547495  0.141822  1
  O  O45  1  0.920384  0.710434  0.480422  1
  O  O46  1  0.931585  0.869927  0.291437  1
  O  O47  1  0.897373  0.331926  0.230318  1
