# generated using pymatgen
data_BaYMnCoO5
_symmetry_space_group_name_H-M   'P 1'
_cell_length_a   5.55967203
_cell_length_b   5.55966843
_cell_length_c   7.78633102
_cell_angle_alpha   90.01434587
_cell_angle_beta   89.99435326
_cell_angle_gamma   90.00041291
_symmetry_Int_Tables_number   1
_chemical_formula_structural   BaYMnCoO5
_chemical_formula_sum   'Ba2 Y2 Mn2 Co2 O10'
_cell_volume   240.67496154
_cell_formula_units_Z   2
loop_
 _symmetry_equiv_pos_site_id
 _symmetry_equiv_pos_as_xyz
  1  'x, y, z'
loop_
 _atom_site_type_symbol
 _atom_site_label
 _atom_site_symmetry_multiplicity
 _atom_site_fract_x
 _atom_site_fract_y
 _atom_site_fract_z
 _atom_site_occupancy
  Ba  Ba0  1  0.000186  0.000288  0.000075  1
  Ba  Ba1  1  0.499995  0.499944  0.000076  1
  Y  Y2  1  0.000037  0.000063  0.500006  1
  Y  Y3  1  0.499911  0.499863  0.500001  1
  Mn  Mn4  1  0.999913  0.500060  0.733160  1
  Mn  Mn5  1  0.500040  0.999875  0.266866  1
  Co  Co6  1  1.000000  0.500292  0.265467  1
  Co  Co7  1  0.500191  0.999863  0.734538  1
  O  O8  1  0.999966  0.500039  0.997440  1
  O  O9  1  0.254043  0.245818  0.316982  1
  O  O10  1  0.245831  0.254100  0.682965  1
  O  O11  1  0.254160  0.753999  0.317093  1
  O  O12  1  0.245837  0.745959  0.682959  1
  O  O13  1  0.500023  0.999965  0.002521  1
  O  O14  1  0.745937  0.245774  0.316981  1
  O  O15  1  0.754057  0.254178  0.682889  1
  O  O16  1  0.745818  0.754050  0.317093  1
  O  O17  1  0.754053  0.745869  0.682888  1
