# generated using pymatgen
data_LiCaPrTeO6
_symmetry_space_group_name_H-M   'P 1'
_cell_length_a   5.56712500
_cell_length_b   5.84494312
_cell_length_c   7.79177237
_cell_angle_alpha   90.00000000
_cell_angle_beta   90.67090331
_cell_angle_gamma   90.00000000
_symmetry_Int_Tables_number   1
_chemical_formula_structural   LiCaPrTeO6
_chemical_formula_sum   'Li2 Ca2 Pr2 Te2 O12'
_cell_volume   253.52322141
_cell_formula_units_Z   2
loop_
 _symmetry_equiv_pos_site_id
 _symmetry_equiv_pos_as_xyz
  1  'x, y, z'
loop_
 _atom_site_type_symbol
 _atom_site_label
 _atom_site_symmetry_multiplicity
 _atom_site_fract_x
 _atom_site_fract_y
 _atom_site_fract_z
 _atom_site_occupancy
  Ca  Ca0  1  0.489855  0.443586  0.747618  1
  Ca  Ca1  1  0.989855  0.056414  0.247618  1
  Li  Li2  1  0.500421  0.030006  0.002920  1
  Li  Li3  1  0.000421  0.469994  0.502920  1
  O  O4  1  0.096256  0.458989  0.239813  1
  O  O5  1  0.173501  0.208197  0.950096  1
  O  O6  1  0.210926  0.185140  0.546523  1
  O  O7  1  0.286330  0.672513  0.954241  1
  O  O8  1  0.323170  0.726742  0.552755  1
  O  O9  1  0.405276  0.972777  0.259419  1
  O  O10  1  0.596256  0.041011  0.739813  1
  O  O11  1  0.673501  0.291803  0.450096  1
  O  O12  1  0.710926  0.314860  0.046523  1
  O  O13  1  0.786330  0.827487  0.454241  1
  O  O14  1  0.823170  0.773258  0.052755  1
  O  O15  1  0.905276  0.527223  0.759419  1
  Pr  Pr16  1  0.014427  0.931496  0.747258  1
  Pr  Pr17  1  0.514427  0.568504  0.247258  1
  Te  Te18  1  0.999838  0.489997  0.999357  1
  Te  Te19  1  0.499838  0.010003  0.499357  1
