# generated using pymatgen
data_K2MnH4(Cl2O)2
_symmetry_space_group_name_H-M   'P 1'
_cell_length_a   6.70700335
_cell_length_b   6.70700381
_cell_length_c   6.70700364
_cell_angle_alpha   102.68998942
_cell_angle_beta   112.96458353
_cell_angle_gamma   112.96458868
_symmetry_Int_Tables_number   1
_chemical_formula_structural   K2MnH4(Cl2O)2
_chemical_formula_sum   'K2 Mn1 H4 Cl4 O2'
_cell_volume   229.85427077
_cell_formula_units_Z   1
loop_
 _symmetry_equiv_pos_site_id
 _symmetry_equiv_pos_as_xyz
  1  'x, y, z'
loop_
 _atom_site_type_symbol
 _atom_site_label
 _atom_site_symmetry_multiplicity
 _atom_site_fract_x
 _atom_site_fract_y
 _atom_site_fract_z
 _atom_site_occupancy
  K  K0  1  0.500000  0.250000  0.750000  1
  K  K1  1  0.500000  0.750000  0.250000  1
  Mn  Mn2  1  0.000000  0.000000  0.000000  1
  H  H3  1  0.151158  0.409507  0.409507  1
  H  H4  1  1.000000  0.590493  0.741651  1
  H  H5  1  1.000000  0.741651  0.590493  1
  H  H6  1  0.848842  0.258349  0.258349  1
  Cl  Cl7  1  0.000000  0.762326  0.249458  1
  Cl  Cl8  1  0.512868  0.750542  0.750542  1
  Cl  Cl9  1  0.487132  0.237674  0.237674  1
  Cl  Cl10  1  0.000000  0.249458  0.762326  1
  O  O11  1  0.000000  0.736510  0.736510  1
  O  O12  1  1.000000  0.263490  0.263490  1
