# generated using pymatgen
data_NaPO3
_symmetry_space_group_name_H-M   'P 1'
_cell_length_a   6.25645467
_cell_length_b   7.08625961
_cell_length_c   12.31704780
_cell_angle_alpha   91.64832719
_cell_angle_beta   90.00000000
_cell_angle_gamma   90.00000000
_symmetry_Int_Tables_number   1
_chemical_formula_structural   NaPO3
_chemical_formula_sum   'Na8 P8 O24'
_cell_volume   545.84865405
_cell_formula_units_Z   8
loop_
 _symmetry_equiv_pos_site_id
 _symmetry_equiv_pos_as_xyz
  1  'x, y, z'
loop_
 _atom_site_type_symbol
 _atom_site_label
 _atom_site_symmetry_multiplicity
 _atom_site_fract_x
 _atom_site_fract_y
 _atom_site_fract_z
 _atom_site_occupancy
  O  O0  1  0.521267  0.815881  0.555206  1
  O  O1  1  0.021267  0.684119  0.944794  1
  O  O2  1  0.478733  0.184119  0.444794  1
  O  O3  1  0.978733  0.315881  0.055206  1
  O  O4  1  0.203976  0.584780  0.542285  1
  O  O5  1  0.703976  0.915220  0.957715  1
  O  O6  1  0.796024  0.415220  0.457715  1
  O  O7  1  0.296024  0.084780  0.042285  1
  O  O8  1  0.504917  0.522140  0.671655  1
  O  O9  1  0.004917  0.977860  0.828345  1
  O  O10  1  0.495083  0.477860  0.328345  1
  O  O11  1  0.995083  0.022140  0.171655  1
  O  O12  1  0.980493  0.994496  0.620372  1
  O  O13  1  0.480493  0.505504  0.879628  1
  O  O14  1  0.019507  0.005504  0.379628  1
  O  O15  1  0.519507  0.494496  0.120372  1
  O  O16  1  0.211865  0.651467  0.228525  1
  O  O17  1  0.711865  0.848533  0.271475  1
  O  O18  1  0.788135  0.348533  0.771475  1
  O  O19  1  0.288135  0.151467  0.728525  1
  O  O20  1  0.239540  0.290183  0.214700  1
  O  O21  1  0.739540  0.209817  0.285300  1
  O  O22  1  0.760460  0.709817  0.785300  1
  O  O23  1  0.260460  0.790183  0.714700  1
  Na  Na24  1  0.873785  0.627812  0.131816  1
  Na  Na25  1  0.373785  0.872188  0.368184  1
  Na  Na26  1  0.126215  0.372188  0.868184  1
  Na  Na27  1  0.626215  0.127812  0.631816  1
  Na  Na28  1  0.378985  0.763370  0.004657  1
  Na  Na29  1  0.878985  0.736630  0.495343  1
  Na  Na30  1  0.621015  0.236630  0.995343  1
  Na  Na31  1  0.121015  0.263370  0.504657  1
  P  P32  1  0.366722  0.490992  0.214630  1
  P  P33  1  0.866722  0.009008  0.285370  1
  P  P34  1  0.633278  0.509008  0.785370  1
  P  P35  1  0.133278  0.990992  0.714630  1
  P  P36  1  0.128876  0.182635  0.110112  1
  P  P37  1  0.628876  0.317365  0.389888  1
  P  P38  1  0.871124  0.817365  0.889888  1
  P  P39  1  0.371124  0.682635  0.610112  1
