# generated using pymatgen
data_Na3Ti2P2O10F
_symmetry_space_group_name_H-M   'P 1'
_cell_length_a   6.49329314
_cell_length_b   6.49329314
_cell_length_c   7.05354312
_cell_angle_alpha   117.14182618
_cell_angle_beta   117.14182618
_cell_angle_gamma   90.19032988
_symmetry_Int_Tables_number   1
_chemical_formula_structural   Na3Ti2P2O10F
_chemical_formula_sum   'Na3 Ti2 P2 O10 F1'
_cell_volume   226.95527087
_cell_formula_units_Z   1
loop_
 _symmetry_equiv_pos_site_id
 _symmetry_equiv_pos_as_xyz
  1  'x, y, z'
loop_
 _atom_site_type_symbol
 _atom_site_label
 _atom_site_symmetry_multiplicity
 _atom_site_fract_x
 _atom_site_fract_y
 _atom_site_fract_z
 _atom_site_occupancy
  F  F0  1  0.990014  0.009986  0.000000  1
  Na  Na1  1  0.259826  0.296754  0.997547  1
  Na  Na2  1  0.736197  0.263803  0.000000  1
  Na  Na3  1  0.703246  0.740174  0.002453  1
  O  O4  1  0.147100  0.843739  0.676237  1
  O  O5  1  0.156261  0.852900  0.323763  1
  O  O6  1  0.164049  0.473601  0.332116  1
  O  O7  1  0.375650  0.336493  0.715451  1
  O  O8  1  0.526399  0.835951  0.667884  1
  O  O9  1  0.471127  0.169815  0.322773  1
  O  O10  1  0.663507  0.624350  0.284549  1
  O  O11  1  0.830185  0.528873  0.677227  1
  O  O12  1  0.828846  0.140117  0.666547  1
  O  O13  1  0.859883  0.171154  0.333453  1
  P  P14  1  0.248790  0.751210  0.500000  1
  P  P15  1  0.747677  0.252323  0.500000  1
  Ti  Ti16  1  0.208473  0.191328  0.399612  1
  Ti  Ti17  1  0.808672  0.791527  0.600388  1
