# generated using pymatgen
data_K2SnH2OF6
_symmetry_space_group_name_H-M   'P 1'
_cell_length_a   9.27133300
_cell_length_b   9.27133339
_cell_length_c   10.61499120
_cell_angle_alpha   111.46093474
_cell_angle_beta   111.46093819
_cell_angle_gamma   94.27708136
_symmetry_Int_Tables_number   1
_chemical_formula_structural   K2SnH2OF6
_chemical_formula_sum   'K8 Sn4 H8 O4 F24'
_cell_volume   767.07586332
_cell_formula_units_Z   4
loop_
 _symmetry_equiv_pos_site_id
 _symmetry_equiv_pos_as_xyz
  1  'x, y, z'
loop_
 _atom_site_type_symbol
 _atom_site_label
 _atom_site_symmetry_multiplicity
 _atom_site_fract_x
 _atom_site_fract_y
 _atom_site_fract_z
 _atom_site_occupancy
  F  F0  1  0.165382  -0.002453  0.472119  1
  F  F1  1  0.097954  0.695852  0.264062  1
  F  F2  1  0.208732  0.529795  0.528545  1
  F  F3  1  0.352098  0.447002  0.770075  1
  F  F4  1  0.891558  0.868918  0.728303  1
  F  F5  1  0.470205  0.791268  0.971455  1
  F  F6  1  0.868918  0.891558  0.228303  1
  F  F7  1  0.552998  0.647902  0.729925  1
  F  F8  1  1.002453  0.834618  0.027881  1
  F  F9  1  0.664478  0.143609  0.275321  1
  F  F10  1  0.304148  0.902046  0.235938  1
  F  F11  1  0.143609  0.664478  0.775321  1
  F  F12  1  0.856391  0.335522  0.224679  1
  F  F13  1  0.695852  0.097954  0.764062  1
  F  F14  1  0.335522  0.856391  0.724679  1
  F  F15  1  -0.002453  0.165382  0.972119  1
  F  F16  1  0.447002  0.352098  0.270075  1
  F  F17  1  0.131082  0.108442  0.771697  1
  F  F18  1  0.529795  0.208732  0.028545  1
  F  F19  1  0.108442  0.131082  0.271697  1
  F  F20  1  0.647902  0.552998  0.229925  1
  F  F21  1  0.791268  0.470205  0.471455  1
  F  F22  1  0.902046  0.304148  0.735938  1
  F  F23  1  0.834618  1.002453  0.527881  1
  H  H24  1  0.258475  0.623908  0.097826  1
  H  H25  1  0.376092  0.741525  0.402174  1
  H  H26  1  0.509883  0.372768  0.594644  1
  H  H27  1  0.372768  0.509883  0.094644  1
  H  H28  1  0.627232  0.490117  0.905356  1
  H  H29  1  0.490117  0.627232  0.405356  1
  H  H30  1  0.623908  0.258475  0.597826  1
  H  H31  1  0.741525  0.376092  0.902174  1
  K  K32  1  0.146800  0.402160  0.233353  1
  K  K33  1  0.744700  0.995619  0.998509  1
  K  K34  1  0.004381  0.255300  0.501491  1
  K  K35  1  0.402160  0.146800  0.733353  1
  K  K36  1  0.597840  0.853200  0.266647  1
  K  K37  1  0.995619  0.744700  0.498509  1
  K  K38  1  0.255300  0.004381  0.001491  1
  K  K39  1  0.853200  0.597840  0.766647  1
  O  O40  1  0.260961  0.511912  0.069765  1
  O  O41  1  0.488088  0.739039  0.430235  1
  O  O42  1  0.511912  0.260961  0.569765  1
  O  O43  1  0.739039  0.488088  0.930235  1
  Sn  Sn44  1  0.094310  0.905690  0.250000  1
  Sn  Sn45  1  0.347200  0.652800  0.750000  1
  Sn  Sn46  1  0.652800  0.347200  0.250000  1
  Sn  Sn47  1  0.905690  0.094310  0.750000  1
