# generated using pymatgen
data_Ca10Si3S3(ClO12)2
_symmetry_space_group_name_H-M   'P 1'
_cell_length_a   9.84524622
_cell_length_b   9.77436832
_cell_length_c   6.82800037
_cell_angle_alpha   90.00000000
_cell_angle_beta   90.00000000
_cell_angle_gamma   119.31570365
_symmetry_Int_Tables_number   1
_chemical_formula_structural   Ca10Si3S3(ClO12)2
_chemical_formula_sum   'Ca10 Si3 S3 Cl2 O24'
_cell_volume   572.91868117
_cell_formula_units_Z   1
loop_
 _symmetry_equiv_pos_site_id
 _symmetry_equiv_pos_as_xyz
  1  'x, y, z'
loop_
 _atom_site_type_symbol
 _atom_site_label
 _atom_site_symmetry_multiplicity
 _atom_site_fract_x
 _atom_site_fract_y
 _atom_site_fract_z
 _atom_site_occupancy
  Ca  Ca0  1  0.260680  0.028123  0.250000  1
  Ca  Ca1  1  0.038621  0.273933  0.250000  1
  Ca  Ca2  1  0.313893  0.661089  0.994892  1
  Ca  Ca3  1  0.313893  0.661089  0.505108  1
  Ca  Ca4  1  0.245236  0.260461  0.750000  1
  Ca  Ca5  1  0.746079  0.732901  0.250000  1
  Ca  Ca6  1  0.645619  0.325279  0.509892  1
  Ca  Ca7  1  0.645619  0.325279  0.990108  1
  Ca  Ca8  1  0.040103  0.773800  0.750000  1
  Ca  Ca9  1  0.732224  0.019198  0.750000  1
  Cl  Cl10  1  0.987885  0.992374  1.002760  1
  Cl  Cl11  1  0.987885  0.992374  0.497240  1
  O  O12  1  0.264889  0.906351  0.945884  1
  O  O13  1  0.264889  0.906351  0.554116  1
  O  O14  1  0.121168  0.597746  0.750000  1
  O  O15  1  0.128937  0.636072  0.250000  1
  O  O16  1  0.096241  0.356923  0.558919  1
  O  O17  1  0.096241  0.356923  0.941081  1
  O  O18  1  0.469702  0.857817  0.750000  1
  O  O19  1  0.518431  0.859033  0.250000  1
  O  O20  1  0.349001  0.512549  0.250000  1
  O  O21  1  0.421747  0.541986  0.750000  1
  O  O22  1  0.358358  0.268314  0.057185  1
  O  O23  1  0.358358  0.268314  0.442815  1
  O  O24  1  0.651449  0.730905  0.573380  1
  O  O25  1  0.651449  0.730905  0.926620  1
  O  O26  1  0.607276  0.472241  0.250000  1
  O  O27  1  0.657688  0.517293  0.750000  1
  O  O28  1  0.506510  0.150000  0.750000  1
  O  O29  1  0.535325  0.119398  0.250000  1
  O  O30  1  0.913952  0.639164  0.073531  1
  O  O31  1  0.913952  0.639164  0.426469  1
  O  O32  1  0.834092  0.322894  0.750000  1
  O  O33  1  0.871254  0.404820  0.250000  1
  O  O34  1  0.726953  0.082430  0.075370  1
  O  O35  1  0.726953  0.082430  0.424630  1
  S  S36  1  0.596313  0.629765  0.750000  1
  S  S37  1  0.624822  0.031190  0.250000  1
  S  S38  1  0.959146  0.580816  0.250000  1
  Si  Si39  1  0.024882  0.403456  0.750000  1
  Si  Si40  1  0.378988  0.963219  0.750000  1
  Si  Si41  1  0.413295  0.385633  0.250000  1
