# generated using pymatgen
data_Er2Si3Rh
_symmetry_space_group_name_H-M   'P 1'
_cell_length_a   8.14896575
_cell_length_b   8.14896574
_cell_length_c   7.80335041
_cell_angle_alpha   90.00000000
_cell_angle_beta   90.00000000
_cell_angle_gamma   119.99999998
_symmetry_Int_Tables_number   1
_chemical_formula_structural   Er2Si3Rh
_chemical_formula_sum   'Er8 Si12 Rh4'
_cell_volume   448.76267258
_cell_formula_units_Z   4
loop_
 _symmetry_equiv_pos_site_id
 _symmetry_equiv_pos_as_xyz
  1  'x, y, z'
loop_
 _atom_site_type_symbol
 _atom_site_label
 _atom_site_symmetry_multiplicity
 _atom_site_fract_x
 _atom_site_fract_y
 _atom_site_fract_z
 _atom_site_occupancy
  Si  Si0  1  0.833324  0.166654  0.500383  1
  Si  Si1  1  0.833346  0.666670  0.500383  1
  Si  Si2  1  0.333330  0.166676  0.500383  1
  Si  Si3  1  0.166676  0.333330  0.499617  1
  Si  Si4  1  0.333330  0.166676  0.999617  1
  Si  Si5  1  0.833324  0.166654  0.999617  1
  Si  Si6  1  0.833346  0.666670  0.999617  1
  Si  Si7  1  0.166676  0.333330  0.000383  1
  Si  Si8  1  0.666670  0.833346  0.000383  1
  Si  Si9  1  0.666670  0.833346  0.499617  1
  Si  Si10  1  0.166654  0.833324  0.499617  1
  Si  Si11  1  0.166654  0.833324  0.000383  1
  Rh  Rh12  1  0.333333  0.666667  0.032784  1
  Rh  Rh13  1  0.666667  0.333333  0.967216  1
  Rh  Rh14  1  0.333333  0.666667  0.467216  1
  Rh  Rh15  1  0.666667  0.333333  0.532784  1
  Er  Er16  1  0.491256  0.982679  0.750000  1
  Er  Er17  1  0.491423  0.508744  0.750000  1
  Er  Er18  1  0.017321  0.508577  0.750000  1
  Er  Er19  1  0.982679  0.491256  0.250000  1
  Er  Er20  1  0.508744  0.491423  0.250000  1
  Er  Er21  1  0.508577  0.017321  0.250000  1
  Er  Er22  1  0.000000  0.000000  0.750000  1
  Er  Er23  1  0.000000  0.000000  0.250000  1
