# generated using pymatgen
data_SrTl2O4
_symmetry_space_group_name_H-M   'P 1'
_cell_length_a   3.47501257
_cell_length_b   10.21677767
_cell_length_c   11.93750904
_cell_angle_alpha   90.00000000
_cell_angle_beta   90.00000000
_cell_angle_gamma   90.00000000
_symmetry_Int_Tables_number   1
_chemical_formula_structural   SrTl2O4
_chemical_formula_sum   'Sr4 Tl8 O16'
_cell_volume   423.82252646
_cell_formula_units_Z   4
loop_
 _symmetry_equiv_pos_site_id
 _symmetry_equiv_pos_as_xyz
  1  'x, y, z'
loop_
 _atom_site_type_symbol
 _atom_site_label
 _atom_site_symmetry_multiplicity
 _atom_site_fract_x
 _atom_site_fract_y
 _atom_site_fract_z
 _atom_site_occupancy
  O  O0  1  0.250000  0.087788  0.074133  1
  O  O1  1  0.750000  0.912212  0.925867  1
  O  O2  1  0.250000  0.587788  0.425867  1
  O  O3  1  0.750000  0.412212  0.574133  1
  O  O4  1  0.250000  0.978757  0.720430  1
  O  O5  1  0.750000  0.021243  0.279570  1
  O  O6  1  0.250000  0.478757  0.779570  1
  O  O7  1  0.750000  0.521243  0.220430  1
  O  O8  1  0.250000  0.375108  0.025123  1
  O  O9  1  0.750000  0.624892  0.974877  1
  O  O10  1  0.250000  0.875108  0.474877  1
  O  O11  1  0.750000  0.124892  0.525123  1
  O  O12  1  0.750000  0.210698  0.820585  1
  O  O13  1  0.250000  0.789302  0.179415  1
  O  O14  1  0.750000  0.710698  0.679415  1
  O  O15  1  0.250000  0.289302  0.320585  1
  Sr  Sr16  1  0.250000  0.745462  0.848290  1
  Sr  Sr17  1  0.750000  0.254538  0.151710  1
  Sr  Sr18  1  0.250000  0.245462  0.651710  1
  Sr  Sr19  1  0.750000  0.754538  0.348290  1
  Tl  Tl20  1  0.250000  0.079901  0.392400  1
  Tl  Tl21  1  0.750000  0.920099  0.607600  1
  Tl  Tl22  1  0.250000  0.579901  0.107600  1
  Tl  Tl23  1  0.750000  0.420099  0.892400  1
  Tl  Tl24  1  0.250000  0.075195  0.890244  1
  Tl  Tl25  1  0.750000  0.924805  0.109756  1
  Tl  Tl26  1  0.250000  0.575195  0.609756  1
  Tl  Tl27  1  0.750000  0.424805  0.390244  1
