# generated using pymatgen
data_CoH22N7(ClO2)4
_symmetry_space_group_name_H-M   'P 1'
_cell_length_a   10.18161216
_cell_length_b   10.40547786
_cell_length_c   10.33756201
_cell_angle_alpha   41.20105349
_cell_angle_beta   39.19964142
_cell_angle_gamma   40.67916630
_symmetry_Int_Tables_number   1
_chemical_formula_structural   CoH22N7(ClO2)4
_chemical_formula_sum   'Co1 H22 N7 Cl4 O8'
_cell_volume   413.56273859
_cell_formula_units_Z   1
loop_
 _symmetry_equiv_pos_site_id
 _symmetry_equiv_pos_as_xyz
  1  'x, y, z'
loop_
 _atom_site_type_symbol
 _atom_site_label
 _atom_site_symmetry_multiplicity
 _atom_site_fract_x
 _atom_site_fract_y
 _atom_site_fract_z
 _atom_site_occupancy
  Co  Co0  1  0.000000  0.000000  0.000000  1
  H  H1  1  0.166184  0.573835  0.190793  1
  H  H2  1  0.201717  0.166471  0.563271  1
  H  H3  1  0.574447  0.189426  0.171141  1
  H  H4  1  0.062390  0.752858  0.346131  1
  H  H5  1  0.002688  0.342542  0.871809  1
  H  H6  1  0.345043  0.062238  0.749695  1
  H  H7  1  0.330231  0.881509  0.998624  1
  H  H8  1  0.743680  0.349500  0.066709  1
  H  H9  1  0.873246  0.996379  0.345558  1
  H  H10  1  0.316645  0.576141  0.567034  1
  H  H11  1  0.529164  0.596555  0.334010  1
  H  H12  1  0.470836  0.403445  0.665990  1
  H  H13  1  0.683355  0.423859  0.432966  1
  H  H14  1  0.126754  0.003621  0.654442  1
  H  H15  1  0.256320  0.650500  0.933291  1
  H  H16  1  0.669769  0.118491  0.001376  1
  H  H17  1  0.654957  0.937762  0.250305  1
  H  H18  1  0.997312  0.657458  0.128191  1
  H  H19  1  0.937610  0.247142  0.653869  1
  H  H20  1  0.425553  0.810574  0.828859  1
  H  H21  1  0.798283  0.833529  0.436729  1
  H  H22  1  0.833816  0.426165  0.809207  1
  N  N23  1  0.075229  0.114043  0.683442  1
  N  N24  1  0.113954  0.686110  0.072224  1
  N  N25  1  0.692573  0.069147  0.115706  1
  N  N26  1  0.500000  0.500000  0.500000  1
  N  N27  1  0.307427  0.930853  0.884294  1
  N  N28  1  0.886046  0.313890  0.927776  1
  N  N29  1  0.924771  0.885957  0.316558  1
  Cl  Cl30  1  0.182630  0.194738  0.184226  1
  Cl  Cl31  1  0.368363  0.371715  0.370773  1
  Cl  Cl32  1  0.631637  0.628285  0.629227  1
  Cl  Cl33  1  0.817370  0.805262  0.815774  1
  O  O34  1  0.130404  0.143269  0.134088  1
  O  O35  1  0.031291  0.656525  0.700012  1
  O  O36  1  0.663755  0.695439  0.024309  1
  O  O37  1  0.708678  0.997800  0.675548  1
  O  O38  1  0.291322  0.002200  0.324452  1
  O  O39  1  0.336245  0.304561  0.975691  1
  O  O40  1  0.968709  0.343475  0.299988  1
  O  O41  1  0.869596  0.856731  0.865912  1
