# generated using pymatgen
data_K2NaTiOF5
_symmetry_space_group_name_H-M   'P 1'
_cell_length_a   5.99689083
_cell_length_b   5.97906424
_cell_length_c   5.99689076
_cell_angle_alpha   60.09828570
_cell_angle_beta   59.80343646
_cell_angle_gamma   60.09827755
_symmetry_Int_Tables_number   1
_chemical_formula_structural   K2NaTiOF5
_chemical_formula_sum   'K2 Na1 Ti1 O1 F5'
_cell_volume   152.04174636
_cell_formula_units_Z   1
loop_
 _symmetry_equiv_pos_site_id
 _symmetry_equiv_pos_as_xyz
  1  'x, y, z'
loop_
 _atom_site_type_symbol
 _atom_site_label
 _atom_site_symmetry_multiplicity
 _atom_site_fract_x
 _atom_site_fract_y
 _atom_site_fract_z
 _atom_site_occupancy
  F  F0  1  0.225755  0.234232  0.765768  1
  F  F1  1  0.225755  0.774245  0.765768  1
  F  F2  1  0.765768  0.234232  0.225755  1
  F  F3  1  0.765768  0.774245  0.225755  1
  F  F4  1  0.769402  0.230598  0.769402  1
  K  K5  1  0.252737  0.247263  0.252737  1
  K  K6  1  0.752737  0.747263  0.752737  1
  Na  Na7  1  0.499990  0.500010  0.499990  1
  O  O8  1  0.221891  0.778109  0.221891  1
  Ti  Ti9  1  0.020197  0.979803  0.020197  1
