# generated using pymatgen
data_CuTeO3
_symmetry_space_group_name_H-M   'P 1'
_cell_length_a   6.01691350
_cell_length_b   7.67781926
_cell_length_c   12.88292390
_cell_angle_alpha   90.00000000
_cell_angle_beta   90.00000000
_cell_angle_gamma   90.00000000
_symmetry_Int_Tables_number   1
_chemical_formula_structural   CuTeO3
_chemical_formula_sum   'Cu8 Te8 O24'
_cell_volume   595.14952845
_cell_formula_units_Z   8
loop_
 _symmetry_equiv_pos_site_id
 _symmetry_equiv_pos_as_xyz
  1  'x, y, z'
loop_
 _atom_site_type_symbol
 _atom_site_label
 _atom_site_symmetry_multiplicity
 _atom_site_fract_x
 _atom_site_fract_y
 _atom_site_fract_z
 _atom_site_occupancy
  O  O0  1  0.943399  0.250000  0.010053  1
  O  O1  1  0.443399  0.750000  0.489947  1
  O  O2  1  0.056601  0.750000  0.989947  1
  O  O3  1  0.556601  0.250000  0.510053  1
  O  O4  1  0.575789  0.250000  0.180994  1
  O  O5  1  0.075789  0.750000  0.319006  1
  O  O6  1  0.424211  0.750000  0.819006  1
  O  O7  1  0.924211  0.250000  0.680994  1
  O  O8  1  0.097229  0.046960  0.831967  1
  O  O9  1  0.597229  0.953040  0.668033  1
  O  O10  1  0.902771  0.546960  0.168034  1
  O  O11  1  0.402771  0.453040  0.331966  1
  O  O12  1  0.902771  0.953040  0.168034  1
  O  O13  1  0.402771  0.046960  0.331966  1
  O  O14  1  0.097229  0.453040  0.831967  1
  O  O15  1  0.597229  0.546960  0.668033  1
  O  O16  1  0.654042  0.568771  0.958395  1
  O  O17  1  0.154042  0.431229  0.541605  1
  O  O18  1  0.345958  0.068771  0.041605  1
  O  O19  1  0.845958  0.931229  0.458395  1
  O  O20  1  0.345958  0.431229  0.041605  1
  O  O21  1  0.845958  0.568771  0.458395  1
  O  O22  1  0.654042  0.931229  0.958395  1
  O  O23  1  0.154042  0.068771  0.541605  1
  Cu  Cu24  1  0.350013  0.955375  0.904732  1
  Cu  Cu25  1  0.850013  0.044625  0.595268  1
  Cu  Cu26  1  0.649987  0.455375  0.095268  1
  Cu  Cu27  1  0.149987  0.544625  0.404732  1
  Cu  Cu28  1  0.649987  0.044625  0.095268  1
  Cu  Cu29  1  0.149987  0.955375  0.404732  1
  Cu  Cu30  1  0.350013  0.544625  0.904732  1
  Cu  Cu31  1  0.850013  0.455375  0.595268  1
  Te  Te32  1  0.586004  0.250000  0.344027  1
  Te  Te33  1  0.086004  0.750000  0.155973  1
  Te  Te34  1  0.413996  0.750000  0.655973  1
  Te  Te35  1  0.913996  0.250000  0.844027  1
  Te  Te36  1  0.679183  0.750000  0.388775  1
  Te  Te37  1  0.179183  0.250000  0.111225  1
  Te  Te38  1  0.320817  0.250000  0.611225  1
  Te  Te39  1  0.820817  0.750000  0.888775  1
