# generated using pymatgen
data_SrLaMnCoO6
_symmetry_space_group_name_H-M   'P 1'
_cell_length_a   5.46345401
_cell_length_b   5.44871464
_cell_length_c   5.48410499
_cell_angle_alpha   60.32859558
_cell_angle_beta   60.20350933
_cell_angle_gamma   60.59864584
_symmetry_Int_Tables_number   1
_chemical_formula_structural   SrLaMnCoO6
_chemical_formula_sum   'Sr1 La1 Mn1 Co1 O6'
_cell_volume   116.42014770
_cell_formula_units_Z   1
loop_
 _symmetry_equiv_pos_site_id
 _symmetry_equiv_pos_as_xyz
  1  'x, y, z'
loop_
 _atom_site_type_symbol
 _atom_site_label
 _atom_site_symmetry_multiplicity
 _atom_site_fract_x
 _atom_site_fract_y
 _atom_site_fract_z
 _atom_site_occupancy
  Sr  Sr0  1  0.249786  0.249853  0.249681  1
  La  La1  1  0.750072  0.750090  0.750042  1
  Mn  Mn2  1  0.499846  0.499866  0.499866  1
  Co  Co3  1  0.999273  0.999507  0.999168  1
  O  O4  1  0.250941  0.250629  0.748331  1
  O  O5  1  0.252959  0.746430  0.253236  1
  O  O6  1  0.254034  0.747843  0.747516  1
  O  O7  1  0.747003  0.251993  0.252600  1
  O  O8  1  0.746928  0.254491  0.746783  1
  O  O9  1  0.749158  0.749297  0.252779  1
