# generated using pymatgen
data_NaGdTiNbO6F
_symmetry_space_group_name_H-M   'P 1'
_cell_length_a   7.35552170
_cell_length_b   14.71663419
_cell_length_c   12.74658507
_cell_angle_alpha   29.98690514
_cell_angle_beta   54.75607295
_cell_angle_gamma   60.01221608
_symmetry_Int_Tables_number   1
_chemical_formula_structural   NaGdTiNbO6F
_chemical_formula_sum   'Na4 Gd4 Ti4 Nb4 O24 F4'
_cell_volume   563.21974177
_cell_formula_units_Z   4
loop_
 _symmetry_equiv_pos_site_id
 _symmetry_equiv_pos_as_xyz
  1  'x, y, z'
loop_
 _atom_site_type_symbol
 _atom_site_label
 _atom_site_symmetry_multiplicity
 _atom_site_fract_x
 _atom_site_fract_y
 _atom_site_fract_z
 _atom_site_occupancy
  F  F0  1  0.127696  0.002740  0.122289  1
  F  F1  1  0.122271  0.497294  0.127685  1
  F  F2  1  0.877731  0.497249  0.877728  1
  F  F3  1  0.872278  0.002746  0.872257  1
  Gd  Gd4  1  0.000015  0.033552  0.966446  1
  Gd  Gd5  1  0.966447  0.750015  -0.000019  1
  Gd  Gd6  1  0.499995  0.466475  0.033535  1
  Gd  Gd7  1  0.033538  0.749987  0.500002  1
  Na  Na8  1  0.019368  0.249995  0.000005  1
  Na  Na9  1  0.499992  0.019527  0.980544  1
  Na  Na10  1  0.000040  0.480461  0.019484  1
  Na  Na11  1  0.980621  0.250036  0.499987  1
  Nb  Nb12  1  0.490315  0.249973  0.500010  1
  Nb  Nb13  1  -0.000007  0.989941  0.510029  1
  Nb  Nb14  1  0.499984  0.510015  0.490007  1
  Nb  Nb15  1  0.509737  0.249989  0.000026  1
  O  O16  1  0.189212  0.185794  0.189204  1
  O  O17  1  0.176938  0.973266  0.600769  1
  O  O18  1  0.568927  0.196806  0.186161  1
  O  O19  1  0.165127  0.303202  0.579786  1
  O  O20  1  0.170070  0.704926  0.170083  1
  O  O21  1  0.431053  0.196834  0.420192  1
  O  O22  1  0.174971  0.526744  0.547317  1
  O  O23  1  0.399160  0.999071  0.825008  1
  O  O24  1  0.823061  0.973256  0.452704  1
  O  O25  1  0.547325  0.500947  0.174966  1
  O  O26  1  0.810792  0.185795  0.439198  1
  O  O27  1  0.560773  0.314222  0.560785  1
  O  O28  1  0.579801  0.701850  0.165148  1
  O  O29  1  0.420173  0.701872  0.431130  1
  O  O30  1  0.186177  0.798134  0.568862  1
  O  O31  1  0.439208  0.314186  0.810805  1
  O  O32  1  0.825010  0.526752  0.399202  1
  O  O33  1  0.452677  0.500938  0.823128  1
  O  O34  1  0.600850  0.999065  0.176846  1
  O  O35  1  0.834863  0.303188  0.813823  1
  O  O36  1  0.579945  0.795069  0.579932  1
  O  O37  1  0.829924  0.704912  0.420088  1
  O  O38  1  0.420074  0.795092  0.829914  1
  O  O39  1  0.813836  0.798153  0.834863  1
  Ti  Ti40  1  0.000028  0.517082  0.482901  1
  Ti  Ti41  1  0.499943  0.982878  0.517145  1
  Ti  Ti42  1  0.517479  0.750005  0.499973  1
  Ti  Ti43  1  0.482585  0.749966  0.000052  1
