# generated using pymatgen
data_Cs2ZrTlOF5
_symmetry_space_group_name_H-M   'P 1'
_cell_length_a   6.81961635
_cell_length_b   6.85893162
_cell_length_c   6.81961697
_cell_angle_alpha   59.80910797
_cell_angle_beta   60.38177472
_cell_angle_gamma   59.80910769
_symmetry_Int_Tables_number   1
_chemical_formula_structural   Cs2ZrTlOF5
_chemical_formula_sum   'Cs2 Zr1 Tl1 O1 F5'
_cell_volume   225.54454819
_cell_formula_units_Z   1
loop_
 _symmetry_equiv_pos_site_id
 _symmetry_equiv_pos_as_xyz
  1  'x, y, z'
loop_
 _atom_site_type_symbol
 _atom_site_label
 _atom_site_symmetry_multiplicity
 _atom_site_fract_x
 _atom_site_fract_y
 _atom_site_fract_z
 _atom_site_occupancy
  Cs  Cs0  1  0.251654  0.248346  0.251654  1
  Cs  Cs1  1  0.751654  0.748346  0.751654  1
  F  F2  1  0.210237  0.219475  0.780525  1
  F  F3  1  0.780525  0.219475  0.210237  1
  F  F4  1  0.210237  0.789763  0.780525  1
  F  F5  1  0.780525  0.789763  0.210237  1
  F  F6  1  0.790402  0.209598  0.790402  1
  O  O7  1  0.218830  0.781170  0.218830  1
  Tl  Tl8  1  0.486933  0.513067  0.486933  1
  Zr  Zr9  1  0.019002  0.980998  0.019002  1
