# generated using pymatgen
data_CsBF4
_symmetry_space_group_name_H-M   'P 1'
_cell_length_a   5.95004267
_cell_length_b   7.78934892
_cell_length_c   9.80028685
_cell_angle_alpha   90.00000000
_cell_angle_beta   90.00000000
_cell_angle_gamma   90.00000000
_symmetry_Int_Tables_number   1
_chemical_formula_structural   CsBF4
_chemical_formula_sum   'Cs4 B4 F16'
_cell_volume   454.21348739
_cell_formula_units_Z   4
loop_
 _symmetry_equiv_pos_site_id
 _symmetry_equiv_pos_as_xyz
  1  'x, y, z'
loop_
 _atom_site_type_symbol
 _atom_site_label
 _atom_site_symmetry_multiplicity
 _atom_site_fract_x
 _atom_site_fract_y
 _atom_site_fract_z
 _atom_site_occupancy
  B  B0  1  0.250000  0.197962  0.052317  1
  B  B1  1  0.250000  0.302038  0.552317  1
  B  B2  1  0.750000  0.697962  0.447683  1
  B  B3  1  0.750000  0.802038  0.947683  1
  F  F4  1  0.555352  0.802430  0.428182  1
  F  F5  1  0.944648  0.697570  0.928182  1
  F  F6  1  0.444648  0.302430  0.071818  1
  F  F7  1  0.055352  0.197570  0.571818  1
  F  F8  1  0.250000  0.368263  0.418328  1
  F  F9  1  0.750000  0.631737  0.581673  1
  F  F10  1  0.750000  0.868263  0.081672  1
  F  F11  1  0.250000  0.131737  0.918327  1
  F  F12  1  0.250000  0.064098  0.150000  1
  F  F13  1  0.750000  0.935902  0.850000  1
  F  F14  1  0.750000  0.564098  0.350000  1
  F  F15  1  0.250000  0.435902  0.650000  1
  F  F16  1  0.055352  0.302430  0.071818  1
  F  F17  1  0.555352  0.697570  0.928182  1
  F  F18  1  0.944648  0.802430  0.428182  1
  F  F19  1  0.444648  0.197570  0.571818  1
  Cs  Cs20  1  0.250000  0.838509  0.691102  1
  Cs  Cs21  1  0.750000  0.161491  0.308898  1
  Cs  Cs22  1  0.750000  0.338509  0.808898  1
  Cs  Cs23  1  0.250000  0.661491  0.191102  1
