# generated using pymatgen
data_RbReO4
_symmetry_space_group_name_H-M   'P 1'
_cell_length_a   6.00964794
_cell_length_b   6.00964795
_cell_length_c   7.97191012
_cell_angle_alpha   112.14343080
_cell_angle_beta   112.14343079
_cell_angle_gamma   90.00000005
_symmetry_Int_Tables_number   1
_chemical_formula_structural   RbReO4
_chemical_formula_sum   'Rb2 Re2 O8'
_cell_volume   243.59722732
_cell_formula_units_Z   2
loop_
 _symmetry_equiv_pos_site_id
 _symmetry_equiv_pos_as_xyz
  1  'x, y, z'
loop_
 _atom_site_type_symbol
 _atom_site_label
 _atom_site_symmetry_multiplicity
 _atom_site_fract_x
 _atom_site_fract_y
 _atom_site_fract_z
 _atom_site_occupancy
  O  O0  1  0.909884  0.337008  0.601315  1
  O  O1  1  0.264308  0.409884  0.101315  1
  O  O2  1  0.837008  0.191431  0.101315  1
  O  O3  1  0.691431  0.764308  0.601315  1
  O  O4  1  0.308569  0.235692  0.398685  1
  O  O5  1  0.162992  0.808569  0.898685  1
  O  O6  1  0.735692  0.590116  0.898685  1
  O  O7  1  0.090116  0.662992  0.398685  1
  Rb  Rb8  1  0.625000  0.875000  0.250000  1
  Rb  Rb9  1  0.375000  0.125000  0.750000  1
  Re  Re10  1  0.125000  0.375000  0.250000  1
  Re  Re11  1  0.875000  0.625000  0.750000  1
