# generated using pymatgen
data_KCu2H20N3(Cl2O)4
_symmetry_space_group_name_H-M   'P 1'
_cell_length_a   7.68043526
_cell_length_b   7.68043526
_cell_length_c   8.00730071
_cell_angle_alpha   90.00000000
_cell_angle_beta   90.00000000
_cell_angle_gamma   90.00000000
_symmetry_Int_Tables_number   1
_chemical_formula_structural   KCu2H20N3(Cl2O)4
_chemical_formula_sum   'K1 Cu2 H20 N3 Cl8 O4'
_cell_volume   472.34334847
_cell_formula_units_Z   1
loop_
 _symmetry_equiv_pos_site_id
 _symmetry_equiv_pos_as_xyz
  1  'x, y, z'
loop_
 _atom_site_type_symbol
 _atom_site_label
 _atom_site_symmetry_multiplicity
 _atom_site_fract_x
 _atom_site_fract_y
 _atom_site_fract_z
 _atom_site_occupancy
  Cl  Cl0  1  0.213484  0.217751  0.497840  1
  Cl  Cl1  1  0.214370  0.203790  0.996049  1
  Cl  Cl2  1  0.296210  0.714370  0.503951  1
  Cl  Cl3  1  0.282249  0.713484  0.002160  1
  Cl  Cl4  1  0.717751  0.286516  0.002160  1
  Cl  Cl5  1  0.703790  0.285630  0.503951  1
  Cl  Cl6  1  0.785630  0.796210  0.996049  1
  Cl  Cl7  1  0.786516  0.782249  0.497840  1
  Cu  Cu8  1  0.500000  0.500000  0.500989  1
  Cu  Cu9  1  0.000000  0.000000  0.999011  1
  H  H10  1  0.071675  0.415721  0.324564  1
  H  H11  1  0.071961  0.416121  0.675462  1
  H  H12  1  0.083879  0.571961  0.824538  1
  H  H13  1  0.084279  0.571675  0.175436  1
  H  H14  1  0.073844  0.074658  0.316468  1
  H  H15  1  0.073555  0.075008  0.681300  1
  H  H16  1  0.425342  0.573844  0.183532  1
  H  H17  1  0.424992  0.573555  0.818700  1
  H  H18  1  0.416288  0.072261  0.324366  1
  H  H19  1  0.427739  0.916288  0.175634  1
  H  H20  1  0.572261  0.083712  0.175634  1
  H  H21  1  0.583712  0.927739  0.324366  1
  H  H22  1  0.574658  0.426156  0.183532  1
  H  H23  1  0.575008  0.426445  0.818700  1
  H  H24  1  0.926156  0.925342  0.316468  1
  H  H25  1  0.926445  0.924992  0.681300  1
  H  H26  1  0.915721  0.428325  0.175436  1
  H  H27  1  0.916121  0.428039  0.824538  1
  H  H28  1  0.928325  0.584279  0.324564  1
  H  H29  1  0.928039  0.583879  0.675462  1
  K  K30  1  0.500000  0.000000  0.750000  1
  N  N31  1  0.000000  0.500000  0.250000  1
  N  N32  1  0.500000  0.000000  0.250000  1
  N  N33  1  0.000000  0.500000  0.750000  1
  O  O34  1  0.000000  0.000000  0.753334  1
  O  O35  1  0.500000  0.500000  0.255552  1
  O  O36  1  0.500000  0.500000  0.746666  1
  O  O37  1  0.000000  0.000000  0.244448  1
