# generated using pymatgen
data_Cu(RhO2)2
_symmetry_space_group_name_H-M   'P 1'
_cell_length_a   6.09713136
_cell_length_b   6.09713135
_cell_length_c   6.09713136
_cell_angle_alpha   90.07840856
_cell_angle_beta   119.95474115
_cell_angle_gamma   119.95474113
_symmetry_Int_Tables_number   1
_chemical_formula_structural   Cu(RhO2)2
_chemical_formula_sum   'Cu2 Rh4 O8'
_cell_volume   160.38295470
_cell_formula_units_Z   2
loop_
 _symmetry_equiv_pos_site_id
 _symmetry_equiv_pos_as_xyz
  1  'x, y, z'
loop_
 _atom_site_type_symbol
 _atom_site_label
 _atom_site_symmetry_multiplicity
 _atom_site_fract_x
 _atom_site_fract_y
 _atom_site_fract_z
 _atom_site_occupancy
  O  O0  1  0.022147  0.739228  0.261375  1
  O  O1  1  0.477853  0.739228  0.717081  1
  O  O2  1  0.477853  0.738625  0.260772  1
  O  O3  1  0.977853  0.717081  0.739228  1
  O  O4  1  0.522147  0.261375  0.739228  1
  O  O5  1  0.522147  0.260772  0.282919  1
  O  O6  1  0.022147  0.282919  0.260772  1
  O  O7  1  0.977853  0.260772  0.738625  1
  Cu  Cu8  1  0.750000  0.875000  0.125000  1
  Cu  Cu9  1  0.250000  0.125000  0.875000  1
  Rh  Rh10  1  0.000000  0.500000  0.000000  1
  Rh  Rh11  1  0.000000  0.500000  0.500000  1
  Rh  Rh12  1  0.500000  0.500000  0.500000  1
  Rh  Rh13  1  0.500000  0.000000  0.500000  1
