# generated using pymatgen
data_Ca3Ti2AlSi3O14F
_symmetry_space_group_name_H-M   'P 1'
_cell_length_a   5.46296699
_cell_length_b   16.41341547
_cell_length_c   7.09777726
_cell_angle_alpha   104.50045871
_cell_angle_beta   104.41802882
_cell_angle_gamma   105.64447770
_symmetry_Int_Tables_number   1
_chemical_formula_structural   Ca3Ti2AlSi3O14F
_chemical_formula_sum   'Ca6 Ti4 Al2 Si6 O28 F2'
_cell_volume   558.08762499
_cell_formula_units_Z   2
loop_
 _symmetry_equiv_pos_site_id
 _symmetry_equiv_pos_as_xyz
  1  'x, y, z'
loop_
 _atom_site_type_symbol
 _atom_site_label
 _atom_site_symmetry_multiplicity
 _atom_site_fract_x
 _atom_site_fract_y
 _atom_site_fract_z
 _atom_site_occupancy
  Al  Al0  1  0.500000  0.833333  0.500000  1
  Al  Al1  1  0.500000  0.833333  0.000000  1
  Ca  Ca2  1  0.162072  0.942911  0.747899  1
  Ca  Ca3  1  0.173079  0.613358  0.753264  1
  Ca  Ca4  1  0.168973  0.275363  0.749733  1
  Ca  Ca5  1  0.837928  0.723756  0.252101  1
  Ca  Ca6  1  0.831027  0.391304  0.250267  1
  Ca  Ca7  1  0.826921  0.053308  0.246736  1
  F  F8  1  0.435824  0.857257  0.751183  1
  F  F9  1  0.564176  0.809410  0.248817  1
  O  O10  1  0.133042  0.755741  0.904514  1
  O  O11  1  0.198290  0.867889  0.387046  1
  O  O12  1  0.122339  0.417385  0.913064  1
  O  O13  1  0.260551  0.713451  0.411697  1
  O  O14  1  0.387753  0.931618  0.109927  1
  O  O15  1  0.188697  0.540730  0.387522  1
  O  O16  1  0.612247  0.735048  0.890073  1
  O  O17  1  0.739449  0.953215  0.588303  1
  O  O18  1  0.428445  0.524365  0.752591  1
  O  O19  1  0.116244  0.080542  0.906027  1
  O  O20  1  0.250374  0.374242  0.409723  1
  O  O21  1  0.395718  0.608130  0.121637  1
  O  O22  1  0.184094  0.202411  0.380411  1
  O  O23  1  0.801710  0.798778  0.612954  1
  O  O24  1  0.610876  0.395815  0.883954  1
  O  O25  1  0.748498  0.629477  0.597840  1
  O  O26  1  0.427197  0.187830  0.746508  1
  O  O27  1  0.866958  0.910925  0.095486  1
  O  O28  1  0.572803  0.478836  0.253492  1
  O  O29  1  0.251501  0.037190  0.402160  1
  O  O30  1  0.389124  0.270852  0.116046  1
  O  O31  1  0.815906  0.464255  0.619589  1
  O  O32  1  0.604282  0.058537  0.878363  1
  O  O33  1  0.749626  0.292425  0.590277  1
  O  O34  1  0.883756  0.586125  0.093973  1
  O  O35  1  0.571555  0.142302  0.247409  1
  O  O36  1  0.811303  0.125937  0.612478  1
  O  O37  1  0.877661  0.249282  0.086936  1
  Si  Si38  1  0.179149  0.933909  0.244519  1
  Si  Si39  1  0.189471  0.610861  0.256296  1
  Si  Si40  1  0.181374  0.272642  0.249797  1
  Si  Si41  1  0.820851  0.732758  0.755481  1
  Si  Si42  1  0.818626  0.394025  0.750203  1
  Si  Si43  1  0.810529  0.055805  0.743704  1
  Ti  Ti44  1  0.503480  0.502962  0.503406  1
  Ti  Ti45  1  0.500831  0.501070  0.001028  1
  Ti  Ti46  1  0.496520  0.163705  0.496594  1
  Ti  Ti47  1  0.499169  0.165597  0.998972  1
