# generated using pymatgen
data_U3(CuGe)4
_symmetry_space_group_name_H-M   'P 1'
_cell_length_a   4.31290232
_cell_length_b   6.58460133
_cell_length_c   7.93603311
_cell_angle_alpha   114.51470325
_cell_angle_beta   105.76718448
_cell_angle_gamma   90.00000001
_symmetry_Int_Tables_number   1
_chemical_formula_structural   U3(CuGe)4
_chemical_formula_sum   'U3 Cu4 Ge4'
_cell_volume   195.69872230
_cell_formula_units_Z   1
loop_
 _symmetry_equiv_pos_site_id
 _symmetry_equiv_pos_as_xyz
  1  'x, y, z'
loop_
 _atom_site_type_symbol
 _atom_site_label
 _atom_site_symmetry_multiplicity
 _atom_site_fract_x
 _atom_site_fract_y
 _atom_site_fract_z
 _atom_site_occupancy
  Cu  Cu0  1  0.670592  0.860471  0.341184  1
  Cu  Cu1  1  0.329408  0.139529  0.658816  1
  Cu  Cu2  1  0.670596  0.480660  0.341193  1
  Cu  Cu3  1  0.329404  0.519340  0.658807  1
  Ge  Ge4  1  0.783858  0.283848  0.567715  1
  Ge  Ge5  1  0.500008  0.802570  0.000017  1
  Ge  Ge6  1  0.499992  0.197430  -0.000017  1
  Ge  Ge7  1  0.216142  0.716152  0.432285  1
  U  U8  1  0.876543  0.876524  0.753087  1
  U  U9  1  0.123457  0.123476  0.246913  1
  U  U10  1  0.000000  0.500000  0.000000  1
