# generated using pymatgen
data_RbAlF4
_symmetry_space_group_name_H-M   'P 1'
_cell_length_a   6.39693847
_cell_length_b   7.36952172
_cell_length_c   7.37942958
_cell_angle_alpha   90.00000000
_cell_angle_beta   90.00000000
_cell_angle_gamma   90.00000000
_symmetry_Int_Tables_number   1
_chemical_formula_structural   RbAlF4
_chemical_formula_sum   'Rb4 Al4 F16'
_cell_volume   347.88385128
_cell_formula_units_Z   4
loop_
 _symmetry_equiv_pos_site_id
 _symmetry_equiv_pos_as_xyz
  1  'x, y, z'
loop_
 _atom_site_type_symbol
 _atom_site_label
 _atom_site_symmetry_multiplicity
 _atom_site_fract_x
 _atom_site_fract_y
 _atom_site_fract_z
 _atom_site_occupancy
  F  F0  1  0.722005  0.017489  0.502791  1
  F  F1  1  0.722005  0.482511  0.997209  1
  F  F2  1  0.277995  0.517489  0.497209  1
  F  F3  1  0.277995  0.982511  0.002791  1
  F  F4  1  0.277995  0.982511  0.497209  1
  F  F5  1  0.277995  0.517489  0.002791  1
  F  F6  1  0.722005  0.482511  0.502791  1
  F  F7  1  0.722005  0.017489  0.997209  1
  F  F8  1  0.007316  0.032958  0.750000  1
  F  F9  1  0.007316  0.467043  0.750000  1
  F  F10  1  0.992684  0.532957  0.250000  1
  F  F11  1  0.992684  0.967043  0.250000  1
  F  F12  1  0.974743  0.750000  0.966976  1
  F  F13  1  0.974743  0.750000  0.533024  1
  F  F14  1  0.025257  0.250000  0.033024  1
  F  F15  1  0.025257  0.250000  0.466976  1
  Al  Al16  1  0.000000  0.000000  0.500000  1
  Al  Al17  1  0.000000  0.500000  0.000000  1
  Al  Al18  1  0.000000  0.500000  0.500000  1
  Al  Al19  1  0.000000  0.000000  0.000000  1
  Rb  Rb20  1  0.519434  0.750000  0.250000  1
  Rb  Rb21  1  0.480566  0.250000  0.750000  1
  Rb  Rb22  1  0.483866  0.250000  0.250000  1
  Rb  Rb23  1  0.516134  0.750000  0.750000  1
