# generated using pymatgen
data_RbSb3Se5
_symmetry_space_group_name_H-M   'P 1'
_cell_length_a   8.88770968
_cell_length_b   9.86153710
_cell_length_c   13.40075826
_cell_angle_alpha   90.00000000
_cell_angle_beta   90.00000000
_cell_angle_gamma   97.16262951
_symmetry_Int_Tables_number   1
_chemical_formula_structural   RbSb3Se5
_chemical_formula_sum   'Rb4 Sb12 Se20'
_cell_volume   1165.36352597
_cell_formula_units_Z   4
loop_
 _symmetry_equiv_pos_site_id
 _symmetry_equiv_pos_as_xyz
  1  'x, y, z'
loop_
 _atom_site_type_symbol
 _atom_site_label
 _atom_site_symmetry_multiplicity
 _atom_site_fract_x
 _atom_site_fract_y
 _atom_site_fract_z
 _atom_site_occupancy
  Se  Se0  1  0.142619  0.964345  0.188947  1
  Se  Se1  1  0.357381  0.535655  0.688947  1
  Se  Se2  1  0.857381  0.035655  0.811053  1
  Se  Se3  1  0.642619  0.464345  0.311053  1
  Se  Se4  1  0.273800  0.098582  0.914211  1
  Se  Se5  1  0.226200  0.401418  0.414211  1
  Se  Se6  1  0.726200  0.901418  0.085789  1
  Se  Se7  1  0.773800  0.598582  0.585789  1
  Se  Se8  1  0.245857  0.355846  0.121555  1
  Se  Se9  1  0.254143  0.144154  0.621555  1
  Se  Se10  1  0.754143  0.644154  0.878445  1
  Se  Se11  1  0.745857  0.855846  0.378445  1
  Se  Se12  1  0.047981  0.405053  0.855331  1
  Se  Se13  1  0.452019  0.094947  0.355331  1
  Se  Se14  1  0.952019  0.594947  0.144669  1
  Se  Se15  1  0.547981  0.905053  0.644669  1
  Se  Se16  1  0.812243  0.213926  0.518202  1
  Se  Se17  1  0.687757  0.286074  0.018202  1
  Se  Se18  1  0.187757  0.786074  0.481798  1
  Se  Se19  1  0.312243  0.713926  0.981798  1
  Rb  Rb20  1  0.374983  0.697617  0.248333  1
  Rb  Rb21  1  0.125017  0.802383  0.748333  1
  Rb  Rb22  1  0.625017  0.302383  0.751667  1
  Rb  Rb23  1  0.874983  0.197617  0.251667  1
  Sb  Sb24  1  0.992096  0.178270  0.958923  1
  Sb  Sb25  1  0.507904  0.321730  0.458923  1
  Sb  Sb26  1  0.007904  0.821730  0.041077  1
  Sb  Sb27  1  0.492096  0.678270  0.541077  1
  Sb  Sb28  1  0.318712  0.459930  0.940177  1
  Sb  Sb29  1  0.181288  0.040070  0.440177  1
  Sb  Sb30  1  0.681288  0.540070  0.059823  1
  Sb  Sb31  1  0.818712  0.959930  0.559823  1
  Sb  Sb32  1  0.876738  0.630421  0.402253  1
  Sb  Sb33  1  0.623262  0.869579  0.902253  1
  Sb  Sb34  1  0.123262  0.369579  0.597747  1
  Sb  Sb35  1  0.376738  0.130421  0.097747  1
