# generated using pymatgen
data_Ca(GaO2)2
_symmetry_space_group_name_H-M   'P 1'
_cell_length_a   3.03082939
_cell_length_b   9.23935952
_cell_length_c   10.69768834
_cell_angle_alpha   90.00000000
_cell_angle_beta   90.00000000
_cell_angle_gamma   90.00000000
_symmetry_Int_Tables_number   1
_chemical_formula_structural   Ca(GaO2)2
_chemical_formula_sum   'Ca4 Ga8 O16'
_cell_volume   299.56653621
_cell_formula_units_Z   4
loop_
 _symmetry_equiv_pos_site_id
 _symmetry_equiv_pos_as_xyz
  1  'x, y, z'
loop_
 _atom_site_type_symbol
 _atom_site_label
 _atom_site_symmetry_multiplicity
 _atom_site_fract_x
 _atom_site_fract_y
 _atom_site_fract_z
 _atom_site_occupancy
  O  O0  1  0.250000  0.082264  0.072070  1
  O  O1  1  0.750000  0.917736  0.927930  1
  O  O2  1  0.250000  0.582264  0.427930  1
  O  O3  1  0.750000  0.417736  0.572070  1
  O  O4  1  0.250000  0.972494  0.716441  1
  O  O5  1  0.750000  0.027506  0.283559  1
  O  O6  1  0.250000  0.472494  0.783559  1
  O  O7  1  0.750000  0.527506  0.216441  1
  O  O8  1  0.250000  0.382232  0.022769  1
  O  O9  1  0.750000  0.617768  0.977231  1
  O  O10  1  0.250000  0.882232  0.477231  1
  O  O11  1  0.750000  0.117768  0.522769  1
  O  O12  1  0.750000  0.204097  0.838125  1
  O  O13  1  0.250000  0.795903  0.161875  1
  O  O14  1  0.750000  0.704097  0.661875  1
  O  O15  1  0.250000  0.295903  0.338125  1
  Ca  Ca16  1  0.750000  0.757231  0.345816  1
  Ca  Ca17  1  0.250000  0.242769  0.654184  1
  Ca  Ca18  1  0.750000  0.257231  0.154184  1
  Ca  Ca19  1  0.250000  0.742769  0.845816  1
  Ga  Ga20  1  0.250000  0.064740  0.888509  1
  Ga  Ga21  1  0.750000  0.935260  0.111491  1
  Ga  Ga22  1  0.250000  0.564740  0.611491  1
  Ga  Ga23  1  0.750000  0.435260  0.388509  1
  Ga  Ga24  1  0.750000  0.418100  0.895627  1
  Ga  Ga25  1  0.250000  0.581900  0.104373  1
  Ga  Ga26  1  0.750000  0.918100  0.604373  1
  Ga  Ga27  1  0.250000  0.081900  0.395627  1
