# generated using pymatgen
data_Ba(SbSe2)2
_symmetry_space_group_name_H-M   'P 1'
_cell_length_a   8.78131583
_cell_length_b   9.29931542
_cell_length_c   21.30377419
_cell_angle_alpha   90.00000000
_cell_angle_beta   90.00000000
_cell_angle_gamma   90.96569551
_symmetry_Int_Tables_number   1
_chemical_formula_structural   Ba(SbSe2)2
_chemical_formula_sum   'Ba8 Sb16 Se32'
_cell_volume   1739.42391368
_cell_formula_units_Z   8
loop_
 _symmetry_equiv_pos_site_id
 _symmetry_equiv_pos_as_xyz
  1  'x, y, z'
loop_
 _atom_site_type_symbol
 _atom_site_label
 _atom_site_symmetry_multiplicity
 _atom_site_fract_x
 _atom_site_fract_y
 _atom_site_fract_z
 _atom_site_occupancy
  Se  Se0  1  0.329822  0.634054  0.854210  1
  Se  Se1  1  0.170178  0.865946  0.354210  1
  Se  Se2  1  0.670178  0.365946  0.145790  1
  Se  Se3  1  0.829822  0.134054  0.645790  1
  Se  Se4  1  0.999103  0.893039  0.924858  1
  Se  Se5  1  0.500897  0.606961  0.424858  1
  Se  Se6  1  0.000897  0.106961  0.075142  1
  Se  Se7  1  0.499103  0.393039  0.575142  1
  Se  Se8  1  0.161002  0.428244  0.347012  1
  Se  Se9  1  0.338998  0.071756  0.847012  1
  Se  Se10  1  0.838998  0.571756  0.652988  1
  Se  Se11  1  0.661002  0.928244  0.152988  1
  Se  Se12  1  0.143707  0.663155  0.533313  1
  Se  Se13  1  0.356293  0.836845  0.033313  1
  Se  Se14  1  0.856293  0.336845  0.466687  1
  Se  Se15  1  0.643707  0.163155  0.966687  1
  Se  Se16  1  0.051171  0.320124  0.913359  1
  Se  Se17  1  0.448829  0.179876  0.413359  1
  Se  Se18  1  0.948829  0.679876  0.086641  1
  Se  Se19  1  0.551171  0.820124  0.586641  1
  Se  Se20  1  0.290496  0.430446  0.062226  1
  Se  Se21  1  0.209504  0.069554  0.562226  1
  Se  Se22  1  0.709504  0.569554  0.937774  1
  Se  Se23  1  0.790496  0.930446  0.437774  1
  Se  Se24  1  0.831705  0.647377  0.271798  1
  Se  Se25  1  0.668295  0.852623  0.771798  1
  Se  Se26  1  0.168295  0.352623  0.728202  1
  Se  Se27  1  0.331705  0.147377  0.228202  1
  Se  Se28  1  0.655437  0.351390  0.781681  1
  Se  Se29  1  0.844563  0.148610  0.281681  1
  Se  Se30  1  0.344563  0.648610  0.218319  1
  Se  Se31  1  0.155437  0.851390  0.718319  1
  Sb  Sb32  1  0.194840  0.090548  0.965989  1
  Sb  Sb33  1  0.305160  0.409452  0.465990  1
  Sb  Sb34  1  0.805160  0.909452  0.034010  1
  Sb  Sb35  1  0.694840  0.590548  0.534011  1
  Sb  Sb36  1  0.158673  0.645209  0.994680  1
  Sb  Sb37  1  0.341327  0.854791  0.494680  1
  Sb  Sb38  1  0.841327  0.354791  0.005320  1
  Sb  Sb39  1  0.658673  0.145209  0.505320  1
  Sb  Sb40  1  0.009832  0.880109  0.612147  1
  Sb  Sb41  1  0.490168  0.619891  0.112147  1
  Sb  Sb42  1  0.990168  0.119891  0.387853  1
  Sb  Sb43  1  0.509832  0.380109  0.887853  1
  Sb  Sb44  1  0.015090  0.352677  0.621468  1
  Sb  Sb45  1  0.484910  0.147323  0.121468  1
  Sb  Sb46  1  0.984910  0.647323  0.378532  1
  Sb  Sb47  1  0.515090  0.852677  0.878532  1
  Ba  Ba48  1  0.945616  0.101643  0.795367  1
  Ba  Ba49  1  0.554384  0.398357  0.295367  1
  Ba  Ba50  1  0.054384  0.898357  0.204633  1
  Ba  Ba51  1  0.445616  0.601643  0.704633  1
  Ba  Ba52  1  0.054903  0.399506  0.194515  1
  Ba  Ba53  1  0.445097  0.100494  0.694515  1
  Ba  Ba54  1  0.945097  0.600494  0.805485  1
  Ba  Ba55  1  0.554903  0.899506  0.305485  1
