# generated using pymatgen
data_NaSm3Ti2(SbO7)2
_symmetry_space_group_name_H-M   'P 1'
_cell_length_a   7.38686509
_cell_length_b   14.76455909
_cell_length_c   12.80624520
_cell_angle_alpha   29.84602072
_cell_angle_beta   54.40945803
_cell_angle_gamma   59.68197529
_symmetry_Int_Tables_number   1
_chemical_formula_structural   NaSm3Ti2(SbO7)2
_chemical_formula_sum   'Na2 Sm6 Ti4 Sb4 O28'
_cell_volume   565.24965696
_cell_formula_units_Z   2
loop_
 _symmetry_equiv_pos_site_id
 _symmetry_equiv_pos_as_xyz
  1  'x, y, z'
loop_
 _atom_site_type_symbol
 _atom_site_label
 _atom_site_symmetry_multiplicity
 _atom_site_fract_x
 _atom_site_fract_y
 _atom_site_fract_z
 _atom_site_occupancy
  Na  Na0  1  0.000000  0.250000  0.000000  1
  Na  Na1  1  -0.000000  0.250000  0.500000  1
  O  O2  1  0.179992  0.197086  0.184567  1
  O  O3  1  0.127350  0.505714  0.115236  1
  O  O4  1  0.178705  0.981029  0.589859  1
  O  O5  1  0.571953  0.203127  0.175186  1
  O  O6  1  0.427997  0.203132  0.418572  1
  O  O7  1  0.179995  0.302907  0.578758  1
  O  O8  1  0.182746  0.697046  0.174939  1
  O  O9  1  0.577142  0.500167  0.172912  1
  O  O10  1  0.127371  0.994284  0.126657  1
  O  O11  1  0.422857  0.999833  0.827088  1
  O  O12  1  0.178717  0.518957  0.551939  1
  O  O13  1  0.572002  0.296868  0.581428  1
  O  O14  1  0.820005  0.197093  0.421242  1
  O  O15  1  0.577752  0.705052  0.167690  1
  O  O16  1  0.422302  0.705038  0.422207  1
  O  O17  1  0.428047  0.296873  0.824814  1
  O  O18  1  0.182724  0.802955  0.569010  1
  O  O19  1  0.821295  0.518971  0.410141  1
  O  O20  1  0.872649  0.994286  0.884764  1
  O  O21  1  0.422845  0.500169  0.826757  1
  O  O22  1  0.577155  0.999831  0.173243  1
  O  O23  1  0.820008  0.302914  0.815433  1
  O  O24  1  0.817276  0.697045  0.430990  1
  O  O25  1  0.577698  0.794962  0.577793  1
  O  O26  1  0.422248  0.794949  0.832310  1
  O  O27  1  0.821283  0.981043  0.448061  1
  O  O28  1  0.872629  0.505716  0.873343  1
  O  O29  1  0.817254  0.802954  0.825061  1
  Sb  Sb30  1  0.500000  0.250000  0.500000  1
  Sb  Sb31  1  0.499988  0.505075  0.494919  1
  Sb  Sb32  1  0.500000  0.250000  0.000000  1
  Sb  Sb33  1  0.500012  0.994925  0.505081  1
  Sm  Sm34  1  0.000004  0.022215  0.977786  1
  Sm  Sm35  1  0.500003  0.006966  0.993040  1
  Sm  Sm36  1  0.999996  0.477785  0.022214  1
  Sm  Sm37  1  0.000000  0.750000  0.000000  1
  Sm  Sm38  1  0.499997  0.493034  0.006960  1
  Sm  Sm39  1  0.000000  0.750000  0.500000  1
  Ti  Ti40  1  0.000016  0.987139  0.512850  1
  Ti  Ti41  1  0.500000  0.750000  0.500000  1
  Ti  Ti42  1  0.999984  0.512861  0.487150  1
  Ti  Ti43  1  0.500000  0.750000  0.000000  1
