# generated using pymatgen
data_BaAlF5
_symmetry_space_group_name_H-M   'P 1'
_cell_length_a   5.33685417
_cell_length_b   7.48836959
_cell_length_c   9.91538050
_cell_angle_alpha   90.00000000
_cell_angle_beta   90.00000000
_cell_angle_gamma   90.92369292
_symmetry_Int_Tables_number   1
_chemical_formula_structural   BaAlF5
_chemical_formula_sum   'Ba4 Al4 F20'
_cell_volume   396.21010926
_cell_formula_units_Z   4
loop_
 _symmetry_equiv_pos_site_id
 _symmetry_equiv_pos_as_xyz
  1  'x, y, z'
loop_
 _atom_site_type_symbol
 _atom_site_label
 _atom_site_symmetry_multiplicity
 _atom_site_fract_x
 _atom_site_fract_y
 _atom_site_fract_z
 _atom_site_occupancy
  Ba  Ba0  1  0.512371  0.361452  0.650696  1
  Ba  Ba1  1  0.487629  0.638548  0.150696  1
  Ba  Ba2  1  0.989174  0.112475  0.998229  1
  Ba  Ba3  1  0.010826  0.887525  0.498229  1
  Al  Al4  1  0.480163  0.129914  0.265760  1
  Al  Al5  1  0.519837  0.870086  0.765760  1
  Al  Al6  1  0.986565  0.424544  0.369633  1
  Al  Al7  1  0.013435  0.575456  0.869633  1
  F  F8  1  0.230464  0.443188  0.965148  1
  F  F9  1  0.247526  0.533098  0.451948  1
  F  F10  1  0.752474  0.466902  0.951948  1
  F  F11  1  0.729674  0.969148  0.264476  1
  F  F12  1  0.960161  0.242890  0.485685  1
  F  F13  1  0.493442  0.157723  0.086687  1
  F  F14  1  0.791651  0.703017  0.757272  1
  F  F15  1  0.712646  0.322912  0.271123  1
  F  F16  1  0.039839  0.757110  0.985685  1
  F  F17  1  0.990439  0.596578  0.241842  1
  F  F18  1  0.506558  0.842277  0.586687  1
  F  F19  1  0.769536  0.556812  0.465148  1
  F  F20  1  0.550434  0.862607  0.943834  1
  F  F21  1  0.746961  0.051729  0.750068  1
  F  F22  1  0.009561  0.403422  0.741842  1
  F  F23  1  0.208349  0.296983  0.257272  1
  F  F24  1  0.270326  0.030852  0.764476  1
  F  F25  1  0.253039  0.948271  0.250068  1
  F  F26  1  0.287354  0.677088  0.771123  1
  F  F27  1  0.449566  0.137393  0.443834  1
