# generated using pymatgen
data_VH14C4NO2F3
_symmetry_space_group_name_H-M   'P 1'
_cell_length_a   7.05295863
_cell_length_b   8.31348270
_cell_length_c   9.14256125
_cell_angle_alpha   66.07306705
_cell_angle_beta   84.05611002
_cell_angle_gamma   72.63856008
_symmetry_Int_Tables_number   1
_chemical_formula_structural   VH14C4NO2F3
_chemical_formula_sum   'V2 H28 C8 N2 O4 F6'
_cell_volume   467.58516705
_cell_formula_units_Z   2
loop_
 _symmetry_equiv_pos_site_id
 _symmetry_equiv_pos_as_xyz
  1  'x, y, z'
loop_
 _atom_site_type_symbol
 _atom_site_label
 _atom_site_symmetry_multiplicity
 _atom_site_fract_x
 _atom_site_fract_y
 _atom_site_fract_z
 _atom_site_occupancy
  V  V0  1  0.182886  0.991450  0.868193  1
  V  V1  1  0.817114  0.008550  0.131807  1
  H  H2  1  0.799862  0.465955  0.924720  1
  H  H3  1  0.406862  0.331087  0.114870  1
  H  H4  1  0.847457  0.931918  0.713395  1
  H  H5  1  0.234275  0.817441  0.171231  1
  H  H6  1  0.933421  0.536446  0.263587  1
  H  H7  1  0.202627  0.051280  0.482628  1
  H  H8  1  0.458652  0.308277  0.373540  1
  H  H9  1  0.066579  0.463554  0.736413  1
  H  H10  1  0.829639  0.664852  0.945238  1
  H  H11  1  0.152543  0.068082  0.286605  1
  H  H12  1  0.457066  0.840502  0.119446  1
  H  H13  1  0.797373  0.948720  0.517372  1
  H  H14  1  0.255821  0.511764  0.346303  1
  H  H15  1  0.929875  0.327046  0.432609  1
  H  H16  1  0.109407  0.652439  0.765847  1
  H  H17  1  0.738826  0.698396  0.483891  1
  H  H18  1  0.744179  0.488236  0.653697  1
  H  H19  1  0.593138  0.668913  0.885130  1
  H  H20  1  0.261174  0.301604  0.516109  1
  H  H21  1  0.170361  0.335148  0.054762  1
  H  H22  1  0.541348  0.691723  0.626460  1
  H  H23  1  0.070125  0.672954  0.567391  1
  H  H24  1  0.890593  0.347561  0.234153  1
  H  H25  1  0.765725  0.182559  0.828769  1
  H  H26  1  0.200138  0.534045  0.075280  1
  H  H27  1  0.398362  0.051710  0.339355  1
  H  H28  1  0.542934  0.159498  0.880554  1
  H  H29  1  0.601638  0.948290  0.660645  1
  C  C30  1  0.299579  0.361920  0.390011  1
  C  C31  1  0.754581  0.616048  0.879325  1
  C  C32  1  0.968325  0.386904  0.306444  1
  C  C33  1  0.031675  0.613096  0.693556  1
  C  C34  1  0.700421  0.638080  0.609989  1
  C  C35  1  0.238936  0.104080  0.355440  1
  C  C36  1  0.761064  0.895920  0.644560  1
  C  C37  1  0.245419  0.383952  0.120675  1
  N  N38  1  0.187879  0.309543  0.293165  1
  N  N39  1  0.812121  0.690457  0.706835  1
  O  O40  1  0.289446  0.867568  0.763810  1
  O  O41  1  0.335910  0.822515  0.086023  1
  O  O42  1  0.710554  0.132432  0.236190  1
  O  O43  1  0.664090  0.177485  0.913977  1
  F  F44  1  0.027776  0.817514  0.281314  1
  F  F45  1  0.976110  0.866878  0.975757  1
  F  F46  1  0.655652  0.841449  0.182297  1
  F  F47  1  0.972224  0.182486  0.718686  1
  F  F48  1  0.023890  0.133122  0.024243  1
  F  F49  1  0.344348  0.158551  0.817703  1
