# generated using pymatgen
data_K3NbP2O9
_symmetry_space_group_name_H-M   'P 1'
_cell_length_a   5.29444328
_cell_length_b   9.94017711
_cell_length_c   17.93559066
_cell_angle_alpha   90.00000000
_cell_angle_beta   90.00000000
_cell_angle_gamma   90.07613847
_symmetry_Int_Tables_number   1
_chemical_formula_structural   K3NbP2O9
_chemical_formula_sum   'K12 Nb4 P8 O36'
_cell_volume   943.90812043
_cell_formula_units_Z   4
loop_
 _symmetry_equiv_pos_site_id
 _symmetry_equiv_pos_as_xyz
  1  'x, y, z'
loop_
 _atom_site_type_symbol
 _atom_site_label
 _atom_site_symmetry_multiplicity
 _atom_site_fract_x
 _atom_site_fract_y
 _atom_site_fract_z
 _atom_site_occupancy
  K  K0  1  0.243776  0.076521  0.863038  1
  K  K1  1  0.243776  0.576521  0.636962  1
  K  K2  1  0.750256  0.041925  0.426479  1
  K  K3  1  0.756224  0.423479  0.363038  1
  K  K4  1  0.756224  0.923479  0.136962  1
  K  K5  1  0.749062  0.957567  0.704905  1
  K  K6  1  0.250938  0.542433  0.204905  1
  K  K7  1  0.250938  0.042433  0.295095  1
  K  K8  1  0.749062  0.457567  0.795095  1
  K  K9  1  0.750256  0.541925  0.073521  1
  K  K10  1  0.249744  0.958075  0.573521  1
  K  K11  1  0.249744  0.458075  0.926479  1
  Nb  Nb12  1  0.235849  0.685775  0.410763  1
  Nb  Nb13  1  0.764151  0.314225  0.589237  1
  Nb  Nb14  1  0.764151  0.814225  0.910763  1
  Nb  Nb15  1  0.235849  0.185775  0.089237  1
  P  P16  1  0.255360  0.263899  0.710933  1
  P  P17  1  0.744640  0.236101  0.210933  1
  P  P18  1  0.736859  0.170858  0.961097  1
  P  P19  1  0.263141  0.329142  0.461097  1
  P  P20  1  0.255360  0.763899  0.789067  1
  P  P21  1  0.263141  0.829142  0.038903  1
  P  P22  1  0.744640  0.736101  0.289067  1
  P  P23  1  0.736859  0.670858  0.538903  1
  O  O24  1  0.225685  0.864273  0.419556  1
  O  O25  1  0.250984  0.444108  0.403115  1
  O  O26  1  0.252302  0.112778  0.698978  1
  O  O27  1  0.747698  0.887222  0.301022  1
  O  O28  1  0.226591  0.689024  0.070985  1
  O  O29  1  0.060036  0.858449  0.976892  1
  O  O30  1  0.749016  0.555892  0.596885  1
  O  O31  1  0.225685  0.364273  0.080444  1
  O  O32  1  0.476764  0.332006  0.662939  1
  O  O33  1  0.717600  0.190270  0.291365  1
  O  O34  1  0.282400  0.809730  0.708635  1
  O  O35  1  0.060036  0.358449  0.523108  1
  O  O36  1  0.476764  0.832006  0.837061  1
  O  O37  1  0.250984  0.944108  0.096885  1
  O  O38  1  0.939964  0.141551  0.023108  1
  O  O39  1  0.472151  0.659712  0.499062  1
  O  O40  1  0.774315  0.635727  0.919556  1
  O  O41  1  0.006371  0.332202  0.677634  1
  O  O42  1  0.749016  0.055892  0.903115  1
  O  O43  1  0.717600  0.690270  0.208635  1
  O  O44  1  0.226591  0.189024  0.429015  1
  O  O45  1  0.993629  0.667798  0.322366  1
  O  O46  1  0.282400  0.309730  0.791365  1
  O  O47  1  0.006371  0.832202  0.822366  1
  O  O48  1  0.523236  0.167994  0.162939  1
  O  O49  1  0.252302  0.612778  0.801022  1
  O  O50  1  0.773409  0.310976  0.929015  1
  O  O51  1  0.747698  0.387222  0.198978  1
  O  O52  1  0.993629  0.167798  0.177634  1
  O  O53  1  0.527849  0.840288  0.999062  1
  O  O54  1  0.527849  0.340288  0.500938  1
  O  O55  1  0.939964  0.641551  0.476892  1
  O  O56  1  0.774315  0.135727  0.580444  1
  O  O57  1  0.472151  0.159712  0.000938  1
  O  O58  1  0.773409  0.810976  0.570985  1
  O  O59  1  0.523236  0.667994  0.337061  1
