# generated using pymatgen
data_Ca3(AsO4)2
_symmetry_space_group_name_H-M   'P 1'
_cell_length_a   14.25576981
_cell_length_b   14.25577012
_cell_length_c   14.25576980
_cell_angle_alpha   45.07982004
_cell_angle_beta   45.07981877
_cell_angle_gamma   45.07982013
_symmetry_Int_Tables_number   1
_chemical_formula_structural   Ca3(AsO4)2
_chemical_formula_sum   'Ca21 As14 O56'
_cell_volume   1322.36395975
_cell_formula_units_Z   7
loop_
 _symmetry_equiv_pos_site_id
 _symmetry_equiv_pos_as_xyz
  1  'x, y, z'
loop_
 _atom_site_type_symbol
 _atom_site_label
 _atom_site_symmetry_multiplicity
 _atom_site_fract_x
 _atom_site_fract_y
 _atom_site_fract_z
 _atom_site_occupancy
  As  As0  1  0.000753  0.000753  0.000753  1
  As  As1  1  0.038396  0.084298  0.582373  1
  As  As2  1  0.084298  0.582373  0.038396  1
  As  As3  1  0.582373  0.038396  0.084298  1
  As  As4  1  0.083164  0.583343  0.538964  1
  As  As5  1  0.538964  0.083164  0.583343  1
  As  As6  1  0.583343  0.538964  0.083164  1
  As  As7  1  0.499007  0.499007  0.499007  1
  As  As8  1  0.464428  0.932097  0.502527  1
  As  As9  1  0.502527  0.464428  0.932097  1
  As  As10  1  0.932097  0.502527  0.464428  1
  As  As11  1  0.444521  0.960326  0.994858  1
  As  As12  1  0.960326  0.994858  0.444521  1
  As  As13  1  0.994858  0.444521  0.960326  1
  Ca  Ca14  1  0.266622  0.266622  0.266622  1
  Ca  Ca15  1  0.197188  0.197827  0.611407  1
  Ca  Ca16  1  0.197827  0.611407  0.197188  1
  Ca  Ca17  1  0.611407  0.197188  0.197827  1
  Ca  Ca18  1  0.272285  0.318090  0.724758  1
  Ca  Ca19  1  0.318090  0.724758  0.272285  1
  Ca  Ca20  1  0.110221  0.699899  0.697848  1
  Ca  Ca21  1  0.724758  0.272285  0.318090  1
  Ca  Ca22  1  0.320434  0.918892  0.359714  1
  Ca  Ca23  1  0.359714  0.320434  0.918892  1
  Ca  Ca24  1  0.697848  0.110221  0.699899  1
  Ca  Ca25  1  0.699899  0.697848  0.110221  1
  Ca  Ca26  1  0.203426  0.824859  0.800687  1
  Ca  Ca27  1  0.918892  0.359714  0.320434  1
  Ca  Ca28  1  0.575666  0.575666  0.575666  1
  Ca  Ca29  1  0.800687  0.203426  0.824859  1
  Ca  Ca30  1  0.824859  0.800687  0.203426  1
  Ca  Ca31  1  0.417536  0.828210  0.859630  1
  Ca  Ca32  1  0.828210  0.859630  0.417536  1
  Ca  Ca33  1  0.859630  0.417536  0.828210  1
  Ca  Ca34  1  0.767508  0.767508  0.767508  1
  O  O35  1  0.125002  0.150466  0.395025  1
  O  O36  1  0.150466  0.395025  0.125002  1
  O  O37  1  0.395025  0.125002  0.150466  1
  O  O38  1  0.083281  0.098618  0.655080  1
  O  O39  1  0.098618  0.655080  0.083281  1
  O  O40  1  0.116952  0.393371  0.402476  1
  O  O41  1  0.006414  0.167480  0.863313  1
  O  O42  1  0.393371  0.402476  0.116952  1
  O  O43  1  0.402476  0.116952  0.393371  1
  O  O44  1  0.655080  0.083281  0.098618  1
  O  O45  1  0.167480  0.863313  0.006414  1
  O  O46  1  0.148757  0.401684  0.594990  1
  O  O47  1  0.126940  0.689008  0.355519  1
  O  O48  1  0.010294  0.372254  0.890248  1
  O  O49  1  0.401684  0.594990  0.148757  1
  O  O50  1  0.355519  0.126940  0.689008  1
  O  O51  1  0.594990  0.148757  0.401684  1
  O  O52  1  0.154419  0.595345  0.587327  1
  O  O53  1  0.863313  0.006414  0.167480  1
  O  O54  1  0.372254  0.890248  0.010294  1
  O  O55  1  0.689008  0.355519  0.126940  1
  O  O56  1  0.146405  0.916798  0.372534  1
  O  O57  1  0.169338  0.431756  0.868405  1
  O  O58  1  0.454744  0.454744  0.454744  1
  O  O59  1  0.587327  0.154419  0.595345  1
  O  O60  1  0.595345  0.587327  0.154419  1
  O  O61  1  0.372534  0.146405  0.916798  1
  O  O62  1  0.431756  0.868405  0.169338  1
  O  O63  1  0.890248  0.010294  0.372254  1
  O  O64  1  0.101798  0.901769  0.645987  1
  O  O65  1  0.372701  0.661343  0.520278  1
  O  O66  1  0.190356  0.629272  0.854675  1
  O  O67  1  0.520278  0.372701  0.661343  1
  O  O68  1  0.661343  0.520278  0.372701  1
  O  O69  1  0.916798  0.372534  0.146405  1
  O  O70  1  0.868405  0.169338  0.431756  1
  O  O71  1  0.645987  0.101798  0.901769  1
  O  O72  1  0.629272  0.854675  0.190356  1
  O  O73  1  0.417874  0.830546  0.525244  1
  O  O74  1  0.525244  0.417874  0.830546  1
  O  O75  1  0.901769  0.645987  0.101798  1
  O  O76  1  0.854675  0.190356  0.629272  1
  O  O77  1  0.430011  0.649621  0.859123  1
  O  O78  1  0.361488  0.934728  0.671089  1
  O  O79  1  0.830546  0.525244  0.417874  1
  O  O80  1  0.649621  0.859123  0.430011  1
  O  O81  1  0.671089  0.361488  0.934728  1
  O  O82  1  0.859123  0.430011  0.649621  1
  O  O83  1  0.934728  0.671089  0.361488  1
  O  O84  1  0.625182  0.895989  0.650452  1
  O  O85  1  0.650452  0.625182  0.895989  1
  O  O86  1  0.895989  0.650452  0.625182  1
  O  O87  1  0.631844  0.900528  0.894606  1
  O  O88  1  0.894606  0.631844  0.900528  1
  O  O89  1  0.900528  0.894606  0.631844  1
  O  O90  1  0.955287  0.955287  0.955287  1
