# generated using pymatgen
data_K8Hf(MoO4)6
_symmetry_space_group_name_H-M   'P 1'
_cell_length_a   10.43028793
_cell_length_b   12.05806956
_cell_length_c   12.31995592
_cell_angle_alpha   90.00000000
_cell_angle_beta   108.64360093
_cell_angle_gamma   90.00000000
_symmetry_Int_Tables_number   1
_chemical_formula_structural   K8Hf(MoO4)6
_chemical_formula_sum   'K16 Hf2 Mo12 O48'
_cell_volume   1468.16242031
_cell_formula_units_Z   2
loop_
 _symmetry_equiv_pos_site_id
 _symmetry_equiv_pos_as_xyz
  1  'x, y, z'
loop_
 _atom_site_type_symbol
 _atom_site_label
 _atom_site_symmetry_multiplicity
 _atom_site_fract_x
 _atom_site_fract_y
 _atom_site_fract_z
 _atom_site_occupancy
  K  K0  1  0.251029  0.570385  0.891901  1
  K  K1  1  0.248971  0.070385  0.608099  1
  K  K2  1  0.103390  0.202597  0.293329  1
  K  K3  1  0.886275  0.444043  0.718643  1
  K  K4  1  0.179798  0.720871  0.577132  1
  K  K5  1  0.748971  0.429615  0.108099  1
  K  K6  1  0.896610  0.797403  0.706671  1
  K  K7  1  0.396610  0.702597  0.206671  1
  K  K8  1  0.820202  0.279129  0.422868  1
  K  K9  1  0.603390  0.297403  0.793329  1
  K  K10  1  0.320202  0.220871  0.922868  1
  K  K11  1  0.113725  0.555957  0.281357  1
  K  K12  1  0.613725  0.944043  0.781357  1
  K  K13  1  0.386275  0.055957  0.218643  1
  K  K14  1  0.751029  0.929615  0.391901  1
  K  K15  1  0.679798  0.779129  0.077132  1
  Hf  Hf16  1  0.000000  0.000000  0.000000  1
  Hf  Hf17  1  0.500000  0.500000  0.500000  1
  Mo  Mo18  1  0.786549  0.606911  0.401788  1
  Mo  Mo19  1  0.060163  0.895418  0.293561  1
  Mo  Mo20  1  0.021157  0.319572  0.006229  1
  Mo  Mo21  1  0.939837  0.104582  0.706439  1
  Mo  Mo22  1  0.978843  0.680428  0.993771  1
  Mo  Mo23  1  0.213451  0.393089  0.598212  1
  Mo  Mo24  1  0.439837  0.395418  0.206439  1
  Mo  Mo25  1  0.521157  0.180428  0.506229  1
  Mo  Mo26  1  0.286549  0.893089  0.901788  1
  Mo  Mo27  1  0.713451  0.106911  0.098212  1
  Mo  Mo28  1  0.478843  0.819572  0.493771  1
  Mo  Mo29  1  0.560163  0.604582  0.793561  1
  O  O30  1  0.893730  0.704235  0.498035  1
  O  O31  1  0.386901  0.984496  0.848827  1
  O  O32  1  0.148701  0.654003  0.078663  1
  O  O33  1  0.886901  0.515504  0.348827  1
  O  O34  1  0.606270  0.204235  0.001965  1
  O  O35  1  0.171322  0.819691  0.785863  1
  O  O36  1  0.403710  0.474989  0.324959  1
  O  O37  1  0.828677  0.180309  0.214137  1
  O  O38  1  0.809878  0.024721  0.021356  1
  O  O39  1  0.835644  0.224477  0.660318  1
  O  O40  1  0.888682  0.853555  0.247567  1
  O  O41  1  0.328678  0.319691  0.714137  1
  O  O42  1  0.596290  0.525011  0.675041  1
  O  O43  1  0.044262  0.381471  0.142771  1
  O  O44  1  0.388682  0.646445  0.747567  1
  O  O45  1  0.613099  0.015504  0.151173  1
  O  O46  1  0.418406  0.488113  0.090751  1
  O  O47  1  0.096290  0.974989  0.175041  1
  O  O48  1  0.081594  0.988113  0.409249  1
  O  O49  1  0.690122  0.524721  0.478644  1
  O  O50  1  0.918406  0.011887  0.590751  1
  O  O51  1  0.581594  0.511887  0.909249  1
  O  O52  1  0.374765  0.877425  0.568505  1
  O  O53  1  0.393730  0.795765  0.998035  1
  O  O54  1  0.164356  0.775523  0.339682  1
  O  O55  1  0.903710  0.025011  0.824959  1
  O  O56  1  0.046163  0.166742  0.025310  1
  O  O57  1  0.664356  0.724477  0.839682  1
  O  O58  1  0.351299  0.154003  0.421337  1
  O  O59  1  0.455738  0.881471  0.357229  1
  O  O60  1  0.125235  0.377425  0.931495  1
  O  O61  1  0.335644  0.275523  0.160318  1
  O  O62  1  0.955738  0.618529  0.857229  1
  O  O63  1  0.625235  0.122575  0.431495  1
  O  O64  1  0.106270  0.295765  0.501965  1
  O  O65  1  0.953837  0.833258  0.974690  1
  O  O66  1  0.671323  0.680309  0.285863  1
  O  O67  1  0.113099  0.484496  0.651173  1
  O  O68  1  0.453837  0.666742  0.474690  1
  O  O69  1  0.309878  0.475279  0.521356  1
  O  O70  1  0.544262  0.118529  0.642771  1
  O  O71  1  0.546163  0.333258  0.525310  1
  O  O72  1  0.648701  0.845997  0.578663  1
  O  O73  1  0.851299  0.345997  0.921337  1
  O  O74  1  0.874765  0.622575  0.068505  1
  O  O75  1  0.190122  0.975279  0.978644  1
  O  O76  1  0.611318  0.353555  0.252433  1
  O  O77  1  0.111318  0.146445  0.752433  1
