# generated using pymatgen
data_H3AuC2NCl
_symmetry_space_group_name_H-M   'P 1'
_cell_length_a   4.43352398
_cell_length_b   6.62326658
_cell_length_c   9.26181002
_cell_angle_alpha   90.00000000
_cell_angle_beta   91.19543146
_cell_angle_gamma   90.00000000
_symmetry_Int_Tables_number   1
_chemical_formula_structural   H3AuC2NCl
_chemical_formula_sum   'H6 Au2 C4 N2 Cl2'
_cell_volume   271.90840458
_cell_formula_units_Z   2
loop_
 _symmetry_equiv_pos_site_id
 _symmetry_equiv_pos_as_xyz
  1  'x, y, z'
loop_
 _atom_site_type_symbol
 _atom_site_label
 _atom_site_symmetry_multiplicity
 _atom_site_fract_x
 _atom_site_fract_y
 _atom_site_fract_z
 _atom_site_occupancy
  H  H0  1  0.765699  0.606581  0.157991  1
  H  H1  1  0.396627  0.615182  0.076308  1
  H  H2  1  0.393592  0.344783  0.897850  1
  H  H3  1  0.234301  0.106581  0.842009  1
  H  H4  1  0.603373  0.115182  0.923692  1
  H  H5  1  0.606408  0.844783  0.102150  1
  Au  Au6  1  0.142927  0.727770  0.586803  1
  Au  Au7  1  0.857073  0.227770  0.413197  1
  C  C8  1  0.679320  0.226612  0.601561  1
  C  C9  1  0.320680  0.726612  0.398439  1
  C  C10  1  0.442720  0.195648  0.852613  1
  C  C11  1  0.557280  0.695648  0.147387  1
  N  N12  1  0.429095  0.717812  0.284847  1
  N  N13  1  0.570905  0.217812  0.715153  1
  Cl  Cl14  1  0.059270  0.219703  0.188146  1
  Cl  Cl15  1  0.940730  0.719703  0.811854  1
