# generated using pymatgen
data_CuGeO3
_symmetry_space_group_name_H-M   'P 1'
_cell_length_a   8.76871035
_cell_length_b   9.93576785
_cell_length_c   11.92274002
_cell_angle_alpha   90.00000000
_cell_angle_beta   90.00000000
_cell_angle_gamma   90.00000000
_symmetry_Int_Tables_number   1
_chemical_formula_structural   CuGeO3
_chemical_formula_sum   'Cu16 Ge16 O48'
_cell_volume   1038.75525609
_cell_formula_units_Z   16
loop_
 _symmetry_equiv_pos_site_id
 _symmetry_equiv_pos_as_xyz
  1  'x, y, z'
loop_
 _atom_site_type_symbol
 _atom_site_label
 _atom_site_symmetry_multiplicity
 _atom_site_fract_x
 _atom_site_fract_y
 _atom_site_fract_z
 _atom_site_occupancy
  Cu  Cu0  1  0.500000  0.500000  0.747280  1
  Cu  Cu1  1  0.500000  0.000000  0.000000  1
  Cu  Cu2  1  0.500000  0.500000  0.500000  1
  Cu  Cu3  1  0.000000  0.500000  0.247358  1
  Cu  Cu4  1  0.500000  0.000000  0.247358  1
  Cu  Cu5  1  0.000000  0.000000  0.000000  1
  Cu  Cu6  1  0.500000  0.000000  0.500000  1
  Cu  Cu7  1  0.500000  0.500000  0.252720  1
  Cu  Cu8  1  0.000000  0.000000  0.252720  1
  Cu  Cu9  1  0.000000  0.000000  0.747280  1
  Cu  Cu10  1  0.500000  0.000000  0.752642  1
  Cu  Cu11  1  0.500000  0.500000  0.000000  1
  Cu  Cu12  1  0.000000  0.500000  0.752642  1
  Cu  Cu13  1  0.000000  0.500000  0.500000  1
  Cu  Cu14  1  0.000000  0.500000  0.000000  1
  Cu  Cu15  1  0.000000  0.000000  0.500000  1
  Ge  Ge16  1  0.750444  0.202982  0.874894  1
  Ge  Ge17  1  0.251226  0.297155  0.625123  1
  Ge  Ge18  1  0.249556  0.797018  0.125106  1
  Ge  Ge19  1  0.749556  0.702982  0.125106  1
  Ge  Ge20  1  0.248774  0.797155  0.374877  1
  Ge  Ge21  1  0.248774  0.797155  0.625123  1
  Ge  Ge22  1  0.750444  0.202982  0.125106  1
  Ge  Ge23  1  0.748774  0.702845  0.625123  1
  Ge  Ge24  1  0.250444  0.297018  0.874894  1
  Ge  Ge25  1  0.748774  0.702845  0.374877  1
  Ge  Ge26  1  0.250444  0.297018  0.125106  1
  Ge  Ge27  1  0.749556  0.702982  0.874894  1
  Ge  Ge28  1  0.251226  0.297155  0.374877  1
  Ge  Ge29  1  0.249556  0.797018  0.874894  1
  Ge  Ge30  1  0.751226  0.202845  0.374877  1
  Ge  Ge31  1  0.751226  0.202845  0.625123  1
  O  O32  1  0.080466  0.393573  0.124272  1
  O  O33  1  0.748136  0.804091  0.000000  1
  O  O34  1  0.914885  0.099441  0.125951  1
  O  O35  1  0.750370  0.304508  0.749965  1
  O  O36  1  0.089086  0.403366  0.625963  1
  O  O37  1  0.251166  0.696141  0.500000  1
  O  O38  1  0.248834  0.196141  0.500000  1
  O  O39  1  0.089086  0.403366  0.374037  1
  O  O40  1  0.751166  0.803859  0.500000  1
  O  O41  1  0.919534  0.606427  0.875728  1
  O  O42  1  0.923221  0.108794  0.375749  1
  O  O43  1  0.076779  0.891206  0.375749  1
  O  O44  1  0.589086  0.096634  0.374037  1
  O  O45  1  0.919534  0.606427  0.124272  1
  O  O46  1  0.580466  0.106427  0.875728  1
  O  O47  1  0.576779  0.608794  0.624251  1
  O  O48  1  0.750370  0.304508  0.250034  1
  O  O49  1  0.576779  0.608794  0.375749  1
  O  O50  1  0.914885  0.099441  0.874049  1
  O  O51  1  0.585115  0.599441  0.874049  1
  O  O52  1  0.085115  0.900559  0.874049  1
  O  O53  1  0.751864  0.304091  0.000000  1
  O  O54  1  0.748834  0.303859  0.500000  1
  O  O55  1  0.749630  0.804508  0.749965  1
  O  O56  1  0.419534  0.893573  0.124272  1
  O  O57  1  0.423221  0.391206  0.375749  1
  O  O58  1  0.749630  0.804508  0.250034  1
  O  O59  1  0.251864  0.195909  0.000000  1
  O  O60  1  0.250370  0.195492  0.250034  1
  O  O61  1  0.923221  0.108794  0.624251  1
  O  O62  1  0.419534  0.893573  0.875728  1
  O  O63  1  0.249630  0.695492  0.749965  1
  O  O64  1  0.589086  0.096634  0.625963  1
  O  O65  1  0.085115  0.900559  0.125951  1
  O  O66  1  0.910914  0.596634  0.625963  1
  O  O67  1  0.410914  0.903366  0.374037  1
  O  O68  1  0.414885  0.400559  0.874049  1
  O  O69  1  0.080466  0.393573  0.875728  1
  O  O70  1  0.248136  0.695909  0.000000  1
  O  O71  1  0.580466  0.106427  0.124272  1
  O  O72  1  0.910914  0.596634  0.374037  1
  O  O73  1  0.076779  0.891206  0.624251  1
  O  O74  1  0.250370  0.195492  0.749965  1
  O  O75  1  0.410914  0.903366  0.625963  1
  O  O76  1  0.423221  0.391206  0.624251  1
  O  O77  1  0.585115  0.599441  0.125951  1
  O  O78  1  0.249630  0.695492  0.250034  1
  O  O79  1  0.414885  0.400559  0.125951  1
