# generated using pymatgen
data_Fe2(Se2O5)3
_symmetry_space_group_name_H-M   'P 1'
_cell_length_a   11.38723664
_cell_length_b   11.59170692
_cell_length_c   11.93601135
_cell_angle_alpha   102.86025186
_cell_angle_beta   90.00000000
_cell_angle_gamma   90.00000000
_symmetry_Int_Tables_number   1
_chemical_formula_structural   Fe2(Se2O5)3
_chemical_formula_sum   'Fe8 Se24 O60'
_cell_volume   1536.00307799
_cell_formula_units_Z   4
loop_
 _symmetry_equiv_pos_site_id
 _symmetry_equiv_pos_as_xyz
  1  'x, y, z'
loop_
 _atom_site_type_symbol
 _atom_site_label
 _atom_site_symmetry_multiplicity
 _atom_site_fract_x
 _atom_site_fract_y
 _atom_site_fract_z
 _atom_site_occupancy
  Fe  Fe0  1  0.261436  0.758407  0.769460  1
  Fe  Fe1  1  0.241374  0.759151  0.273405  1
  Fe  Fe2  1  0.238564  0.258407  0.269460  1
  Fe  Fe3  1  0.258626  0.259151  0.773405  1
  Fe  Fe4  1  0.758626  0.240849  0.726595  1
  Fe  Fe5  1  0.738564  0.241593  0.230540  1
  Fe  Fe6  1  0.741374  0.740849  0.226595  1
  Fe  Fe7  1  0.761436  0.741593  0.730540  1
  Se  Se8  1  0.484953  0.108140  0.210437  1
  Se  Se9  1  0.838820  0.860170  0.007961  1
  Se  Se10  1  0.981389  0.671423  0.337142  1
  Se  Se11  1  0.661180  0.360170  0.507961  1
  Se  Se12  1  0.672236  0.521935  0.873456  1
  Se  Se13  1  0.161180  0.139830  0.992039  1
  Se  Se14  1  0.518611  0.171423  0.837142  1
  Se  Se15  1  0.101482  0.748495  0.010775  1
  Se  Se16  1  0.018611  0.328577  0.662858  1
  Se  Se17  1  0.172236  0.978065  0.626544  1
  Se  Se18  1  0.984953  0.391860  0.289563  1
  Se  Se19  1  0.327764  0.478065  0.126544  1
  Se  Se20  1  0.598200  0.488880  0.212726  1
  Se  Se21  1  0.827764  0.021935  0.373456  1
  Se  Se22  1  0.898518  0.251505  0.989225  1
  Se  Se23  1  0.515047  0.891860  0.789563  1
  Se  Se24  1  0.015047  0.608140  0.710437  1
  Se  Se25  1  0.901800  0.988880  0.712726  1
  Se  Se26  1  0.398518  0.248495  0.510775  1
  Se  Se27  1  0.098200  0.011120  0.287274  1
  Se  Se28  1  0.401800  0.511120  0.787274  1
  Se  Se29  1  0.338820  0.639830  0.492039  1
  Se  Se30  1  0.601482  0.751505  0.489225  1
  Se  Se31  1  0.481389  0.828577  0.162858  1
  O  O32  1  0.221001  0.916596  0.734130  1
  O  O33  1  0.297660  0.299250  0.614078  1
  O  O34  1  0.296989  0.613847  0.838510  1
  O  O35  1  0.146839  0.806576  0.899836  1
  O  O36  1  0.353161  0.306576  0.399836  1
  O  O37  1  0.118973  0.363746  0.771508  1
  O  O38  1  0.137421  0.666452  0.661737  1
  O  O39  1  0.881027  0.636254  0.228492  1
  O  O40  1  0.361618  0.397247  0.848299  1
  O  O41  1  0.637421  0.833548  0.838263  1
  O  O42  1  0.629049  0.291425  0.368857  1
  O  O43  1  0.870951  0.791425  0.868857  1
  O  O44  1  0.849188  0.878065  0.301065  1
  O  O45  1  0.203011  0.113847  0.338510  1
  O  O46  1  0.594947  0.165863  0.144634  1
  O  O47  1  0.980767  0.072234  0.392876  1
  O  O48  1  0.381027  0.863746  0.271508  1
  O  O49  1  0.638382  0.602753  0.151701  1
  O  O50  1  0.107079  0.645682  0.255990  1
  O  O51  1  0.488712  0.635421  0.433828  1
  O  O52  1  0.892921  0.354318  0.744010  1
  O  O53  1  0.861618  0.102753  0.651701  1
  O  O54  1  0.011288  0.135421  0.933828  1
  O  O55  1  0.519233  0.572234  0.892876  1
  O  O56  1  0.129049  0.208575  0.131143  1
  O  O57  1  0.223365  0.250561  0.940024  1
  O  O58  1  0.392921  0.145682  0.755990  1
  O  O59  1  0.202340  0.799250  0.114078  1
  O  O60  1  0.019233  0.927766  0.607124  1
  O  O61  1  0.405053  0.834137  0.855366  1
  O  O62  1  0.362579  0.166452  0.161737  1
  O  O63  1  0.776635  0.749439  0.059976  1
  O  O64  1  0.618973  0.136254  0.728492  1
  O  O65  1  0.702340  0.700750  0.385922  1
  O  O66  1  0.607079  0.854318  0.244010  1
  O  O67  1  0.977633  0.537592  0.391982  1
  O  O68  1  0.138382  0.897247  0.348299  1
  O  O69  1  0.511288  0.364579  0.566172  1
  O  O70  1  0.862579  0.333548  0.338263  1
  O  O71  1  0.278999  0.416596  0.234130  1
  O  O72  1  0.480767  0.427766  0.107124  1
  O  O73  1  0.778999  0.083404  0.265870  1
  O  O74  1  0.646839  0.693424  0.600164  1
  O  O75  1  0.905053  0.665863  0.644634  1
  O  O76  1  0.370951  0.708575  0.631143  1
  O  O77  1  0.796989  0.886153  0.661490  1
  O  O78  1  0.723365  0.249439  0.559976  1
  O  O79  1  0.349188  0.621935  0.198935  1
  O  O80  1  0.150812  0.121935  0.698935  1
  O  O81  1  0.094947  0.334137  0.355366  1
  O  O82  1  0.522367  0.037592  0.891982  1
  O  O83  1  0.721001  0.583404  0.765870  1
  O  O84  1  0.797660  0.200749  0.885922  1
  O  O85  1  0.703011  0.386153  0.161490  1
  O  O86  1  0.276635  0.750561  0.440024  1
  O  O87  1  0.650812  0.378065  0.801065  1
  O  O88  1  0.022367  0.462408  0.608018  1
  O  O89  1  0.477633  0.962408  0.108018  1
  O  O90  1  0.988712  0.864579  0.066172  1
  O  O91  1  0.853161  0.193424  0.100164  1
