# generated using pymatgen
data_CsZr6CI14
_symmetry_space_group_name_H-M   'P 1'
_cell_length_a   11.03992811
_cell_length_b   11.03992790
_cell_length_c   13.22130075
_cell_angle_alpha   90.00000000
_cell_angle_beta   90.00000000
_cell_angle_gamma   93.90787427
_symmetry_Int_Tables_number   1
_chemical_formula_structural   CsZr6CI14
_chemical_formula_sum   'Cs2 Zr12 C2 I28'
_cell_volume   1607.66561337
_cell_formula_units_Z   2
loop_
 _symmetry_equiv_pos_site_id
 _symmetry_equiv_pos_as_xyz
  1  'x, y, z'
loop_
 _atom_site_type_symbol
 _atom_site_label
 _atom_site_symmetry_multiplicity
 _atom_site_fract_x
 _atom_site_fract_y
 _atom_site_fract_z
 _atom_site_occupancy
  Cs  Cs0  1  0.000000  0.000000  0.000000  1
  Cs  Cs1  1  0.500000  0.500000  0.500000  1
  Zr  Zr2  1  0.663790  0.457120  0.894245  1
  Zr  Zr3  1  0.836210  0.042880  0.394245  1
  Zr  Zr4  1  0.457120  0.663790  0.894245  1
  Zr  Zr5  1  0.625533  0.625533  0.093311  1
  Zr  Zr6  1  0.042880  0.836210  0.394245  1
  Zr  Zr7  1  0.874467  0.874467  0.593311  1
  Zr  Zr8  1  0.336210  0.542880  0.105755  1
  Zr  Zr9  1  0.125533  0.125533  0.406689  1
  Zr  Zr10  1  0.542880  0.336210  0.105755  1
  Zr  Zr11  1  0.957120  0.163790  0.605755  1
  Zr  Zr12  1  0.163790  0.957120  0.605755  1
  Zr  Zr13  1  0.374467  0.374467  0.906689  1
  C  C14  1  0.500000  0.500000  0.000000  1
  C  C15  1  0.000000  0.000000  0.500000  1
  I  I16  1  0.464568  0.711221  0.245597  1
  I  I17  1  0.356826  0.108882  0.506824  1
  I  I18  1  0.211221  0.964568  0.254403  1
  I  I19  1  0.143174  0.391118  0.006824  1
  I  I20  1  0.891118  0.643174  0.493176  1
  I  I21  1  0.535432  0.288779  0.754403  1
  I  I22  1  0.711221  0.464568  0.245597  1
  I  I23  1  0.035432  0.788779  0.745597  1
  I  I24  1  0.348662  0.348662  0.256544  1
  I  I25  1  0.151338  0.151338  0.756544  1
  I  I26  1  0.288779  0.535432  0.754403  1
  I  I27  1  0.788779  0.035432  0.745597  1
  I  I28  1  0.106247  0.606247  0.250000  1
  I  I29  1  0.606247  0.106247  0.250000  1
  I  I30  1  0.250830  0.749170  0.000000  1
  I  I31  1  0.249170  0.750830  0.500000  1
  I  I32  1  0.651338  0.651338  0.743456  1
  I  I33  1  0.848662  0.848662  0.243456  1
  I  I34  1  0.893753  0.393753  0.750000  1
  I  I35  1  0.643174  0.891118  0.493176  1
  I  I36  1  0.856826  0.608882  0.993176  1
  I  I37  1  0.391118  0.143174  0.006824  1
  I  I38  1  0.964568  0.211221  0.254403  1
  I  I39  1  0.393753  0.893753  0.750000  1
  I  I40  1  0.749170  0.250830  0.000000  1
  I  I41  1  0.608882  0.856826  0.993176  1
  I  I42  1  0.750830  0.249170  0.500000  1
  I  I43  1  0.108882  0.356826  0.506824  1
