# generated using pymatgen
data_Na3Al2(AsO4)3
_symmetry_space_group_name_H-M   'P 1'
_cell_length_a   9.92456038
_cell_length_b   10.01853535
_cell_length_c   10.01853528
_cell_angle_alpha   84.84411573
_cell_angle_beta   84.89289003
_cell_angle_gamma   84.89288719
_symmetry_Int_Tables_number   1
_chemical_formula_structural   Na3Al2(AsO4)3
_chemical_formula_sum   'Na12 Al8 As12 O48'
_cell_volume   984.86822610
_cell_formula_units_Z   4
loop_
 _symmetry_equiv_pos_site_id
 _symmetry_equiv_pos_as_xyz
  1  'x, y, z'
loop_
 _atom_site_type_symbol
 _atom_site_label
 _atom_site_symmetry_multiplicity
 _atom_site_fract_x
 _atom_site_fract_y
 _atom_site_fract_z
 _atom_site_occupancy
  Na  Na0  1  0.516224  0.544480  0.826370  1
  Na  Na1  1  0.826392  0.297894  0.298582  1
  Na  Na2  1  0.234115  0.500165  0.998579  1
  Na  Na3  1  0.483776  0.173630  0.455520  1
  Na  Na4  1  0.765885  0.001421  0.499835  1
  Na  Na5  1  0.173608  0.701418  0.702106  1
  Na  Na6  1  0.263903  0.360222  0.271152  1
  Na  Na7  1  0.590559  0.026042  0.773047  1
  Na  Na8  1  0.925846  0.959768  0.242426  1
  Na  Na9  1  0.074154  0.757574  0.040232  1
  Na  Na10  1  0.409441  0.226953  0.973958  1
  Na  Na11  1  0.736097  0.728848  0.639778  1
  Al  Al12  1  0.500000  0.528932  0.471068  1
  Al  Al13  1  0.719941  0.744651  0.030933  1
  Al  Al14  1  0.777960  0.247323  0.970547  1
  Al  Al15  1  1.000000  0.468248  0.531752  1
  Al  Al16  1  1.000000  0.247082  0.752918  1
  Al  Al17  1  0.280059  0.969067  0.255349  1
  Al  Al18  1  0.500000  0.746729  0.253271  1
  Al  Al19  1  0.222040  0.029453  0.752677  1
  As  As20  1  0.297571  0.338825  0.674532  1
  As  As21  1  0.426585  0.838554  0.548950  1
  As  As22  1  0.198755  0.663839  0.337494  1
  As  As23  1  0.573415  0.451050  0.161446  1
  As  As24  1  0.594238  0.041819  0.171021  1
  As  As25  1  0.083046  0.158380  0.458541  1
  As  As26  1  0.405762  0.828979  0.958181  1
  As  As27  1  0.801245  0.662506  0.336161  1
  As  As28  1  0.909453  0.950937  0.832326  1
  As  As29  1  0.702429  0.325468  0.661175  1
  As  As30  1  0.916954  0.541459  0.841620  1
  As  As31  1  0.090547  0.167674  0.049063  1
  O  O32  1  0.851878  0.870884  0.984047  1
  O  O33  1  0.166344  0.835661  0.332384  1
  O  O34  1  0.829338  0.907681  0.705285  1
  O  O35  1  0.577306  0.627566  0.122984  1
  O  O36  1  0.629767  0.864824  0.169868  1
  O  O37  1  0.668935  0.093461  0.299255  1
  O  O38  1  0.564666  0.903573  0.593349  1
  O  O39  1  0.573881  0.412382  0.333400  1
  O  O40  1  0.379151  0.621754  0.337119  1
  O  O41  1  0.871445  0.128321  0.835072  1
  O  O42  1  0.370233  0.830132  0.135176  1
  O  O43  1  0.351980  0.983133  0.880494  1
  O  O44  1  0.235037  0.099727  0.379315  1
  O  O45  1  0.620849  0.662881  0.378246  1
  O  O46  1  0.625102  0.477123  0.601030  1
  O  O47  1  0.649911  0.191043  0.598456  1
  O  O48  1  0.420291  0.080273  0.179262  1
  O  O49  1  0.331065  0.700745  0.906539  1
  O  O50  1  0.918723  0.365126  0.882165  1
  O  O51  1  0.665382  0.325126  0.833447  1
  O  O52  1  0.847808  0.795868  0.405498  1
  O  O53  1  0.053936  0.601042  0.893505  1
  O  O54  1  0.170662  0.294715  0.092319  1
  O  O55  1  0.579709  0.820738  0.919727  1
  O  O56  1  0.872613  0.511996  0.404127  1
  O  O57  1  0.764963  0.620685  0.900273  1
  O  O58  1  0.127387  0.595873  0.488004  1
  O  O59  1  0.148122  0.015953  0.129116  1
  O  O60  1  0.083763  0.330727  0.427092  1
  O  O61  1  0.833656  0.667616  0.164339  1
  O  O62  1  0.880692  0.324009  0.623147  1
  O  O63  1  0.334618  0.166553  0.674874  1
  O  O64  1  0.119308  0.376853  0.675991  1
  O  O65  1  0.128555  0.164928  0.871679  1
  O  O66  1  0.916401  0.171753  0.086118  1
  O  O67  1  0.083599  0.913882  0.828247  1
  O  O68  1  0.152192  0.594502  0.204132  1
  O  O69  1  0.426119  0.666600  0.587618  1
  O  O70  1  0.721454  0.370913  0.096940  1
  O  O71  1  0.435334  0.406651  0.096427  1
  O  O72  1  0.648020  0.119506  0.016867  1
  O  O73  1  0.278546  0.903060  0.629087  1
  O  O74  1  0.350089  0.401544  0.808957  1
  O  O75  1  0.081277  0.117835  0.634874  1
  O  O76  1  0.946064  0.106495  0.398958  1
  O  O77  1  0.916237  0.572908  0.669273  1
  O  O78  1  0.422694  0.877016  0.372434  1
  O  O79  1  0.374898  0.398970  0.522877  1
