# generated using pymatgen
data_V2Ni(PO5)2
_symmetry_space_group_name_H-M   'P 1'
_cell_length_a   6.42197768
_cell_length_b   7.41356922
_cell_length_c   7.38954102
_cell_angle_alpha   90.00000000
_cell_angle_beta   89.84723378
_cell_angle_gamma   90.00000000
_symmetry_Int_Tables_number   1
_chemical_formula_structural   V2Ni(PO5)2
_chemical_formula_sum   'V4 Ni2 P4 O20'
_cell_volume   351.81314277
_cell_formula_units_Z   2
loop_
 _symmetry_equiv_pos_site_id
 _symmetry_equiv_pos_as_xyz
  1  'x, y, z'
loop_
 _atom_site_type_symbol
 _atom_site_label
 _atom_site_symmetry_multiplicity
 _atom_site_fract_x
 _atom_site_fract_y
 _atom_site_fract_z
 _atom_site_occupancy
  V  V0  1  0.744902  0.279029  0.834561  1
  V  V1  1  0.255098  0.779029  0.665439  1
  V  V2  1  0.255098  0.720971  0.165439  1
  V  V3  1  0.744902  0.220971  0.334561  1
  Ni  Ni4  1  0.000000  0.000000  0.000000  1
  Ni  Ni5  1  0.000000  0.500000  0.500000  1
  P  P6  1  0.749704  0.622136  0.127822  1
  P  P7  1  0.749704  0.877864  0.627822  1
  P  P8  1  0.250296  0.122136  0.372178  1
  P  P9  1  0.250296  0.377864  0.872178  1
  O  O10  1  0.778838  0.004705  0.794768  1
  O  O11  1  0.227219  0.664219  0.389998  1
  O  O12  1  0.938202  0.745685  0.623906  1
  O  O13  1  0.061798  0.254315  0.376094  1
  O  O14  1  0.938202  0.754315  0.123906  1
  O  O15  1  0.221162  0.504705  0.705232  1
  O  O16  1  0.221162  0.995295  0.205232  1
  O  O17  1  0.554145  0.739969  0.146144  1
  O  O18  1  0.254657  0.009442  0.546177  1
  O  O19  1  0.554145  0.760031  0.646144  1
  O  O20  1  0.254657  0.490558  0.046177  1
  O  O21  1  0.745343  0.990558  0.453823  1
  O  O22  1  0.772781  0.335781  0.610002  1
  O  O23  1  0.445855  0.260031  0.853856  1
  O  O24  1  0.227219  0.835781  0.889998  1
  O  O25  1  0.772781  0.164219  0.110002  1
  O  O26  1  0.745343  0.509442  0.953823  1
  O  O27  1  0.061798  0.245685  0.876094  1
  O  O28  1  0.778838  0.495295  0.294768  1
  O  O29  1  0.445855  0.239969  0.353856  1
