# generated using pymatgen
data_K2HoPWO8
_symmetry_space_group_name_H-M   'P 1'
_cell_length_a   6.95321903
_cell_length_b   12.24097601
_cell_length_c   12.24097569
_cell_angle_alpha   60.08180060
_cell_angle_beta   73.50007500
_cell_angle_gamma   73.50007446
_symmetry_Int_Tables_number   1
_chemical_formula_structural   K2HoPWO8
_chemical_formula_sum   'K8 Ho4 P4 W4 O32'
_cell_volume   853.05272244
_cell_formula_units_Z   4
loop_
 _symmetry_equiv_pos_site_id
 _symmetry_equiv_pos_as_xyz
  1  'x, y, z'
loop_
 _atom_site_type_symbol
 _atom_site_label
 _atom_site_symmetry_multiplicity
 _atom_site_fract_x
 _atom_site_fract_y
 _atom_site_fract_z
 _atom_site_occupancy
  K  K0  1  0.373540  0.077615  0.235256  1
  K  K1  1  0.313589  0.735256  0.577615  1
  K  K2  1  0.186411  0.422385  0.264744  1
  K  K3  1  0.813589  0.577615  0.735256  1
  K  K4  1  0.626460  0.922385  0.764744  1
  K  K5  1  0.873540  0.235256  0.077615  1
  K  K6  1  0.126460  0.764744  0.922385  1
  K  K7  1  0.686411  0.264744  0.422385  1
  Ho  Ho8  1  0.750000  0.674356  0.325644  1
  Ho  Ho9  1  0.250000  0.325644  0.674356  1
  Ho  Ho10  1  0.250000  0.825644  0.174356  1
  Ho  Ho11  1  0.750000  0.174356  0.825644  1
  P  P12  1  0.750000  0.929735  0.070265  1
  P  P13  1  0.250000  0.570265  0.429735  1
  P  P14  1  0.250000  0.070265  0.929735  1
  P  P15  1  0.750000  0.429735  0.570265  1
  W  W16  1  0.335853  0.414147  0.914147  1
  W  W17  1  0.664147  0.585853  0.085853  1
  W  W18  1  0.835853  0.914147  0.414147  1
  W  W19  1  0.164147  0.085853  0.585853  1
  O  O20  1  0.794038  0.944651  0.932996  1
  O  O21  1  0.205962  0.055349  0.067004  1
  O  O22  1  0.569588  0.856068  0.158294  1
  O  O23  1  0.773654  0.651070  0.917993  1
  O  O24  1  0.401007  0.667840  0.106421  1
  O  O25  1  0.416050  0.658294  0.356068  1
  O  O26  1  0.157282  0.151070  0.417993  1
  O  O27  1  0.171685  0.555349  0.567004  1
  O  O28  1  0.671685  0.567004  0.555349  1
  O  O29  1  0.069588  0.158294  0.856068  1
  O  O30  1  0.273654  0.917993  0.651070  1
  O  O31  1  0.226346  0.348930  0.082007  1
  O  O32  1  0.930412  0.841706  0.143932  1
  O  O33  1  0.842718  0.848930  0.582007  1
  O  O34  1  0.328315  0.432996  0.444651  1
  O  O35  1  0.705962  0.067004  0.055349  1
  O  O36  1  0.598993  0.332160  0.893579  1
  O  O37  1  0.583950  0.341706  0.643932  1
  O  O38  1  0.430412  0.143932  0.841706  1
  O  O39  1  0.175268  0.393579  0.832160  1
  O  O40  1  0.098993  0.893579  0.332160  1
  O  O41  1  0.675268  0.832160  0.393579  1
  O  O42  1  0.324732  0.167840  0.606421  1
  O  O43  1  0.824732  0.606421  0.167840  1
  O  O44  1  0.901007  0.106421  0.667840  1
  O  O45  1  0.828315  0.444651  0.432996  1
  O  O46  1  0.726346  0.082007  0.348930  1
  O  O47  1  0.657282  0.417993  0.151070  1
  O  O48  1  0.083950  0.643932  0.341706  1
  O  O49  1  0.916050  0.356068  0.658294  1
  O  O50  1  0.294038  0.932996  0.944651  1
  O  O51  1  0.342718  0.582007  0.848930  1
