# generated using pymatgen
data_U5Re5Si9
_symmetry_space_group_name_H-M   'P 1'
_cell_length_a   16.28337704
_cell_length_b   16.28337704
_cell_length_c   5.63054364
_cell_angle_alpha   90.00000000
_cell_angle_beta   90.00000000
_cell_angle_gamma   120.00000000
_symmetry_Int_Tables_number   1
_chemical_formula_structural   U5Re5Si9
_chemical_formula_sum   'U20 Si36 Re20'
_cell_volume   1292.91483497
_cell_formula_units_Z   4
loop_
 _symmetry_equiv_pos_site_id
 _symmetry_equiv_pos_as_xyz
  1  'x, y, z'
loop_
 _atom_site_type_symbol
 _atom_site_label
 _atom_site_symmetry_multiplicity
 _atom_site_fract_x
 _atom_site_fract_y
 _atom_site_fract_z
 _atom_site_occupancy
  Si  Si0  1  0.123163  0.290688  0.027829  1
  Si  Si1  1  0.832475  0.123163  0.527829  1
  Si  Si2  1  0.290688  0.167525  0.527829  1
  Si  Si3  1  0.709312  0.832475  0.027829  1
  Si  Si4  1  0.167525  0.876837  0.027829  1
  Si  Si5  1  0.876837  0.709312  0.527829  1
  Si  Si6  1  0.876837  0.709312  0.972171  1
  Si  Si7  1  0.167525  0.876837  0.472171  1
  Si  Si8  1  0.709312  0.832475  0.472171  1
  Si  Si9  1  0.290688  0.167525  0.972171  1
  Si  Si10  1  0.832475  0.123163  0.972171  1
  Si  Si11  1  0.123163  0.290688  0.472171  1
  Si  Si12  1  0.177931  0.649499  0.030941  1
  Si  Si13  1  0.528432  0.177931  0.530941  1
  Si  Si14  1  0.649499  0.471568  0.530941  1
  Si  Si15  1  0.350501  0.528432  0.030941  1
  Si  Si16  1  0.471568  0.822069  0.030941  1
  Si  Si17  1  0.822069  0.350501  0.530941  1
  Si  Si18  1  0.822069  0.350501  0.969059  1
  Si  Si19  1  0.471568  0.822069  0.469059  1
  Si  Si20  1  0.350501  0.528432  0.469059  1
  Si  Si21  1  0.649499  0.471568  0.969059  1
  Si  Si22  1  0.528432  0.177931  0.969059  1
  Si  Si23  1  0.177931  0.649499  0.469059  1
  Si  Si24  1  0.377001  0.866693  0.750000  1
  Si  Si25  1  0.510308  0.377001  0.250000  1
  Si  Si26  1  0.866693  0.489692  0.250000  1
  Si  Si27  1  0.133307  0.510308  0.750000  1
  Si  Si28  1  0.489692  0.622999  0.750000  1
  Si  Si29  1  0.622999  0.133307  0.250000  1
  Si  Si30  1  0.041813  0.643480  0.750000  1
  Si  Si31  1  0.398333  0.041813  0.250000  1
  Si  Si32  1  0.643480  0.601667  0.250000  1
  Si  Si33  1  0.356520  0.398333  0.750000  1
  Si  Si34  1  0.601667  0.958187  0.750000  1
  Si  Si35  1  0.958187  0.356520  0.250000  1
  Re  Re36  1  0.576320  0.794701  0.750000  1
  Re  Re37  1  0.781619  0.576320  0.250000  1
  Re  Re38  1  0.794701  0.218381  0.250000  1
  Re  Re39  1  0.205299  0.781619  0.750000  1
  Re  Re40  1  0.218381  0.423680  0.750000  1
  Re  Re41  1  0.423680  0.205299  0.250000  1
  Re  Re42  1  0.761639  0.971230  0.750000  1
  Re  Re43  1  0.790409  0.761639  0.250000  1
  Re  Re44  1  0.971230  0.209591  0.250000  1
  Re  Re45  1  0.028770  0.790409  0.750000  1
  Re  Re46  1  0.209591  0.238361  0.750000  1
  Re  Re47  1  0.238361  0.028770  0.250000  1
  Re  Re48  1  0.500000  0.000000  0.000000  1
  Re  Re49  1  0.500000  0.500000  0.500000  1
  Re  Re50  1  0.000000  0.500000  0.500000  1
  Re  Re51  1  0.000000  0.500000  0.000000  1
  Re  Re52  1  0.500000  0.500000  0.000000  1
  Re  Re53  1  0.500000  0.000000  0.500000  1
  Re  Re54  1  0.666667  0.333333  0.750000  1
  Re  Re55  1  0.333333  0.666667  0.250000  1
  U  U56  1  0.333333  0.666667  0.750000  1
  U  U57  1  0.666667  0.333333  0.250000  1
  U  U58  1  0.839418  0.527104  0.750000  1
  U  U59  1  0.312314  0.839418  0.250000  1
  U  U60  1  0.527104  0.687686  0.250000  1
  U  U61  1  0.472896  0.312314  0.750000  1
  U  U62  1  0.687686  0.160582  0.750000  1
  U  U63  1  0.160582  0.472896  0.250000  1
  U  U64  1  0.684827  0.650803  0.750000  1
  U  U65  1  0.034024  0.684827  0.250000  1
  U  U66  1  0.650803  0.965976  0.250000  1
  U  U67  1  0.349197  0.034024  0.750000  1
  U  U68  1  0.965976  0.315173  0.750000  1
  U  U69  1  0.315173  0.349197  0.250000  1
  U  U70  1  0.993022  0.118087  0.750000  1
  U  U71  1  0.874935  0.993022  0.250000  1
  U  U72  1  0.118087  0.125065  0.250000  1
  U  U73  1  0.881913  0.874935  0.750000  1
  U  U74  1  0.125065  0.006978  0.750000  1
  U  U75  1  0.006978  0.881913  0.250000  1
