# generated using pymatgen
data_V2P2O9
_symmetry_space_group_name_H-M   'P 1'
_cell_length_a   7.63172044
_cell_length_b   9.74528177
_cell_length_c   16.98002198
_cell_angle_alpha   90.00000000
_cell_angle_beta   90.00000000
_cell_angle_gamma   90.00000000
_symmetry_Int_Tables_number   1
_chemical_formula_structural   V2P2O9
_chemical_formula_sum   'V16 P16 O72'
_cell_volume   1262.85969272
_cell_formula_units_Z   8
loop_
 _symmetry_equiv_pos_site_id
 _symmetry_equiv_pos_as_xyz
  1  'x, y, z'
loop_
 _atom_site_type_symbol
 _atom_site_label
 _atom_site_symmetry_multiplicity
 _atom_site_fract_x
 _atom_site_fract_y
 _atom_site_fract_z
 _atom_site_occupancy
  V  V0  1  0.714414  0.499157  0.428606  1
  V  V1  1  0.712428  0.993744  0.678200  1
  V  V2  1  0.215925  0.501050  0.119933  1
  V  V3  1  0.215341  0.998954  0.370342  1
  V  V4  1  0.715925  0.498950  0.119933  1
  V  V5  1  0.284659  0.998954  0.870342  1
  V  V6  1  0.284075  0.501050  0.619933  1
  V  V7  1  0.785586  0.499157  0.928606  1
  V  V8  1  0.784659  0.001046  0.870342  1
  V  V9  1  0.214414  0.500843  0.428606  1
  V  V10  1  0.787572  0.993744  0.178200  1
  V  V11  1  0.285586  0.500843  0.928606  1
  V  V12  1  0.715341  0.001046  0.370342  1
  V  V13  1  0.212428  0.006256  0.678200  1
  V  V14  1  0.784075  0.498950  0.619933  1
  V  V15  1  0.287572  0.006256  0.178200  1
  P  P16  1  0.304772  0.793711  0.019731  1
  P  P17  1  0.292408  0.707242  0.274702  1
  P  P18  1  0.200547  0.298332  0.274093  1
  P  P19  1  0.207592  0.707242  0.774702  1
  P  P20  1  0.204260  0.209946  0.018897  1
  P  P21  1  0.804772  0.206289  0.019731  1
  P  P22  1  0.704260  0.790054  0.018897  1
  P  P23  1  0.299453  0.298332  0.774093  1
  P  P24  1  0.795740  0.790054  0.518897  1
  P  P25  1  0.295740  0.209946  0.518897  1
  P  P26  1  0.792408  0.292758  0.274702  1
  P  P27  1  0.799453  0.701668  0.774093  1
  P  P28  1  0.195228  0.793711  0.519731  1
  P  P29  1  0.707592  0.292758  0.774702  1
  P  P30  1  0.695228  0.206289  0.519731  1
  P  P31  1  0.700547  0.701668  0.274093  1
  O  O32  1  0.002133  0.515422  0.615498  1
  O  O33  1  0.995731  0.789797  0.492532  1
  O  O34  1  0.289052  0.857117  0.100263  1
  O  O35  1  0.003700  0.512263  0.932399  1
  O  O36  1  0.289132  0.868379  0.453639  1
  O  O37  1  0.224933  0.867629  0.774021  1
  O  O38  1  0.726688  0.639490  0.848944  1
  O  O39  1  0.495731  0.210203  0.492532  1
  O  O40  1  0.727541  0.861166  0.274080  1
  O  O41  1  0.251880  0.638979  0.523436  1
  O  O42  1  0.496466  0.971192  0.682759  1
  O  O43  1  0.782754  0.353406  0.700333  1
  O  O44  1  0.218409  0.651640  0.350725  1
  O  O45  1  0.773177  0.640509  0.198944  1
  O  O46  1  0.495971  0.672729  0.274334  1
  O  O47  1  0.717246  0.353406  0.200333  1
  O  O48  1  0.281989  0.141852  0.598371  1
  O  O49  1  0.497867  0.515422  0.115498  1
  O  O50  1  0.789052  0.142883  0.100263  1
  O  O51  1  0.227541  0.138834  0.274080  1
  O  O52  1  0.210868  0.868379  0.953639  1
  O  O53  1  0.217246  0.646594  0.200333  1
  O  O54  1  0.302722  0.143773  0.951687  1
  O  O55  1  0.282754  0.646594  0.700333  1
  O  O56  1  0.218011  0.141852  0.098371  1
  O  O57  1  0.710948  0.142883  0.600263  1
  O  O58  1  0.499800  0.028161  0.364589  1
  O  O59  1  0.004269  0.210203  0.992532  1
  O  O60  1  0.772459  0.861166  0.774080  1
  O  O61  1  0.503700  0.487737  0.932399  1
  O  O62  1  -0.000200  0.971839  0.364589  1
  O  O63  1  0.255347  0.365359  0.024761  1
  O  O64  1  0.996466  0.028808  0.682759  1
  O  O65  1  0.789132  0.131621  0.453639  1
  O  O66  1  0.724933  0.132371  0.774021  1
  O  O67  1  0.281591  0.651640  0.850725  1
  O  O68  1  0.496300  0.512263  0.432399  1
  O  O69  1  0.744653  0.634641  0.524761  1
  O  O70  1  0.802722  0.856227  0.951687  1
  O  O71  1  0.003534  0.971192  0.182759  1
  O  O72  1  0.273312  0.360510  0.348944  1
  O  O73  1  0.504029  0.327271  0.774334  1
  O  O74  1  0.197278  0.143773  0.451687  1
  O  O75  1  0.503534  0.028808  0.182759  1
  O  O76  1  0.504269  0.789797  0.992532  1
  O  O77  1  0.244653  0.365359  0.524761  1
  O  O78  1  0.710868  0.131621  0.953639  1
  O  O79  1  0.502133  0.484578  0.615498  1
  O  O80  1  0.781989  0.858148  0.598371  1
  O  O81  1  0.773312  0.639490  0.348944  1
  O  O82  1  0.275067  0.867629  0.274021  1
  O  O83  1  0.226688  0.360510  0.848944  1
  O  O84  1  0.272459  0.138834  0.774080  1
  O  O85  1  0.226823  0.359491  0.698944  1
  O  O86  1  0.273177  0.359491  0.198944  1
  O  O87  1  0.995971  0.327271  0.274334  1
  O  O88  1  0.004029  0.672729  0.774334  1
  O  O89  1  0.718011  0.858148  0.098371  1
  O  O90  1  0.718409  0.348360  0.350725  1
  O  O91  1  0.997867  0.484578  0.115498  1
  O  O92  1  0.726823  0.640509  0.698944  1
  O  O93  1  0.751880  0.361021  0.523436  1
  O  O94  1  0.781591  0.348360  0.850725  1
  O  O95  1  0.500200  0.971839  0.864589  1
  O  O96  1  0.697278  0.856227  0.451687  1
  O  O97  1  0.748120  0.361021  0.023436  1
  O  O98  1  0.996300  0.487737  0.432399  1
  O  O99  1  0.248120  0.638979  0.023436  1
  O  O100  1  0.775067  0.132371  0.274021  1
  O  O101  1  0.755347  0.634641  0.024761  1
  O  O102  1  0.210948  0.857117  0.600263  1
  O  O103  1  1.000200  0.028161  0.864589  1
