# generated using pymatgen
data_Ca(BH)2
_symmetry_space_group_name_H-M   'P 1'
_cell_length_a   3.24035075
_cell_length_b   5.30916074
_cell_length_c   11.07815883
_cell_angle_alpha   90.00000000
_cell_angle_beta   90.00000000
_cell_angle_gamma   90.00000000
_symmetry_Int_Tables_number   1
_chemical_formula_structural   Ca(BH)2
_chemical_formula_sum   'Ca4 B8 H8'
_cell_volume   190.58358163
_cell_formula_units_Z   4
loop_
 _symmetry_equiv_pos_site_id
 _symmetry_equiv_pos_as_xyz
  1  'x, y, z'
loop_
 _atom_site_type_symbol
 _atom_site_label
 _atom_site_symmetry_multiplicity
 _atom_site_fract_x
 _atom_site_fract_y
 _atom_site_fract_z
 _atom_site_occupancy
  Ca  Ca0  1  -0.016885  0.250000  0.150945  1
  Ca  Ca1  1  1.016885  0.750000  0.849055  1
  Ca  Ca2  1  0.516885  0.250000  0.650945  1
  Ca  Ca3  1  0.483115  0.750000  0.349055  1
  B  B4  1  0.514067  0.250000  0.894456  1
  B  B5  1  0.985933  0.250000  0.394456  1
  B  B6  1  0.485307  0.250000  0.343870  1
  B  B7  1  0.514693  0.750000  0.656130  1
  B  B8  1  0.485933  0.750000  0.105544  1
  B  B9  1  0.985307  0.750000  0.156130  1
  B  B10  1  0.014693  0.250000  0.843870  1
  B  B11  1  0.014067  0.750000  0.605544  1
  H  H12  1  0.096985  0.750000  0.047946  1
  H  H13  1  0.903015  0.250000  0.952054  1
  H  H14  1  0.000000  0.500000  0.500000  1
  H  H15  1  0.596985  0.250000  0.452054  1
  H  H16  1  0.500000  0.000000  0.000000  1
  H  H17  1  0.403015  0.750000  0.547946  1
  H  H18  1  0.000000  0.000000  0.500000  1
  H  H19  1  0.500000  0.500000  0.000000  1
