# generated using pymatgen
data_MoPCl5O3
_symmetry_space_group_name_H-M   'P 1'
_cell_length_a   8.90008733
_cell_length_b   15.10063209
_cell_length_c   15.49338710
_cell_angle_alpha   90.00000000
_cell_angle_beta   90.00000000
_cell_angle_gamma   96.03367259
_symmetry_Int_Tables_number   1
_chemical_formula_structural   MoPCl5O3
_chemical_formula_sum   'Mo8 P8 Cl40 O24'
_cell_volume   2070.72875042
_cell_formula_units_Z   8
loop_
 _symmetry_equiv_pos_site_id
 _symmetry_equiv_pos_as_xyz
  1  'x, y, z'
loop_
 _atom_site_type_symbol
 _atom_site_label
 _atom_site_symmetry_multiplicity
 _atom_site_fract_x
 _atom_site_fract_y
 _atom_site_fract_z
 _atom_site_occupancy
  Mo  Mo0  1  0.260732  0.244531  0.554586  1
  Mo  Mo1  1  0.780410  0.739245  0.696176  1
  Mo  Mo2  1  0.239268  0.255469  0.054586  1
  Mo  Mo3  1  0.719590  0.760755  0.196176  1
  Mo  Mo4  1  0.280410  0.239245  0.803824  1
  Mo  Mo5  1  0.219590  0.260755  0.303824  1
  Mo  Mo6  1  0.760732  0.744531  0.945414  1
  Mo  Mo7  1  0.739268  0.755469  0.445414  1
  P  P8  1  0.082280  0.445408  0.827852  1
  P  P9  1  0.875323  0.331870  0.565404  1
  P  P10  1  0.375323  0.831870  0.934596  1
  P  P11  1  0.582280  0.945408  0.672148  1
  P  P12  1  0.124677  0.668130  0.434596  1
  P  P13  1  0.417720  0.054592  0.327852  1
  P  P14  1  0.624677  0.168130  0.065404  1
  P  P15  1  0.917720  0.554592  0.172148  1
  Cl  Cl16  1  0.048391  0.132439  0.321741  1
  Cl  Cl17  1  0.061632  0.141824  0.825908  1
  Cl  Cl18  1  0.275340  0.776352  0.039409  1
  Cl  Cl19  1  0.884225  0.888139  0.930566  1
  Cl  Cl20  1  0.177413  0.509516  0.929405  1
  Cl  Cl21  1  0.548391  0.632439  0.178259  1
  Cl  Cl22  1  0.451609  0.367561  0.821741  1
  Cl  Cl23  1  0.224660  0.723648  0.539409  1
  Cl  Cl24  1  0.667994  0.013164  0.773951  1
  Cl  Cl25  1  0.817229  0.455672  0.567646  1
  Cl  Cl26  1  0.767050  0.270371  0.664718  1
  Cl  Cl27  1  0.677413  0.009516  0.570595  1
  Cl  Cl28  1  0.317229  0.955672  0.932354  1
  Cl  Cl29  1  0.167994  0.513164  0.726049  1
  Cl  Cl30  1  0.384225  0.388139  0.569434  1
  Cl  Cl31  1  0.927581  0.873900  0.421909  1
  Cl  Cl32  1  0.115775  0.111861  0.069434  1
  Cl  Cl33  1  0.135118  0.533307  0.168113  1
  Cl  Cl34  1  0.732950  0.229629  0.164718  1
  Cl  Cl35  1  0.364882  0.966693  0.668113  1
  Cl  Cl36  1  0.938368  0.858176  0.174092  1
  Cl  Cl37  1  0.572419  0.626100  0.921909  1
  Cl  Cl38  1  0.561632  0.641824  0.674092  1
  Cl  Cl39  1  0.332006  0.986836  0.226049  1
  Cl  Cl40  1  0.232950  0.729629  0.335282  1
  Cl  Cl41  1  0.822587  0.490484  0.070595  1
  Cl  Cl42  1  0.951609  0.867561  0.678259  1
  Cl  Cl43  1  0.724660  0.223648  0.960591  1
  Cl  Cl44  1  0.322587  0.990484  0.429405  1
  Cl  Cl45  1  0.635118  0.033307  0.331887  1
  Cl  Cl46  1  0.427581  0.373900  0.078091  1
  Cl  Cl47  1  0.864882  0.466693  0.831887  1
  Cl  Cl48  1  0.182771  0.544328  0.432354  1
  Cl  Cl49  1  0.682771  0.044328  0.067646  1
  Cl  Cl50  1  0.438368  0.358176  0.325908  1
  Cl  Cl51  1  0.832006  0.486836  0.273951  1
  Cl  Cl52  1  0.775340  0.276352  0.460591  1
  Cl  Cl53  1  0.615775  0.611861  0.430566  1
  Cl  Cl54  1  0.267050  0.770371  0.835282  1
  Cl  Cl55  1  0.072419  0.126100  0.578091  1
  O  O56  1  0.409231  0.163447  0.800473  1
  O  O57  1  0.245646  0.256217  0.691052  1
  O  O58  1  0.400054  0.151117  0.325666  1
  O  O59  1  0.958729  0.670136  0.432627  1
  O  O60  1  0.754354  0.743783  0.308948  1
  O  O61  1  0.586352  0.814446  0.443373  1
  O  O62  1  0.090769  0.336553  0.300473  1
  O  O63  1  0.599946  0.848883  0.674334  1
  O  O64  1  0.913648  0.685554  0.943373  1
  O  O65  1  0.254354  0.243783  0.191052  1
  O  O66  1  0.541271  0.829864  0.932627  1
  O  O67  1  0.590769  0.836553  0.199527  1
  O  O68  1  0.041271  0.329864  0.567373  1
  O  O69  1  0.272286  0.246679  0.940590  1
  O  O70  1  0.745646  0.756217  0.808948  1
  O  O71  1  0.099946  0.348883  0.825666  1
  O  O72  1  0.458729  0.170136  0.067373  1
  O  O73  1  0.086352  0.314446  0.056627  1
  O  O74  1  0.413648  0.185554  0.556627  1
  O  O75  1  0.900054  0.651117  0.174334  1
  O  O76  1  0.727714  0.753321  0.059410  1
  O  O77  1  0.772286  0.746679  0.559410  1
  O  O78  1  0.909231  0.663447  0.699527  1
  O  O79  1  0.227714  0.253321  0.440590  1
