# generated using pymatgen
data_Cs2DyCl5
_symmetry_space_group_name_H-M   'P 1'
_cell_length_a   7.57833228
_cell_length_b   9.72988641
_cell_length_c   15.48620502
_cell_angle_alpha   90.00000000
_cell_angle_beta   90.00000000
_cell_angle_gamma   90.00000000
_symmetry_Int_Tables_number   1
_chemical_formula_structural   Cs2DyCl5
_chemical_formula_sum   'Cs8 Dy4 Cl20'
_cell_volume   1141.89564910
_cell_formula_units_Z   4
loop_
 _symmetry_equiv_pos_site_id
 _symmetry_equiv_pos_as_xyz
  1  'x, y, z'
loop_
 _atom_site_type_symbol
 _atom_site_label
 _atom_site_symmetry_multiplicity
 _atom_site_fract_x
 _atom_site_fract_y
 _atom_site_fract_z
 _atom_site_occupancy
  Cs  Cs0  1  0.250000  0.975191  0.787888  1
  Cs  Cs1  1  0.750000  0.024809  0.212112  1
  Cs  Cs2  1  0.250000  0.475191  0.712112  1
  Cs  Cs3  1  0.750000  0.524809  0.287888  1
  Cs  Cs4  1  0.750000  0.834277  0.584029  1
  Cs  Cs5  1  0.250000  0.165723  0.415971  1
  Cs  Cs6  1  0.750000  0.334277  0.915971  1
  Cs  Cs7  1  0.250000  0.665723  0.084029  1
  Dy  Dy8  1  0.750000  0.820949  0.934471  1
  Dy  Dy9  1  0.250000  0.179051  0.065529  1
  Dy  Dy10  1  0.750000  0.320949  0.565529  1
  Dy  Dy11  1  0.250000  0.679051  0.434471  1
  Cl  Cl12  1  0.000000  0.000000  0.000000  1
  Cl  Cl13  1  0.500000  0.000000  0.000000  1
  Cl  Cl14  1  0.500000  0.500000  0.500000  1
  Cl  Cl15  1  0.000000  0.500000  0.500000  1
  Cl  Cl16  1  0.496758  0.666004  0.880917  1
  Cl  Cl17  1  0.996758  0.333996  0.119083  1
  Cl  Cl18  1  0.003242  0.166004  0.619083  1
  Cl  Cl19  1  0.503242  0.833996  0.380917  1
  Cl  Cl20  1  0.503242  0.333996  0.119083  1
  Cl  Cl21  1  0.003242  0.666004  0.880917  1
  Cl  Cl22  1  0.996758  0.833996  0.380917  1
  Cl  Cl23  1  0.496758  0.166004  0.619083  1
  Cl  Cl24  1  0.250000  0.788163  0.591206  1
  Cl  Cl25  1  0.750000  0.211837  0.408794  1
  Cl  Cl26  1  0.250000  0.288163  0.908794  1
  Cl  Cl27  1  0.750000  0.711837  0.091206  1
  Cl  Cl28  1  0.750000  0.981531  0.799788  1
  Cl  Cl29  1  0.250000  0.018469  0.200212  1
  Cl  Cl30  1  0.750000  0.481531  0.700212  1
  Cl  Cl31  1  0.250000  0.518469  0.299788  1
