# generated using pymatgen
data_Sr11(MgSi5)2
_symmetry_space_group_name_H-M   'P 1'
_cell_length_a   4.76113239
_cell_length_b   10.15212984
_cell_length_c   14.63001777
_cell_angle_alpha   71.34569066
_cell_angle_beta   80.63530835
_cell_angle_gamma   76.43847771
_symmetry_Int_Tables_number   1
_chemical_formula_structural   Sr11(MgSi5)2
_chemical_formula_sum   'Sr11 Mg2 Si10'
_cell_volume   648.36066147
_cell_formula_units_Z   1
loop_
 _symmetry_equiv_pos_site_id
 _symmetry_equiv_pos_as_xyz
  1  'x, y, z'
loop_
 _atom_site_type_symbol
 _atom_site_label
 _atom_site_symmetry_multiplicity
 _atom_site_fract_x
 _atom_site_fract_y
 _atom_site_fract_z
 _atom_site_occupancy
  Sr  Sr0  1  0.793647  0.034481  0.378225  1
  Sr  Sr1  1  0.017125  0.769572  0.196177  1
  Sr  Sr2  1  0.643829  0.429676  0.282666  1
  Sr  Sr3  1  0.571360  0.298744  0.558537  1
  Sr  Sr4  1  0.842584  0.210515  0.104316  1
  Sr  Sr5  1  0.206353  0.965519  0.621775  1
  Sr  Sr6  1  0.500000  0.000000  0.000000  1
  Sr  Sr7  1  0.982875  0.230428  0.803823  1
  Sr  Sr8  1  0.157416  0.789485  0.895684  1
  Sr  Sr9  1  0.428640  0.701256  0.441463  1
  Sr  Sr10  1  0.356171  0.570324  0.717334  1
  Mg  Mg11  1  0.780452  0.521833  0.917264  1
  Mg  Mg12  1  0.219548  0.478168  0.082736  1
  Si  Si13  1  0.169114  0.241048  0.420724  1
  Si  Si14  1  0.611378  0.013706  0.763538  1
  Si  Si15  1  0.740108  0.773038  0.746745  1
  Si  Si16  1  0.954447  0.507142  0.583964  1
  Si  Si17  1  0.388622  0.986294  0.236462  1
  Si  Si18  1  0.357411  0.354959  0.930219  1
  Si  Si19  1  0.830886  0.758952  0.579276  1
  Si  Si20  1  0.642589  0.645041  0.069781  1
  Si  Si21  1  0.259892  0.226962  0.253255  1
  Si  Si22  1  0.045553  0.492858  0.416036  1
