# generated using pymatgen
data_Mg10Ge3(H2O9)2
_symmetry_space_group_name_H-M   'P 1'
_cell_length_a   5.23150846
_cell_length_b   8.98686037
_cell_length_c   14.34582717
_cell_angle_alpha   90.00000000
_cell_angle_beta   90.00000000
_cell_angle_gamma   90.00000000
_symmetry_Int_Tables_number   1
_chemical_formula_structural   Mg10Ge3(H2O9)2
_chemical_formula_sum   'Mg20 Ge6 H8 O36'
_cell_volume   674.46671246
_cell_formula_units_Z   2
loop_
 _symmetry_equiv_pos_site_id
 _symmetry_equiv_pos_as_xyz
  1  'x, y, z'
loop_
 _atom_site_type_symbol
 _atom_site_label
 _atom_site_symmetry_multiplicity
 _atom_site_fract_x
 _atom_site_fract_y
 _atom_site_fract_z
 _atom_site_occupancy
  Mg  Mg0  1  0.500000  0.735563  0.000000  1
  Mg  Mg1  1  0.339573  0.911842  0.173877  1
  Mg  Mg2  1  0.839573  0.411842  0.326123  1
  Mg  Mg3  1  0.343898  0.235577  0.322096  1
  Mg  Mg4  1  0.000000  0.586445  0.500000  1
  Mg  Mg5  1  0.160427  0.411842  0.673877  1
  Mg  Mg6  1  0.000000  0.251088  0.000000  1
  Mg  Mg7  1  0.654707  0.588703  0.677529  1
  Mg  Mg8  1  0.156102  0.735577  0.822096  1
  Mg  Mg9  1  0.500000  0.086445  0.000000  1
  Mg  Mg10  1  0.000000  0.571283  0.000000  1
  Mg  Mg11  1  0.154707  0.088703  0.822471  1
  Mg  Mg12  1  0.000000  0.235563  0.500000  1
  Mg  Mg13  1  0.845293  0.088703  0.177529  1
  Mg  Mg14  1  0.660427  0.911842  0.826123  1
  Mg  Mg15  1  0.500000  0.751088  0.500000  1
  Mg  Mg16  1  0.345293  0.588703  0.322471  1
  Mg  Mg17  1  0.500000  0.071283  0.500000  1
  Mg  Mg18  1  0.843898  0.735577  0.177904  1
  Mg  Mg19  1  0.656102  0.235577  0.677904  1
  Ge  Ge20  1  0.500000  0.410982  0.500000  1
  Ge  Ge21  1  0.483988  0.411434  0.876944  1
  Ge  Ge22  1  0.000000  0.910982  0.000000  1
  Ge  Ge23  1  0.016012  0.911434  0.376944  1
  Ge  Ge24  1  0.983988  0.911434  0.623056  1
  Ge  Ge25  1  0.516012  0.411434  0.123056  1
  H  H26  1  0.423771  0.810498  0.690274  1
  H  H27  1  0.921820  0.515760  0.808677  1
  H  H28  1  0.923771  0.310498  0.809726  1
  H  H29  1  0.076229  0.310498  0.190274  1
  H  H30  1  0.578180  0.015760  0.308677  1
  H  H31  1  0.078180  0.515760  0.191323  1
  H  H32  1  0.576229  0.810498  0.309726  1
  H  H33  1  0.421820  0.015760  0.691323  1
  O  O34  1  0.682584  0.911141  0.081758  1
  O  O35  1  0.823904  0.077340  0.584429  1
  O  O36  1  0.688660  0.911423  0.414754  1
  O  O37  1  0.824113  0.745590  0.584149  1
  O  O38  1  0.521243  0.754588  0.253783  1
  O  O39  1  0.978622  0.570783  0.752775  1
  O  O40  1  0.010489  0.912165  0.252468  1
  O  O41  1  0.651346  0.561499  0.423820  1
  O  O42  1  0.478757  0.754588  0.746217  1
  O  O43  1  0.324113  0.245590  0.915851  1
  O  O44  1  0.675887  0.245590  0.084149  1
  O  O45  1  0.151366  0.760978  0.076330  1
  O  O46  1  0.311340  0.911423  0.585246  1
  O  O47  1  0.323904  0.577340  0.915571  1
  O  O48  1  0.478622  0.070783  0.747225  1
  O  O49  1  0.021243  0.254588  0.246217  1
  O  O50  1  0.317416  0.911141  0.918242  1
  O  O51  1  0.651366  0.260978  0.423670  1
  O  O52  1  0.348634  0.260978  0.576330  1
  O  O53  1  0.989511  0.912165  0.747532  1
  O  O54  1  0.489511  0.412165  0.752468  1
  O  O55  1  0.188660  0.411423  0.085246  1
  O  O56  1  0.848654  0.061499  0.923820  1
  O  O57  1  0.817416  0.411141  0.581758  1
  O  O58  1  0.811340  0.411423  0.914754  1
  O  O59  1  0.348654  0.561499  0.576180  1
  O  O60  1  0.175887  0.745590  0.415851  1
  O  O61  1  0.182584  0.411141  0.418242  1
  O  O62  1  0.021378  0.570783  0.247225  1
  O  O63  1  0.151346  0.061499  0.076180  1
  O  O64  1  0.176096  0.077340  0.415571  1
  O  O65  1  0.848634  0.760978  0.923670  1
  O  O66  1  0.978757  0.254588  0.753783  1
  O  O67  1  0.521378  0.070783  0.252775  1
  O  O68  1  0.510489  0.412165  0.247532  1
  O  O69  1  0.676096  0.577340  0.084429  1
