# generated using pymatgen
data_Rb5Th(PS4)3
_symmetry_space_group_name_H-M   'P 1'
_cell_length_a   10.18507846
_cell_length_b   13.57520863
_cell_length_c   18.65016751
_cell_angle_alpha   101.60549719
_cell_angle_beta   90.00000000
_cell_angle_gamma   90.00000000
_symmetry_Int_Tables_number   1
_chemical_formula_structural   Rb5Th(PS4)3
_chemical_formula_sum   'Rb20 Th4 P12 S48'
_cell_volume   2525.93910591
_cell_formula_units_Z   4
loop_
 _symmetry_equiv_pos_site_id
 _symmetry_equiv_pos_as_xyz
  1  'x, y, z'
loop_
 _atom_site_type_symbol
 _atom_site_label
 _atom_site_symmetry_multiplicity
 _atom_site_fract_x
 _atom_site_fract_y
 _atom_site_fract_z
 _atom_site_occupancy
  Rb  Rb0  1  0.663965  0.803892  0.716943  1
  Rb  Rb1  1  0.181804  0.519266  0.129286  1
  Rb  Rb2  1  0.818196  0.480734  0.870714  1
  Rb  Rb3  1  0.384226  0.846234  0.192557  1
  Rb  Rb4  1  0.163965  0.196108  0.783057  1
  Rb  Rb5  1  0.115774  0.846234  0.692557  1
  Rb  Rb6  1  0.144760  0.852239  0.450705  1
  Rb  Rb7  1  0.615774  0.153766  0.807443  1
  Rb  Rb8  1  0.118801  0.514804  0.374498  1
  Rb  Rb9  1  0.884226  0.153766  0.307443  1
  Rb  Rb10  1  0.618801  0.485196  0.125502  1
  Rb  Rb11  1  0.644760  0.147761  0.049295  1
  Rb  Rb12  1  0.881199  0.485196  0.625502  1
  Rb  Rb13  1  0.355240  0.852239  0.950705  1
  Rb  Rb14  1  0.855240  0.147761  0.549295  1
  Rb  Rb15  1  0.336035  0.196108  0.283057  1
  Rb  Rb16  1  0.836035  0.803892  0.216943  1
  Rb  Rb17  1  0.681804  0.480734  0.370714  1
  Rb  Rb18  1  0.318196  0.519266  0.629286  1
  Rb  Rb19  1  0.381199  0.514804  0.874498  1
  Th  Th20  1  0.600411  0.817386  0.463834  1
  Th  Th21  1  0.899589  0.817386  0.963834  1
  Th  Th22  1  0.100411  0.182614  0.036166  1
  Th  Th23  1  0.399589  0.182614  0.536166  1
  P  P24  1  0.088821  0.969978  0.131324  1
  P  P25  1  0.099887  0.646550  0.820575  1
  P  P26  1  0.400113  0.646550  0.320575  1
  P  P27  1  0.635940  0.716573  0.018361  1
  P  P28  1  0.599887  0.353450  0.679425  1
  P  P29  1  0.135940  0.283427  0.481639  1
  P  P30  1  0.911179  0.030022  0.868676  1
  P  P31  1  0.364060  0.283427  0.981639  1
  P  P32  1  0.864060  0.716573  0.518361  1
  P  P33  1  0.900113  0.353450  0.179425  1
  P  P34  1  0.411179  0.969978  0.631324  1
  P  P35  1  0.588821  0.030022  0.368676  1
  S  S36  1  0.305260  0.353316  0.457999  1
  S  S37  1  0.035956  0.661733  0.546922  1
  S  S38  1  0.088683  0.977082  0.239686  1
  S  S39  1  0.694740  0.646684  0.542001  1
  S  S40  1  0.900552  0.338876  0.066196  1
  S  S41  1  0.964044  0.338267  0.453078  1
  S  S42  1  0.668856  0.865805  0.065846  1
  S  S43  1  0.404211  0.821756  0.577198  1
  S  S44  1  0.599448  0.338876  0.566196  1
  S  S45  1  0.414881  0.500091  0.269878  1
  S  S46  1  0.194740  0.353316  0.957999  1
  S  S47  1  0.535956  0.338267  0.953078  1
  S  S48  1  0.464044  0.661733  0.046922  1
  S  S49  1  0.850138  0.711314  0.407156  1
  S  S50  1  0.932510  0.729331  0.806981  1
  S  S51  1  0.251630  0.044584  0.102286  1
  S  S52  1  0.168856  0.134195  0.434154  1
  S  S53  1  0.914881  0.499909  0.230122  1
  S  S54  1  0.350138  0.288686  0.092844  1
  S  S55  1  0.831144  0.865805  0.565846  1
  S  S56  1  0.099448  0.661124  0.933804  1
  S  S57  1  0.248370  0.044584  0.602286  1
  S  S58  1  0.732148  0.293869  0.211366  1
  S  S59  1  0.572105  0.029893  0.586508  1
  S  S60  1  0.649862  0.711314  0.907156  1
  S  S61  1  0.904211  0.178244  0.922802  1
  S  S62  1  0.411317  0.977082  0.739686  1
  S  S63  1  0.067490  0.270669  0.193019  1
  S  S64  1  0.427895  0.970107  0.413492  1
  S  S65  1  0.095789  0.821756  0.077198  1
  S  S66  1  0.911317  0.022918  0.760314  1
  S  S67  1  0.085119  0.500091  0.769878  1
  S  S68  1  0.331144  0.134195  0.934154  1
  S  S69  1  0.927895  0.029893  0.086508  1
  S  S70  1  0.588683  0.022918  0.260314  1
  S  S71  1  0.751630  0.955416  0.397714  1
  S  S72  1  0.595789  0.178244  0.422802  1
  S  S73  1  0.072105  0.970107  0.913492  1
  S  S74  1  0.400552  0.661124  0.433804  1
  S  S75  1  0.748370  0.955416  0.897714  1
  S  S76  1  0.432510  0.270669  0.693019  1
  S  S77  1  0.232148  0.706131  0.288634  1
  S  S78  1  0.767852  0.293869  0.711366  1
  S  S79  1  0.149862  0.288686  0.592844  1
  S  S80  1  0.567490  0.729331  0.306981  1
  S  S81  1  0.805260  0.646684  0.042001  1
  S  S82  1  0.585119  0.499909  0.730122  1
  S  S83  1  0.267852  0.706131  0.788634  1
