# generated using pymatgen
data_Na3Nd14(RuO6)6
_symmetry_space_group_name_H-M   'P 1'
_cell_length_a   19.51995374
_cell_length_b   19.51995372
_cell_length_c   19.51995340
_cell_angle_alpha   29.03823569
_cell_angle_beta   29.03823582
_cell_angle_gamma   29.03823710
_symmetry_Int_Tables_number   1
_chemical_formula_structural   Na3Nd14(RuO6)6
_chemical_formula_sum   'Na6 Nd28 Ru12 O72'
_cell_volume   1550.03198699
_cell_formula_units_Z   2
loop_
 _symmetry_equiv_pos_site_id
 _symmetry_equiv_pos_as_xyz
  1  'x, y, z'
loop_
 _atom_site_type_symbol
 _atom_site_label
 _atom_site_symmetry_multiplicity
 _atom_site_fract_x
 _atom_site_fract_y
 _atom_site_fract_z
 _atom_site_occupancy
  Na  Na0  1  0.446794  0.446794  0.446794  1
  Na  Na1  1  0.250000  0.250000  0.250000  1
  Na  Na2  1  0.553206  0.553206  0.553206  1
  Na  Na3  1  0.946794  0.946794  0.946794  1
  Na  Na4  1  0.750000  0.750000  0.750000  1
  Na  Na5  1  0.053206  0.053206  0.053206  1
  Nd  Nd6  1  0.302395  0.959131  0.680750  1
  Nd  Nd7  1  0.392174  0.392174  0.392174  1
  Nd  Nd8  1  0.802395  0.180750  0.459131  1
  Nd  Nd9  1  0.429434  0.001013  0.719860  1
  Nd  Nd10  1  0.780140  0.498987  0.070566  1
  Nd  Nd11  1  0.570565  0.998987  0.280140  1
  Nd  Nd12  1  0.180750  0.459131  0.802395  1
  Nd  Nd13  1  0.280140  0.570565  0.998987  1
  Nd  Nd14  1  0.929435  0.219860  0.501013  1
  Nd  Nd15  1  0.540869  0.197605  0.819250  1
  Nd  Nd16  1  0.319250  0.697605  0.040869  1
  Nd  Nd17  1  0.501013  0.929435  0.219860  1
  Nd  Nd18  1  0.070566  0.780140  0.498987  1
  Nd  Nd19  1  0.719860  0.429434  0.001013  1
  Nd  Nd20  1  0.040869  0.319250  0.697605  1
  Nd  Nd21  1  0.819250  0.540869  0.197605  1
  Nd  Nd22  1  0.892174  0.892174  0.892174  1
  Nd  Nd23  1  0.680750  0.302395  0.959131  1
  Nd  Nd24  1  0.219860  0.501013  0.929435  1
  Nd  Nd25  1  0.107826  0.107826  0.107826  1
  Nd  Nd26  1  0.498987  0.070566  0.780140  1
  Nd  Nd27  1  0.697605  0.040869  0.319250  1
  Nd  Nd28  1  0.959131  0.680750  0.302395  1
  Nd  Nd29  1  0.459131  0.802395  0.180750  1
  Nd  Nd30  1  0.197605  0.819250  0.540869  1
  Nd  Nd31  1  0.001013  0.719860  0.429434  1
  Nd  Nd32  1  0.998987  0.280140  0.570565  1
  Nd  Nd33  1  0.607826  0.607826  0.607826  1
  Ru  Ru34  1  0.250000  0.917200  0.582800  1
  Ru  Ru35  1  0.082800  0.417200  0.750000  1
  Ru  Ru36  1  0.417200  0.750000  0.082800  1
  Ru  Ru37  1  0.337686  0.337686  0.337686  1
  Ru  Ru38  1  0.000000  0.000000  0.000000  1
  Ru  Ru39  1  0.917200  0.582800  0.250000  1
  Ru  Ru40  1  0.837686  0.837686  0.837686  1
  Ru  Ru41  1  0.500000  0.500000  0.500000  1
  Ru  Ru42  1  0.162314  0.162314  0.162314  1
  Ru  Ru43  1  0.662314  0.662314  0.662314  1
  Ru  Ru44  1  0.750000  0.082800  0.417200  1
  Ru  Ru45  1  0.582800  0.250000  0.917200  1
  O  O46  1  0.532509  0.718645  0.919539  1
  O  O47  1  0.014387  0.054955  0.684647  1
  O  O48  1  0.836300  0.514815  0.571534  1
  O  O49  1  0.184647  0.554955  0.514387  1
  O  O50  1  0.703440  0.201999  0.767034  1
  O  O51  1  0.467491  0.281355  0.080461  1
  O  O52  1  0.201999  0.767034  0.703440  1
  O  O53  1  0.428466  0.163700  0.485185  1
  O  O54  1  0.767034  0.703440  0.201999  1
  O  O55  1  0.479854  0.810400  0.747836  1
  O  O56  1  0.752164  0.689600  0.020146  1
  O  O57  1  0.520146  0.189600  0.252164  1
  O  O58  1  0.311390  0.650314  0.476094  1
  O  O59  1  0.976094  0.150314  0.811390  1
  O  O60  1  0.349686  0.523906  0.688610  1
  O  O61  1  0.781355  0.967491  0.580461  1
  O  O62  1  0.218645  0.032509  0.419539  1
  O  O63  1  0.476094  0.311390  0.650314  1
  O  O64  1  0.798001  0.232966  0.296560  1
  O  O65  1  0.485185  0.428466  0.163700  1
  O  O66  1  0.419539  0.218645  0.032509  1
  O  O67  1  0.701999  0.203440  0.267034  1
  O  O68  1  0.796560  0.732966  0.298001  1
  O  O69  1  0.928466  0.985185  0.663700  1
  O  O70  1  0.523906  0.688610  0.349686  1
  O  O71  1  0.232966  0.296560  0.798001  1
  O  O72  1  0.747836  0.479854  0.810400  1
  O  O73  1  0.054955  0.684647  0.014387  1
  O  O74  1  0.298001  0.796560  0.732966  1
  O  O75  1  0.252164  0.520146  0.189600  1
  O  O76  1  0.267034  0.701999  0.203440  1
  O  O77  1  0.247836  0.310400  0.979854  1
  O  O78  1  0.203440  0.267034  0.701999  1
  O  O79  1  0.688610  0.349686  0.523906  1
  O  O80  1  0.150314  0.811390  0.976094  1
  O  O81  1  0.281355  0.080461  0.467491  1
  O  O82  1  0.849686  0.188610  0.023906  1
  O  O83  1  0.020146  0.752164  0.689600  1
  O  O84  1  0.014815  0.336300  0.071534  1
  O  O85  1  0.663700  0.928466  0.985185  1
  O  O86  1  0.445045  0.485613  0.815353  1
  O  O87  1  0.554955  0.514387  0.184647  1
  O  O88  1  0.032509  0.419539  0.218645  1
  O  O89  1  0.815353  0.445045  0.485613  1
  O  O90  1  0.945045  0.315353  0.985613  1
  O  O91  1  0.189600  0.252164  0.520146  1
  O  O92  1  0.811390  0.976094  0.150314  1
  O  O93  1  0.485613  0.815353  0.445045  1
  O  O94  1  0.979854  0.247836  0.310400  1
  O  O95  1  0.919539  0.532509  0.718645  1
  O  O96  1  0.023906  0.849686  0.188610  1
  O  O97  1  0.315353  0.985613  0.945045  1
  O  O98  1  0.336300  0.071534  0.014815  1
  O  O99  1  0.163700  0.485185  0.428466  1
  O  O100  1  0.071534  0.014815  0.336300  1
  O  O101  1  0.580461  0.781355  0.967491  1
  O  O102  1  0.650314  0.476094  0.311390  1
  O  O103  1  0.732966  0.298001  0.796560  1
  O  O104  1  0.689600  0.020146  0.752164  1
  O  O105  1  0.571534  0.836300  0.514815  1
  O  O106  1  0.188610  0.023906  0.849686  1
  O  O107  1  0.296560  0.798001  0.232966  1
  O  O108  1  0.718645  0.919539  0.532509  1
  O  O109  1  0.080461  0.467491  0.281355  1
  O  O110  1  0.810400  0.747836  0.479854  1
  O  O111  1  0.310400  0.979854  0.247836  1
  O  O112  1  0.985185  0.663700  0.928466  1
  O  O113  1  0.684647  0.014387  0.054955  1
  O  O114  1  0.985613  0.945045  0.315353  1
  O  O115  1  0.514815  0.571534  0.836300  1
  O  O116  1  0.967491  0.580461  0.781355  1
  O  O117  1  0.514387  0.184647  0.554955  1
