# generated using pymatgen
data_V4(P2O7)3
_symmetry_space_group_name_H-M   'P 1'
_cell_length_a   7.63210961
_cell_length_b   9.73038150
_cell_length_c   21.78377049
_cell_angle_alpha   90.00000000
_cell_angle_beta   90.00000000
_cell_angle_gamma   90.00000000
_symmetry_Int_Tables_number   1
_chemical_formula_structural   V4(P2O7)3
_chemical_formula_sum   'V16 P24 O84'
_cell_volume   1617.73551419
_cell_formula_units_Z   4
loop_
 _symmetry_equiv_pos_site_id
 _symmetry_equiv_pos_as_xyz
  1  'x, y, z'
loop_
 _atom_site_type_symbol
 _atom_site_label
 _atom_site_symmetry_multiplicity
 _atom_site_fract_x
 _atom_site_fract_y
 _atom_site_fract_z
 _atom_site_occupancy
  V  V0  1  0.553671  0.760680  0.496201  1
  V  V1  1  0.446329  0.239320  0.503799  1
  V  V2  1  0.553393  0.220727  0.756580  1
  V  V3  1  0.946329  0.760680  0.496201  1
  V  V4  1  0.053393  0.720727  0.743420  1
  V  V5  1  0.053671  0.260680  0.003799  1
  V  V6  1  0.446607  0.779273  0.243420  1
  V  V7  1  0.446329  0.260680  0.003799  1
  V  V8  1  0.553393  0.279273  0.256580  1
  V  V9  1  0.053671  0.239320  0.503799  1
  V  V10  1  0.553671  0.739320  0.996201  1
  V  V11  1  0.053393  0.779273  0.243420  1
  V  V12  1  0.946329  0.739320  0.996201  1
  V  V13  1  0.446607  0.720727  0.743420  1
  V  V14  1  0.946607  0.279273  0.256580  1
  V  V15  1  0.946607  0.220727  0.756580  1
  P  P16  1  0.750000  0.467622  0.547628  1
  P  P17  1  0.250000  0.446555  0.800798  1
  P  P18  1  0.250000  0.532378  0.452372  1
  P  P19  1  0.250000  0.971459  0.438885  1
  P  P20  1  0.750000  0.498534  0.689042  1
  P  P21  1  0.250000  0.501466  0.310958  1
  P  P22  1  0.750000  0.001466  0.189042  1
  P  P23  1  0.750000  0.553445  0.199202  1
  P  P24  1  0.750000  0.946555  0.699202  1
  P  P25  1  0.250000  0.667162  0.109302  1
  P  P26  1  0.250000  0.342657  0.141919  1
  P  P27  1  0.750000  0.167162  0.390698  1
  P  P28  1  0.250000  0.998534  0.810958  1
  P  P29  1  0.750000  0.842657  0.358081  1
  P  P30  1  0.750000  0.332838  0.890698  1
  P  P31  1  0.750000  0.471459  0.061115  1
  P  P32  1  0.250000  0.053445  0.300798  1
  P  P33  1  0.250000  0.157343  0.641919  1
  P  P34  1  0.750000  0.032378  0.047628  1
  P  P35  1  0.750000  0.657343  0.858081  1
  P  P36  1  0.250000  0.528541  0.938885  1
  P  P37  1  0.250000  0.967622  0.952372  1
  P  P38  1  0.750000  0.028541  0.561115  1
  P  P39  1  0.250000  0.832838  0.609302  1
  O  O40  1  0.418285  0.606663  0.947077  1
  O  O41  1  0.918784  0.197051  0.426013  1
  O  O42  1  0.581198  0.922463  0.199320  1
  O  O43  1  0.418802  0.422463  0.300680  1
  O  O44  1  0.581198  0.577537  0.699320  1
  O  O45  1  0.418784  0.697051  0.073987  1
  O  O46  1  0.581216  0.197051  0.426013  1
  O  O47  1  0.750000  0.047828  0.119469  1
  O  O48  1  0.250000  0.266642  0.078091  1
  O  O49  1  0.917362  0.397982  0.527111  1
  O  O50  1  0.750000  0.605475  0.022323  1
  O  O51  1  0.250000  0.589735  0.769220  1
  O  O52  1  0.750000  0.356693  0.721847  1
  O  O53  1  0.417362  0.897982  0.972889  1
  O  O54  1  0.917485  0.690648  0.822875  1
  O  O55  1  0.417362  0.602018  0.472889  1
  O  O56  1  0.081198  0.077537  0.800680  1
  O  O57  1  0.750000  0.452172  0.619469  1
  O  O58  1  0.082638  0.897982  0.972889  1
  O  O59  1  0.419192  0.374306  0.786222  1
  O  O60  1  0.917362  0.102018  0.027111  1
  O  O61  1  0.417485  0.309352  0.177124  1
  O  O62  1  0.080808  0.125694  0.286222  1
  O  O63  1  0.750000  0.410265  0.230780  1
  O  O64  1  0.082638  0.602018  0.472889  1
  O  O65  1  0.250000  0.547828  0.380531  1
  O  O66  1  0.250000  0.750425  0.670886  1
  O  O67  1  0.580808  0.625694  0.213778  1
  O  O68  1  0.581216  0.302949  0.926013  1
  O  O69  1  0.250000  0.029311  0.371374  1
  O  O70  1  0.250000  0.470689  0.871374  1
  O  O71  1  0.419192  0.125694  0.286222  1
  O  O72  1  0.750000  0.006090  0.372617  1
  O  O73  1  0.250000  0.952172  0.880531  1
  O  O74  1  0.750000  0.876957  0.031248  1
  O  O75  1  0.750000  0.529311  0.128626  1
  O  O76  1  0.582515  0.690648  0.822875  1
  O  O77  1  0.918285  0.393337  0.052923  1
  O  O78  1  0.750000  0.623043  0.531248  1
  O  O79  1  0.750000  0.733358  0.921909  1
  O  O80  1  0.750000  0.970689  0.628626  1
  O  O81  1  0.918802  0.577537  0.699320  1
  O  O82  1  0.080808  0.374306  0.786222  1
  O  O83  1  0.081198  0.422463  0.300680  1
  O  O84  1  0.918784  0.302949  0.926013  1
  O  O85  1  0.918285  0.106663  0.552923  1
  O  O86  1  0.582638  0.397982  0.527111  1
  O  O87  1  0.250000  0.993910  0.627383  1
  O  O88  1  0.418802  0.077537  0.800680  1
  O  O89  1  0.418285  0.893337  0.447077  1
  O  O90  1  0.750000  0.249575  0.329114  1
  O  O91  1  0.250000  0.856693  0.778153  1
  O  O92  1  0.580808  0.874306  0.713778  1
  O  O93  1  0.250000  0.506090  0.127383  1
  O  O94  1  0.250000  0.643307  0.278153  1
  O  O95  1  0.250000  0.123043  0.968752  1
  O  O96  1  0.919192  0.874306  0.713778  1
  O  O97  1  0.750000  0.250425  0.829114  1
  O  O98  1  0.582515  0.809352  0.322875  1
  O  O99  1  0.250000  0.105475  0.477677  1
  O  O100  1  0.750000  0.143307  0.221847  1
  O  O101  1  0.081216  0.802949  0.573987  1
  O  O102  1  0.081715  0.893337  0.447077  1
  O  O103  1  0.082515  0.190648  0.677125  1
  O  O104  1  0.082515  0.309352  0.177124  1
  O  O105  1  0.250000  0.749575  0.170886  1
  O  O106  1  0.081715  0.606663  0.947077  1
  O  O107  1  0.582638  0.102018  0.027111  1
  O  O108  1  0.250000  0.910265  0.269220  1
  O  O109  1  0.750000  0.493910  0.872617  1
  O  O110  1  0.581715  0.106663  0.552923  1
  O  O111  1  0.750000  0.089735  0.730780  1
  O  O112  1  0.250000  0.394525  0.977677  1
  O  O113  1  0.919192  0.625694  0.213778  1
  O  O114  1  0.250000  0.233358  0.578091  1
  O  O115  1  0.581715  0.393337  0.052923  1
  O  O116  1  0.917485  0.809352  0.322875  1
  O  O117  1  0.750000  0.894525  0.522323  1
  O  O118  1  0.750000  0.766642  0.421909  1
  O  O119  1  0.417485  0.190648  0.677125  1
  O  O120  1  0.418784  0.802949  0.573987  1
  O  O121  1  0.081216  0.697051  0.073987  1
  O  O122  1  0.250000  0.376957  0.468752  1
  O  O123  1  0.918802  0.922463  0.199320  1
