# generated using pymatgen
data_GdAg(PO3)4
_symmetry_space_group_name_H-M   'P 1'
_cell_length_a   7.34467668
_cell_length_b   9.93249362
_cell_length_c   13.28863582
_cell_angle_alpha   90.00000000
_cell_angle_beta   90.00000000
_cell_angle_gamma   90.39458210
_symmetry_Int_Tables_number   1
_chemical_formula_structural   GdAg(PO3)4
_chemical_formula_sum   'Gd4 Ag4 P16 O48'
_cell_volume   969.39567558
_cell_formula_units_Z   4
loop_
 _symmetry_equiv_pos_site_id
 _symmetry_equiv_pos_as_xyz
  1  'x, y, z'
loop_
 _atom_site_type_symbol
 _atom_site_label
 _atom_site_symmetry_multiplicity
 _atom_site_fract_x
 _atom_site_fract_y
 _atom_site_fract_z
 _atom_site_occupancy
  Gd  Gd0  1  0.988104  0.521706  0.781243  1
  Gd  Gd1  1  0.011896  0.478294  0.218757  1
  Gd  Gd2  1  0.511896  0.978294  0.281243  1
  Gd  Gd3  1  0.488104  0.021706  0.718757  1
  Ag  Ag4  1  0.499589  0.564964  0.222317  1
  Ag  Ag5  1  1.000411  0.935036  0.722317  1
  Ag  Ag6  1  -0.000411  0.064964  0.277683  1
  Ag  Ag7  1  0.500411  0.435036  0.777683  1
  P  P8  1  0.263377  0.704476  0.408838  1
  P  P9  1  0.763377  0.204476  0.091162  1
  P  P10  1  0.647671  0.303297  0.373742  1
  P  P11  1  0.352329  0.696703  0.626258  1
  P  P12  1  0.245756  0.251901  0.898991  1
  P  P13  1  0.736623  0.295524  0.591162  1
  P  P14  1  0.147671  0.803297  0.126258  1
  P  P15  1  0.254244  0.248099  0.398991  1
  P  P16  1  0.873887  0.762311  0.386046  1
  P  P17  1  0.754244  0.748099  0.101009  1
  P  P18  1  0.626113  0.737689  0.886046  1
  P  P19  1  0.126113  0.237689  0.613954  1
  P  P20  1  0.852329  0.196703  0.873742  1
  P  P21  1  0.236623  0.795524  0.908838  1
  P  P22  1  0.745756  0.751901  0.601009  1
  P  P23  1  0.373887  0.262311  0.113954  1
  O  O24  1  0.827410  0.346263  0.867328  1
  O  O25  1  0.672590  0.153737  0.367328  1
  O  O26  1  0.220104  0.860752  0.020055  1
  O  O27  1  0.291955  0.099415  0.391750  1
  O  O28  1  0.631054  0.850622  0.811599  1
  O  O29  1  0.397693  0.196923  0.834481  1
  O  O30  1  0.918879  0.299710  0.110866  1
  O  O31  1  0.791955  0.599415  0.108250  1
  O  O32  1  0.172590  0.653737  0.132672  1
  O  O33  1  0.418879  0.799710  0.389134  1
  O  O34  1  0.933180  0.837975  0.122283  1
  O  O35  1  0.266073  0.912157  0.838239  1
  O  O36  1  0.720104  0.360752  0.479945  1
  O  O37  1  0.233927  0.587843  0.338239  1
  O  O38  1  0.792246  0.894792  0.355790  1
  O  O39  1  0.081121  0.700290  0.889134  1
  O  O40  1  0.433180  0.337975  0.377717  1
  O  O41  1  0.708045  0.900585  0.608250  1
  O  O42  1  0.080869  0.793726  0.419948  1
  O  O43  1  0.707754  0.605208  0.855790  1
  O  O44  1  0.102307  0.303077  0.334481  1
  O  O45  1  0.368946  0.149378  0.188401  1
  O  O46  1  0.919131  0.206274  0.580052  1
  O  O47  1  0.066820  0.162025  0.877717  1
  O  O48  1  0.274924  0.607344  0.707236  1
  O  O49  1  0.208045  0.400585  0.891750  1
  O  O50  1  0.282440  0.205626  0.013103  1
  O  O51  1  0.279896  0.639248  0.520055  1
  O  O52  1  0.868946  0.649378  0.311599  1
  O  O53  1  0.581121  0.200290  0.610866  1
  O  O54  1  0.779896  0.139248  0.979945  1
  O  O55  1  0.207754  0.105208  0.644210  1
  O  O56  1  0.327410  0.846263  0.632672  1
  O  O57  1  0.292246  0.394792  0.144210  1
  O  O58  1  0.419131  0.706274  0.919948  1
  O  O59  1  0.897693  0.696923  0.665519  1
  O  O60  1  0.131054  0.350622  0.688401  1
  O  O61  1  0.566820  0.662025  0.622283  1
  O  O62  1  0.733927  0.087843  0.161761  1
  O  O63  1  0.725076  0.392656  0.292764  1
  O  O64  1  0.217560  0.294374  0.513103  1
  O  O65  1  0.225076  0.892656  0.207236  1
  O  O66  1  0.782440  0.705626  0.486897  1
  O  O67  1  0.717560  0.794374  0.986897  1
  O  O68  1  0.580869  0.293726  0.080052  1
  O  O69  1  0.602307  0.803077  0.165519  1
  O  O70  1  0.774924  0.107344  0.792764  1
  O  O71  1  0.766073  0.412157  0.661761  1
