# generated using pymatgen
data_KC2N3
_symmetry_space_group_name_H-M   'P 1'
_cell_length_a   3.87420893
_cell_length_b   12.13670431
_cell_length_c   24.68448581
_cell_angle_alpha   90.00000000
_cell_angle_beta   92.11163031
_cell_angle_gamma   90.00000000
_symmetry_Int_Tables_number   1
_chemical_formula_structural   KC2N3
_chemical_formula_sum   'K12 C24 N36'
_cell_volume   1159.87951880
_cell_formula_units_Z   12
loop_
 _symmetry_equiv_pos_site_id
 _symmetry_equiv_pos_as_xyz
  1  'x, y, z'
loop_
 _atom_site_type_symbol
 _atom_site_label
 _atom_site_symmetry_multiplicity
 _atom_site_fract_x
 _atom_site_fract_y
 _atom_site_fract_z
 _atom_site_occupancy
  K  K0  1  0.434031  0.849375  0.012520  1
  K  K1  1  0.855312  0.502912  0.741227  1
  K  K2  1  0.965699  0.087155  0.600747  1
  K  K3  1  0.034301  0.912845  0.399253  1
  K  K4  1  0.355312  0.997088  0.241227  1
  K  K5  1  0.465699  0.412845  0.100747  1
  K  K6  1  0.934031  0.650625  0.512520  1
  K  K7  1  0.065969  0.349375  0.487480  1
  K  K8  1  0.565969  0.150625  0.987480  1
  K  K9  1  0.644688  0.002912  0.758773  1
  K  K10  1  0.534301  0.587155  0.899253  1
  K  K11  1  0.144688  0.497088  0.258773  1
  C  C12  1  0.010069  0.008001  0.096702  1
  C  C13  1  0.918497  0.252095  0.207686  1
  C  C14  1  0.614253  0.176450  0.380649  1
  C  C15  1  0.989931  0.991999  0.903298  1
  C  C16  1  0.629712  0.356056  0.351866  1
  C  C17  1  0.504532  0.870655  0.531635  1
  C  C18  1  0.495468  0.129345  0.468365  1
  C  C19  1  0.256317  0.284357  0.793826  1
  C  C20  1  0.489931  0.508001  0.403298  1
  C  C21  1  0.743683  0.715643  0.206174  1
  C  C22  1  0.756317  0.215643  0.293826  1
  C  C23  1  0.114253  0.323550  0.880649  1
  C  C24  1  0.004532  0.629345  0.031635  1
  C  C25  1  0.385747  0.823550  0.619351  1
  C  C26  1  0.081503  0.747905  0.792314  1
  C  C27  1  0.370288  0.643944  0.648134  1
  C  C28  1  0.581503  0.752095  0.292314  1
  C  C29  1  0.870288  0.856056  0.148134  1
  C  C30  1  0.885747  0.676450  0.119351  1
  C  C31  1  0.510069  0.491999  0.596702  1
  C  C32  1  0.418497  0.247905  0.707686  1
  C  C33  1  0.243683  0.784357  0.706174  1
  C  C34  1  0.995468  0.370655  0.968365  1
  C  C35  1  0.129712  0.143944  0.851866  1
  N  N36  1  0.085570  0.033248  0.857952  1
  N  N37  1  0.934132  0.350591  0.014221  1
  N  N38  1  0.565868  0.850591  0.485779  1
  N  N39  1  0.914430  0.966752  0.142048  1
  N  N40  1  0.801823  0.637223  0.168461  1
  N  N41  1  0.434132  0.149409  0.514221  1
  N  N42  1  0.065868  0.649409  0.985779  1
  N  N43  1  0.720200  0.325360  0.301699  1
  N  N44  1  0.013350  0.685932  0.827531  1
  N  N45  1  0.986650  0.314068  0.172469  1
  N  N46  1  0.486650  0.185932  0.672469  1
  N  N47  1  0.855059  0.178371  0.244390  1
  N  N48  1  0.220200  0.174640  0.801699  1
  N  N49  1  0.513350  0.814068  0.327531  1
  N  N50  1  0.417971  0.714986  0.606515  1
  N  N51  1  0.438390  0.901798  0.580429  1
  N  N52  1  0.061610  0.401798  0.919571  1
  N  N53  1  0.938390  0.598202  0.080429  1
  N  N54  1  0.561610  0.098202  0.419571  1
  N  N55  1  0.279800  0.674640  0.698301  1
  N  N56  1  0.779800  0.825360  0.198301  1
  N  N57  1  0.144941  0.821629  0.755610  1
  N  N58  1  0.698177  0.137223  0.331539  1
  N  N59  1  0.082029  0.214986  0.893485  1
  N  N60  1  0.099162  0.054470  0.057198  1
  N  N61  1  0.644941  0.678371  0.255610  1
  N  N62  1  0.917971  0.785014  0.106515  1
  N  N63  1  0.301823  0.862777  0.668461  1
  N  N64  1  0.585570  0.466752  0.357952  1
  N  N65  1  0.599162  0.445530  0.557198  1
  N  N66  1  0.355059  0.321629  0.744390  1
  N  N67  1  0.900838  0.945530  0.942802  1
  N  N68  1  0.582029  0.285014  0.393485  1
  N  N69  1  0.414430  0.533248  0.642048  1
  N  N70  1  0.400838  0.554470  0.442802  1
  N  N71  1  0.198177  0.362777  0.831539  1
