# generated using pymatgen
data_Ce3Si6N11
_symmetry_space_group_name_H-M   'P 1'
_cell_length_a   4.88540302
_cell_length_b   10.15738424
_cell_length_c   10.15738424
_cell_angle_alpha   90.00000000
_cell_angle_beta   90.00000000
_cell_angle_gamma   90.00000000
_symmetry_Int_Tables_number   1
_chemical_formula_structural   Ce3Si6N11
_chemical_formula_sum   'Ce6 Si12 N22'
_cell_volume   504.03902128
_cell_formula_units_Z   2
loop_
 _symmetry_equiv_pos_site_id
 _symmetry_equiv_pos_as_xyz
  1  'x, y, z'
loop_
 _atom_site_type_symbol
 _atom_site_label
 _atom_site_symmetry_multiplicity
 _atom_site_fract_x
 _atom_site_fract_y
 _atom_site_fract_z
 _atom_site_occupancy
  Ce  Ce0  1  0.644026  0.318868  0.181132  1
  Ce  Ce1  1  0.644026  0.818868  0.318868  1
  Ce  Ce2  1  0.644026  0.181132  0.681132  1
  Ce  Ce3  1  0.644026  0.681132  0.818868  1
  Ce  Ce4  1  0.654206  0.000000  0.000000  1
  Ce  Ce5  1  0.654206  0.500000  0.500000  1
  Si  Si6  1  0.114806  0.078816  0.209032  1
  Si  Si7  1  0.114806  0.790968  0.078816  1
  Si  Si8  1  0.114806  0.209032  0.921184  1
  Si  Si9  1  0.114806  0.921184  0.790968  1
  Si  Si10  1  0.114806  0.421184  0.709032  1
  Si  Si11  1  0.114806  0.578816  0.290968  1
  Si  Si12  1  0.114806  0.290968  0.421184  1
  Si  Si13  1  0.114806  0.709032  0.578816  1
  N  N14  1  0.468169  0.075332  0.229683  1
  N  N15  1  0.468169  0.770317  0.075332  1
  N  N16  1  0.468169  0.229683  0.924668  1
  N  N17  1  0.468169  0.924668  0.770317  1
  N  N18  1  0.468169  0.424668  0.729683  1
  N  N19  1  0.468169  0.575332  0.270317  1
  N  N20  1  0.468169  0.270317  0.424668  1
  N  N21  1  0.468169  0.729683  0.575332  1
  Si  Si22  1  0.604123  0.617235  0.117235  1
  Si  Si23  1  0.604123  0.882765  0.617235  1
  Si  Si24  1  0.604123  0.117235  0.382765  1
  Si  Si25  1  0.604123  0.382765  0.882765  1
  N  N26  1  0.950898  0.653370  0.153370  1
  N  N27  1  0.950898  0.846630  0.653370  1
  N  N28  1  0.950898  0.153370  0.346630  1
  N  N29  1  0.950898  0.346630  0.846630  1
  N  N30  1  0.001895  0.920286  0.178999  1
  N  N31  1  0.001895  0.821001  0.920286  1
  N  N32  1  0.001895  0.178999  0.079714  1
  N  N33  1  0.001895  0.079714  0.821001  1
  N  N34  1  0.001895  0.579714  0.678999  1
  N  N35  1  0.001895  0.420286  0.321001  1
  N  N36  1  0.001895  0.321001  0.579714  1
  N  N37  1  0.001895  0.678999  0.420286  1
  N  N38  1  0.575989  0.500000  0.000000  1
  N  N39  1  0.575989  0.000000  0.500000  1
