# generated using pymatgen
data_Ca3SiO5
_symmetry_space_group_name_H-M   'P 1'
_cell_length_a   7.16192914
_cell_length_b   7.16192859
_cell_length_c   9.59481333
_cell_angle_alpha   89.93178838
_cell_angle_beta   112.00076955
_cell_angle_gamma   119.98142072
_symmetry_Int_Tables_number   1
_chemical_formula_structural   Ca3SiO5
_chemical_formula_sum   'Ca9 Si3 O15'
_cell_volume   384.50208477
_cell_formula_units_Z   3
loop_
 _symmetry_equiv_pos_site_id
 _symmetry_equiv_pos_as_xyz
  1  'x, y, z'
loop_
 _atom_site_type_symbol
 _atom_site_label
 _atom_site_symmetry_multiplicity
 _atom_site_fract_x
 _atom_site_fract_y
 _atom_site_fract_z
 _atom_site_occupancy
  Ca  Ca0  1  0.513367  0.496420  0.009787  1
  Ca  Ca1  1  0.436567  0.717903  0.676471  1
  Ca  Ca2  1  0.030001  0.740764  0.318869  1
  Ca  Ca3  1  0.578105  0.288868  0.318869  1
  Ca  Ca4  1  0.031820  0.288971  0.320791  1
  Ca  Ca5  1  0.958568  0.239904  0.676471  1
  Ca  Ca6  1  0.515098  0.014776  0.011972  1
  Ca  Ca7  1  0.960317  0.718151  0.678468  1
  Ca  Ca8  1  0.997196  0.496873  0.011972  1
  Si  Si9  1  0.562382  0.779138  0.341520  1
  Si  Si10  1  0.430310  0.214684  0.644994  1
  Si  Si11  1  1.000272  0.999589  0.999861  1
  O  O12  1  0.301107  0.149969  0.451077  1
  O  O13  1  0.917896  0.145252  0.063148  1
  O  O14  1  0.259741  0.629317  0.889058  1
  O  O15  1  0.350476  0.987126  0.712584  1
  O  O16  1  0.002738  0.501632  0.504370  1
  O  O17  1  0.766091  0.381854  0.147946  1
  O  O18  1  0.290928  0.143505  0.058776  1
  O  O19  1  0.270787  0.635049  0.280749  1
  O  O20  1  0.871943  0.939540  0.811483  1
  O  O21  1  0.645700  0.009962  0.280749  1
  O  O22  1  0.642077  0.633126  0.275203  1
  O  O23  1  0.725458  0.362108  0.712584  1
  O  O24  1  0.349612  0.362156  0.711767  1
  O  O25  1  0.691270  0.839014  0.530284  1
  O  O26  1  0.915271  0.767848  0.058776  1
