# generated using pymatgen
data_Na3In2Ag
_symmetry_space_group_name_H-M   'P 1'
_cell_length_a   9.77847556
_cell_length_b   9.77847567
_cell_length_c   9.77847488
_cell_angle_alpha   60.00000267
_cell_angle_beta   60.00000230
_cell_angle_gamma   59.99999993
_symmetry_Int_Tables_number   1
_chemical_formula_structural   Na3In2Ag
_chemical_formula_sum   'Na12 In8 Ag4'
_cell_volume   661.14764704
_cell_formula_units_Z   4
loop_
 _symmetry_equiv_pos_site_id
 _symmetry_equiv_pos_as_xyz
  1  'x, y, z'
loop_
 _atom_site_type_symbol
 _atom_site_label
 _atom_site_symmetry_multiplicity
 _atom_site_fract_x
 _atom_site_fract_y
 _atom_site_fract_z
 _atom_site_occupancy
  Ag  Ag0  1  0.000000  0.000000  0.000000  1
  Ag  Ag1  1  0.000000  0.000000  0.500000  1
  Ag  Ag2  1  0.500000  0.000000  0.000000  1
  Ag  Ag3  1  0.000000  0.500000  0.000000  1
  In  In4  1  0.207688  0.207688  0.207688  1
  In  In5  1  0.792312  0.792312  0.123065  1
  In  In6  1  0.123065  0.792312  0.792312  1
  In  In7  1  0.792312  0.123065  0.792312  1
  In  In8  1  0.876935  0.207688  0.207688  1
  In  In9  1  0.207688  0.876935  0.207688  1
  In  In10  1  0.207688  0.207688  0.876935  1
  In  In11  1  0.792312  0.792312  0.792312  1
  Na  Na12  1  0.828062  0.421938  0.421938  1
  Na  Na13  1  0.578062  0.578062  0.171938  1
  Na  Na14  1  0.171938  0.171938  0.578062  1
  Na  Na15  1  0.578062  0.171938  0.171938  1
  Na  Na16  1  0.578062  0.171938  0.578062  1
  Na  Na17  1  0.171938  0.578062  0.171938  1
  Na  Na18  1  0.421938  0.828062  0.421938  1
  Na  Na19  1  0.421938  0.421938  0.828062  1
  Na  Na20  1  0.828062  0.828062  0.421938  1
  Na  Na21  1  0.828062  0.421938  0.828062  1
  Na  Na22  1  0.171938  0.578062  0.578062  1
  Na  Na23  1  0.421938  0.828062  0.828062  1
