# generated using pymatgen
data_Na2CrCoF7
_symmetry_space_group_name_H-M   'P 1'
_cell_length_a   7.38988505
_cell_length_b   7.38988521
_cell_length_c   24.82087761
_cell_angle_alpha   81.57453978
_cell_angle_beta   81.57453960
_cell_angle_gamma   60.52247060
_symmetry_Int_Tables_number   1
_chemical_formula_structural   Na2CrCoF7
_chemical_formula_sum   'Na16 Cr8 Co8 F56'
_cell_volume   1162.90722622
_cell_formula_units_Z   8
loop_
 _symmetry_equiv_pos_site_id
 _symmetry_equiv_pos_as_xyz
  1  'x, y, z'
loop_
 _atom_site_type_symbol
 _atom_site_label
 _atom_site_symmetry_multiplicity
 _atom_site_fract_x
 _atom_site_fract_y
 _atom_site_fract_z
 _atom_site_occupancy
  Na  Na0  1  0.296090  0.208846  0.748869  1
  Na  Na1  1  0.791154  0.703910  0.751131  1
  Na  Na2  1  0.881000  0.866772  0.877961  1
  Na  Na3  1  0.500000  0.500000  0.000000  1
  Na  Na4  1  0.216248  0.783752  0.250000  1
  Na  Na5  1  0.119000  0.133228  0.122039  1
  Na  Na6  1  0.133228  0.119000  0.622039  1
  Na  Na7  1  0.000000  0.500000  0.000000  1
  Na  Na8  1  0.866772  0.881000  0.377961  1
  Na  Na9  1  0.783752  0.216248  0.750000  1
  Na  Na10  1  0.000000  0.000000  0.500000  1
  Na  Na11  1  0.000000  0.000000  0.000000  1
  Na  Na12  1  0.208846  0.296090  0.248869  1
  Na  Na13  1  0.500000  0.500000  0.500000  1
  Na  Na14  1  0.703910  0.791154  0.251131  1
  Na  Na15  1  0.500000  0.000000  0.500000  1
  Cr  Cr16  1  0.889361  0.363570  0.874446  1
  Cr  Cr17  1  0.636430  0.110639  0.625554  1
  Cr  Cr18  1  0.249723  0.750277  0.750000  1
  Cr  Cr19  1  0.363570  0.889361  0.374446  1
  Cr  Cr20  1  0.500000  0.000000  0.000000  1
  Cr  Cr21  1  0.110639  0.636430  0.125554  1
  Cr  Cr22  1  0.000000  0.500000  0.500000  1
  Cr  Cr23  1  0.750277  0.249723  0.250000  1
  Co  Co24  1  0.368346  0.386996  0.372424  1
  Co  Co25  1  0.613004  0.631654  0.127576  1
  Co  Co26  1  0.386996  0.368346  0.872424  1
  Co  Co27  1  0.134711  0.612096  0.625975  1
  Co  Co28  1  0.387904  0.865289  0.874025  1
  Co  Co29  1  0.865289  0.387904  0.374025  1
  Co  Co30  1  0.612096  0.134711  0.125975  1
  Co  Co31  1  0.631654  0.613004  0.627576  1
  F  F32  1  0.976533  0.859984  0.790334  1
  F  F33  1  0.461155  0.076334  0.389887  1
  F  F34  1  0.909535  0.533773  0.653821  1
  F  F35  1  0.418810  0.863992  0.954409  1
  F  F36  1  0.869835  0.792182  0.468237  1
  F  F37  1  0.639043  0.031192  0.704662  1
  F  F38  1  0.185355  0.636467  0.046098  1
  F  F39  1  0.660534  0.700273  0.359015  1
  F  F40  1  0.533773  0.909535  0.153821  1
  F  F41  1  0.581190  0.136008  0.045591  1
  F  F42  1  0.136008  0.581190  0.545591  1
  F  F43  1  0.090465  0.466227  0.346179  1
  F  F44  1  0.859984  0.976533  0.290334  1
  F  F45  1  0.636467  0.185355  0.546098  1
  F  F46  1  0.357395  0.693490  0.599246  1
  F  F47  1  0.140016  0.023467  0.709666  1
  F  F48  1  0.472597  0.364462  0.290605  1
  F  F49  1  0.527403  0.635538  0.709395  1
  F  F50  1  0.636396  0.137951  0.206391  1
  F  F51  1  0.075799  0.066693  0.890388  1
  F  F52  1  0.923666  0.538845  0.110113  1
  F  F53  1  0.642605  0.306510  0.400754  1
  F  F54  1  0.023467  0.140016  0.209666  1
  F  F55  1  0.582803  0.741141  0.046623  1
  F  F56  1  0.863992  0.418810  0.454409  1
  F  F57  1  0.700273  0.660534  0.859015  1
  F  F58  1  0.306510  0.642605  0.900754  1
  F  F59  1  0.862049  0.363604  0.293609  1
  F  F60  1  0.693490  0.357395  0.099246  1
  F  F61  1  0.300203  0.730187  0.141673  1
  F  F62  1  0.364462  0.472597  0.790605  1
  F  F63  1  0.730187  0.300203  0.641673  1
  F  F64  1  0.924201  0.933307  0.109612  1
  F  F65  1  0.130165  0.207818  0.531763  1
  F  F66  1  0.699797  0.269813  0.858327  1
  F  F67  1  0.031192  0.639043  0.204662  1
  F  F68  1  0.933307  0.924201  0.609612  1
  F  F69  1  0.339466  0.299727  0.640985  1
  F  F70  1  0.269813  0.699797  0.358327  1
  F  F71  1  0.538845  0.923666  0.610113  1
  F  F72  1  0.258859  0.417197  0.453377  1
  F  F73  1  0.363604  0.862049  0.793609  1
  F  F74  1  0.466227  0.090465  0.846179  1
  F  F75  1  0.360957  0.968808  0.295338  1
  F  F76  1  0.635538  0.527403  0.209395  1
  F  F77  1  0.137951  0.636396  0.706391  1
  F  F78  1  0.417197  0.258859  0.953377  1
  F  F79  1  0.363533  0.814645  0.453902  1
  F  F80  1  0.076334  0.461155  0.889887  1
  F  F81  1  0.207818  0.130165  0.031763  1
  F  F82  1  0.066693  0.075799  0.390388  1
  F  F83  1  0.968808  0.360957  0.795338  1
  F  F84  1  0.741141  0.582803  0.546623  1
  F  F85  1  0.299727  0.339466  0.140985  1
  F  F86  1  0.814645  0.363533  0.953902  1
  F  F87  1  0.792182  0.869835  0.968237  1
