# generated using pymatgen
data_BaV13O18
_symmetry_space_group_name_H-M   'P 1'
_cell_length_a   8.01713615
_cell_length_b   8.01713580
_cell_length_c   8.01713587
_cell_angle_alpha   110.73457688
_cell_angle_beta   110.73457573
_cell_angle_gamma   110.73458396
_symmetry_Int_Tables_number   1
_chemical_formula_structural   BaV13O18
_chemical_formula_sum   'Ba1 V13 O18'
_cell_volume   376.98315054
_cell_formula_units_Z   1
loop_
 _symmetry_equiv_pos_site_id
 _symmetry_equiv_pos_as_xyz
  1  'x, y, z'
loop_
 _atom_site_type_symbol
 _atom_site_label
 _atom_site_symmetry_multiplicity
 _atom_site_fract_x
 _atom_site_fract_y
 _atom_site_fract_z
 _atom_site_occupancy
  O  O0  1  0.051994  0.597065  0.382981  1
  O  O1  1  0.597066  0.382981  0.051993  1
  O  O2  1  0.382981  0.051993  0.597065  1
  O  O3  1  0.948007  0.402935  0.617019  1
  O  O4  1  0.402935  0.617019  0.948006  1
  O  O5  1  0.617020  0.948007  0.402936  1
  O  O6  1  0.174039  0.738105  0.121923  1
  O  O7  1  0.738106  0.121923  0.174038  1
  O  O8  1  0.121924  0.174039  0.738105  1
  O  O9  1  0.825960  0.261894  0.878076  1
  O  O10  1  0.261894  0.878077  0.825961  1
  O  O11  1  0.878077  0.825961  0.261894  1
  O  O12  1  0.772526  0.667570  0.495346  1
  O  O13  1  0.667571  0.495346  0.772526  1
  O  O14  1  0.504654  0.227474  0.332430  1
  O  O15  1  0.332430  0.504654  0.227474  1
  O  O16  1  0.495346  0.772526  0.667570  1
  O  O17  1  0.227475  0.332430  0.504654  1
  V  V18  1  0.342577  0.767175  0.399138  1
  V  V19  1  0.767174  0.399139  0.342577  1
  V  V20  1  0.399138  0.342577  0.767175  1
  V  V21  1  0.657424  0.232825  0.600862  1
  V  V22  1  0.232825  0.600861  0.657424  1
  V  V23  1  0.600861  0.657423  0.232825  1
  V  V24  1  0.120569  0.436674  0.927408  1
  V  V25  1  0.500001  0.500000  0.500000  1
  V  V26  1  0.927409  0.120570  0.436675  1
  V  V27  1  0.879430  0.563326  0.072592  1
  V  V28  1  0.563324  0.072592  0.879431  1
  V  V29  1  0.072592  0.879430  0.563325  1
  V  V30  1  0.436675  0.927409  0.120570  1
  Ba  Ba31  1  0.000000  0.000000  0.000000  1
