# generated using pymatgen
data_Ca14AlSb11
_symmetry_space_group_name_H-M   'P 1'
_cell_length_a   16.32875131
_cell_length_b   16.32875116
_cell_length_c   16.32875109
_cell_angle_alpha   92.90874214
_cell_angle_beta   118.33509046
_cell_angle_gamma   118.33508988
_symmetry_Int_Tables_number   1
_chemical_formula_structural   Ca14AlSb11
_chemical_formula_sum   'Ca56 Al4 Sb44'
_cell_volume   3151.61194686
_cell_formula_units_Z   4
loop_
 _symmetry_equiv_pos_site_id
 _symmetry_equiv_pos_as_xyz
  1  'x, y, z'
loop_
 _atom_site_type_symbol
 _atom_site_label
 _atom_site_symmetry_multiplicity
 _atom_site_fract_x
 _atom_site_fract_y
 _atom_site_fract_z
 _atom_site_occupancy
  Ca  Ca0  1  0.600098  0.616418  0.970942  1
  Ca  Ca1  1  0.100098  0.129156  0.983680  1
  Ca  Ca2  1  0.910819  0.477064  0.249722  1
  Ca  Ca3  1  0.854524  0.983680  0.383582  1
  Ca  Ca4  1  0.899902  0.529058  0.883582  1
  Ca  Ca5  1  0.354536  0.250000  0.604536  1
  Ca  Ca6  1  0.399902  0.383582  0.029058  1
  Ca  Ca7  1  0.382903  0.597367  0.127181  1
  Ca  Ca8  1  0.617097  0.402633  0.872819  1
  Ca  Ca9  1  0.227342  0.750278  0.161096  1
  Ca  Ca10  1  0.970187  0.214464  0.597367  1
  Ca  Ca11  1  0.727342  0.566246  0.477064  1
  Ca  Ca12  1  0.272658  0.338904  0.749722  1
  Ca  Ca13  1  0.589181  0.250278  0.022936  1
  Ca  Ca14  1  0.854524  0.370844  0.470942  1
  Ca  Ca15  1  0.145476  0.629156  0.529058  1
  Ca  Ca16  1  0.145464  0.895464  0.250000  1
  Ca  Ca17  1  0.089181  0.522936  0.750278  1
  Ca  Ca18  1  0.882903  0.755723  0.785536  1
  Ca  Ca19  1  0.354536  0.604536  0.750000  1
  Ca  Ca20  1  0.854536  0.250000  0.104536  1
  Ca  Ca21  1  0.145464  0.750000  0.895464  1
  Ca  Ca22  1  0.100098  0.470942  0.116418  1
  Ca  Ca23  1  0.600098  0.483680  0.629156  1
  Ca  Ca24  1  0.117097  0.372819  0.902633  1
  Ca  Ca25  1  0.089181  0.066246  0.338904  1
  Ca  Ca26  1  0.470187  0.872819  0.755723  1
  Ca  Ca27  1  0.410819  0.161096  0.433754  1
  Ca  Ca28  1  0.529813  0.902633  0.285536  1
  Ca  Ca29  1  0.382903  0.285536  0.255723  1
  Ca  Ca30  1  0.272658  0.433754  0.522936  1
  Ca  Ca31  1  0.529813  0.127181  0.244277  1
  Ca  Ca32  1  0.029813  0.744277  0.627181  1
  Ca  Ca33  1  0.029813  0.785536  0.402633  1
  Ca  Ca34  1  0.645464  0.395464  0.250000  1
  Ca  Ca35  1  0.354524  0.883582  0.483680  1
  Ca  Ca36  1  0.645476  0.116418  0.516320  1
  Ca  Ca37  1  0.227342  0.977064  0.066246  1
  Ca  Ca38  1  0.772658  0.022936  0.933754  1
  Ca  Ca39  1  0.589181  0.838904  0.566246  1
  Ca  Ca40  1  0.354524  0.970942  0.870844  1
  Ca  Ca41  1  0.117097  0.244277  0.214464  1
  Ca  Ca42  1  0.645476  0.029058  0.129156  1
  Ca  Ca43  1  0.145476  0.016320  0.616418  1
  Ca  Ca44  1  0.882903  0.627181  0.097367  1
  Ca  Ca45  1  0.645464  0.750000  0.395464  1
  Ca  Ca46  1  0.410819  0.749722  0.977064  1
  Ca  Ca47  1  0.617097  0.714464  0.744277  1
  Ca  Ca48  1  0.970187  0.255723  0.372819  1
  Ca  Ca49  1  0.854536  0.104536  0.750000  1
  Ca  Ca50  1  0.399902  0.516320  0.370844  1
  Ca  Ca51  1  0.727342  0.661096  0.250278  1
  Ca  Ca52  1  0.772658  0.249722  0.838904  1
  Ca  Ca53  1  0.470187  0.097367  0.714464  1
  Ca  Ca54  1  0.910819  0.933754  0.661096  1
  Ca  Ca55  1  0.899902  0.870844  0.016320  1
  Al  Al56  1  0.250000  0.625000  0.375000  1
  Al  Al57  1  0.750000  0.875000  0.125000  1
  Al  Al58  1  0.250000  0.125000  0.875000  1
  Al  Al59  1  0.750000  0.375000  0.625000  1
  Sb  Sb60  1  0.116609  0.921614  0.812707  1
  Sb  Sb61  1  0.894534  0.572349  0.417022  1
  Sb  Sb62  1  0.520742  0.510371  0.260371  1
  Sb  Sb63  1  0.750000  0.989629  0.510371  1
  Sb  Sb64  1  0.844673  0.417022  0.022488  1
  Sb  Sb65  1  0.391092  0.696097  0.312707  1
  Sb  Sb66  1  0.883391  0.078386  0.187293  1
  Sb  Sb67  1  0.383391  0.687293  0.578386  1
  Sb  Sb68  1  0.891092  0.812707  0.196097  1
  Sb  Sb69  1  0.616609  0.312707  0.421614  1
  Sb  Sb70  1  0.891092  0.578386  0.694995  1
  Sb  Sb71  1  0.105466  0.427651  0.582978  1
  Sb  Sb72  1  0.394534  0.917022  0.072349  1
  Sb  Sb73  1  0.655327  0.677815  0.572349  1
  Sb  Sb74  1  0.108908  0.187293  0.803903  1
  Sb  Sb75  1  0.155327  0.072349  0.177815  1
  Sb  Sb76  1  0.250000  0.875000  0.625000  1
  Sb  Sb77  1  0.394534  0.977512  0.322185  1
  Sb  Sb78  1  0.020742  0.760371  0.010371  1
  Sb  Sb79  1  0.894534  0.822185  0.477512  1
  Sb  Sb80  1  0.605466  0.082978  0.927651  1
  Sb  Sb81  1  0.844673  0.927651  0.822185  1
  Sb  Sb82  1  0.750000  0.625000  0.875000  1
  Sb  Sb83  1  0.979258  0.239629  0.989629  1
  Sb  Sb84  1  0.105466  0.177815  0.522488  1
  Sb  Sb85  1  0.391092  0.194995  0.078386  1
  Sb  Sb86  1  0.108908  0.421614  0.305005  1
  Sb  Sb87  1  0.344673  0.522488  0.917022  1
  Sb  Sb88  1  0.605466  0.022488  0.677815  1
  Sb  Sb89  1  0.883391  0.305005  0.696097  1
  Sb  Sb90  1  0.750000  0.125000  0.375000  1
  Sb  Sb91  1  0.344673  0.322185  0.427651  1
  Sb  Sb92  1  0.750000  0.260371  0.239629  1
  Sb  Sb93  1  0.608908  0.303903  0.687293  1
  Sb  Sb94  1  0.155327  0.582978  0.977512  1
  Sb  Sb95  1  0.383391  0.196097  0.805005  1
  Sb  Sb96  1  0.616609  0.803903  0.194995  1
  Sb  Sb97  1  0.655327  0.477512  0.082978  1
  Sb  Sb98  1  0.250000  0.375000  0.125000  1
  Sb  Sb99  1  0.116609  0.694995  0.303903  1
  Sb  Sb100  1  0.608908  0.805005  0.921614  1
  Sb  Sb101  1  0.250000  0.010371  0.489629  1
  Sb  Sb102  1  0.250000  0.739629  0.760371  1
  Sb  Sb103  1  0.479258  0.489629  0.739629  1
