# generated using pymatgen
data_GdNi(BO2)5
_symmetry_space_group_name_H-M   'P 1'
_cell_length_a   7.62522037
_cell_length_b   8.64316214
_cell_length_c   9.50416723
_cell_angle_alpha   93.57244961
_cell_angle_beta   90.00000000
_cell_angle_gamma   90.00000000
_symmetry_Int_Tables_number   1
_chemical_formula_structural   GdNi(BO2)5
_chemical_formula_sum   'Gd4 Ni4 B20 O40'
_cell_volume   625.16461579
_cell_formula_units_Z   4
loop_
 _symmetry_equiv_pos_site_id
 _symmetry_equiv_pos_as_xyz
  1  'x, y, z'
loop_
 _atom_site_type_symbol
 _atom_site_label
 _atom_site_symmetry_multiplicity
 _atom_site_fract_x
 _atom_site_fract_y
 _atom_site_fract_z
 _atom_site_occupancy
  Gd  Gd0  1  0.819234  0.816792  0.761707  1
  Gd  Gd1  1  0.319234  0.683208  0.738293  1
  Gd  Gd2  1  0.180766  0.183208  0.238293  1
  Gd  Gd3  1  0.680766  0.316792  0.261707  1
  Ni  Ni4  1  0.589734  0.398673  0.871695  1
  Ni  Ni5  1  0.089734  0.101327  0.628305  1
  Ni  Ni6  1  0.410266  0.601327  0.128305  1
  Ni  Ni7  1  0.910266  0.898673  0.371695  1
  O  O8  1  0.294892  0.964626  0.772386  1
  O  O9  1  0.794892  0.535374  0.727614  1
  O  O10  1  0.705108  0.035374  0.227614  1
  O  O11  1  0.205108  0.464626  0.272386  1
  O  O12  1  0.465659  0.187945  0.875618  1
  O  O13  1  0.965659  0.312055  0.624382  1
  O  O14  1  0.534341  0.812055  0.124382  1
  O  O15  1  0.034341  0.687945  0.375618  1
  O  O16  1  0.592291  0.014671  0.699571  1
  O  O17  1  0.092291  0.485329  0.800429  1
  O  O18  1  0.407709  0.985329  0.300429  1
  O  O19  1  0.907709  0.514671  0.199571  1
  O  O20  1  0.348766  0.182619  0.637949  1
  O  O21  1  0.848766  0.317381  0.862051  1
  O  O22  1  0.651234  0.817381  0.362051  1
  O  O23  1  0.151234  0.682619  0.137949  1
  O  O24  1  0.529161  0.414177  0.650086  1
  O  O25  1  0.029161  0.085823  0.849914  1
  O  O26  1  0.470839  0.585823  0.349914  1
  O  O27  1  0.970839  0.914177  0.150086  1
  O  O28  1  0.607149  0.673730  0.579423  1
  O  O29  1  0.107149  0.826270  0.920577  1
  O  O30  1  0.392851  0.326270  0.420577  1
  O  O31  1  0.892851  0.173730  0.079423  1
  O  O32  1  0.770701  0.453583  0.480924  1
  O  O33  1  0.270701  0.046417  0.019076  1
  O  O34  1  0.229299  0.546417  0.519076  1
  O  O35  1  0.729299  0.953583  0.980924  1
  O  O36  1  0.624245  0.181271  0.510117  1
  O  O37  1  0.124245  0.318729  0.989883  1
  O  O38  1  0.375755  0.818729  0.489883  1
  O  O39  1  0.875755  0.681271  0.010117  1
  O  O40  1  0.348858  0.506644  0.929151  1
  O  O41  1  0.848858  0.993356  0.570849  1
  O  O42  1  0.651142  0.493356  0.070849  1
  O  O43  1  0.151142  0.006644  0.429151  1
  O  O44  1  0.554822  0.758062  0.874280  1
  O  O45  1  0.054822  0.741938  0.625720  1
  O  O46  1  0.445178  0.241938  0.125720  1
  O  O47  1  0.945178  0.258062  0.374280  1
  B  B48  1  0.424927  0.086278  0.744729  1
  B  B49  1  0.924927  0.413722  0.755271  1
  B  B50  1  0.575073  0.913722  0.255271  1
  B  B51  1  0.075073  0.586278  0.244729  1
  B  B52  1  0.675152  0.517176  0.604683  1
  B  B53  1  0.175152  0.982824  0.895317  1
  B  B54  1  0.324848  0.482824  0.395317  1
  B  B55  1  0.824848  0.017176  0.104683  1
  B  B56  1  0.466967  0.277621  0.556790  1
  B  B57  1  0.966967  0.222379  0.943210  1
  B  B58  1  0.533033  0.722379  0.443210  1
  B  B59  1  0.033033  0.777621  0.056790  1
  B  B60  1  0.398067  0.160590  0.005864  1
  B  B61  1  0.898067  0.339410  0.494136  1
  B  B62  1  0.601933  0.839410  0.994136  1
  B  B63  1  0.101933  0.660590  0.505864  1
  B  B64  1  0.688046  0.066831  0.589078  1
  B  B65  1  0.188046  0.433169  0.910922  1
  B  B66  1  0.311954  0.933169  0.410922  1
  B  B67  1  0.811954  0.566831  0.089078  1
