# generated using pymatgen
data_TaP2S2Cl5
_symmetry_space_group_name_H-M   'P 1'
_cell_length_a   6.83919223
_cell_length_b   13.80074572
_cell_length_c   27.37130554
_cell_angle_alpha   90.00000000
_cell_angle_beta   93.92369320
_cell_angle_gamma   90.00000000
_symmetry_Int_Tables_number   1
_chemical_formula_structural   TaP2S2Cl5
_chemical_formula_sum   'Ta8 P16 S16 Cl40'
_cell_volume   2577.41128565
_cell_formula_units_Z   8
loop_
 _symmetry_equiv_pos_site_id
 _symmetry_equiv_pos_as_xyz
  1  'x, y, z'
loop_
 _atom_site_type_symbol
 _atom_site_label
 _atom_site_symmetry_multiplicity
 _atom_site_fract_x
 _atom_site_fract_y
 _atom_site_fract_z
 _atom_site_occupancy
  Ta  Ta0  1  0.720241  0.786869  0.972509  1
  Ta  Ta1  1  0.220241  0.713131  0.472509  1
  Ta  Ta2  1  0.779759  0.286869  0.527491  1
  Ta  Ta3  1  0.675818  0.613151  0.702561  1
  Ta  Ta4  1  0.824182  0.113151  0.797439  1
  Ta  Ta5  1  0.324182  0.386849  0.297438  1
  Ta  Ta6  1  0.279759  0.213131  0.027491  1
  Ta  Ta7  1  0.175818  0.886849  0.202562  1
  P  P8  1  0.919109  0.070729  0.380089  1
  P  P9  1  0.209696  0.431754  0.141036  1
  P  P10  1  0.575600  0.656728  0.900425  1
  P  P11  1  0.080891  0.929271  0.619911  1
  P  P12  1  0.943993  0.089459  0.702986  1
  P  P13  1  0.924400  0.156728  0.599575  1
  P  P14  1  0.056007  0.910541  0.297014  1
  P  P15  1  0.424400  0.343272  0.099575  1
  P  P16  1  0.419109  0.429271  0.880089  1
  P  P17  1  0.580891  0.570729  0.119911  1
  P  P18  1  0.556007  0.589459  0.797014  1
  P  P19  1  0.790304  0.568246  0.858964  1
  P  P20  1  0.443993  0.410541  0.202986  1
  P  P21  1  0.075600  0.843272  0.400425  1
  P  P22  1  0.709696  0.068246  0.641036  1
  P  P23  1  0.290304  0.931754  0.358964  1
  S  S24  1  0.856939  0.024432  0.306080  1
  S  S25  1  0.036761  0.217415  0.667422  1
  S  S26  1  0.265767  0.571216  0.118168  1
  S  S27  1  0.463239  0.717415  0.832578  1
  S  S28  1  0.379138  0.552915  0.925346  1
  S  S29  1  0.356939  0.475568  0.806080  1
  S  S30  1  0.765767  0.928784  0.618168  1
  S  S31  1  0.234233  0.071216  0.381832  1
  S  S32  1  0.143061  0.975568  0.693920  1
  S  S33  1  0.620862  0.447085  0.074654  1
  S  S34  1  0.120862  0.052915  0.574654  1
  S  S35  1  0.643061  0.524432  0.193920  1
  S  S36  1  0.963239  0.782585  0.332578  1
  S  S37  1  0.536761  0.282585  0.167422  1
  S  S38  1  0.734233  0.428784  0.881832  1
  S  S39  1  0.879138  0.947085  0.425346  1
  Cl  Cl40  1  0.458172  0.744405  0.702730  1
  Cl  Cl41  1  0.446545  0.736039  0.012801  1
  Cl  Cl42  1  0.910163  0.985646  0.178513  1
  Cl  Cl43  1  0.541828  0.255595  0.297270  1
  Cl  Cl44  1  0.482285  0.104638  0.072197  1
  Cl  Cl45  1  0.017715  0.604638  0.427803  1
  Cl  Cl46  1  0.349130  0.025499  0.229166  1
  Cl  Cl47  1  0.650870  0.974501  0.770834  1
  Cl  Cl48  1  0.375791  0.859483  0.496865  1
  Cl  Cl49  1  0.144686  0.113115  0.968294  1
  Cl  Cl50  1  0.982285  0.395362  0.572197  1
  Cl  Cl51  1  0.355314  0.613115  0.531706  1
  Cl  Cl52  1  0.958172  0.755595  0.202730  1
  Cl  Cl53  1  0.124209  0.359483  0.003135  1
  Cl  Cl54  1  0.855314  0.886885  0.031706  1
  Cl  Cl55  1  0.089837  0.014354  0.821487  1
  Cl  Cl56  1  0.697314  0.135272  0.871521  1
  Cl  Cl57  1  0.849130  0.474501  0.729166  1
  Cl  Cl58  1  0.410163  0.514354  0.678513  1
  Cl  Cl59  1  0.053455  0.236039  0.487199  1
  Cl  Cl60  1  0.545310  0.306484  0.584961  1
  Cl  Cl61  1  0.406444  0.792018  0.248604  1
  Cl  Cl62  1  0.041828  0.244405  0.797270  1
  Cl  Cl63  1  0.624209  0.140517  0.503135  1
  Cl  Cl64  1  0.553455  0.263961  0.987199  1
  Cl  Cl65  1  0.954690  0.806484  0.915039  1
  Cl  Cl66  1  0.875791  0.640517  0.996865  1
  Cl  Cl67  1  0.302686  0.864728  0.128479  1
  Cl  Cl68  1  0.644686  0.386885  0.468294  1
  Cl  Cl69  1  0.454690  0.693516  0.415039  1
  Cl  Cl70  1  0.946545  0.763961  0.512801  1
  Cl  Cl71  1  0.802686  0.635272  0.628479  1
  Cl  Cl72  1  0.150870  0.525499  0.270834  1
  Cl  Cl73  1  0.906444  0.707982  0.748604  1
  Cl  Cl74  1  0.093556  0.292018  0.251396  1
  Cl  Cl75  1  0.593556  0.207982  0.751396  1
  Cl  Cl76  1  0.589837  0.485646  0.321487  1
  Cl  Cl77  1  0.045310  0.193516  0.084961  1
  Cl  Cl78  1  0.197314  0.364728  0.371521  1
  Cl  Cl79  1  0.517715  0.895362  0.927803  1
