# generated using pymatgen
data_Fe2Se2O7
_symmetry_space_group_name_H-M   'P 1'
_cell_length_a   6.77930833
_cell_length_b   13.07030961
_cell_length_c   13.81222631
_cell_angle_alpha   90.00000000
_cell_angle_beta   90.00000000
_cell_angle_gamma   90.00000000
_symmetry_Int_Tables_number   1
_chemical_formula_structural   Fe2Se2O7
_chemical_formula_sum   'Fe16 Se16 O56'
_cell_volume   1223.86903635
_cell_formula_units_Z   8
loop_
 _symmetry_equiv_pos_site_id
 _symmetry_equiv_pos_as_xyz
  1  'x, y, z'
loop_
 _atom_site_type_symbol
 _atom_site_label
 _atom_site_symmetry_multiplicity
 _atom_site_fract_x
 _atom_site_fract_y
 _atom_site_fract_z
 _atom_site_occupancy
  Fe  Fe0  1  0.250000  0.250000  0.335481  1
  Fe  Fe1  1  0.750000  0.750000  0.164519  1
  Fe  Fe2  1  0.750000  0.750000  0.664519  1
  Fe  Fe3  1  0.250000  0.250000  0.835481  1
  Fe  Fe4  1  0.250000  0.750000  0.210589  1
  Fe  Fe5  1  0.750000  0.250000  0.289411  1
  Fe  Fe6  1  0.750000  0.250000  0.789411  1
  Fe  Fe7  1  0.250000  0.750000  0.710589  1
  Fe  Fe8  1  0.031763  0.621403  0.026724  1
  Fe  Fe9  1  0.531763  0.378597  0.473276  1
  Fe  Fe10  1  0.968237  0.121403  0.473276  1
  Fe  Fe11  1  0.468237  0.878597  0.026724  1
  Fe  Fe12  1  0.968237  0.378597  0.973276  1
  Fe  Fe13  1  0.468237  0.621403  0.526724  1
  Fe  Fe14  1  0.031763  0.878597  0.526724  1
  Fe  Fe15  1  0.531763  0.121403  0.973276  1
  Se  Se16  1  0.011966  0.447970  0.216555  1
  Se  Se17  1  0.511966  0.552030  0.283445  1
  Se  Se18  1  0.988034  0.947970  0.283445  1
  Se  Se19  1  0.488034  0.052030  0.216555  1
  Se  Se20  1  0.988034  0.552030  0.783444  1
  Se  Se21  1  0.488034  0.447970  0.716556  1
  Se  Se22  1  0.011966  0.052030  0.716556  1
  Se  Se23  1  0.511966  0.947970  0.783444  1
  Se  Se24  1  0.026280  0.134970  0.035660  1
  Se  Se25  1  0.526280  0.865030  0.464340  1
  Se  Se26  1  0.973720  0.634970  0.464340  1
  Se  Se27  1  0.473720  0.365030  0.035660  1
  Se  Se28  1  0.973720  0.865030  0.964340  1
  Se  Se29  1  0.473720  0.134970  0.535660  1
  Se  Se30  1  0.026280  0.365030  0.535660  1
  Se  Se31  1  0.526280  0.634970  0.964340  1
  O  O32  1  0.022467  0.703940  0.145940  1
  O  O33  1  0.522467  0.296060  0.354060  1
  O  O34  1  0.977533  0.203940  0.354060  1
  O  O35  1  0.477533  0.796060  0.145940  1
  O  O36  1  0.977533  0.296060  0.854060  1
  O  O37  1  0.477533  0.703940  0.645940  1
  O  O38  1  0.022467  0.796060  0.645940  1
  O  O39  1  0.522467  0.203940  0.854060  1
  O  O40  1  0.195145  0.359775  0.231986  1
  O  O41  1  0.695145  0.640225  0.268014  1
  O  O42  1  0.804855  0.859775  0.268014  1
  O  O43  1  0.304855  0.140225  0.231986  1
  O  O44  1  0.804855  0.640225  0.768014  1
  O  O45  1  0.304855  0.359775  0.731986  1
  O  O46  1  0.195145  0.140225  0.731986  1
  O  O47  1  0.695145  0.859775  0.768014  1
  O  O48  1  0.797681  0.375706  0.219590  1
  O  O49  1  0.297681  0.624294  0.280410  1
  O  O50  1  0.202319  0.875706  0.280410  1
  O  O51  1  0.702319  0.124294  0.219590  1
  O  O52  1  0.202319  0.624294  0.780410  1
  O  O53  1  0.702319  0.375706  0.719590  1
  O  O54  1  0.797681  0.124294  0.719590  1
  O  O55  1  0.297681  0.875706  0.780410  1
  O  O56  1  0.020160  0.473779  0.090263  1
  O  O57  1  0.520160  0.526221  0.409737  1
  O  O58  1  0.979840  0.973779  0.409737  1
  O  O59  1  0.479840  0.026221  0.090263  1
  O  O60  1  0.979840  0.526221  0.909737  1
  O  O61  1  0.479840  0.473779  0.590263  1
  O  O62  1  0.020160  0.026221  0.590263  1
  O  O63  1  0.520160  0.973779  0.909737  1
  O  O64  1  0.981810  0.261160  0.061395  1
  O  O65  1  0.481810  0.738840  0.438605  1
  O  O66  1  0.018190  0.761160  0.438605  1
  O  O67  1  0.518190  0.238840  0.061395  1
  O  O68  1  0.018190  0.738840  0.938605  1
  O  O69  1  0.518190  0.261160  0.561395  1
  O  O70  1  0.981810  0.238840  0.561395  1
  O  O71  1  0.481810  0.761160  0.938605  1
  O  O72  1  0.827865  0.101849  0.963128  1
  O  O73  1  0.327865  0.898151  0.536872  1
  O  O74  1  0.172135  0.601849  0.536872  1
  O  O75  1  0.672135  0.398151  0.963128  1
  O  O76  1  0.172135  0.898151  0.036872  1
  O  O77  1  0.672135  0.101849  0.463128  1
  O  O78  1  0.827865  0.398151  0.463128  1
  O  O79  1  0.327865  0.601849  0.036872  1
  O  O80  1  0.214840  0.138103  0.946787  1
  O  O81  1  0.714840  0.861897  0.553213  1
  O  O82  1  0.785160  0.638103  0.553213  1
  O  O83  1  0.285160  0.361897  0.946787  1
  O  O84  1  0.785160  0.861897  0.053213  1
  O  O85  1  0.285160  0.138103  0.446787  1
  O  O86  1  0.214840  0.361897  0.446787  1
  O  O87  1  0.714840  0.638103  0.053213  1
