# generated using pymatgen
data_Ba5Eu8Zn4O21
_symmetry_space_group_name_H-M   'P 1'
_cell_length_a   5.83809326
_cell_length_b   10.43343042
_cell_length_c   10.43855644
_cell_angle_alpha   85.53278671
_cell_angle_beta   73.75456952
_cell_angle_gamma   73.75453489
_symmetry_Int_Tables_number   1
_chemical_formula_structural   Ba5Eu8Zn4O21
_chemical_formula_sum   'Ba5 Eu8 Zn4 O21'
_cell_volume   586.06561932
_cell_formula_units_Z   1
loop_
 _symmetry_equiv_pos_site_id
 _symmetry_equiv_pos_as_xyz
  1  'x, y, z'
loop_
 _atom_site_type_symbol
 _atom_site_label
 _atom_site_symmetry_multiplicity
 _atom_site_fract_x
 _atom_site_fract_y
 _atom_site_fract_z
 _atom_site_occupancy
  Eu  Eu0  1  0.641692  0.768541  0.948077  1
  Eu  Eu1  1  0.834201  0.416122  0.915343  1
  Eu  Eu2  1  0.589654  0.051902  0.768588  1
  Eu  Eu3  1  0.358308  0.231459  0.051923  1
  Eu  Eu4  1  0.410346  0.948098  0.231412  1
  Eu  Eu5  1  0.250354  0.915304  0.583883  1
  Eu  Eu6  1  0.165799  0.583878  0.084657  1
  Eu  Eu7  1  0.749646  0.084696  0.416117  1
  Ba  Ba8  1  0.138261  0.329898  0.393648  1
  Ba  Ba9  1  0.468049  0.393714  0.670174  1
  Ba  Ba10  1  0.000000  0.000000  0.000000  1
  Ba  Ba11  1  0.531951  0.606286  0.329826  1
  Ba  Ba12  1  0.861739  0.670102  0.606352  1
  Zn  Zn13  1  0.042122  0.210609  0.705165  1
  Zn  Zn14  1  0.747336  0.294820  0.210585  1
  Zn  Zn15  1  0.252664  0.705180  0.789415  1
  Zn  Zn16  1  0.957878  0.789391  0.294835  1
  O  O17  1  0.017414  0.592940  0.885320  1
  O  O18  1  0.799137  0.776025  0.135240  1
  O  O19  1  0.934272  0.864857  0.775993  1
  O  O20  1  0.424872  0.864716  0.776023  1
  O  O21  1  0.065728  0.135143  0.224007  1
  O  O22  1  0.389855  0.114589  0.593015  1
  O  O23  1  0.200863  0.223975  0.864760  1
  O  O24  1  0.374814  0.656480  0.594026  1
  O  O25  1  0.031257  0.593997  0.343542  1
  O  O26  1  0.902747  0.114666  0.592998  1
  O  O27  1  0.968743  0.406003  0.656458  1
  O  O28  1  0.575128  0.135284  0.223977  1
  O  O29  1  0.504296  0.592991  0.885432  1
  O  O30  1  0.710284  0.224026  0.864847  1
  O  O31  1  0.982586  0.407060  0.114680  1
  O  O32  1  0.610145  0.885411  0.406985  1
  O  O33  1  0.625186  0.343520  0.405974  1
  O  O34  1  0.289716  0.775974  0.135153  1
  O  O35  1  0.495704  0.407009  0.114568  1
  O  O36  1  0.500000  0.000000  0.000000  1
  O  O37  1  0.097253  0.885334  0.407002  1
