# generated using pymatgen
data_Rb4SnSb6
_symmetry_space_group_name_H-M   'P 1'
_cell_length_a   15.30979540
_cell_length_b   15.30979537
_cell_length_c   14.74155391
_cell_angle_alpha   90.00000000
_cell_angle_beta   90.00000000
_cell_angle_gamma   120.00000003
_symmetry_Int_Tables_number   1
_chemical_formula_structural   Rb4SnSb6
_chemical_formula_sum   'Rb24 Sn6 Sb36'
_cell_volume   2992.35192842
_cell_formula_units_Z   6
loop_
 _symmetry_equiv_pos_site_id
 _symmetry_equiv_pos_as_xyz
  1  'x, y, z'
loop_
 _atom_site_type_symbol
 _atom_site_label
 _atom_site_symmetry_multiplicity
 _atom_site_fract_x
 _atom_site_fract_y
 _atom_site_fract_z
 _atom_site_occupancy
  Sb  Sb0  1  0.520422  0.363593  0.316020  1
  Sb  Sb1  1  0.636407  0.156829  0.316020  1
  Sb  Sb2  1  0.843171  0.479578  0.316020  1
  Sb  Sb3  1  0.479578  0.636407  0.683980  1
  Sb  Sb4  1  0.363593  0.843171  0.683980  1
  Sb  Sb5  1  0.156829  0.520422  0.683980  1
  Sn  Sn6  1  0.454688  0.489809  0.229378  1
  Sn  Sn7  1  0.510191  0.964879  0.229378  1
  Sn  Sn8  1  0.035121  0.545312  0.229378  1
  Sn  Sn9  1  0.545312  0.510191  0.770622  1
  Sn  Sn10  1  0.489809  0.035121  0.770622  1
  Sn  Sn11  1  0.964879  0.454688  0.770622  1
  Sb  Sb12  1  0.284371  0.440027  0.345768  1
  Sb  Sb13  1  0.559973  0.844344  0.345768  1
  Sb  Sb14  1  0.155656  0.715629  0.345768  1
  Sb  Sb15  1  0.715629  0.559973  0.654232  1
  Sb  Sb16  1  0.440027  0.155656  0.654232  1
  Sb  Sb17  1  0.844344  0.284371  0.654232  1
  Sb  Sb18  1  0.356197  0.358050  0.077465  1
  Sb  Sb19  1  0.641950  0.998147  0.077465  1
  Sb  Sb20  1  0.001853  0.643803  0.077465  1
  Sb  Sb21  1  0.643803  0.641950  0.922535  1
  Sb  Sb22  1  0.358050  0.001853  0.922535  1
  Sb  Sb23  1  0.998147  0.356197  0.922535  1
  Sb  Sb24  1  0.227479  0.175248  0.163314  1
  Sb  Sb25  1  0.824752  0.052231  0.163314  1
  Sb  Sb26  1  0.947769  0.772521  0.163314  1
  Sb  Sb27  1  0.772521  0.824752  0.836686  1
  Sb  Sb28  1  0.175248  0.947769  0.836686  1
  Sb  Sb29  1  0.052231  0.227479  0.836686  1
  Sb  Sb30  1  0.341163  0.179697  0.328346  1
  Sb  Sb31  1  0.820303  0.161466  0.328346  1
  Sb  Sb32  1  0.838534  0.658837  0.328346  1
  Sb  Sb33  1  0.658837  0.820303  0.671654  1
  Sb  Sb34  1  0.179697  0.838534  0.671654  1
  Sb  Sb35  1  0.161466  0.341163  0.671654  1
  Sb  Sb36  1  0.180158  0.229616  0.342781  1
  Sb  Sb37  1  0.770384  0.950542  0.342781  1
  Sb  Sb38  1  0.049458  0.819842  0.342781  1
  Sb  Sb39  1  0.819842  0.770384  0.657219  1
  Sb  Sb40  1  0.229616  0.049458  0.657219  1
  Sb  Sb41  1  0.950542  0.180158  0.657219  1
  Rb  Rb42  1  0.333333  0.666667  0.500481  1
  Rb  Rb43  1  0.666667  0.333333  0.499519  1
  Rb  Rb44  1  0.386568  0.356235  0.545564  1
  Rb  Rb45  1  0.643765  0.030333  0.545564  1
  Rb  Rb46  1  0.969667  0.613432  0.545564  1
  Rb  Rb47  1  0.613432  0.643765  0.454436  1
  Rb  Rb48  1  0.356235  0.969667  0.454436  1
  Rb  Rb49  1  0.030333  0.386568  0.454436  1
  Rb  Rb50  1  0.328884  0.232716  0.851325  1
  Rb  Rb51  1  0.767284  0.096167  0.851325  1
  Rb  Rb52  1  0.903833  0.671116  0.851325  1
  Rb  Rb53  1  0.671116  0.767284  0.148675  1
  Rb  Rb54  1  0.232716  0.903833  0.148675  1
  Rb  Rb55  1  0.096167  0.328884  0.148675  1
  Rb  Rb56  1  0.297550  0.483581  0.881040  1
  Rb  Rb57  1  0.516419  0.813970  0.881040  1
  Rb  Rb58  1  0.186030  0.702450  0.881040  1
  Rb  Rb59  1  0.702450  0.516419  0.118960  1
  Rb  Rb60  1  0.483581  0.186030  0.118960  1
  Rb  Rb61  1  0.813970  0.297550  0.118960  1
  Rb  Rb62  1  0.000000  0.000000  0.000000  1
  Rb  Rb63  1  0.000000  0.000000  0.500000  1
  Rb  Rb64  1  0.333333  0.666667  0.204241  1
  Rb  Rb65  1  0.666667  0.333333  0.795759  1
