# generated using pymatgen
data_K10MnMo7O27
_symmetry_space_group_name_H-M   'P 1'
_cell_length_a   8.13197819
_cell_length_b   10.82050705
_cell_length_c   18.77775594
_cell_angle_alpha   90.00000000
_cell_angle_beta   90.00000000
_cell_angle_gamma   90.00000000
_symmetry_Int_Tables_number   1
_chemical_formula_structural   K10MnMo7O27
_chemical_formula_sum   'K20 Mn2 Mo14 O54'
_cell_volume   1652.29469174
_cell_formula_units_Z   2
loop_
 _symmetry_equiv_pos_site_id
 _symmetry_equiv_pos_as_xyz
  1  'x, y, z'
loop_
 _atom_site_type_symbol
 _atom_site_label
 _atom_site_symmetry_multiplicity
 _atom_site_fract_x
 _atom_site_fract_y
 _atom_site_fract_z
 _atom_site_occupancy
  K  K0  1  0.048774  0.692866  0.677860  1
  K  K1  1  0.048774  0.692866  0.322140  1
  K  K2  1  0.264888  0.508633  0.152272  1
  K  K3  1  0.951226  0.192866  0.177860  1
  K  K4  1  0.908024  0.623084  0.000000  1
  K  K5  1  0.381803  0.766424  0.500000  1
  K  K6  1  0.735112  0.008633  0.347728  1
  K  K7  1  0.264888  0.508633  0.847728  1
  K  K8  1  0.739784  0.522391  0.183982  1
  K  K9  1  0.735112  0.008633  0.652272  1
  K  K10  1  0.381993  0.365330  0.640787  1
  K  K11  1  0.618007  0.865330  0.140787  1
  K  K12  1  0.260216  0.022391  0.316018  1
  K  K13  1  0.951226  0.192866  0.822140  1
  K  K14  1  0.739784  0.522391  0.816018  1
  K  K15  1  0.260216  0.022391  0.683982  1
  K  K16  1  0.091976  0.123084  0.500000  1
  K  K17  1  0.618197  0.266424  0.000000  1
  K  K18  1  0.618007  0.865330  0.859213  1
  K  K19  1  0.381993  0.365330  0.359213  1
  Mn  Mn20  1  0.706040  0.512476  0.500000  1
  Mn  Mn21  1  0.293960  0.012476  0.000000  1
  Mo  Mo22  1  0.467536  0.178202  0.168910  1
  Mo  Mo23  1  0.906601  0.347628  0.345872  1
  Mo  Mo24  1  0.111550  0.499920  0.500000  1
  Mo  Mo25  1  0.900040  0.822707  0.500000  1
  Mo  Mo26  1  0.888450  0.999920  0.000000  1
  Mo  Mo27  1  0.093399  0.847628  0.154128  1
  Mo  Mo28  1  0.556392  0.181359  0.500000  1
  Mo  Mo29  1  0.093399  0.847628  0.845872  1
  Mo  Mo30  1  0.467536  0.178202  0.831090  1
  Mo  Mo31  1  0.906601  0.347628  0.654128  1
  Mo  Mo32  1  0.443608  0.681359  0.000000  1
  Mo  Mo33  1  0.532464  0.678202  0.668910  1
  Mo  Mo34  1  0.532464  0.678202  0.331090  1
  Mo  Mo35  1  0.099960  0.322707  0.000000  1
  O  O36  1  0.998544  0.886843  0.422638  1
  O  O37  1  0.207496  0.571725  0.574512  1
  O  O38  1  0.564133  0.068236  0.772859  1
  O  O39  1  0.023323  0.207738  0.646561  1
  O  O40  1  0.906590  0.437518  0.429963  1
  O  O41  1  0.703691  0.308119  0.678916  1
  O  O42  1  0.449318  0.128079  0.421716  1
  O  O43  1  0.410187  0.100775  0.086742  1
  O  O44  1  0.198506  0.349922  0.500000  1
  O  O45  1  0.762409  0.124907  0.500000  1
  O  O46  1  0.001456  0.386843  0.922638  1
  O  O47  1  0.093410  0.937518  0.070037  1
  O  O48  1  0.296309  0.808119  0.821084  1
  O  O49  1  0.589813  0.600775  0.413258  1
  O  O50  1  0.976677  0.707738  0.853439  1
  O  O51  1  0.713946  0.735210  0.712459  1
  O  O52  1  0.713946  0.735210  0.287541  1
  O  O53  1  0.449318  0.128079  0.578284  1
  O  O54  1  0.991914  0.440242  0.724219  1
  O  O55  1  0.286054  0.235210  0.787541  1
  O  O56  1  0.008086  0.940242  0.775781  1
  O  O57  1  0.398315  0.804629  0.647686  1
  O  O58  1  0.550682  0.628079  0.078284  1
  O  O59  1  0.601685  0.304629  0.852314  1
  O  O60  1  0.008086  0.940242  0.224219  1
  O  O61  1  0.991914  0.440242  0.275781  1
  O  O62  1  0.920465  0.652710  0.500000  1
  O  O63  1  0.435867  0.568236  0.727141  1
  O  O64  1  0.207496  0.571725  0.425488  1
  O  O65  1  0.435867  0.568236  0.272859  1
  O  O66  1  0.079535  0.152710  0.000000  1
  O  O67  1  0.998544  0.886843  0.577362  1
  O  O68  1  0.792504  0.071725  0.925488  1
  O  O69  1  0.564041  0.349158  0.500000  1
  O  O70  1  0.435959  0.849158  0.000000  1
  O  O71  1  0.398315  0.804629  0.352314  1
  O  O72  1  0.564133  0.068236  0.227141  1
  O  O73  1  0.792504  0.071725  0.074512  1
  O  O74  1  0.296309  0.808119  0.178916  1
  O  O75  1  0.023323  0.207738  0.353439  1
  O  O76  1  0.311000  0.360668  0.000000  1
  O  O77  1  0.906590  0.437518  0.570037  1
  O  O78  1  0.703691  0.308119  0.321084  1
  O  O79  1  0.689000  0.860668  0.500000  1
  O  O80  1  0.237591  0.624907  0.000000  1
  O  O81  1  0.601685  0.304629  0.147686  1
  O  O82  1  0.550682  0.628079  0.921716  1
  O  O83  1  0.976677  0.707738  0.146561  1
  O  O84  1  0.286054  0.235210  0.212459  1
  O  O85  1  0.589813  0.600775  0.586742  1
  O  O86  1  0.410187  0.100775  0.913258  1
  O  O87  1  0.093410  0.937518  0.929963  1
  O  O88  1  0.801494  0.849922  0.000000  1
  O  O89  1  0.001456  0.386843  0.077362  1
