# generated using pymatgen
data_AlFePO5
_symmetry_space_group_name_H-M   'P 1'
_cell_length_a   5.55817180
_cell_length_b   7.23479154
_cell_length_c   10.64463599
_cell_angle_alpha   90.00011481
_cell_angle_beta   90.00018005
_cell_angle_gamma   98.12810581
_symmetry_Int_Tables_number   1
_chemical_formula_structural   AlFePO5
_chemical_formula_sum   'Al4 Fe4 P4 O20'
_cell_volume   423.74442999
_cell_formula_units_Z   4
loop_
 _symmetry_equiv_pos_site_id
 _symmetry_equiv_pos_as_xyz
  1  'x, y, z'
loop_
 _atom_site_type_symbol
 _atom_site_label
 _atom_site_symmetry_multiplicity
 _atom_site_fract_x
 _atom_site_fract_y
 _atom_site_fract_z
 _atom_site_occupancy
  O  O0  1  0.684293  0.120628  0.549077  1
  O  O1  1  0.815706  0.879374  0.049075  1
  O  O2  1  0.315707  0.879372  0.450923  1
  O  O3  1  0.184293  0.120626  0.950925  1
  O  O4  1  0.939053  0.909774  0.320122  1
  O  O5  1  0.560942  0.090218  0.820126  1
  O  O6  1  0.060948  0.090226  0.679878  1
  O  O7  1  0.439058  0.909782  0.179874  1
  O  O8  1  0.595762  0.281954  0.019005  1
  O  O9  1  0.904239  0.718038  0.519000  1
  O  O10  1  0.404238  0.718046  0.980995  1
  O  O11  1  0.095761  0.281962  0.481000  1
  O  O12  1  0.247943  0.271456  0.220453  1
  O  O13  1  0.252057  0.728534  0.720448  1
  O  O14  1  0.752059  0.728544  0.779547  1
  O  O15  1  0.747942  0.271466  0.279552  1
  O  O16  1  0.106570  0.604166  0.326355  1
  O  O17  1  0.893429  0.395834  0.673645  1
  O  O18  1  0.393439  0.395831  0.826360  1
  O  O19  1  0.606560  0.604169  0.173640  1
  Al  Al20  1  0.452769  0.641283  0.825503  1
  Al  Al21  1  0.047236  0.358716  0.325505  1
  Al  Al22  1  0.952764  0.641285  0.674494  1
  Al  Al23  1  0.547233  0.358717  0.174497  1
  P  P24  1  0.066901  0.777747  0.403636  1
  P  P25  1  0.933099  0.222253  0.596364  1
  P  P26  1  0.566899  0.777751  0.096361  1
  P  P27  1  0.433100  0.222249  0.903639  1
  Fe  Fe28  1  0.606948  0.016563  0.355720  1
  Fe  Fe29  1  0.893052  0.983451  0.855718  1
  Fe  Fe30  1  0.393052  0.983437  0.644280  1
  Fe  Fe31  1  0.106948  0.016550  0.144282  1
