# generated using pymatgen
data_Li2Fe(PO3)4
_symmetry_space_group_name_H-M   'P 1'
_cell_length_a   9.49204556
_cell_length_b   10.13967086
_cell_length_c   9.39189760
_cell_angle_alpha   90.00000000
_cell_angle_beta   90.00000000
_cell_angle_gamma   90.00000000
_symmetry_Int_Tables_number   1
_chemical_formula_structural   Li2Fe(PO3)4
_chemical_formula_sum   'Li8 Fe4 P16 O48'
_cell_volume   903.93462165
_cell_formula_units_Z   4
loop_
 _symmetry_equiv_pos_site_id
 _symmetry_equiv_pos_as_xyz
  1  'x, y, z'
loop_
 _atom_site_type_symbol
 _atom_site_label
 _atom_site_symmetry_multiplicity
 _atom_site_fract_x
 _atom_site_fract_y
 _atom_site_fract_z
 _atom_site_occupancy
  Li  Li0  1  0.003336  0.829723  0.397121  1
  Li  Li1  1  0.496664  0.329723  0.602879  1
  Li  Li2  1  0.996664  0.170277  0.602879  1
  Li  Li3  1  0.503336  0.670277  0.397121  1
  Li  Li4  1  0.996664  0.170277  0.897121  1
  Li  Li5  1  0.496664  0.329723  0.897121  1
  Li  Li6  1  0.003336  0.829723  0.102879  1
  Li  Li7  1  0.503336  0.670277  0.102879  1
  Fe  Fe8  1  0.987423  0.802804  0.750000  1
  Fe  Fe9  1  0.512577  0.302804  0.250000  1
  Fe  Fe10  1  0.487423  0.697196  0.750000  1
  Fe  Fe11  1  0.012577  0.197196  0.250000  1
  P  P12  1  0.194629  0.396750  0.750000  1
  P  P13  1  0.706603  0.886245  0.535704  1
  P  P14  1  0.793397  0.386245  0.464296  1
  P  P15  1  0.305371  0.896750  0.250000  1
  P  P16  1  0.293397  0.113755  0.464296  1
  P  P17  1  0.793397  0.386245  0.035704  1
  P  P18  1  0.706603  0.886245  0.964296  1
  P  P19  1  0.206602  0.613755  0.535704  1
  P  P20  1  0.694629  0.103250  0.750000  1
  P  P21  1  0.726513  0.019899  0.250000  1
  P  P22  1  0.226513  0.480101  0.250000  1
  P  P23  1  0.773487  0.519899  0.750000  1
  P  P24  1  0.805371  0.603250  0.250000  1
  P  P25  1  0.273487  0.980101  0.750000  1
  P  P26  1  0.293397  0.113755  0.035704  1
  P  P27  1  0.206602  0.613755  0.964296  1
  O  O28  1  0.851646  0.119559  0.750000  1
  O  O29  1  0.148354  0.880441  0.250000  1
  O  O30  1  0.143784  0.355835  0.250000  1
  O  O31  1  0.645569  0.013688  0.883052  1
  O  O32  1  0.112506  0.729816  0.566299  1
  O  O33  1  0.887494  0.270184  0.433701  1
  O  O34  1  0.636294  0.375211  0.057226  1
  O  O35  1  0.136294  0.124788  0.442774  1
  O  O36  1  0.614245  0.526445  0.750000  1
  O  O37  1  0.612506  0.770184  0.933701  1
  O  O38  1  0.114245  0.973555  0.750000  1
  O  O39  1  0.827945  0.425667  0.624635  1
  O  O40  1  0.136294  0.124788  0.057226  1
  O  O41  1  0.356216  0.855835  0.750000  1
  O  O42  1  0.172055  0.574333  0.375365  1
  O  O43  1  0.672055  0.925667  0.375365  1
  O  O44  1  0.327945  0.074333  0.624635  1
  O  O45  1  0.854431  0.513688  0.383052  1
  O  O46  1  0.643784  0.144165  0.250000  1
  O  O47  1  0.145569  0.486312  0.883052  1
  O  O48  1  0.636294  0.375211  0.442774  1
  O  O49  1  0.612506  0.770184  0.566299  1
  O  O50  1  0.112506  0.729816  0.933701  1
  O  O51  1  0.387494  0.229816  0.433701  1
  O  O52  1  0.354431  0.986312  0.383052  1
  O  O53  1  0.854431  0.513688  0.116948  1
  O  O54  1  0.385755  0.473555  0.250000  1
  O  O55  1  0.354431  0.986312  0.116948  1
  O  O56  1  0.399302  0.778542  0.250000  1
  O  O57  1  0.145569  0.486312  0.616948  1
  O  O58  1  0.856216  0.644165  0.750000  1
  O  O59  1  0.648354  0.619559  0.250000  1
  O  O60  1  0.327945  0.074333  0.875365  1
  O  O61  1  0.100698  0.278542  0.750000  1
  O  O62  1  0.885755  0.026445  0.250000  1
  O  O63  1  0.600698  0.221458  0.750000  1
  O  O64  1  0.351646  0.380441  0.750000  1
  O  O65  1  0.827945  0.425667  0.875365  1
  O  O66  1  0.387494  0.229816  0.066299  1
  O  O67  1  0.672055  0.925667  0.124635  1
  O  O68  1  0.172055  0.574333  0.124635  1
  O  O69  1  0.899302  0.721458  0.250000  1
  O  O70  1  0.887494  0.270184  0.066299  1
  O  O71  1  0.363706  0.624788  0.557226  1
  O  O72  1  0.645569  0.013688  0.616948  1
  O  O73  1  0.363706  0.624788  0.942774  1
  O  O74  1  0.863706  0.875212  0.557226  1
  O  O75  1  0.863706  0.875212  0.942774  1
