# generated using pymatgen
data_K2LiInAs2
_symmetry_space_group_name_H-M   'P 1'
_cell_length_a   6.45444505
_cell_length_b   10.23677467
_cell_length_c   10.23677434
_cell_angle_alpha   100.99963490
_cell_angle_beta   90.00000000
_cell_angle_gamma   90.00000000
_symmetry_Int_Tables_number   1
_chemical_formula_structural   K2LiInAs2
_chemical_formula_sum   'K8 Li4 In4 As8'
_cell_volume   663.94529221
_cell_formula_units_Z   4
loop_
 _symmetry_equiv_pos_site_id
 _symmetry_equiv_pos_as_xyz
  1  'x, y, z'
loop_
 _atom_site_type_symbol
 _atom_site_label
 _atom_site_symmetry_multiplicity
 _atom_site_fract_x
 _atom_site_fract_y
 _atom_site_fract_z
 _atom_site_occupancy
  K  K0  1  0.750000  0.426299  0.073701  1
  K  K1  1  0.250000  0.073701  0.426299  1
  K  K2  1  0.250000  0.573701  0.926299  1
  K  K3  1  0.750000  0.926299  0.573701  1
  K  K4  1  0.775693  0.326731  0.673269  1
  K  K5  1  0.275693  0.173269  0.826731  1
  K  K6  1  0.224307  0.673269  0.326731  1
  K  K7  1  0.724307  0.826731  0.173269  1
  As  As8  1  0.750000  0.649091  0.850909  1
  As  As9  1  0.250000  0.850909  0.649091  1
  As  As10  1  0.250000  0.350909  0.149091  1
  As  As11  1  0.750000  0.149091  0.350909  1
  As  As12  1  0.769289  0.098007  0.901993  1
  As  As13  1  0.269289  0.401993  0.598007  1
  As  As14  1  0.230711  0.901993  0.098007  1
  As  As15  1  0.730711  0.598007  0.401993  1
  In  In16  1  0.000000  0.131527  0.131527  1
  In  In17  1  0.500000  0.368473  0.368473  1
  In  In18  1  0.000000  0.868473  0.868473  1
  In  In19  1  0.500000  0.631527  0.631527  1
  Li  Li20  1  0.000000  0.379659  0.379659  1
  Li  Li21  1  0.500000  0.120341  0.120341  1
  Li  Li22  1  0.000000  0.620341  0.620341  1
  Li  Li23  1  0.500000  0.879659  0.879659  1
