# generated using pymatgen
data_Co2AsClO4
_symmetry_space_group_name_H-M   'P 1'
_cell_length_a   4.99368266
_cell_length_b   6.70605045
_cell_length_c   6.96486211
_cell_angle_alpha   90.00375918
_cell_angle_beta   91.49556806
_cell_angle_gamma   89.99872559
_symmetry_Int_Tables_number   1
_chemical_formula_structural   Co2AsClO4
_chemical_formula_sum   'Co4 As2 Cl2 O8'
_cell_volume   233.15906731
_cell_formula_units_Z   2
loop_
 _symmetry_equiv_pos_site_id
 _symmetry_equiv_pos_as_xyz
  1  'x, y, z'
loop_
 _atom_site_type_symbol
 _atom_site_label
 _atom_site_symmetry_multiplicity
 _atom_site_fract_x
 _atom_site_fract_y
 _atom_site_fract_z
 _atom_site_occupancy
  Co  Co0  1  0.000352  0.999982  0.999752  1
  Co  Co1  1  0.649639  0.749982  0.730464  1
  Co  Co2  1  0.000353  0.500015  0.999757  1
  Co  Co3  1  0.350162  0.250016  0.270447  1
  As  As4  1  0.489869  0.249983  0.760581  1
  As  As5  1  0.510189  0.750016  0.239549  1
  Cl  Cl6  1  0.165544  0.749960  0.767188  1
  Cl  Cl7  1  0.834363  0.250037  0.231918  1
  O  O8  1  0.305854  0.956287  0.201236  1
  O  O9  1  0.675983  0.749993  0.453126  1
  O  O10  1  0.305886  0.543726  0.201197  1
  O  O11  1  0.694471  0.043791  0.798483  1
  O  O12  1  0.322380  0.250008  0.547513  1
  O  O13  1  0.760228  0.750024  0.064351  1
  O  O14  1  0.694447  0.456208  0.798538  1
  O  O15  1  0.240281  0.249972  0.935901  1
