# generated using pymatgen
data_Pr12Fe2I17
_symmetry_space_group_name_H-M   'P 1'
_cell_length_a   10.03488392
_cell_length_b   12.07516268
_cell_length_c   12.10343181
_cell_angle_alpha   74.31390526
_cell_angle_beta   75.31976896
_cell_angle_gamma   65.39640986
_symmetry_Int_Tables_number   1
_chemical_formula_structural   Pr12Fe2I17
_chemical_formula_sum   'Pr12 Fe2 I17'
_cell_volume   1267.06194244
_cell_formula_units_Z   1
loop_
 _symmetry_equiv_pos_site_id
 _symmetry_equiv_pos_as_xyz
  1  'x, y, z'
loop_
 _atom_site_type_symbol
 _atom_site_label
 _atom_site_symmetry_multiplicity
 _atom_site_fract_x
 _atom_site_fract_y
 _atom_site_fract_z
 _atom_site_occupancy
  Pr  Pr0  1  0.452188  0.489825  0.323078  1
  Pr  Pr1  1  0.819790  0.188877  0.583354  1
  Pr  Pr2  1  0.590773  0.759146  0.282345  1
  Pr  Pr3  1  0.180210  0.811123  0.416646  1
  Pr  Pr4  1  0.447727  0.330129  0.987945  1
  Pr  Pr5  1  0.725455  0.014606  0.892495  1
  Pr  Pr6  1  0.409227  0.240854  0.717655  1
  Pr  Pr7  1  0.547812  0.510175  0.676922  1
  Pr  Pr8  1  0.274545  0.985394  0.107505  1
  Pr  Pr9  1  0.141055  0.712744  0.153048  1
  Pr  Pr10  1  0.552273  0.669871  0.012055  1
  Pr  Pr11  1  0.858945  0.287256  0.846952  1
  Fe  Fe12  1  0.633920  0.261944  0.785506  1
  Fe  Fe13  1  0.366080  0.738056  0.214494  1
  I  I14  1  0.745241  0.470803  0.416915  1
  I  I15  1  0.778850  0.581685  0.757462  1
  I  I16  1  0.051945  0.106288  0.323211  1
  I  I17  1  0.886719  0.788169  0.370446  1
  I  I18  1  0.948055  0.893712  0.676789  1
  I  I19  1  0.464279  0.946557  0.842039  1
  I  I20  1  0.429084  0.818776  0.537282  1
  I  I21  1  0.158040  0.294154  0.952672  1
  I  I22  1  0.221150  0.418315  0.242538  1
  I  I23  1  0.254759  0.529197  0.583085  1
  I  I24  1  0.310650  0.633384  0.896147  1
  I  I25  1  0.841960  0.705846  0.047328  1
  I  I26  1  0.000000  0.000000  0.000000  1
  I  I27  1  0.570916  0.181224  0.462718  1
  I  I28  1  0.535721  0.053443  0.157961  1
  I  I29  1  0.113281  0.211832  0.629554  1
  I  I30  1  0.689350  0.366616  0.103853  1
