# generated using pymatgen
data_SbSNF5
_symmetry_space_group_name_H-M   'P 1'
_cell_length_a   8.58904832
_cell_length_b   15.97295403
_cell_length_c   16.50851141
_cell_angle_alpha   90.00000000
_cell_angle_beta   90.00000000
_cell_angle_gamma   100.57924321
_symmetry_Int_Tables_number   1
_chemical_formula_structural   SbSNF5
_chemical_formula_sum   'Sb16 S16 N16 F80'
_cell_volume   2226.34554300
_cell_formula_units_Z   16
loop_
 _symmetry_equiv_pos_site_id
 _symmetry_equiv_pos_as_xyz
  1  'x, y, z'
loop_
 _atom_site_type_symbol
 _atom_site_label
 _atom_site_symmetry_multiplicity
 _atom_site_fract_x
 _atom_site_fract_y
 _atom_site_fract_z
 _atom_site_occupancy
  Sb  Sb0  1  0.941339  0.744427  0.755039  1
  Sb  Sb1  1  0.941339  0.244427  0.744961  1
  Sb  Sb2  1  0.609834  0.294974  0.022395  1
  Sb  Sb3  1  0.058661  0.255573  0.244961  1
  Sb  Sb4  1  0.627392  0.970120  0.168081  1
  Sb  Sb5  1  0.524387  0.679061  0.215235  1
  Sb  Sb6  1  0.372608  0.029880  0.831919  1
  Sb  Sb7  1  0.524387  0.179061  0.284765  1
  Sb  Sb8  1  0.372608  0.529880  0.668081  1
  Sb  Sb9  1  0.627392  0.470120  0.331919  1
  Sb  Sb10  1  0.390166  0.705026  0.977605  1
  Sb  Sb11  1  0.609834  0.794974  0.477605  1
  Sb  Sb12  1  0.390166  0.205026  0.522395  1
  Sb  Sb13  1  0.058661  0.755573  0.255039  1
  Sb  Sb14  1  0.475613  0.320939  0.784765  1
  Sb  Sb15  1  0.475613  0.820939  0.715235  1
  S  S16  1  0.045244  0.136353  0.993649  1
  S  S17  1  0.863483  0.993260  0.890785  1
  S  S18  1  0.136517  0.006740  0.109215  1
  S  S19  1  0.863483  0.493260  0.609215  1
  S  S20  1  0.958061  0.493423  0.871299  1
  S  S21  1  0.041939  0.506577  0.128701  1
  S  S22  1  0.041939  0.006577  0.371299  1
  S  S23  1  0.809670  0.568386  0.013984  1
  S  S24  1  0.958061  0.993423  0.628701  1
  S  S25  1  0.190330  0.931614  0.513984  1
  S  S26  1  0.190330  0.431614  0.986016  1
  S  S27  1  0.045244  0.636353  0.506351  1
  S  S28  1  0.136517  0.506740  0.390785  1
  S  S29  1  0.954756  0.363647  0.493649  1
  S  S30  1  0.954756  0.863647  0.006351  1
  S  S31  1  0.809670  0.068386  0.486016  1
  N  N32  1  0.908979  0.046316  0.412420  1
  N  N33  1  0.116488  0.590640  0.435235  1
  N  N34  1  0.091021  0.953684  0.587580  1
  N  N35  1  0.146882  0.460580  0.072476  1
  N  N36  1  0.853118  0.039420  0.572476  1
  N  N37  1  0.056224  0.420329  0.428987  1
  N  N38  1  0.056224  0.920329  0.071013  1
  N  N39  1  0.116488  0.090640  0.064765  1
  N  N40  1  0.091021  0.453684  0.912420  1
  N  N41  1  0.943776  0.579671  0.571013  1
  N  N42  1  0.883512  0.909360  0.935235  1
  N  N43  1  0.943776  0.079671  0.928987  1
  N  N44  1  0.853118  0.539420  0.927524  1
  N  N45  1  0.883512  0.409360  0.564765  1
  N  N46  1  0.908979  0.546316  0.087580  1
  N  N47  1  0.146882  0.960580  0.427524  1
  F  F48  1  0.396428  0.734371  0.478173  1
  F  F49  1  0.360659  0.144752  0.861658  1
  F  F50  1  0.603572  0.265629  0.521827  1
  F  F51  1  0.396428  0.234371  0.021827  1
  F  F52  1  0.165603  0.246435  0.754487  1
  F  F53  1  0.508523  0.065232  0.743358  1
  F  F54  1  0.809380  0.976452  0.235835  1
  F  F55  1  0.639341  0.855248  0.138342  1
  F  F56  1  0.834397  0.253565  0.254487  1
  F  F57  1  0.377775  0.407817  0.693112  1
  F  F58  1  0.066515  0.743519  0.139544  1
  F  F59  1  0.491477  0.434768  0.243358  1
  F  F60  1  0.066515  0.243519  0.360456  1
  F  F61  1  0.820257  0.362393  0.014515  1
  F  F62  1  0.377775  0.907817  0.806888  1
  F  F63  1  0.464048  0.098959  0.522718  1
  F  F64  1  0.636474  0.119619  0.361033  1
  F  F65  1  0.809380  0.476452  0.264165  1
  F  F66  1  0.381958  0.208125  0.637662  1
  F  F67  1  0.165603  0.746435  0.745513  1
  F  F68  1  0.397549  0.203848  0.401402  1
  F  F69  1  0.020358  0.134103  0.233390  1
  F  F70  1  0.618042  0.791875  0.362338  1
  F  F71  1  0.694771  0.693541  0.486406  1
  F  F72  1  0.020358  0.634103  0.266610  1
  F  F73  1  0.305229  0.806459  0.986406  1
  F  F74  1  0.283614  0.256463  0.237744  1
  F  F75  1  0.655574  0.914064  0.721011  1
  F  F76  1  0.618042  0.291875  0.137662  1
  F  F77  1  0.464048  0.598959  0.977282  1
  F  F78  1  0.952643  0.232722  0.629364  1
  F  F79  1  0.363526  0.380381  0.861033  1
  F  F80  1  0.047357  0.767278  0.370636  1
  F  F81  1  0.047357  0.267278  0.129364  1
  F  F82  1  0.639341  0.355248  0.361658  1
  F  F83  1  0.099058  0.877532  0.245720  1
  F  F84  1  0.451375  0.972017  0.097790  1
  F  F85  1  0.602451  0.296152  0.901402  1
  F  F86  1  0.344426  0.585936  0.221011  1
  F  F87  1  0.694771  0.193541  0.013594  1
  F  F88  1  0.655574  0.414064  0.778989  1
  F  F89  1  0.952643  0.732722  0.870636  1
  F  F90  1  0.769219  0.010470  0.080065  1
  F  F91  1  0.179743  0.137607  0.514515  1
  F  F92  1  0.179743  0.637607  0.985485  1
  F  F93  1  0.769219  0.510470  0.419935  1
  F  F94  1  0.283614  0.756463  0.262256  1
  F  F95  1  0.190620  0.023548  0.764165  1
  F  F96  1  0.900942  0.122468  0.754280  1
  F  F97  1  0.933485  0.756481  0.639544  1
  F  F98  1  0.979642  0.865897  0.766610  1
  F  F99  1  0.381958  0.708125  0.862338  1
  F  F100  1  0.535952  0.401041  0.022718  1
  F  F101  1  0.622225  0.092183  0.193112  1
  F  F102  1  0.099058  0.377532  0.254280  1
  F  F103  1  0.491477  0.934768  0.256642  1
  F  F104  1  0.548625  0.527983  0.597790  1
  F  F105  1  0.230781  0.989530  0.919935  1
  F  F106  1  0.360659  0.644752  0.638342  1
  F  F107  1  0.548625  0.027983  0.902210  1
  F  F108  1  0.834397  0.753565  0.245513  1
  F  F109  1  0.344426  0.085936  0.278989  1
  F  F110  1  0.636474  0.619619  0.138967  1
  F  F111  1  0.451375  0.472017  0.402210  1
  F  F112  1  0.622225  0.592183  0.306888  1
  F  F113  1  0.820257  0.862393  0.485485  1
  F  F114  1  0.535952  0.901041  0.477282  1
  F  F115  1  0.716386  0.743537  0.762256  1
  F  F116  1  0.602451  0.796152  0.598598  1
  F  F117  1  0.363526  0.880381  0.638967  1
  F  F118  1  0.508523  0.565232  0.756642  1
  F  F119  1  0.716386  0.243537  0.737744  1
  F  F120  1  0.397549  0.703848  0.098598  1
  F  F121  1  0.305229  0.306459  0.513594  1
  F  F122  1  0.190620  0.523548  0.735835  1
  F  F123  1  0.603572  0.765629  0.978173  1
  F  F124  1  0.230781  0.489530  0.580065  1
  F  F125  1  0.979642  0.365897  0.733390  1
  F  F126  1  0.900942  0.622468  0.745720  1
  F  F127  1  0.933485  0.256481  0.860456  1
