# generated using pymatgen
data_Mg2SiO4
_symmetry_space_group_name_H-M   'P 1'
_cell_length_a   4.80034779
_cell_length_b   6.08091094
_cell_length_c   10.48072831
_cell_angle_alpha   90.00000000
_cell_angle_beta   89.91906728
_cell_angle_gamma   90.00000000
_symmetry_Int_Tables_number   1
_chemical_formula_structural   Mg2SiO4
_chemical_formula_sum   'Mg8 Si4 O16'
_cell_volume   305.93726252
_cell_formula_units_Z   4
loop_
 _symmetry_equiv_pos_site_id
 _symmetry_equiv_pos_as_xyz
  1  'x, y, z'
loop_
 _atom_site_type_symbol
 _atom_site_label
 _atom_site_symmetry_multiplicity
 _atom_site_fract_x
 _atom_site_fract_y
 _atom_site_fract_z
 _atom_site_occupancy
  Mg  Mg0  1  0.502619  0.743079  0.258465  1
  Mg  Mg1  1  0.497381  0.256921  0.741535  1
  Mg  Mg2  1  0.500000  0.000000  0.500000  1
  Mg  Mg3  1  0.502619  0.256921  0.258465  1
  Mg  Mg4  1  0.497381  0.743079  0.741535  1
  Mg  Mg5  1  0.000000  0.500000  0.500000  1
  Mg  Mg6  1  0.500000  0.000000  0.000000  1
  Mg  Mg7  1  0.500000  0.500000  0.000000  1
  Si  Si8  1  0.907322  0.500000  0.834768  1
  Si  Si9  1  0.092678  0.500000  0.165232  1
  Si  Si10  1  0.081752  0.000000  0.669345  1
  Si  Si11  1  0.918248  0.000000  0.330655  1
  O  O12  1  0.258170  0.285104  0.097168  1
  O  O13  1  0.245141  0.500000  0.833572  1
  O  O14  1  0.258170  0.714896  0.097168  1
  O  O15  1  0.255879  0.000000  0.808523  1
  O  O16  1  0.741830  0.714896  0.902832  1
  O  O17  1  0.224742  0.784116  0.593467  1
  O  O18  1  0.741830  0.285104  0.902832  1
  O  O19  1  0.224742  0.215884  0.593467  1
  O  O20  1  0.775258  0.784116  0.406533  1
  O  O21  1  0.743340  0.000000  0.666865  1
  O  O22  1  0.227957  0.500000  0.313376  1
  O  O23  1  0.256660  0.000000  0.333135  1
  O  O24  1  0.754859  0.500000  0.166428  1
  O  O25  1  0.772043  0.500000  0.686624  1
  O  O26  1  0.744121  0.000000  0.191477  1
  O  O27  1  0.775258  0.215884  0.406533  1
