# generated using pymatgen
data_La9(SbO)5
_symmetry_space_group_name_H-M   'P 1'
_cell_length_a   9.39782111
_cell_length_b   10.47311794
_cell_length_c   10.47311794
_cell_angle_alpha   90.00000000
_cell_angle_beta   90.00000000
_cell_angle_gamma   90.00000000
_symmetry_Int_Tables_number   1
_chemical_formula_structural   La9(SbO)5
_chemical_formula_sum   'La18 Sb10 O10'
_cell_volume   1030.81128006
_cell_formula_units_Z   2
loop_
 _symmetry_equiv_pos_site_id
 _symmetry_equiv_pos_as_xyz
  1  'x, y, z'
loop_
 _atom_site_type_symbol
 _atom_site_label
 _atom_site_symmetry_multiplicity
 _atom_site_fract_x
 _atom_site_fract_y
 _atom_site_fract_z
 _atom_site_occupancy
  La  La0  1  0.329373  0.250000  0.250000  1
  La  La1  1  0.670627  0.750000  0.750000  1
  La  La2  1  0.343603  0.853566  0.046343  1
  La  La3  1  0.343603  0.453657  0.853566  1
  La  La4  1  0.343603  0.046343  0.646434  1
  La  La5  1  0.343603  0.646434  0.453657  1
  La  La6  1  0.656397  0.146434  0.953657  1
  La  La7  1  0.656397  0.546343  0.146434  1
  La  La8  1  0.656397  0.953657  0.353566  1
  La  La9  1  0.656397  0.353566  0.546343  1
  La  La10  1  0.997929  0.477894  0.330672  1
  La  La11  1  0.997929  0.169328  0.477894  1
  La  La12  1  0.997929  0.330672  0.022106  1
  La  La13  1  0.997929  0.022106  0.169328  1
  La  La14  1  0.002071  0.522106  0.669328  1
  La  La15  1  0.002071  0.830672  0.522106  1
  La  La16  1  0.002071  0.669328  0.977894  1
  La  La17  1  0.002071  0.977894  0.830672  1
  Sb  Sb18  1  0.690005  0.250000  0.250000  1
  Sb  Sb19  1  0.309995  0.750000  0.750000  1
  Sb  Sb20  1  0.298344  0.152566  0.947376  1
  Sb  Sb21  1  0.298344  0.552624  0.152566  1
  Sb  Sb22  1  0.298344  0.947376  0.347434  1
  Sb  Sb23  1  0.298344  0.347434  0.552624  1
  Sb  Sb24  1  0.701656  0.847434  0.052624  1
  Sb  Sb25  1  0.701656  0.447376  0.847434  1
  Sb  Sb26  1  0.701656  0.052624  0.652566  1
  Sb  Sb27  1  0.701656  0.652566  0.447376  1
  O  O28  1  0.072409  0.250000  0.250000  1
  O  O29  1  0.927591  0.750000  0.750000  1
  O  O30  1  0.909195  0.526058  0.129165  1
  O  O31  1  0.909195  0.370835  0.526058  1
  O  O32  1  0.909195  0.129165  0.973942  1
  O  O33  1  0.909195  0.973942  0.370835  1
  O  O34  1  0.090805  0.473942  0.870835  1
  O  O35  1  0.090805  0.629165  0.473942  1
  O  O36  1  0.090805  0.870835  0.026058  1
  O  O37  1  0.090805  0.026058  0.629165  1
