# generated using pymatgen
data_Dy2MoO6
_symmetry_space_group_name_H-M   'P 1'
_cell_length_a   5.40185415
_cell_length_b   9.94655655
_cell_length_c   9.94655656
_cell_angle_alpha   68.14716813
_cell_angle_beta   75.06791810
_cell_angle_gamma   75.06791808
_symmetry_Int_Tables_number   1
_chemical_formula_structural   Dy2MoO6
_chemical_formula_sum   'Dy8 Mo4 O24'
_cell_volume   471.41366436
_cell_formula_units_Z   4
loop_
 _symmetry_equiv_pos_site_id
 _symmetry_equiv_pos_as_xyz
  1  'x, y, z'
loop_
 _atom_site_type_symbol
 _atom_site_label
 _atom_site_symmetry_multiplicity
 _atom_site_fract_x
 _atom_site_fract_y
 _atom_site_fract_z
 _atom_site_occupancy
  O  O0  1  0.922104  0.573502  0.609282  1
  O  O1  1  0.577896  0.390718  0.426498  1
  O  O2  1  0.077896  0.426498  0.390718  1
  O  O3  1  0.422104  0.609282  0.573502  1
  O  O4  1  0.917532  0.807821  0.337871  1
  O  O5  1  0.582468  0.662129  0.192179  1
  O  O6  1  0.082468  0.192179  0.662129  1
  O  O7  1  0.417532  0.337871  0.807821  1
  O  O8  1  0.373132  0.883795  0.325705  1
  O  O9  1  0.126868  0.674295  0.116205  1
  O  O10  1  0.626868  0.116205  0.674295  1
  O  O11  1  0.873132  0.325705  0.883795  1
  O  O12  1  0.637325  0.288864  0.183075  1
  O  O13  1  0.862675  0.816925  0.711136  1
  O  O14  1  0.362675  0.711136  0.816925  1
  O  O15  1  0.137325  0.183075  0.288864  1
  O  O16  1  0.515121  0.110775  0.047575  1
  O  O17  1  0.984879  0.952425  0.889225  1
  O  O18  1  0.484879  0.889225  0.952425  1
  O  O19  1  0.015121  0.047575  0.110775  1
  O  O20  1  0.255766  0.432538  0.025143  1
  O  O21  1  0.244234  0.974857  0.567462  1
  O  O22  1  0.744234  0.567462  0.974857  1
  O  O23  1  0.755766  0.025143  0.432538  1
  Mo  Mo24  1  0.061132  0.010927  0.296590  1
  Mo  Mo25  1  0.438868  0.703410  0.989073  1
  Mo  Mo26  1  0.938868  0.989073  0.703410  1
  Mo  Mo27  1  0.561132  0.296590  0.010927  1
  Dy  Dy28  1  0.378380  0.216022  0.447298  1
  Dy  Dy29  1  0.121620  0.552702  0.783978  1
  Dy  Dy30  1  0.621620  0.783978  0.552702  1
  Dy  Dy31  1  0.878380  0.447298  0.216022  1
  Dy  Dy32  1  0.250000  0.136114  0.863886  1
  Dy  Dy33  1  0.750000  0.863886  0.136114  1
  Dy  Dy34  1  0.250000  0.606569  0.393431  1
  Dy  Dy35  1  0.750000  0.393431  0.606569  1
