# generated using pymatgen
data_K2OsNCl5
_symmetry_space_group_name_H-M   'P 1'
_cell_length_a   8.11283997
_cell_length_b   9.44761463
_cell_length_c   9.44761496
_cell_angle_alpha   119.17860737
_cell_angle_beta   90.00000000
_cell_angle_gamma   90.00000000
_symmetry_Int_Tables_number   1
_chemical_formula_structural   K2OsNCl5
_chemical_formula_sum   'K4 Os2 N2 Cl10'
_cell_volume   632.24197661
_cell_formula_units_Z   2
loop_
 _symmetry_equiv_pos_site_id
 _symmetry_equiv_pos_as_xyz
  1  'x, y, z'
loop_
 _atom_site_type_symbol
 _atom_site_label
 _atom_site_symmetry_multiplicity
 _atom_site_fract_x
 _atom_site_fract_y
 _atom_site_fract_z
 _atom_site_occupancy
  K  K0  1  0.895821  0.671065  0.328935  1
  K  K1  1  0.552615  0.066644  0.933356  1
  K  K2  1  0.395821  0.328935  0.671065  1
  K  K3  1  0.052615  0.933356  0.066644  1
  Os  Os4  1  0.513881  0.825680  0.174320  1
  Os  Os5  1  0.013881  0.174320  0.825680  1
  N  N6  1  0.199546  0.130369  0.869631  1
  N  N7  1  0.699546  0.869631  0.130369  1
  Cl  Cl8  1  0.719044  0.231415  0.768585  1
  Cl  Cl9  1  0.404833  0.096004  0.260664  1
  Cl  Cl10  1  0.561714  0.894621  0.445167  1
  Cl  Cl11  1  0.061714  0.445167  0.894621  1
  Cl  Cl12  1  0.404833  0.739336  0.903996  1
  Cl  Cl13  1  0.219044  0.768585  0.231415  1
  Cl  Cl14  1  0.561714  0.554833  0.105379  1
  Cl  Cl15  1  0.904833  0.903996  0.739336  1
  Cl  Cl16  1  0.061714  0.105379  0.554833  1
  Cl  Cl17  1  0.904833  0.260664  0.096004  1
