# generated using pymatgen
data_DyFe2SiC
_symmetry_space_group_name_H-M   'P 1'
_cell_length_a   3.75281597
_cell_length_b   5.53508831
_cell_length_c   6.75432342
_cell_angle_alpha   90.00000000
_cell_angle_beta   90.00000000
_cell_angle_gamma   109.81610401
_symmetry_Int_Tables_number   1
_chemical_formula_structural   DyFe2SiC
_chemical_formula_sum   'Dy2 Fe4 Si2 C2'
_cell_volume   131.99403351
_cell_formula_units_Z   2
loop_
 _symmetry_equiv_pos_site_id
 _symmetry_equiv_pos_as_xyz
  1  'x, y, z'
loop_
 _atom_site_type_symbol
 _atom_site_label
 _atom_site_symmetry_multiplicity
 _atom_site_fract_x
 _atom_site_fract_y
 _atom_site_fract_z
 _atom_site_occupancy
  Dy  Dy0  1  0.950095  0.900191  0.250000  1
  Dy  Dy1  1  0.049905  0.099809  0.750000  1
  Fe  Fe2  1  0.666035  0.332071  0.062137  1
  Fe  Fe3  1  0.333965  0.667929  0.562137  1
  Fe  Fe4  1  0.666035  0.332071  0.437863  1
  Fe  Fe5  1  0.333965  0.667929  0.937863  1
  Si  Si6  1  0.230212  0.460424  0.250000  1
  Si  Si7  1  0.769788  0.539576  0.750000  1
  C  C8  1  0.500000  0.000000  0.000000  1
  C  C9  1  0.500000  0.000000  0.500000  1
