# generated using pymatgen
data_BaBiClO2
_symmetry_space_group_name_H-M   'P 1'
_cell_length_a   5.78393049
_cell_length_b   5.99401588
_cell_length_c   7.33661281
_cell_angle_alpha   114.12275282
_cell_angle_beta   89.99998300
_cell_angle_gamma   90.00002872
_symmetry_Int_Tables_number   1
_chemical_formula_structural   BaBiClO2
_chemical_formula_sum   'Ba2 Bi2 Cl2 O4'
_cell_volume   232.14068303
_cell_formula_units_Z   2
loop_
 _symmetry_equiv_pos_site_id
 _symmetry_equiv_pos_as_xyz
  1  'x, y, z'
loop_
 _atom_site_type_symbol
 _atom_site_label
 _atom_site_symmetry_multiplicity
 _atom_site_fract_x
 _atom_site_fract_y
 _atom_site_fract_z
 _atom_site_occupancy
  Ba  Ba0  1  0.750000  0.382574  0.765131  1
  Cl  Cl1  1  0.750000  0.745815  0.491732  1
  O  O2  1  0.500033  0.772416  0.000067  1
  O  O3  1  0.499967  0.227584  0.999934  1
  Bi  Bi4  1  0.750000  0.074205  0.148153  1
  Cl  Cl5  1  0.250000  0.254184  0.508267  1
  Bi  Bi6  1  0.250000  0.925795  0.851847  1
  O  O7  1  0.999968  0.772416  0.000067  1
  O  O8  1  0.000032  0.227584  0.999934  1
  Ba  Ba9  1  0.250000  0.617427  0.234869  1
