# generated using pymatgen
data_Na2Te3Mo3O16
_symmetry_space_group_name_H-M   'P 1'
_cell_length_a   7.49086328
_cell_length_b   7.79623386
_cell_length_c   7.79623312
_cell_angle_alpha   95.40378581
_cell_angle_beta   114.58602154
_cell_angle_gamma   114.58601814
_symmetry_Int_Tables_number   1
_chemical_formula_structural   Na2Te3Mo3O16
_chemical_formula_sum   'Na2 Te3 Mo3 O16'
_cell_volume   356.27861920
_cell_formula_units_Z   1
loop_
 _symmetry_equiv_pos_site_id
 _symmetry_equiv_pos_as_xyz
  1  'x, y, z'
loop_
 _atom_site_type_symbol
 _atom_site_label
 _atom_site_symmetry_multiplicity
 _atom_site_fract_x
 _atom_site_fract_y
 _atom_site_fract_z
 _atom_site_occupancy
  Na  Na0  1  0.500000  0.932789  0.067211  1
  Na  Na1  1  1.000000  0.517090  0.482910  1
  Te  Te2  1  1.000000  0.013420  0.986580  1
  Te  Te3  1  0.501320  0.391895  0.049643  1
  Te  Te4  1  0.498680  0.950357  0.608105  1
  Mo  Mo5  1  0.973820  0.486009  0.967793  1
  Mo  Mo6  1  0.026180  0.032207  0.513991  1
  Mo  Mo7  1  0.500000  0.419400  0.580600  1
  O  O8  1  0.236187  0.154730  0.409183  1
  O  O9  1  0.887398  0.169174  0.441948  1
  O  O10  1  0.763813  0.590817  0.845270  1
  O  O11  1  0.112602  0.558052  0.830826  1
  O  O12  1  0.834745  0.812520  0.309096  1
  O  O13  1  0.661171  0.239285  0.703932  1
  O  O14  1  0.629847  0.460325  0.432724  1
  O  O15  1  0.338829  0.296068  0.760715  1
  O  O16  1  0.929382  0.960958  0.710927  1
  O  O17  1  0.165255  0.690904  0.187480  1
  O  O18  1  0.070618  0.289073  0.039042  1
  O  O19  1  0.338751  0.130567  0.065509  1
  O  O20  1  0.661249  0.934491  0.869433  1
  O  O21  1  0.370153  0.567276  0.539675  1
  O  O22  1  0.756762  0.365848  0.106616  1
  O  O23  1  0.243238  0.893384  0.634152  1
