# generated using pymatgen
data_Na2PHO3
_symmetry_space_group_name_H-M   'P 1'
_cell_length_a   5.14129480
_cell_length_b   7.07583147
_cell_length_c   9.78090701
_cell_angle_alpha   90.00000000
_cell_angle_beta   92.42504507
_cell_angle_gamma   90.00000000
_symmetry_Int_Tables_number   1
_chemical_formula_structural   Na2PHO3
_chemical_formula_sum   'Na8 P4 H4 O12'
_cell_volume   355.50032512
_cell_formula_units_Z   4
loop_
 _symmetry_equiv_pos_site_id
 _symmetry_equiv_pos_as_xyz
  1  'x, y, z'
loop_
 _atom_site_type_symbol
 _atom_site_label
 _atom_site_symmetry_multiplicity
 _atom_site_fract_x
 _atom_site_fract_y
 _atom_site_fract_z
 _atom_site_occupancy
  Na  Na0  1  0.723054  0.938809  0.253617  1
  Na  Na1  1  0.776946  0.438809  0.246383  1
  Na  Na2  1  0.223044  0.692125  0.104327  1
  Na  Na3  1  0.276956  0.192125  0.395673  1
  Na  Na4  1  0.276946  0.061191  0.746383  1
  Na  Na5  1  0.776956  0.307875  0.895673  1
  Na  Na6  1  0.723044  0.807875  0.604327  1
  Na  Na7  1  0.223054  0.561191  0.753617  1
  P  P8  1  0.183479  0.740490  0.426706  1
  P  P9  1  0.316521  0.240490  0.073294  1
  P  P10  1  0.816521  0.259510  0.573294  1
  P  P11  1  0.683479  0.759510  0.926706  1
  H  H12  1  0.326214  0.570391  0.413714  1
  H  H13  1  0.826214  0.929609  0.913714  1
  H  H14  1  0.173786  0.070391  0.086286  1
  H  H15  1  0.673786  0.429609  0.586286  1
  O  O16  1  0.718109  0.125445  0.684789  1
  O  O17  1  0.746048  0.690581  0.074373  1
  O  O18  1  0.781891  0.625445  0.815211  1
  O  O19  1  0.246048  0.809419  0.574373  1
  O  O20  1  0.893621  0.692827  0.400908  1
  O  O21  1  0.253952  0.309419  0.925627  1
  O  O22  1  0.281891  0.874555  0.315211  1
  O  O23  1  0.106379  0.307173  0.599092  1
  O  O24  1  0.218109  0.374555  0.184789  1
  O  O25  1  0.753952  0.190581  0.425627  1
  O  O26  1  0.606379  0.192827  0.099092  1
  O  O27  1  0.393621  0.807173  0.900908  1
