# generated using pymatgen
data_SiO2
_symmetry_space_group_name_H-M   'P 1'
_cell_length_a   14.07355399
_cell_length_b   14.07355374
_cell_length_c   14.07355403
_cell_angle_alpha   95.60556281
_cell_angle_beta   114.98069012
_cell_angle_gamma   118.68590395
_symmetry_Int_Tables_number   1
_chemical_formula_structural   SiO2
_chemical_formula_sum   'Si36 O72'
_cell_volume   2052.35075532
_cell_formula_units_Z   36
loop_
 _symmetry_equiv_pos_site_id
 _symmetry_equiv_pos_as_xyz
  1  'x, y, z'
loop_
 _atom_site_type_symbol
 _atom_site_label
 _atom_site_symmetry_multiplicity
 _atom_site_fract_x
 _atom_site_fract_y
 _atom_site_fract_z
 _atom_site_occupancy
  Si  Si0  1  0.637353  0.869350  0.934893  1
  Si  Si1  1  0.707702  0.873894  0.179673  1
  Si  Si2  1  0.805779  0.471971  0.679673  1
  Si  Si3  1  0.292298  0.471971  0.166192  1
  Si  Si4  1  0.039315  0.101988  0.772633  1
  Si  Si5  1  0.500000  0.731133  0.231133  1
  Si  Si6  1  0.829355  0.101988  0.562673  1
  Si  Si7  1  0.362647  0.130650  0.065107  1
  Si  Si8  1  0.960685  0.733318  0.062673  1
  Si  Si9  1  0.565543  0.297540  0.434893  1
  Si  Si10  1  0.631876  0.135234  0.796560  1
  Si  Si11  1  0.838674  0.835316  0.703440  1
  Si  Si12  1  0.292298  0.126106  0.820327  1
  Si  Si13  1  0.000000  0.731133  0.731133  1
  Si  Si14  1  0.434457  0.869350  0.731996  1
  Si  Si15  1  0.434457  0.702460  0.565107  1
  Si  Si16  1  0.039315  0.266682  0.937327  1
  Si  Si17  1  0.805779  0.126106  0.333808  1
  Si  Si18  1  0.194221  0.528029  0.320327  1
  Si  Si19  1  0.368124  0.164684  0.503358  1
  Si  Si20  1  0.707702  0.528029  0.833808  1
  Si  Si21  1  0.565543  0.130650  0.268004  1
  Si  Si22  1  0.960685  0.898012  0.227367  1
  Si  Si23  1  0.161326  0.864766  0.996642  1
  Si  Si24  1  0.368124  0.864766  0.203440  1
  Si  Si25  1  0.500000  0.268867  0.768867  1
  Si  Si26  1  0.838674  0.135234  0.003358  1
  Si  Si27  1  0.637353  0.702460  0.768004  1
  Si  Si28  1  0.161326  0.164684  0.296560  1
  Si  Si29  1  1.000000  0.268867  0.268867  1
  Si  Si30  1  0.194221  0.873894  0.666192  1
  Si  Si31  1  0.170645  0.898012  0.437327  1
  Si  Si32  1  0.170645  0.733318  0.272633  1
  Si  Si33  1  0.362647  0.297540  0.231996  1
  Si  Si34  1  0.631876  0.835316  0.496642  1
  Si  Si35  1  0.829355  0.266682  0.727367  1
  O  O36  1  0.510543  0.655432  0.644889  1
  O  O37  1  0.510543  0.865654  0.855111  1
  O  O38  1  0.303293  0.848585  0.712924  1
  O  O39  1  0.739486  0.163410  0.923924  1
  O  O40  1  0.524381  0.796283  0.529408  1
  O  O41  1  0.698290  0.972581  0.514246  1
  O  O42  1  0.390132  0.591896  0.160791  1
  O  O43  1  0.233126  0.005027  0.029408  1
  O  O44  1  0.635661  0.848585  0.045292  1
  O  O45  1  0.952912  0.109650  0.656738  1
  O  O46  1  0.364339  0.409631  0.212924  1
  O  O47  1  0.849896  0.388891  0.722196  1
  O  O48  1  0.081542  0.198920  0.882622  1
  O  O49  1  0.390132  0.229340  0.798235  1
  O  O50  1  0.635661  0.590369  0.787076  1
  O  O51  1  0.749472  0.500000  0.749472  1
  O  O52  1  0.931105  0.591896  0.701765  1
  O  O53  1  0.931105  0.229340  0.339209  1
  O  O54  1  0.475619  0.203717  0.470592  1
  O  O55  1  0.609868  0.770660  0.201765  1
  O  O56  1  0.166695  0.388891  0.038995  1
  O  O57  1  0.364339  0.151415  0.954708  1
  O  O58  1  0.696707  0.151415  0.287076  1
  O  O59  1  0.150104  0.611109  0.277804  1
  O  O60  1  0.958335  0.972581  0.774291  1
  O  O61  1  0.047088  0.703826  0.156738  1
  O  O62  1  0.833305  0.872300  0.222196  1
  O  O63  1  0.365563  0.233523  0.132040  1
  O  O64  1  0.436752  0.243334  0.634219  1
  O  O65  1  0.150104  0.872300  0.538995  1
  O  O66  1  0.041665  0.027419  0.225709  1
  O  O67  1  0.041665  0.815956  0.014246  1
  O  O68  1  0.739486  0.815562  0.576076  1
  O  O69  1  0.436752  0.802533  0.193417  1
  O  O70  1  0.303293  0.590369  0.454708  1
  O  O71  1  0.047088  0.890350  0.343262  1
  O  O72  1  0.475619  0.005027  0.271902  1
  O  O73  1  0.563248  0.197467  0.806583  1
  O  O74  1  0.766874  0.796283  0.771902  1
  O  O75  1  0.958335  0.184044  0.985754  1
  O  O76  1  0.890885  0.197467  0.134219  1
  O  O77  1  0.696707  0.409631  0.545292  1
  O  O78  1  0.766874  0.994973  0.970592  1
  O  O79  1  0.563248  0.756666  0.365781  1
  O  O80  1  0.849896  0.127700  0.461005  1
  O  O81  1  0.109115  0.243334  0.306583  1
  O  O82  1  0.068895  0.408104  0.298235  1
  O  O83  1  0.260514  0.184438  0.423924  1
  O  O84  1  0.301710  0.815956  0.274291  1
  O  O85  1  0.816298  0.198920  0.617378  1
  O  O86  1  0.698290  0.184044  0.725709  1
  O  O87  1  0.109115  0.802533  0.865781  1
  O  O88  1  0.489457  0.134346  0.144889  1
  O  O89  1  0.068895  0.770660  0.660791  1
  O  O90  1  0.749472  0.000000  0.249472  1
  O  O91  1  0.890885  0.756666  0.693417  1
  O  O92  1  0.233126  0.203717  0.228098  1
  O  O93  1  0.183702  0.801080  0.382622  1
  O  O94  1  0.250528  0.500000  0.250528  1
  O  O95  1  0.398518  0.766477  0.632040  1
  O  O96  1  0.166695  0.127700  0.777804  1
  O  O97  1  0.952912  0.296174  0.843262  1
  O  O98  1  0.918458  0.801080  0.117378  1
  O  O99  1  0.833305  0.611109  0.961005  1
  O  O100  1  0.524381  0.994973  0.728098  1
  O  O101  1  0.489457  0.344568  0.355111  1
  O  O102  1  0.250528  1.000000  0.750528  1
  O  O103  1  0.634437  0.766477  0.867960  1
  O  O104  1  0.260514  0.836590  0.076076  1
  O  O105  1  0.301710  0.027419  0.485754  1
  O  O106  1  0.609868  0.408104  0.839209  1
  O  O107  1  0.601482  0.233523  0.367960  1
