# generated using pymatgen
data_Al5C3N
_symmetry_space_group_name_H-M   'P 1'
_cell_length_a   3.34566170
_cell_length_b   3.34566170
_cell_length_c   20.97145642
_cell_angle_alpha   90.00000000
_cell_angle_beta   90.00000000
_cell_angle_gamma   119.99999995
_symmetry_Int_Tables_number   1
_chemical_formula_structural   Al5C3N
_chemical_formula_sum   'Al10 C6 N2'
_cell_volume   203.29339760
_cell_formula_units_Z   2
loop_
 _symmetry_equiv_pos_site_id
 _symmetry_equiv_pos_as_xyz
  1  'x, y, z'
loop_
 _atom_site_type_symbol
 _atom_site_label
 _atom_site_symmetry_multiplicity
 _atom_site_fract_x
 _atom_site_fract_y
 _atom_site_fract_z
 _atom_site_occupancy
  C  C0  1  0.333333  0.666667  0.138649  1
  C  C1  1  0.666667  0.333333  0.638649  1
  C  C2  1  0.666667  0.333333  0.858825  1
  C  C3  1  0.333333  0.666667  0.358825  1
  C  C4  1  0.000000  0.000000  0.498664  1
  C  C5  1  0.000000  0.000000  0.998664  1
  N  N6  1  0.000000  0.000000  0.248771  1
  N  N7  1  0.000000  0.000000  0.748771  1
  Al  Al8  1  0.333333  0.666667  0.248839  1
  Al  Al9  1  0.666667  0.333333  0.748839  1
  Al  Al10  1  0.000000  0.000000  0.845190  1
  Al  Al11  1  0.000000  0.000000  0.345190  1
  Al  Al12  1  0.666667  0.333333  0.950921  1
  Al  Al13  1  0.333333  0.666667  0.450921  1
  Al  Al14  1  0.666667  0.333333  0.546561  1
  Al  Al15  1  0.333333  0.666667  0.046561  1
  Al  Al16  1  0.000000  0.000000  0.652381  1
  Al  Al17  1  0.000000  0.000000  0.152381  1
