# generated using pymatgen
data_Li14Ti21O48
_symmetry_space_group_name_H-M   'P 1'
_cell_length_a   5.97534065
_cell_length_b   5.97534095
_cell_length_c   35.80169277
_cell_angle_alpha   60.01329320
_cell_angle_beta   60.01329157
_cell_angle_gamma   60.01493887
_symmetry_Int_Tables_number   1
_chemical_formula_structural   Li14Ti21O48
_chemical_formula_sum   'Li14 Ti21 O48'
_cell_volume   904.17017718
_cell_formula_units_Z   1
loop_
 _symmetry_equiv_pos_site_id
 _symmetry_equiv_pos_as_xyz
  1  'x, y, z'
loop_
 _atom_site_type_symbol
 _atom_site_label
 _atom_site_symmetry_multiplicity
 _atom_site_fract_x
 _atom_site_fract_y
 _atom_site_fract_z
 _atom_site_occupancy
  Li  Li0  1  0.003454  0.003454  0.165144  1
  Li  Li1  1  0.247761  0.247761  0.042518  1
  Li  Li2  1  0.002498  0.002498  0.332163  1
  Li  Li3  1  0.248357  0.248357  0.209042  1
  Li  Li4  1  0.625554  0.625554  0.187188  1
  Li  Li5  1  0.247568  0.247568  0.376149  1
  Li  Li6  1  0.002636  0.002636  0.498803  1
  Li  Li7  1  0.001612  0.001612  0.667702  1
  Li  Li8  1  0.244277  0.244277  0.543753  1
  Li  Li9  1  0.245856  0.245856  0.709229  1
  Li  Li10  1  0.624859  0.624859  0.521449  1
  Li  Li11  1  0.004310  0.004310  0.832213  1
  Li  Li12  1  0.249740  0.249740  0.873682  1
  Li  Li13  1  0.625238  0.625238  0.770632  1
  Ti  Ti14  1  0.112516  0.625774  0.106153  1
  Ti  Ti15  1  0.625774  0.112516  0.106153  1
  Ti  Ti16  1  0.621745  0.621745  0.021269  1
  Ti  Ti17  1  0.625365  0.625365  0.105993  1
  Ti  Ti18  1  0.136163  0.625753  0.268721  1
  Ti  Ti19  1  0.625753  0.136163  0.268721  1
  Ti  Ti20  1  0.113777  0.624367  0.439584  1
  Ti  Ti21  1  0.625815  0.625815  0.268703  1
  Ti  Ti22  1  0.624367  0.113777  0.439584  1
  Ti  Ti23  1  0.624949  0.624949  0.354191  1
  Ti  Ti24  1  0.136060  0.625936  0.601489  1
  Ti  Ti25  1  0.624256  0.624256  0.439628  1
  Ti  Ti26  1  0.625936  0.136060  0.601489  1
  Ti  Ti27  1  0.623940  0.623940  0.603677  1
  Ti  Ti28  1  0.126968  0.625781  0.770327  1
  Ti  Ti29  1  0.625781  0.126968  0.770327  1
  Ti  Ti30  1  0.633051  0.633051  0.689840  1
  Ti  Ti31  1  0.122056  0.626208  0.938602  1
  Ti  Ti32  1  0.626208  0.122056  0.938602  1
  Ti  Ti33  1  0.621172  0.621172  0.850151  1
  Ti  Ti34  1  0.626077  0.626077  0.936985  1
  O  O35  1  0.389617  0.389617  0.064689  1
  O  O36  1  0.389713  0.831259  0.064793  1
  O  O37  1  0.386097  0.386097  0.140312  1
  O  O38  1  0.831259  0.389713  0.064793  1
  O  O39  1  0.375037  0.375037  0.235138  1
  O  O40  1  0.409298  0.875348  0.140086  1
  O  O41  1  0.875348  0.409298  0.140086  1
  O  O42  1  0.387445  0.387445  0.306289  1
  O  O43  1  0.375153  0.838736  0.235093  1
  O  O44  1  0.858387  0.858387  0.070828  1
  O  O45  1  0.838736  0.375153  0.235093  1
  O  O46  1  0.875222  0.875222  0.140173  1
  O  O47  1  0.390391  0.390391  0.397747  1
  O  O48  1  0.417411  0.859616  0.310552  1
  O  O49  1  0.859616  0.417411  0.310552  1
  O  O50  1  0.386217  0.386217  0.473592  1
  O  O51  1  0.863577  0.863577  0.234860  1
  O  O52  1  0.390391  0.832592  0.397778  1
  O  O53  1  0.859645  0.859645  0.310580  1
  O  O54  1  0.832592  0.390391  0.397778  1
  O  O55  1  0.375611  0.375611  0.568091  1
  O  O56  1  0.411084  0.874971  0.473246  1
  O  O57  1  0.874971  0.411084  0.473246  1
  O  O58  1  0.862520  0.862520  0.402064  1
  O  O59  1  0.373860  0.837431  0.568695  1
  O  O60  1  0.387268  0.387268  0.639231  1
  O  O61  1  0.837431  0.373860  0.568695  1
  O  O62  1  0.875070  0.875070  0.473215  1
  O  O63  1  0.388823  0.388823  0.730280  1
  O  O64  1  0.422841  0.862558  0.642017  1
  O  O65  1  0.862558  0.422841  0.642017  1
  O  O66  1  0.377619  0.377619  0.805213  1
  O  O67  1  0.379155  0.839929  0.728270  1
  O  O68  1  0.865909  0.865909  0.567380  1
  O  O69  1  0.839929  0.379155  0.728270  1
  O  O70  1  0.862521  0.862521  0.643334  1
  O  O71  1  0.410086  0.870438  0.813029  1
  O  O72  1  0.386936  0.386936  0.898351  1
  O  O73  1  0.870438  0.410086  0.813029  1
  O  O74  1  0.386475  0.386475  0.973273  1
  O  O75  1  0.872556  0.872556  0.736242  1
  O  O76  1  0.385369  0.832015  0.899567  1
  O  O77  1  0.832015  0.385369  0.899567  1
  O  O78  1  0.860206  0.860206  0.811444  1
  O  O79  1  0.423894  0.859306  0.976519  1
  O  O80  1  0.859306  0.423894  0.976519  1
  O  O81  1  0.863227  0.863227  0.901964  1
  O  O82  1  0.859721  0.859721  0.976561  1
