# generated using pymatgen
data_KCuF3
_symmetry_space_group_name_H-M   'P 1'
_cell_length_a   6.28979021
_cell_length_b   6.28979100
_cell_length_c   6.28979101
_cell_angle_alpha   104.53316705
_cell_angle_beta   111.99525198
_cell_angle_gamma   111.99525751
_symmetry_Int_Tables_number   1
_chemical_formula_structural   KCuF3
_chemical_formula_sum   'K2 Cu2 F6'
_cell_volume   190.49711268
_cell_formula_units_Z   2
loop_
 _symmetry_equiv_pos_site_id
 _symmetry_equiv_pos_as_xyz
  1  'x, y, z'
loop_
 _atom_site_type_symbol
 _atom_site_label
 _atom_site_symmetry_multiplicity
 _atom_site_fract_x
 _atom_site_fract_y
 _atom_site_fract_z
 _atom_site_occupancy
  K  K0  1  0.000000  0.500000  0.500000  1
  K  K1  1  0.000000  -0.000000  -0.000000  1
  Cu  Cu2  1  0.500000  -0.000000  0.500000  1
  Cu  Cu3  1  0.500000  0.500000  -0.000000  1
  F  F4  1  0.500000  0.250000  0.750000  1
  F  F5  1  0.876370  0.688185  0.188185  1
  F  F6  1  0.500000  0.811815  0.688185  1
  F  F7  1  0.500000  0.750000  0.250000  1
  F  F8  1  0.123630  0.311815  0.811815  1
  F  F9  1  0.500000  0.188185  0.311815  1
