# generated using pymatgen
data_Pr30Ti24Se58I8O25
_symmetry_space_group_name_H-M   'P 1'
_cell_length_a   16.68215591
_cell_length_b   16.68215643
_cell_length_c   16.68215657
_cell_angle_alpha   60.00000180
_cell_angle_beta   60.00000078
_cell_angle_gamma   60.00000275
_symmetry_Int_Tables_number   1
_chemical_formula_structural   Pr30Ti24Se58I8O25
_chemical_formula_sum   'Pr30 Ti24 Se58 I8 O25'
_cell_volume   3282.77847924
_cell_formula_units_Z   1
loop_
 _symmetry_equiv_pos_site_id
 _symmetry_equiv_pos_as_xyz
  1  'x, y, z'
loop_
 _atom_site_type_symbol
 _atom_site_label
 _atom_site_symmetry_multiplicity
 _atom_site_fract_x
 _atom_site_fract_y
 _atom_site_fract_z
 _atom_site_occupancy
  Pr  Pr0  1  0.066715  0.762951  0.407383  1
  Pr  Pr1  1  0.407383  0.762951  0.066715  1
  Pr  Pr2  1  0.645101  0.354899  0.354899  1
  Pr  Pr3  1  0.762951  0.066715  0.407383  1
  Pr  Pr4  1  0.237049  0.237049  0.933285  1
  Pr  Pr5  1  0.592617  0.237049  0.237049  1
  Pr  Pr6  1  0.354899  0.645101  0.354899  1
  Pr  Pr7  1  0.066715  0.762951  0.762951  1
  Pr  Pr8  1  0.762951  0.762951  0.407383  1
  Pr  Pr9  1  0.066715  0.407383  0.762951  1
  Pr  Pr10  1  0.354899  0.645101  0.645101  1
  Pr  Pr11  1  0.762951  0.407383  0.066715  1
  Pr  Pr12  1  0.592617  0.933285  0.237049  1
  Pr  Pr13  1  0.762951  0.762951  0.066715  1
  Pr  Pr14  1  0.237049  0.592617  0.237049  1
  Pr  Pr15  1  0.933285  0.592617  0.237049  1
  Pr  Pr16  1  0.237049  0.933285  0.237049  1
  Pr  Pr17  1  0.762951  0.407383  0.762951  1
  Pr  Pr18  1  0.933285  0.237049  0.237049  1
  Pr  Pr19  1  0.237049  0.237049  0.592617  1
  Pr  Pr20  1  0.645101  0.645101  0.354899  1
  Pr  Pr21  1  0.407383  0.066715  0.762951  1
  Pr  Pr22  1  0.592617  0.237049  0.933285  1
  Pr  Pr23  1  0.933285  0.237049  0.592617  1
  Pr  Pr24  1  0.237049  0.933285  0.592617  1
  Pr  Pr25  1  0.762951  0.066715  0.762951  1
  Pr  Pr26  1  0.407383  0.762951  0.762951  1
  Pr  Pr27  1  0.237049  0.592617  0.933285  1
  Pr  Pr28  1  0.645101  0.354899  0.645101  1
  Pr  Pr29  1  0.354899  0.354899  0.645101  1
  Ti  Ti30  1  0.195356  0.500000  0.500000  1
  Ti  Ti31  1  0.195356  0.500000  0.804644  1
  Ti  Ti32  1  0.500000  0.804644  0.500000  1
  Ti  Ti33  1  0.089502  0.910498  0.089502  1
  Ti  Ti34  1  0.804644  0.500000  0.500000  1
  Ti  Ti35  1  0.089502  0.089502  0.910498  1
  Ti  Ti36  1  0.500000  0.500000  0.804644  1
  Ti  Ti37  1  0.500000  0.000000  0.500000  1
  Ti  Ti38  1  0.000000  0.500000  0.500000  1
  Ti  Ti39  1  0.195356  0.804644  0.500000  1
  Ti  Ti40  1  0.500000  0.804644  0.195356  1
  Ti  Ti41  1  0.500000  0.195356  0.500000  1
  Ti  Ti42  1  0.500000  0.195356  0.804644  1
  Ti  Ti43  1  0.804644  0.195356  0.500000  1
  Ti  Ti44  1  0.500000  0.500000  0.000000  1
  Ti  Ti45  1  0.089502  0.910498  0.910498  1
  Ti  Ti46  1  0.000000  0.000000  0.500000  1
  Ti  Ti47  1  0.500000  0.000000  0.000000  1
  Ti  Ti48  1  0.500000  0.500000  0.195356  1
  Ti  Ti49  1  0.804644  0.500000  0.195356  1
  Ti  Ti50  1  0.910498  0.089502  0.910498  1
  Ti  Ti51  1  0.000000  0.500000  0.000000  1
  Ti  Ti52  1  0.910498  0.089502  0.089502  1
  Ti  Ti53  1  0.910498  0.910498  0.089502  1
  Se  Se54  1  0.582642  0.022249  0.582642  1
  Se  Se55  1  0.582541  0.582541  0.252376  1
  Se  Se56  1  0.805901  0.805901  0.194099  1
  Se  Se57  1  0.812467  0.022249  0.582642  1
  Se  Se58  1  0.417459  0.417459  0.747624  1
  Se  Se59  1  0.655554  1.000000  0.344446  1
  Se  Se60  1  0.417358  0.977751  0.417358  1
  Se  Se61  1  0.187533  0.417358  0.977751  1
  Se  Se62  1  0.344446  0.000000  1.000000  1
  Se  Se63  1  0.077824  0.766528  0.077824  1
  Se  Se64  1  0.812467  0.582642  0.582642  1
  Se  Se65  1  0.194099  0.805901  0.194099  1
  Se  Se66  1  0.233472  0.922176  0.922176  1
  Se  Se67  1  0.417358  0.187533  0.977751  1
  Se  Se68  1  0.077824  0.077824  0.077824  1
  Se  Se69  1  0.417358  0.187533  0.417358  1
  Se  Se70  1  0.582642  0.812467  0.022249  1
  Se  Se71  1  0.655554  0.344446  0.000000  1
  Se  Se72  1  0.977751  0.417358  0.417358  1
  Se  Se73  1  0.922176  0.233472  0.922176  1
  Se  Se74  1  0.582642  0.582642  0.812467  1
  Se  Se75  1  0.582642  0.582642  0.022249  1
  Se  Se76  1  0.022249  0.582642  0.812467  1
  Se  Se77  1  0.922176  0.922176  0.922176  1
  Se  Se78  1  0.582541  0.582541  0.582541  1
  Se  Se79  1  0.805901  0.194099  0.194099  1
  Se  Se80  1  0.805901  0.194099  0.805901  1
  Se  Se81  1  0.417358  0.417358  0.187533  1
  Se  Se82  1  0.655554  1.000000  0.000000  1
  Se  Se83  1  0.187533  0.977751  0.417358  1
  Se  Se84  1  1.000000  0.655554  0.344446  1
  Se  Se85  1  0.344446  0.655554  1.000000  1
  Se  Se86  1  0.812467  0.582642  0.022249  1
  Se  Se87  1  0.582642  0.022249  0.812467  1
  Se  Se88  1  0.417358  0.417358  0.977751  1
  Se  Se89  1  0.977751  0.187533  0.417358  1
  Se  Se90  1  0.194099  0.194099  0.805901  1
  Se  Se91  1  0.766528  0.077824  0.077824  1
  Se  Se92  1  0.582642  0.812467  0.582642  1
  Se  Se93  1  0.922176  0.922176  0.233472  1
  Se  Se94  1  0.977751  0.417358  0.187533  1
  Se  Se95  1  0.252376  0.582541  0.582541  1
  Se  Se96  1  0.000000  0.000000  0.344446  1
  Se  Se97  1  1.000000  0.655554  1.000000  1
  Se  Se98  1  0.417459  0.747624  0.417459  1
  Se  Se99  1  0.344446  0.000000  0.655554  1
  Se  Se100  1  0.187533  0.417358  0.417358  1
  Se  Se101  1  0.417459  0.417459  0.417459  1
  Se  Se102  1  0.000000  0.344446  0.655554  1
  Se  Se103  1  0.582541  0.252376  0.582541  1
  Se  Se104  1  0.417358  0.977751  0.187533  1
  Se  Se105  1  0.022249  0.582642  0.582642  1
  Se  Se106  1  0.000000  0.344446  0.000000  1
  Se  Se107  1  0.194099  0.805901  0.805901  1
  Se  Se108  1  1.000000  1.000000  0.655554  1
  Se  Se109  1  0.022249  0.812467  0.582642  1
  Se  Se110  1  0.747624  0.417459  0.417459  1
  Se  Se111  1  0.077824  0.077824  0.766528  1
  I  I112  1  0.173333  0.173333  0.480001  1
  I  I113  1  0.173333  0.173333  0.173333  1
  I  I114  1  0.519999  0.826667  0.826667  1
  I  I115  1  0.480001  0.173333  0.173333  1
  I  I116  1  0.826667  0.519999  0.826667  1
  I  I117  1  0.826667  0.826667  0.826667  1
  I  I118  1  0.826667  0.826667  0.519999  1
  I  I119  1  0.173333  0.480001  0.173333  1
  O  O120  1  0.211079  0.386185  0.788921  1
  O  O121  1  0.386185  0.211079  0.613815  1
  O  O122  1  0.613815  0.386185  0.211079  1
  O  O123  1  0.211079  0.788921  0.386185  1
  O  O124  1  0.788921  0.613815  0.211079  1
  O  O125  1  0.613815  0.211079  0.386185  1
  O  O126  1  0.788921  0.211079  0.613815  1
  O  O127  1  0.386185  0.788921  0.613815  1
  O  O128  1  0.386185  0.788921  0.211079  1
  O  O129  1  0.211079  0.788921  0.613815  1
  O  O130  1  0.788921  0.386185  0.613815  1
  O  O131  1  0.211079  0.613815  0.788921  1
  O  O132  1  0.386185  0.211079  0.788921  1
  O  O133  1  0.000000  0.000000  0.000000  1
  O  O134  1  0.613815  0.211079  0.788921  1
  O  O135  1  0.386185  0.613815  0.788921  1
  O  O136  1  0.788921  0.613815  0.386185  1
  O  O137  1  0.211079  0.386185  0.613815  1
  O  O138  1  0.613815  0.788921  0.211079  1
  O  O139  1  0.211079  0.613815  0.386185  1
  O  O140  1  0.613815  0.386185  0.788921  1
  O  O141  1  0.613815  0.788921  0.386185  1
  O  O142  1  0.386185  0.613815  0.211079  1
  O  O143  1  0.788921  0.386185  0.211079  1
  O  O144  1  0.788921  0.211079  0.386185  1
