# generated using pymatgen
data_TlFeO3
_symmetry_space_group_name_H-M   'P 1'
_cell_length_a   5.41278457
_cell_length_b   5.54951998
_cell_length_c   7.94592858
_cell_angle_alpha   90.00000000
_cell_angle_beta   90.00000000
_cell_angle_gamma   90.00000000
_symmetry_Int_Tables_number   1
_chemical_formula_structural   TlFeO3
_chemical_formula_sum   'Tl4 Fe4 O12'
_cell_volume   238.68263238
_cell_formula_units_Z   4
loop_
 _symmetry_equiv_pos_site_id
 _symmetry_equiv_pos_as_xyz
  1  'x, y, z'
loop_
 _atom_site_type_symbol
 _atom_site_label
 _atom_site_symmetry_multiplicity
 _atom_site_fract_x
 _atom_site_fract_y
 _atom_site_fract_z
 _atom_site_occupancy
  Tl  Tl0  1  0.983113  0.049217  0.250000  1
  Tl  Tl1  1  0.483113  0.450783  0.750000  1
  Tl  Tl2  1  0.516887  0.549217  0.250000  1
  Tl  Tl3  1  0.016887  0.950783  0.750000  1
  Fe  Fe4  1  0.500000  0.000000  0.000000  1
  Fe  Fe5  1  0.000000  0.500000  0.000000  1
  Fe  Fe6  1  0.000000  0.500000  0.500000  1
  Fe  Fe7  1  0.500000  0.000000  0.500000  1
  O  O8  1  0.113866  0.446609  0.250000  1
  O  O9  1  0.613866  0.053391  0.750000  1
  O  O10  1  0.386134  0.946609  0.250000  1
  O  O11  1  0.886134  0.553391  0.750000  1
  O  O12  1  0.696332  0.300463  0.061713  1
  O  O13  1  0.196332  0.199537  0.938287  1
  O  O14  1  0.803668  0.800463  0.438287  1
  O  O15  1  0.303668  0.699537  0.561713  1
  O  O16  1  0.303668  0.699537  0.938287  1
  O  O17  1  0.803668  0.800463  0.061713  1
  O  O18  1  0.196332  0.199537  0.561713  1
  O  O19  1  0.696332  0.300463  0.438287  1
