# generated using pymatgen
data_C2Se3N2
_symmetry_space_group_name_H-M   'P 1'
_cell_length_a   4.85220711
_cell_length_b   10.24817101
_cell_length_c   14.01218870
_cell_angle_alpha   90.00000000
_cell_angle_beta   90.00000000
_cell_angle_gamma   90.00000000
_symmetry_Int_Tables_number   1
_chemical_formula_structural   C2Se3N2
_chemical_formula_sum   'Se12 C8 N8'
_cell_volume   696.77357367
_cell_formula_units_Z   4
loop_
 _symmetry_equiv_pos_site_id
 _symmetry_equiv_pos_as_xyz
  1  'x, y, z'
loop_
 _atom_site_type_symbol
 _atom_site_label
 _atom_site_symmetry_multiplicity
 _atom_site_fract_x
 _atom_site_fract_y
 _atom_site_fract_z
 _atom_site_occupancy
  Se  Se0  1  0.770143  0.058417  0.616351  1
  Se  Se1  1  0.270143  0.441583  0.383649  1
  Se  Se2  1  0.729857  0.558417  0.883649  1
  Se  Se3  1  0.229857  0.941583  0.116351  1
  Se  Se4  1  0.229857  0.941583  0.383649  1
  Se  Se5  1  0.729857  0.558417  0.616351  1
  Se  Se6  1  0.270143  0.441583  0.116351  1
  Se  Se7  1  0.770143  0.058417  0.883649  1
  C  C8  1  0.983568  0.207844  0.606690  1
  C  C9  1  0.483568  0.292156  0.393310  1
  C  C10  1  0.516432  0.707844  0.893310  1
  C  C11  1  0.016432  0.792156  0.106690  1
  C  C12  1  0.016432  0.792156  0.393310  1
  C  C13  1  0.516432  0.707844  0.606690  1
  C  C14  1  0.483568  0.292156  0.106690  1
  C  C15  1  0.983568  0.207844  0.893310  1
  N  N16  1  0.111091  0.304719  0.599387  1
  N  N17  1  0.611091  0.195281  0.400613  1
  N  N18  1  0.388909  0.804719  0.900613  1
  N  N19  1  0.888909  0.695281  0.099387  1
  N  N20  1  0.888909  0.695281  0.400613  1
  N  N21  1  0.388909  0.804719  0.599387  1
  N  N22  1  0.611091  0.195281  0.099387  1
  N  N23  1  0.111091  0.304719  0.900613  1
  Se  Se24  1  0.998606  0.966145  0.750000  1
  Se  Se25  1  0.498606  0.533855  0.250000  1
  Se  Se26  1  0.501394  0.466145  0.750000  1
  Se  Se27  1  0.001394  0.033855  0.250000  1
