# generated using pymatgen
data_Nb3SiNi2
_symmetry_space_group_name_H-M   'P 1'
_cell_length_a   7.93505374
_cell_length_b   7.93505364
_cell_length_c   7.93505411
_cell_angle_alpha   59.99999801
_cell_angle_beta   59.99999842
_cell_angle_gamma   59.99999616
_symmetry_Int_Tables_number   1
_chemical_formula_structural   Nb3SiNi2
_chemical_formula_sum   'Nb12 Si4 Ni8'
_cell_volume   353.29265615
_cell_formula_units_Z   4
loop_
 _symmetry_equiv_pos_site_id
 _symmetry_equiv_pos_as_xyz
  1  'x, y, z'
loop_
 _atom_site_type_symbol
 _atom_site_label
 _atom_site_symmetry_multiplicity
 _atom_site_fract_x
 _atom_site_fract_y
 _atom_site_fract_z
 _atom_site_occupancy
  Si  Si0  1  0.500000  0.500000  0.500000  1
  Si  Si1  1  0.500000  0.500000  0.000000  1
  Si  Si2  1  0.000000  0.500000  0.500000  1
  Si  Si3  1  0.500000  0.000000  0.500000  1
  Ni  Ni4  1  0.707538  0.707538  0.707538  1
  Ni  Ni5  1  0.292462  0.292462  0.622615  1
  Ni  Ni6  1  0.622615  0.292462  0.292462  1
  Ni  Ni7  1  0.292462  0.622615  0.292462  1
  Ni  Ni8  1  0.377385  0.707538  0.707538  1
  Ni  Ni9  1  0.707538  0.377385  0.707538  1
  Ni  Ni10  1  0.707538  0.707538  0.377385  1
  Ni  Ni11  1  0.292462  0.292462  0.292462  1
  Nb  Nb12  1  0.672349  0.077651  0.077651  1
  Nb  Nb13  1  0.922349  0.922349  0.327651  1
  Nb  Nb14  1  0.327651  0.327651  0.922349  1
  Nb  Nb15  1  0.922349  0.327651  0.327651  1
  Nb  Nb16  1  0.922349  0.327651  0.922349  1
  Nb  Nb17  1  0.327651  0.922349  0.327651  1
  Nb  Nb18  1  0.077651  0.672349  0.077651  1
  Nb  Nb19  1  0.077651  0.077651  0.672349  1
  Nb  Nb20  1  0.672349  0.672349  0.077651  1
  Nb  Nb21  1  0.672349  0.077651  0.672349  1
  Nb  Nb22  1  0.327651  0.922349  0.922349  1
  Nb  Nb23  1  0.077651  0.672349  0.672349  1
