# generated using pymatgen
data_Cs4CO4
_symmetry_space_group_name_H-M   'P 1'
_cell_length_a   6.25491953
_cell_length_b   6.25491971
_cell_length_c   6.25492008
_cell_angle_alpha   88.89035053
_cell_angle_beta   88.89035056
_cell_angle_gamma   88.89035127
_symmetry_Int_Tables_number   1
_chemical_formula_structural   Cs4CO4
_chemical_formula_sum   'Cs4 C1 O4'
_cell_volume   244.58168807
_cell_formula_units_Z   1
loop_
 _symmetry_equiv_pos_site_id
 _symmetry_equiv_pos_as_xyz
  1  'x, y, z'
loop_
 _atom_site_type_symbol
 _atom_site_label
 _atom_site_symmetry_multiplicity
 _atom_site_fract_x
 _atom_site_fract_y
 _atom_site_fract_z
 _atom_site_occupancy
  Cs  Cs0  1  0.564581  0.073472  0.130186  1
  Cs  Cs1  1  0.130186  0.564581  0.073472  1
  Cs  Cs2  1  0.073472  0.130186  0.564581  1
  Cs  Cs3  1  0.560803  0.560803  0.560803  1
  C  C4  1  0.825841  0.825841  0.825841  1
  O  O5  1  0.682569  0.961710  0.704361  1
  O  O6  1  0.704361  0.682569  0.961710  1
  O  O7  1  0.961710  0.704361  0.682569  1
  O  O8  1  0.957086  0.957086  0.957086  1
