# generated using pymatgen
data_Zn2P3H19C4(NO6)2
_symmetry_space_group_name_H-M   'P 1'
_cell_length_a   19.47727695
_cell_length_b   9.83277305
_cell_length_c   9.92304294
_cell_angle_alpha   99.31339167
_cell_angle_beta   119.35240658
_cell_angle_gamma   89.99116312
_symmetry_Int_Tables_number   1
_chemical_formula_structural   Zn2P3H19C4(NO6)2
_chemical_formula_sum   'Zn8 P12 H76 C16 N8 O48'
_cell_volume   1627.66966785
_cell_formula_units_Z   4
loop_
 _symmetry_equiv_pos_site_id
 _symmetry_equiv_pos_as_xyz
  1  'x, y, z'
loop_
 _atom_site_type_symbol
 _atom_site_label
 _atom_site_symmetry_multiplicity
 _atom_site_fract_x
 _atom_site_fract_y
 _atom_site_fract_z
 _atom_site_occupancy
  C  C0  1  0.153693  0.987220  0.827473  1
  C  C1  1  0.186760  0.097328  0.778682  1
  C  C2  1  0.200205  0.592591  0.777637  1
  C  C3  1  0.259742  0.486136  0.830657  1
  C  C4  1  0.240258  0.513864  0.169343  1
  C  C5  1  0.299795  0.407409  0.222363  1
  C  C6  1  0.313240  0.902672  0.221318  1
  C  C7  1  0.346307  0.012780  0.172526  1
  C  C8  1  0.655653  0.984608  0.829786  1
  C  C9  1  0.688956  0.092769  0.779160  1
  C  C10  1  0.702954  0.597278  0.779208  1
  C  C11  1  0.759818  0.486190  0.826492  1
  C  C12  1  0.740182  0.513810  0.173508  1
  C  C13  1  0.797046  0.402722  0.220792  1
  C  C14  1  0.811044  0.907231  0.220840  1
  C  C15  1  0.844347  0.015392  0.170214  1
  H  H16  1  0.055797  0.364387  0.881209  1
  H  H17  1  0.044574  0.884664  0.762701  1
  H  H18  1  0.035176  0.042018  0.708293  1
  H  H19  1  0.054266  0.907960  0.608522  1
  H  H20  1  0.163710  0.019776  0.947249  1
  H  H21  1  0.172065  0.606947  0.850754  1
  H  H22  1  0.161990  0.195784  0.790732  1
  H  H23  1  0.180317  0.889606  0.822405  1
  H  H24  1  0.152989  0.559509  0.655360  1
  H  H25  1  0.173466  0.067528  0.656345  1
  H  H26  1  0.232020  0.387777  0.827602  1
  H  H27  1  0.229270  0.692125  0.787627  1
  H  H28  1  0.251346  0.112553  0.853055  1
  H  H29  1  0.004076  0.033543  0.999549  1
  H  H30  1  0.309000  0.521926  0.950349  1
  H  H31  1  0.124908  0.144657  0.125659  1
  H  H32  1  0.162533  0.616757  0.230998  1
  H  H33  1  0.178964  0.459327  0.284084  1
  H  H34  1  0.251724  0.407747  0.613007  1
  H  H35  1  0.248276  0.592253  0.386993  1
  H  H36  1  0.321036  0.540673  0.715916  1
  H  H37  1  0.337467  0.383243  0.769002  1
  H  H38  1  0.375092  0.855343  0.874341  1
  H  H39  1  0.191000  0.478074  0.049651  1
  H  H40  1  0.495924  0.966457  0.000451  1
  H  H41  1  0.248654  0.887447  0.146945  1
  H  H42  1  0.270730  0.307875  0.212373  1
  H  H43  1  0.267980  0.612223  0.172398  1
  H  H44  1  0.326534  0.932472  0.343655  1
  H  H45  1  0.347011  0.440491  0.344640  1
  H  H46  1  0.319683  0.110394  0.177595  1
  H  H47  1  0.338010  0.804216  0.209268  1
  H  H48  1  0.327935  0.393053  0.149246  1
  H  H49  1  0.505615  0.466742  0.001254  1
  H  H50  1  0.336290  0.980224  0.052751  1
  H  H51  1  0.562301  0.354784  0.873901  1
  H  H52  1  0.445734  0.092040  0.391478  1
  H  H53  1  0.547220  0.880905  0.766497  1
  H  H54  1  0.536955  0.038216  0.713699  1
  H  H55  1  0.464824  0.957982  0.291707  1
  H  H56  1  0.455426  0.115336  0.237299  1
  H  H57  1  0.555514  0.905861  0.610649  1
  H  H58  1  0.444203  0.635613  0.118791  1
  H  H59  1  0.665468  0.019101  0.949151  1
  H  H60  1  0.675721  0.612336  0.853974  1
  H  H61  1  0.664831  0.191998  0.790563  1
  H  H62  1  0.682244  0.886740  0.826335  1
  H  H63  1  0.654982  0.568773  0.656852  1
  H  H64  1  0.675341  0.061620  0.656784  1
  H  H65  1  0.730435  0.389099  0.822000  1
  H  H66  1  0.734189  0.695538  0.792217  1
  H  H67  1  0.753589  0.106946  0.852806  1
  H  H68  1  0.810140  0.518223  0.945761  1
  H  H69  1  0.615354  0.135976  0.117884  1
  H  H70  1  0.664124  0.617213  0.239427  1
  H  H71  1  0.682107  0.460435  0.294813  1
  H  H72  1  0.748661  0.405527  0.606354  1
  H  H73  1  0.751339  0.594473  0.393646  1
  H  H74  1  0.817893  0.539565  0.705187  1
  H  H75  1  0.835876  0.382787  0.760573  1
  H  H76  1  0.884646  0.864024  0.882116  1
  H  H77  1  0.689860  0.481777  0.054239  1
  H  H78  1  0.746411  0.893054  0.147194  1
  H  H79  1  0.765811  0.304462  0.207783  1
  H  H80  1  0.769565  0.610901  0.178000  1
  H  H81  1  0.824659  0.938380  0.343216  1
  H  H82  1  0.845018  0.431227  0.343148  1
  H  H83  1  0.817756  0.113261  0.173665  1
  H  H84  1  0.835169  0.808002  0.209437  1
  H  H85  1  0.824279  0.387664  0.146026  1
  H  H86  1  0.834532  0.980899  0.050849  1
  H  H87  1  0.944486  0.094139  0.389351  1
  H  H88  1  0.963045  0.961784  0.286301  1
  H  H89  1  0.952780  0.119095  0.233503  1
  H  H90  1  0.937699  0.645216  0.126099  1
  H  H91  1  0.994385  0.533258  0.998746  1
  N  N92  1  0.066263  0.954482  0.720902  1
  N  N93  1  0.295142  0.453421  0.726144  1
  N  N94  1  0.204858  0.546579  0.273856  1
  N  N95  1  0.433737  0.045518  0.279098  1
  N  N96  1  0.568145  0.951243  0.723801  1
  N  N97  1  0.793168  0.452365  0.718475  1
  N  N98  1  0.706832  0.547635  0.281525  1
  N  N99  1  0.931855  0.048757  0.276199  1
  O  O100  1  0.025288  0.125335  0.990903  1
  O  O101  1  0.029153  0.734312  0.850487  1
  O  O102  1  0.072111  0.352177  0.797196  1
  O  O103  1  0.026889  0.321102  0.510265  1
  O  O104  1  0.042899  0.832293  0.404752  1
  O  O105  1  0.062139  0.576608  0.376917  1
  O  O106  1  0.027869  0.383065  0.010498  1
  O  O107  1  0.126407  0.077164  0.377783  1
  O  O108  1  0.159684  0.332121  0.403482  1
  O  O109  1  0.104419  0.766207  0.148965  1
  O  O110  1  0.228819  0.817761  0.497785  1
  O  O111  1  0.181171  0.153257  0.212178  1
  O  O112  1  0.318829  0.846743  0.787822  1
  O  O113  1  0.271181  0.182239  0.502215  1
  O  O114  1  0.395581  0.233793  0.851035  1
  O  O115  1  0.340316  0.667879  0.596518  1
  O  O116  1  0.373593  0.922836  0.622217  1
  O  O117  1  0.472131  0.616935  0.989502  1
  O  O118  1  0.523373  0.116788  0.987752  1
  O  O119  1  0.437861  0.423392  0.623083  1
  O  O120  1  0.457101  0.167707  0.595248  1
  O  O121  1  0.530766  0.732730  0.850587  1
  O  O122  1  0.473111  0.678898  0.489735  1
  O  O123  1  0.427889  0.647823  0.202804  1
  O  O124  1  0.574913  0.345199  0.786692  1
  O  O125  1  0.519303  0.316549  0.496524  1
  O  O126  1  0.470847  0.265688  0.149513  1
  O  O127  1  0.541459  0.829490  0.403472  1
  O  O128  1  0.563977  0.575482  0.384092  1
  O  O129  1  0.474712  0.874665  0.009097  1
  O  O130  1  0.531070  0.374788  0.009631  1
  O  O131  1  0.628562  0.074879  0.383488  1
  O  O132  1  0.660016  0.329598  0.403830  1
  O  O133  1  0.605168  0.766869  0.150147  1
  O  O134  1  0.728208  0.819333  0.510924  1
  O  O135  1  0.673597  0.149071  0.202378  1
  O  O136  1  0.826403  0.850929  0.797622  1
  O  O137  1  0.771792  0.180667  0.489076  1
  O  O138  1  0.894832  0.233131  0.849853  1
  O  O139  1  0.839984  0.670402  0.596170  1
  O  O140  1  0.871438  0.925121  0.616512  1
  O  O141  1  0.968930  0.625212  0.990369  1
  O  O142  1  0.936023  0.424518  0.615908  1
  O  O143  1  0.958541  0.170510  0.596528  1
  O  O144  1  0.980697  0.683451  0.503476  1
  O  O145  1  0.925087  0.654801  0.213308  1
  O  O146  1  0.969234  0.267270  0.149413  1
  O  O147  1  0.976627  0.883212  0.012248  1
  P  P148  1  0.005433  0.683572  0.380626  1
  P  P149  1  0.022082  0.758184  0.000838  1
  P  P150  1  0.184999  0.183281  0.380168  1
  P  P151  1  0.315001  0.816719  0.619832  1
  P  P152  1  0.494567  0.316428  0.619374  1
  P  P153  1  0.503599  0.679602  0.375305  1
  P  P154  1  0.477918  0.241816  0.999162  1
  P  P155  1  0.522888  0.741832  0.999569  1
  P  P156  1  0.684013  0.179913  0.374737  1
  P  P157  1  0.815987  0.820087  0.625263  1
  P  P158  1  0.996401  0.320398  0.624695  1
  P  P159  1  0.977112  0.258168  0.000431  1
  Zn  Zn160  1  0.051107  0.376227  0.357885  1
  Zn  Zn161  1  0.127392  0.876933  0.356238  1
  Zn  Zn162  1  0.372608  0.123067  0.643762  1
  Zn  Zn163  1  0.448893  0.623773  0.642115  1
  Zn  Zn164  1  0.551602  0.374841  0.357190  1
  Zn  Zn165  1  0.627736  0.874037  0.359350  1
  Zn  Zn166  1  0.872264  0.125963  0.640650  1
  Zn  Zn167  1  0.948398  0.625159  0.642810  1
