# generated using pymatgen
data_CaMg3Si3O10
_symmetry_space_group_name_H-M   'P 1'
_cell_length_a   8.93827141
_cell_length_b   9.84141961
_cell_length_c   10.39561973
_cell_angle_alpha   64.37536326
_cell_angle_beta   84.01415209
_cell_angle_gamma   65.87078236
_symmetry_Int_Tables_number   1
_chemical_formula_structural   CaMg3Si3O10
_chemical_formula_sum   'Ca4 Mg12 Si12 O40'
_cell_volume   749.54560614
_cell_formula_units_Z   4
loop_
 _symmetry_equiv_pos_site_id
 _symmetry_equiv_pos_as_xyz
  1  'x, y, z'
loop_
 _atom_site_type_symbol
 _atom_site_label
 _atom_site_symmetry_multiplicity
 _atom_site_fract_x
 _atom_site_fract_y
 _atom_site_fract_z
 _atom_site_occupancy
  Mg  Mg0  1  0.500000  0.000000  0.000000  1
  Mg  Mg1  1  0.000000  0.500000  0.500000  1
  Mg  Mg2  1  0.831867  0.847319  0.459698  1
  Mg  Mg3  1  0.168133  0.152681  0.540302  1
  Mg  Mg4  1  0.847094  0.833444  0.949648  1
  Mg  Mg5  1  0.152906  0.166556  0.050352  1
  Mg  Mg6  1  0.932978  0.930161  0.158888  1
  Mg  Mg7  1  0.067022  0.069839  0.841112  1
  Mg  Mg8  1  0.935194  0.941719  0.655111  1
  Mg  Mg9  1  0.064806  0.058281  0.344889  1
  Mg  Mg10  1  0.742520  0.743730  0.253018  1
  Mg  Mg11  1  0.257480  0.256270  0.746982  1
  Ca  Ca12  1  0.616939  0.633626  0.572232  1
  Ca  Ca13  1  0.383061  0.366374  0.427768  1
  Ca  Ca14  1  0.633940  0.618906  0.050158  1
  Ca  Ca15  1  0.366060  0.381094  0.949842  1
  Si  Si16  1  0.670700  0.229531  0.243160  1
  Si  Si17  1  0.329300  0.770469  0.756840  1
  Si  Si18  1  0.659996  0.226331  0.750984  1
  Si  Si19  1  0.340004  0.773669  0.249016  1
  Si  Si20  1  0.766406  0.336820  0.449344  1
  Si  Si21  1  0.233594  0.663180  0.550656  1
  Si  Si22  1  0.779604  0.333487  0.937684  1
  Si  Si23  1  0.220396  0.666513  0.062316  1
  Si  Si24  1  0.561166  0.947757  0.695589  1
  Si  Si25  1  0.438834  0.052243  0.304411  1
  Si  Si26  1  0.952057  0.563591  0.798124  1
  Si  Si27  1  0.047943  0.436409  0.201876  1
  O  O28  1  0.837196  0.067257  0.287870  1
  O  O29  1  0.162804  0.932743  0.712130  1
  O  O30  1  0.830664  0.065089  0.785387  1
  O  O31  1  0.169336  0.934911  0.214613  1
  O  O32  1  0.712391  0.954885  0.594455  1
  O  O33  1  0.287609  0.045115  0.405545  1
  O  O34  1  0.729086  0.942220  0.074929  1
  O  O35  1  0.270914  0.057780  0.925071  1
  O  O36  1  0.600933  0.876335  0.376197  1
  O  O37  1  0.399067  0.123665  0.623803  1
  O  O38  1  0.615871  0.874245  0.867564  1
  O  O39  1  0.384129  0.125755  0.132436  1
  O  O40  1  0.502812  0.199880  0.298048  1
  O  O41  1  0.497188  0.800120  0.701952  1
  O  O42  1  0.509330  0.777575  0.178272  1
  O  O43  1  0.490670  0.222425  0.821728  1
  O  O44  1  0.626114  0.318312  0.571222  1
  O  O45  1  0.373886  0.681688  0.428778  1
  O  O46  1  0.641682  0.340044  0.063128  1
  O  O47  1  0.358318  0.659956  0.936872  1
  O  O48  1  0.929986  0.167972  0.483211  1
  O  O49  1  0.070014  0.832028  0.516789  1
  O  O50  1  0.936799  0.162991  0.991410  1
  O  O51  1  0.063201  0.837009  0.008590  1
  O  O52  1  0.960616  0.714966  0.819207  1
  O  O53  1  0.039384  0.285034  0.180793  1
  O  O54  1  0.940208  0.729598  0.339786  1
  O  O55  1  0.059792  0.270402  0.660214  1
  O  O56  1  0.876957  0.615665  0.637055  1
  O  O57  1  0.123043  0.384335  0.362945  1
  O  O58  1  0.872494  0.599858  0.136319  1
  O  O59  1  0.127506  0.400142  0.863681  1
  O  O60  1  0.807870  0.500387  0.902193  1
  O  O61  1  0.192130  0.499613  0.097807  1
  O  O62  1  0.774866  0.506877  0.426288  1
  O  O63  1  0.225134  0.493123  0.573712  1
  O  O64  1  0.681764  0.367848  0.792594  1
  O  O65  1  0.318236  0.632152  0.207406  1
  O  O66  1  0.661787  0.365835  0.303300  1
  O  O67  1  0.338213  0.634165  0.696700  1
