# generated using pymatgen
data_BaAlF5
_symmetry_space_group_name_H-M   'P 1'
_cell_length_a   5.24880130
_cell_length_b   7.70755659
_cell_length_c   19.85039227
_cell_angle_alpha   90.00000000
_cell_angle_beta   90.00000000
_cell_angle_gamma   92.59949877
_symmetry_Int_Tables_number   1
_chemical_formula_structural   BaAlF5
_chemical_formula_sum   'Ba8 Al8 F40'
_cell_volume   802.22984406
_cell_formula_units_Z   8
loop_
 _symmetry_equiv_pos_site_id
 _symmetry_equiv_pos_as_xyz
  1  'x, y, z'
loop_
 _atom_site_type_symbol
 _atom_site_label
 _atom_site_symmetry_multiplicity
 _atom_site_fract_x
 _atom_site_fract_y
 _atom_site_fract_z
 _atom_site_occupancy
  Ba  Ba0  1  0.213438  0.759102  0.540644  1
  Ba  Ba1  1  0.739052  0.521274  0.730236  1
  Ba  Ba2  1  0.786562  0.240898  0.459356  1
  Ba  Ba3  1  0.760948  0.978726  0.230236  1
  Ba  Ba4  1  0.286562  0.740898  0.040644  1
  Ba  Ba5  1  0.260948  0.478726  0.269764  1
  Ba  Ba6  1  0.239052  0.021274  0.769764  1
  Ba  Ba7  1  0.713438  0.259102  0.959356  1
  Al  Al8  1  0.248211  0.530572  0.868706  1
  Al  Al9  1  0.731771  0.650086  0.391922  1
  Al  Al10  1  0.268229  0.349914  0.608078  1
  Al  Al11  1  0.751789  0.469428  0.131294  1
  Al  Al12  1  0.231771  0.150086  0.108078  1
  Al  Al13  1  0.768229  0.849914  0.891922  1
  Al  Al14  1  0.748211  0.030572  0.631294  1
  Al  Al15  1  0.251789  0.969428  0.368706  1
  F  F16  1  0.959576  0.414858  0.845303  1
  F  F17  1  0.442319  0.357370  0.840452  1
  F  F18  1  0.224745  0.856529  0.288868  1
  F  F19  1  0.942319  0.857370  0.659548  1
  F  F20  1  0.733138  0.944931  0.545914  1
  F  F21  1  0.475121  0.542728  0.616543  1
  F  F22  1  0.748593  0.881786  0.981465  1
  F  F23  1  0.451210  0.347634  0.100141  1
  F  F24  1  0.251407  0.118214  0.018535  1
  F  F25  1  0.040424  0.585142  0.154697  1
  F  F26  1  0.775255  0.143471  0.711132  1
  F  F27  1  0.999086  0.484819  0.618324  1
  F  F28  1  0.048790  0.152366  0.600141  1
  F  F29  1  0.555378  0.214412  0.595836  1
  F  F30  1  0.459576  0.914858  0.654697  1
  F  F31  1  0.289898  0.314325  0.697925  1
  F  F32  1  0.724745  0.356529  0.211132  1
  F  F33  1  0.248593  0.381786  0.518535  1
  F  F34  1  0.500914  0.015181  0.118324  1
  F  F35  1  0.057681  0.142630  0.340452  1
  F  F36  1  0.944622  0.285588  0.095836  1
  F  F37  1  0.055378  0.714412  0.904164  1
  F  F38  1  0.789898  0.814325  0.802075  1
  F  F39  1  0.210102  0.185675  0.197925  1
  F  F40  1  0.766862  0.555069  0.045914  1
  F  F41  1  0.000914  0.515181  0.381676  1
  F  F42  1  0.233138  0.444931  0.954086  1
  F  F43  1  0.751407  0.618214  0.481465  1
  F  F44  1  0.499086  0.984819  0.881676  1
  F  F45  1  0.951210  0.847634  0.399859  1
  F  F46  1  0.524879  0.457272  0.383457  1
  F  F47  1  0.557681  0.642630  0.159548  1
  F  F48  1  0.275255  0.643471  0.788868  1
  F  F49  1  0.975121  0.042728  0.883457  1
  F  F50  1  0.266862  0.055069  0.454086  1
  F  F51  1  0.024879  0.957272  0.116543  1
  F  F52  1  0.444622  0.785588  0.404164  1
  F  F53  1  0.710102  0.685675  0.302075  1
  F  F54  1  0.548790  0.652366  0.899859  1
  F  F55  1  0.540424  0.085142  0.345303  1
