# generated using pymatgen
data_SnO2
_symmetry_space_group_name_H-M   'P 1'
_cell_length_a   3.57147463
_cell_length_b   5.30523342
_cell_length_c   7.31032973
_cell_angle_alpha   90.00000000
_cell_angle_beta   90.00000000
_cell_angle_gamma   90.00000000
_symmetry_Int_Tables_number   1
_chemical_formula_structural   SnO2
_chemical_formula_sum   'Sn4 O8'
_cell_volume   138.51252056
_cell_formula_units_Z   4
loop_
 _symmetry_equiv_pos_site_id
 _symmetry_equiv_pos_as_xyz
  1  'x, y, z'
loop_
 _atom_site_type_symbol
 _atom_site_label
 _atom_site_symmetry_multiplicity
 _atom_site_fract_x
 _atom_site_fract_y
 _atom_site_fract_z
 _atom_site_occupancy
  Sn  Sn0  1  0.250000  0.766376  0.416867  1
  Sn  Sn1  1  0.750000  0.233624  0.583133  1
  Sn  Sn2  1  0.750000  0.733624  0.916867  1
  Sn  Sn3  1  0.250000  0.266376  0.083133  1
  O  O4  1  0.750000  0.470370  0.132713  1
  O  O5  1  0.750000  0.616149  0.614320  1
  O  O6  1  0.250000  0.529630  0.867287  1
  O  O7  1  0.250000  0.383851  0.385680  1
  O  O8  1  0.250000  0.029630  0.632713  1
  O  O9  1  0.250000  0.883851  0.114320  1
  O  O10  1  0.750000  0.116149  0.885680  1
  O  O11  1  0.750000  0.970370  0.367287  1
