# generated using pymatgen
data_MgTlAs(H6O5)2
_symmetry_space_group_name_H-M   'P 1'
_cell_length_a   6.25789247
_cell_length_b   7.05974931
_cell_length_c   11.44785174
_cell_angle_alpha   90.00000000
_cell_angle_beta   90.00000000
_cell_angle_gamma   90.00000000
_symmetry_Int_Tables_number   1
_chemical_formula_structural   MgTlAs(H6O5)2
_chemical_formula_sum   'Mg2 Tl2 As2 H24 O20'
_cell_volume   505.75638263
_cell_formula_units_Z   2
loop_
 _symmetry_equiv_pos_site_id
 _symmetry_equiv_pos_as_xyz
  1  'x, y, z'
loop_
 _atom_site_type_symbol
 _atom_site_label
 _atom_site_symmetry_multiplicity
 _atom_site_fract_x
 _atom_site_fract_y
 _atom_site_fract_z
 _atom_site_occupancy
  Mg  Mg0  1  0.379576  0.500000  0.119657  1
  Mg  Mg1  1  0.620424  0.000000  0.619657  1
  Tl  Tl2  1  0.369500  0.500000  0.776876  1
  Tl  Tl3  1  0.630500  0.000000  0.276876  1
  As  As4  1  -0.006317  0.500000  0.491386  1
  As  As5  1  1.006317  0.000000  0.991386  1
  H  H6  1  0.610579  0.679763  0.474039  1
  H  H7  1  0.999821  0.114252  0.501040  1
  H  H8  1  0.182913  0.177668  0.192523  1
  H  H9  1  0.389421  0.179763  0.974039  1
  H  H10  1  0.216364  0.295638  0.310373  1
  H  H11  1  0.216364  0.704362  0.310373  1
  H  H12  1  0.783636  0.795638  0.810373  1
  H  H13  1  0.629992  0.744502  0.987296  1
  H  H14  1  0.279227  0.000000  0.782375  1
  H  H15  1  0.817087  0.322332  0.692523  1
  H  H16  1  0.783636  0.204362  0.810373  1
  H  H17  1  0.000179  0.614252  1.001040  1
  H  H18  1  0.610579  0.320237  0.474039  1
  H  H19  1  0.182913  0.822332  0.192523  1
  H  H20  1  0.174941  0.000000  0.653387  1
  H  H21  1  0.999821  0.885748  0.501040  1
  H  H22  1  0.817087  0.677668  0.692523  1
  H  H23  1  0.825059  0.500000  0.153387  1
  H  H24  1  0.370008  0.244502  0.487296  1
  H  H25  1  0.629992  0.255498  0.987296  1
  H  H26  1  0.389421  0.820237  0.974039  1
  H  H27  1  0.720773  0.500000  0.282375  1
  H  H28  1  0.000179  0.385748  1.001040  1
  H  H29  1  0.370008  0.755498  0.487296  1
  O  O30  1  0.277926  0.276577  0.229825  1
  O  O31  1  0.523541  0.206061  0.498771  1
  O  O32  1  0.311845  0.000000  0.696064  1
  O  O33  1  0.873917  0.201338  0.946079  1
  O  O34  1  0.873917  0.798662  0.946079  1
  O  O35  1  0.688155  0.500000  0.196064  1
  O  O36  1  0.035789  0.000000  0.140681  1
  O  O37  1  0.256373  0.000000  0.926356  1
  O  O38  1  0.277926  0.723423  0.229825  1
  O  O39  1  0.936755  0.000000  0.541706  1
  O  O40  1  0.523541  0.793939  0.498771  1
  O  O41  1  0.063245  0.500000  0.041706  1
  O  O42  1  0.722074  0.776577  0.729825  1
  O  O43  1  0.126083  0.701338  0.446079  1
  O  O44  1  0.722074  0.223423  0.729825  1
  O  O45  1  0.126083  0.298662  0.446079  1
  O  O46  1  0.476459  0.293939  -0.001229  1
  O  O47  1  0.964211  0.500000  0.640681  1
  O  O48  1  0.743627  0.500000  0.426356  1
  O  O49  1  0.476459  0.706061  -0.001229  1
