# generated using pymatgen
data_CsAuSe3
_symmetry_space_group_name_H-M   'P 1'
_cell_length_a   6.70624081
_cell_length_b   7.79075350
_cell_length_c   7.79786296
_cell_angle_alpha   80.84821752
_cell_angle_beta   68.29871753
_cell_angle_gamma   64.49336778
_symmetry_Int_Tables_number   1
_chemical_formula_structural   CsAuSe3
_chemical_formula_sum   'Cs2 Au2 Se6'
_cell_volume   341.64280590
_cell_formula_units_Z   2
loop_
 _symmetry_equiv_pos_site_id
 _symmetry_equiv_pos_as_xyz
  1  'x, y, z'
loop_
 _atom_site_type_symbol
 _atom_site_label
 _atom_site_symmetry_multiplicity
 _atom_site_fract_x
 _atom_site_fract_y
 _atom_site_fract_z
 _atom_site_occupancy
  Cs  Cs0  1  0.853008  0.294016  0.250004  1
  Cs  Cs1  1  0.146992  0.705984  0.749996  1
  Au  Au2  1  0.423321  0.153432  0.749935  1
  Au  Au3  1  0.576679  0.846568  0.250065  1
  Se  Se4  1  0.805600  0.822017  0.442293  1
  Se  Se5  1  0.627512  0.178100  0.942209  1
  Se  Se6  1  0.194400  0.177983  0.557707  1
  Se  Se7  1  0.372488  0.821900  0.057791  1
  Se  Se8  1  0.192895  0.614276  0.249993  1
  Se  Se9  1  0.807105  0.385724  0.750007  1
