# generated using pymatgen
data_SrAgB7O12
_symmetry_space_group_name_H-M   'P 1'
_cell_length_a   6.71889210
_cell_length_b   6.74918734
_cell_length_c   22.37051226
_cell_angle_alpha   88.76360126
_cell_angle_beta   87.51546697
_cell_angle_gamma   60.14838011
_symmetry_Int_Tables_number   1
_chemical_formula_structural   SrAgB7O12
_chemical_formula_sum   'Sr4 Ag4 B28 O48'
_cell_volume   879.01173081
_cell_formula_units_Z   4
loop_
 _symmetry_equiv_pos_site_id
 _symmetry_equiv_pos_as_xyz
  1  'x, y, z'
loop_
 _atom_site_type_symbol
 _atom_site_label
 _atom_site_symmetry_multiplicity
 _atom_site_fract_x
 _atom_site_fract_y
 _atom_site_fract_z
 _atom_site_occupancy
  Sr  Sr0  1  0.169602  0.669777  0.941862  1
  Sr  Sr1  1  0.830398  0.330223  0.058138  1
  Sr  Sr2  1  0.160621  0.669777  0.558138  1
  Sr  Sr3  1  0.839379  0.330223  0.441862  1
  Ag  Ag4  1  0.735687  0.805518  0.199776  1
  Ag  Ag5  1  0.264313  0.194482  0.800224  1
  Ag  Ag6  1  0.541205  0.194482  0.699776  1
  Ag  Ag7  1  0.458795  0.805518  0.300224  1
  B  B8  1  0.292716  0.544824  0.191690  1
  B  B9  1  0.655327  0.761973  0.563394  1
  B  B10  1  0.417299  0.238027  0.063394  1
  B  B11  1  0.582701  0.761973  0.936606  1
  B  B12  1  0.344673  0.238027  0.436606  1
  B  B13  1  0.230312  0.906799  0.692080  1
  B  B14  1  0.667369  0.071474  0.907437  1
  B  B15  1  0.839905  0.335063  0.915965  1
  B  B16  1  0.723456  0.313063  0.211307  1
  B  B17  1  0.573324  0.157915  0.563766  1
  B  B18  1  0.261156  0.071474  0.592563  1
  B  B19  1  0.769688  0.093201  0.307920  1
  B  B20  1  0.862889  0.906799  0.807920  1
  B  B21  1  0.738844  0.928526  0.407437  1
  B  B22  1  0.268761  0.157915  0.936234  1
  B  B23  1  0.162460  0.544824  0.308310  1
  B  B24  1  0.174968  0.664937  0.415965  1
  B  B25  1  0.137111  0.093201  0.192080  1
  B  B26  1  0.160095  0.664937  0.084035  1
  B  B27  1  0.963481  0.313063  0.288693  1
  B  B28  1  0.825032  0.335063  0.584035  1
  B  B29  1  0.707284  0.455176  0.808310  1
  B  B30  1  0.837540  0.455176  0.691690  1
  B  B31  1  0.276544  0.686937  0.788693  1
  B  B32  1  0.426676  0.842085  0.436234  1
  B  B33  1  0.036519  0.686937  0.711307  1
  B  B34  1  0.332631  0.928526  0.092563  1
  B  B35  1  0.731239  0.842085  0.063766  1
  O  O36  1  0.426710  0.835822  0.567960  1
  O  O37  1  0.710852  0.130351  0.248662  1
  O  O38  1  0.175175  0.866676  0.069234  1
  O  O39  1  0.656041  0.767337  0.427166  1
  O  O40  1  0.041851  0.133324  0.569234  1
  O  O41  1  0.076808  0.800165  0.832695  1
  O  O42  1  0.362107  0.680799  0.446424  1
  O  O43  1  0.791419  0.417163  0.750000  1
  O  O44  1  0.478586  0.567156  0.824096  1
  O  O45  1  0.958149  0.866676  0.430766  1
  O  O46  1  0.637893  0.319201  0.553576  1
  O  O47  1  0.279072  0.052925  0.658807  1
  O  O48  1  0.423378  0.232663  0.927166  1
  O  O49  1  0.042906  0.319201  0.946424  1
  O  O50  1  0.730247  0.923986  0.563509  1
  O  O51  1  0.737467  0.835822  0.932040  1
  O  O52  1  0.269753  0.076014  0.436491  1
  O  O53  1  0.366705  0.459399  0.056162  1
  O  O54  1  0.158797  0.130351  0.251338  1
  O  O55  1  0.123027  0.800165  0.667305  1
  O  O56  1  0.521414  0.432844  0.175904  1
  O  O57  1  0.129091  0.631569  0.148401  1
  O  O58  1  0.826104  0.540601  0.556162  1
  O  O59  1  0.633295  0.540601  0.943838  1
  O  O60  1  0.957094  0.680799  0.053576  1
  O  O61  1  0.345766  0.923986  0.936491  1
  O  O62  1  0.173896  0.459399  0.443838  1
  O  O63  1  0.208581  0.582837  0.250000  1
  O  O64  1  0.045742  0.432844  0.324096  1
  O  O65  1  0.654234  0.076014  0.063509  1
  O  O66  1  0.668004  0.052925  0.841193  1
  O  O67  1  0.289148  0.869649  0.751338  1
  O  O68  1  0.769391  0.461218  0.250000  1
  O  O69  1  0.923192  0.199835  0.167305  1
  O  O70  1  0.720928  0.947075  0.341193  1
  O  O71  1  0.576622  0.767337  0.072834  1
  O  O72  1  0.824825  0.133324  0.930766  1
  O  O73  1  0.573290  0.164178  0.432040  1
  O  O74  1  0.876973  0.199835  0.332695  1
  O  O75  1  0.760660  0.368431  0.648401  1
  O  O76  1  0.841203  0.869649  0.748662  1
  O  O77  1  0.331996  0.947075  0.158807  1
  O  O78  1  0.870909  0.368431  0.851599  1
  O  O79  1  0.343959  0.232663  0.572834  1
  O  O80  1  0.954258  0.567156  0.675904  1
  O  O81  1  0.262533  0.164178  0.067960  1
  O  O82  1  0.239340  0.631569  0.351599  1
  O  O83  1  0.230609  0.538782  0.750000  1
