# generated using pymatgen
data_Hg(CN)2
_symmetry_space_group_name_H-M   'P 1'
_cell_length_a   8.36491082
_cell_length_b   8.36491061
_cell_length_c   8.36491097
_cell_angle_alpha   107.38520594
_cell_angle_beta   107.38520548
_cell_angle_gamma   113.72899971
_symmetry_Int_Tables_number   1
_chemical_formula_structural   Hg(CN)2
_chemical_formula_sum   'Hg4 C8 N8'
_cell_volume   448.68913681
_cell_formula_units_Z   4
loop_
 _symmetry_equiv_pos_site_id
 _symmetry_equiv_pos_as_xyz
  1  'x, y, z'
loop_
 _atom_site_type_symbol
 _atom_site_label
 _atom_site_symmetry_multiplicity
 _atom_site_fract_x
 _atom_site_fract_y
 _atom_site_fract_z
 _atom_site_occupancy
  Hg  Hg0  1  0.375000  0.339652  0.464652  1
  Hg  Hg1  1  0.660348  0.125000  0.035348  1
  Hg  Hg2  1  0.089652  0.625000  0.964652  1
  Hg  Hg3  1  0.875000  0.910348  0.535348  1
  C  C4  1  0.043034  0.791749  0.158993  1
  C  C5  1  0.632757  0.884042  0.841007  1
  C  C6  1  0.115958  0.956966  0.748715  1
  C  C7  1  0.541749  0.293034  0.658993  1
  C  C8  1  0.634042  0.882757  0.341007  1
  C  C9  1  0.117243  0.458251  0.751285  1
  C  C10  1  0.706966  0.365958  0.248715  1
  C  C11  1  0.208251  0.367243  0.251285  1
  N  N12  1  0.616662  0.750058  0.725297  1
  N  N13  1  0.133338  0.358635  0.633396  1
  N  N14  1  0.641365  0.274761  0.774703  1
  N  N15  1  0.249942  0.975239  0.866604  1
  N  N16  1  0.725239  0.499942  0.366604  1
  N  N17  1  0.108635  0.383338  0.133396  1
  N  N18  1  0.024761  0.891365  0.274703  1
  N  N19  1  0.500058  0.866662  0.225297  1
