# generated using pymatgen
data_Na4CO4
_symmetry_space_group_name_H-M   'P 1'
_cell_length_a   4.86455029
_cell_length_b   4.86469325
_cell_length_c   4.86450938
_cell_angle_alpha   91.57291699
_cell_angle_beta   91.57445601
_cell_angle_gamma   91.57742367
_symmetry_Int_Tables_number   1
_chemical_formula_structural   Na4CO4
_chemical_formula_sum   'Na4 C1 O4'
_cell_volume   114.98349790
_cell_formula_units_Z   1
loop_
 _symmetry_equiv_pos_site_id
 _symmetry_equiv_pos_as_xyz
  1  'x, y, z'
loop_
 _atom_site_type_symbol
 _atom_site_label
 _atom_site_symmetry_multiplicity
 _atom_site_fract_x
 _atom_site_fract_y
 _atom_site_fract_z
 _atom_site_occupancy
  O  O0  1  0.016926  0.694238  0.021739  1
  Na  Na1  1  0.988965  0.528725  0.546328  1
  O  O2  1  0.694289  0.021734  0.016918  1
  Na  Na3  1  0.528723  0.546328  0.988980  1
  C  C4  1  0.909453  0.909453  0.909413  1
  O  O5  1  0.021741  0.016898  0.694255  1
  Na  Na6  1  0.196881  0.196936  0.196936  1
  O  O7  1  0.478912  0.478911  0.478912  1
  Na  Na8  1  0.546320  0.988989  0.528728  1
