# generated using pymatgen
data_MnHgC4(SN)4
_symmetry_space_group_name_H-M   'P 1'
_cell_length_a   4.60228762
_cell_length_b   8.39834996
_cell_length_c   8.39835046
_cell_angle_alpha   85.69442478
_cell_angle_beta   74.09759406
_cell_angle_gamma   74.09759935
_symmetry_Int_Tables_number   1
_chemical_formula_structural   MnHgC4(SN)4
_chemical_formula_sum   'Mn1 Hg1 C4 S4 N4'
_cell_volume   300.23953590
_cell_formula_units_Z   1
loop_
 _symmetry_equiv_pos_site_id
 _symmetry_equiv_pos_as_xyz
  1  'x, y, z'
loop_
 _atom_site_type_symbol
 _atom_site_label
 _atom_site_symmetry_multiplicity
 _atom_site_fract_x
 _atom_site_fract_y
 _atom_site_fract_z
 _atom_site_occupancy
  Hg  Hg0  1  0.000000  0.000000  0.000000  1
  Mn  Mn1  1  0.750000  0.500000  0.500000  1
  S  S2  1  0.409846  0.034486  0.721398  1
  S  S3  1  0.868755  0.721398  0.965514  1
  S  S4  1  0.555668  0.278602  0.034486  1
  S  S5  1  0.165730  0.965514  0.278602  1
  C  C6  1  0.189536  0.193818  0.648066  1
  C  C7  1  0.162398  0.648066  0.806183  1
  C  C8  1  0.616646  0.351934  0.193818  1
  C  C9  1  0.031419  0.806183  0.351934  1
  N  N10  1  0.036963  0.308668  0.591076  1
  N  N11  1  0.371961  0.591076  0.691332  1
  N  N12  1  0.654370  0.408924  0.308668  1
  N  N13  1  0.936706  0.691332  0.408924  1
