# generated using pymatgen
data_Er2Te4O11
_symmetry_space_group_name_H-M   'P 1'
_cell_length_a   5.14403705
_cell_length_b   6.72545288
_cell_length_c   16.00740834
_cell_angle_alpha   80.05623586
_cell_angle_beta   80.75048682
_cell_angle_gamma   67.51528394
_symmetry_Int_Tables_number   1
_chemical_formula_structural   Er2Te4O11
_chemical_formula_sum   'Er4 Te8 O22'
_cell_volume   501.27114498
_cell_formula_units_Z   2
loop_
 _symmetry_equiv_pos_site_id
 _symmetry_equiv_pos_as_xyz
  1  'x, y, z'
loop_
 _atom_site_type_symbol
 _atom_site_label
 _atom_site_symmetry_multiplicity
 _atom_site_fract_x
 _atom_site_fract_y
 _atom_site_fract_z
 _atom_site_occupancy
  Er  Er0  1  0.631395  0.201982  0.037042  1
  Er  Er1  1  0.368605  0.798018  0.962958  1
  Er  Er2  1  0.129686  0.701917  0.537035  1
  Er  Er3  1  0.870314  0.298083  0.462965  1
  Te  Te4  1  0.844687  0.619949  0.124949  1
  Te  Te5  1  0.157879  0.046421  0.197819  1
  Te  Te6  1  0.589662  0.880338  0.375053  1
  Te  Te7  1  0.842121  0.953579  0.802181  1
  Te  Te8  1  0.598009  0.546219  0.697882  1
  Te  Te9  1  0.155313  0.380051  0.875051  1
  Te  Te10  1  0.410338  0.119662  0.624947  1
  Te  Te11  1  0.401991  0.453781  0.302118  1
  O  O12  1  0.909183  0.631986  0.666404  1
  O  O13  1  0.808934  0.633094  0.872892  1
  O  O14  1  0.191066  0.366906  0.127108  1
  O  O15  1  0.245508  0.967266  0.448376  1
  O  O16  1  0.207600  0.867987  0.833622  1
  O  O17  1  0.314763  0.866738  0.627124  1
  O  O18  1  0.090817  0.368014  0.333596  1
  O  O19  1  0.035949  0.181877  0.955633  1
  O  O20  1  0.826461  0.681994  0.455620  1
  O  O21  1  0.338976  0.467195  0.948372  1
  O  O22  1  0.661024  0.532805  0.051628  1
  O  O23  1  0.854365  0.249930  0.750023  1
  O  O24  1  0.400799  0.953089  0.095250  1
  O  O25  1  0.685237  0.133262  0.372876  1
  O  O26  1  0.599201  0.046911  0.904750  1
  O  O27  1  0.550985  0.452973  0.595302  1
  O  O28  1  0.145635  0.750070  0.249977  1
  O  O29  1  0.449015  0.547027  0.404698  1
  O  O30  1  0.754492  0.032734  0.551624  1
  O  O31  1  0.173539  0.318006  0.544380  1
  O  O32  1  0.964051  0.818123  0.044367  1
  O  O33  1  0.792400  0.132013  0.166378  1
