# generated using pymatgen
data_Na2AlZnF7
_symmetry_space_group_name_H-M   'P 1'
_cell_length_a   7.20366265
_cell_length_b   7.30556289
_cell_length_c   7.30556301
_cell_angle_alpha   61.57580864
_cell_angle_beta   60.46033844
_cell_angle_gamma   60.46033987
_symmetry_Int_Tables_number   1
_chemical_formula_structural   Na2AlZnF7
_chemical_formula_sum   'Na4 Al2 Zn2 F14'
_cell_volume   276.89310378
_cell_formula_units_Z   2
loop_
 _symmetry_equiv_pos_site_id
 _symmetry_equiv_pos_as_xyz
  1  'x, y, z'
loop_
 _atom_site_type_symbol
 _atom_site_label
 _atom_site_symmetry_multiplicity
 _atom_site_fract_x
 _atom_site_fract_y
 _atom_site_fract_z
 _atom_site_occupancy
  Na  Na0  1  0.000000  0.000000  0.000000  1
  Na  Na1  1  0.000000  0.500000  0.000000  1
  Na  Na2  1  0.500000  0.500000  0.000000  1
  Na  Na3  1  0.500000  0.500000  0.500000  1
  Al  Al4  1  0.000000  0.500000  0.500000  1
  Al  Al5  1  0.500000  0.000000  0.000000  1
  Zn  Zn6  1  0.000000  0.000000  0.500000  1
  Zn  Zn7  1  0.500000  0.000000  0.500000  1
  F  F8  1  0.426656  0.952454  0.824563  1
  F  F9  1  0.082848  0.638425  0.195879  1
  F  F10  1  0.926656  0.324563  0.452454  1
  F  F11  1  0.582848  0.695879  0.138425  1
  F  F12  1  0.073344  0.675437  0.547546  1
  F  F13  1  0.417152  0.304121  0.861575  1
  F  F14  1  0.796327  0.952454  0.824563  1
  F  F15  1  0.750000  0.123848  0.376152  1
  F  F16  1  0.250000  0.876152  0.623848  1
  F  F17  1  0.573344  0.047546  0.175437  1
  F  F18  1  0.703673  0.675437  0.547546  1
  F  F19  1  0.203673  0.047546  0.175437  1
  F  F20  1  0.296327  0.324563  0.452454  1
  F  F21  1  0.917152  0.361575  0.804121  1
