# generated using pymatgen
data_CaSiO3
_symmetry_space_group_name_H-M   'P 1'
_cell_length_a   5.10408626
_cell_length_b   5.09864463
_cell_length_c   5.09864463
_cell_angle_alpha   60.31317304
_cell_angle_beta   59.96468873
_cell_angle_gamma   59.96468867
_symmetry_Int_Tables_number   1
_chemical_formula_structural   CaSiO3
_chemical_formula_sum   'Ca2 Si2 O6'
_cell_volume   93.99326670
_cell_formula_units_Z   2
loop_
 _symmetry_equiv_pos_site_id
 _symmetry_equiv_pos_as_xyz
  1  'x, y, z'
loop_
 _atom_site_type_symbol
 _atom_site_label
 _atom_site_symmetry_multiplicity
 _atom_site_fract_x
 _atom_site_fract_y
 _atom_site_fract_z
 _atom_site_occupancy
  O  O0  1  0.750000  0.212412  0.287588  1
  O  O1  1  0.250000  0.787588  0.712412  1
  O  O2  1  0.769298  0.730702  0.230702  1
  O  O3  1  0.730702  0.269298  0.769298  1
  O  O4  1  0.269298  0.730702  0.230702  1
  O  O5  1  0.230702  0.269298  0.769298  1
  Si  Si6  1  0.500000  0.500000  0.500000  1
  Si  Si7  1  0.000000  0.000000  0.000000  1
  Ca  Ca8  1  0.750000  0.749009  0.750991  1
  Ca  Ca9  1  0.250000  0.250991  0.249009  1
