# generated using pymatgen
data_Zn(CO2)2
_symmetry_space_group_name_H-M   'P 1'
_cell_length_a   5.31173078
_cell_length_b   5.38437936
_cell_length_c   5.94604321
_cell_angle_alpha   112.36054365
_cell_angle_beta   90.00000000
_cell_angle_gamma   90.00000000
_symmetry_Int_Tables_number   1
_chemical_formula_structural   Zn(CO2)2
_chemical_formula_sum   'Zn2 C4 O8'
_cell_volume   157.27201661
_cell_formula_units_Z   2
loop_
 _symmetry_equiv_pos_site_id
 _symmetry_equiv_pos_as_xyz
  1  'x, y, z'
loop_
 _atom_site_type_symbol
 _atom_site_label
 _atom_site_symmetry_multiplicity
 _atom_site_fract_x
 _atom_site_fract_y
 _atom_site_fract_z
 _atom_site_occupancy
  Zn  Zn0  1  0.000000  0.000000  0.000000  1
  Zn  Zn1  1  0.500000  0.500000  0.500000  1
  C  C2  1  0.887621  0.455620  0.909982  1
  C  C3  1  0.387621  0.044380  0.590018  1
  C  C4  1  0.612379  0.955620  0.409982  1
  C  C5  1  0.112379  0.544380  0.090018  1
  O  O6  1  0.699144  0.721794  0.360750  1
  O  O7  1  0.199144  0.778206  0.139250  1
  O  O8  1  0.195416  0.377041  0.175825  1
  O  O9  1  0.300856  0.278206  0.639250  1
  O  O10  1  0.304584  0.877041  0.675825  1
  O  O11  1  0.695416  0.122959  0.324175  1
  O  O12  1  0.800856  0.221794  0.860750  1
  O  O13  1  0.804584  0.622959  0.824175  1
