# generated using pymatgen
data_Li2Ca2Si5O13
_symmetry_space_group_name_H-M   'P 1'
_cell_length_a   7.59095622
_cell_length_b   7.85936930
_cell_length_c   10.31246971
_cell_angle_alpha   83.24570124
_cell_angle_beta   68.82159110
_cell_angle_gamma   75.79281901
_symmetry_Int_Tables_number   1
_chemical_formula_structural   Li2Ca2Si5O13
_chemical_formula_sum   'Li4 Ca4 Si10 O26'
_cell_volume   555.85801688
_cell_formula_units_Z   2
loop_
 _symmetry_equiv_pos_site_id
 _symmetry_equiv_pos_as_xyz
  1  'x, y, z'
loop_
 _atom_site_type_symbol
 _atom_site_label
 _atom_site_symmetry_multiplicity
 _atom_site_fract_x
 _atom_site_fract_y
 _atom_site_fract_z
 _atom_site_occupancy
  Li  Li0  1  0.162072  0.408519  0.748081  1
  Li  Li1  1  0.837928  0.591481  0.251919  1
  Li  Li2  1  0.177030  0.077478  0.873575  1
  Li  Li3  1  0.822970  0.922522  0.126425  1
  Ca  Ca4  1  0.451076  0.852669  0.391205  1
  Ca  Ca5  1  0.548924  0.147331  0.608795  1
  Ca  Ca6  1  0.976265  0.832929  0.393956  1
  Ca  Ca7  1  0.023735  0.167071  0.606044  1
  Si  Si8  1  0.735050  0.232093  0.266124  1
  Si  Si9  1  0.635531  0.698662  0.038709  1
  Si  Si10  1  0.781677  0.307913  0.962157  1
  Si  Si11  1  0.264950  0.767907  0.733876  1
  Si  Si12  1  0.684612  0.550744  0.592132  1
  Si  Si13  1  0.364469  0.301338  0.961291  1
  Si  Si14  1  0.315388  0.449256  0.407868  1
  Si  Si15  1  0.853954  0.771200  0.736006  1
  Si  Si16  1  0.146046  0.228800  0.263994  1
  Si  Si17  1  0.218323  0.692087  0.037843  1
  O  O18  1  0.288938  0.178934  0.103668  1
  O  O19  1  0.778810  0.502059  0.006505  1
  O  O20  1  0.076438  0.691884  0.741232  1
  O  O21  1  0.297882  0.942173  0.636096  1
  O  O22  1  0.745671  0.340514  0.577465  1
  O  O23  1  0.781140  0.176281  0.103214  1
  O  O24  1  0.651659  0.774162  0.170825  1
  O  O25  1  0.348341  0.225838  0.829175  1
  O  O26  1  0.923562  0.308116  0.258768  1
  O  O27  1  0.029033  0.764188  0.167434  1
  O  O28  1  0.841267  0.941265  0.632008  1
  O  O29  1  0.702118  0.057827  0.363904  1
  O  O30  1  0.711062  0.821066  0.896332  1
  O  O31  1  0.254329  0.659486  0.422535  1
  O  O32  1  0.970967  0.235812  0.832566  1
  O  O33  1  0.218860  0.823719  0.896786  1
  O  O34  1  0.414419  0.687900  0.067029  1
  O  O35  1  0.195984  0.394775  0.316108  1
  O  O36  1  0.449025  0.602076  0.688754  1
  O  O37  1  0.158733  0.058735  0.367992  1
  O  O38  1  0.804016  0.605225  0.683892  1
  O  O39  1  0.585581  0.312100  0.932971  1
  O  O40  1  0.277587  0.328754  0.551203  1
  O  O41  1  0.722413  0.671246  0.448797  1
  O  O42  1  0.550975  0.397924  0.311246  1
  O  O43  1  0.221190  0.497941  0.993495  1
