# generated using pymatgen
data_SrMn(SeO3)2
_symmetry_space_group_name_H-M   'P 1'
_cell_length_a   4.50411112
_cell_length_b   9.78123578
_cell_length_c   15.09303399
_cell_angle_alpha   90.00000000
_cell_angle_beta   90.00000000
_cell_angle_gamma   94.11221978
_symmetry_Int_Tables_number   1
_chemical_formula_structural   SrMn(SeO3)2
_chemical_formula_sum   'Sr4 Mn4 Se8 O24'
_cell_volume   663.22340863
_cell_formula_units_Z   4
loop_
 _symmetry_equiv_pos_site_id
 _symmetry_equiv_pos_as_xyz
  1  'x, y, z'
loop_
 _atom_site_type_symbol
 _atom_site_label
 _atom_site_symmetry_multiplicity
 _atom_site_fract_x
 _atom_site_fract_y
 _atom_site_fract_z
 _atom_site_occupancy
  Sr  Sr0  1  0.757690  0.464998  0.116674  1
  Sr  Sr1  1  0.742310  0.035002  0.616674  1
  Sr  Sr2  1  0.242310  0.535002  0.883326  1
  Sr  Sr3  1  0.257690  0.964998  0.383326  1
  Mn  Mn4  1  0.223647  0.708791  0.652942  1
  Mn  Mn5  1  0.776353  0.291209  0.347058  1
  Mn  Mn6  1  0.723647  0.208791  0.847058  1
  Mn  Mn7  1  0.276353  0.791209  0.152942  1
  Se  Se8  1  0.721020  0.077824  0.200999  1
  Se  Se9  1  0.278980  0.922176  0.799001  1
  Se  Se10  1  0.763201  0.719345  0.500163  1
  Se  Se11  1  0.263201  0.219345  -0.000163  1
  Se  Se12  1  0.221020  0.577824  0.299001  1
  Se  Se13  1  0.778980  0.422176  0.700999  1
  Se  Se14  1  0.236799  0.280655  0.499837  1
  Se  Se15  1  0.736799  0.780655  1.000163  1
  O  O16  1  0.132909  0.503648  0.699788  1
  O  O17  1  0.355765  0.784701  0.009965  1
  O  O18  1  0.206286  0.933240  0.685169  1
  O  O19  1  0.144235  0.715299  0.509965  1
  O  O20  1  0.192181  0.229705  0.885489  1
  O  O21  1  0.839541  0.249722  0.703938  1
  O  O22  1  0.793714  0.066760  0.314831  1
  O  O23  1  0.160459  0.750278  0.296062  1
  O  O24  1  0.235082  0.388202  0.031733  1
  O  O25  1  0.264918  0.111798  0.531733  1
  O  O26  1  0.339541  0.749722  0.796062  1
  O  O27  1  0.735082  0.888202  0.468267  1
  O  O28  1  0.764918  0.611798  0.968267  1
  O  O29  1  0.867091  0.496352  0.300212  1
  O  O30  1  0.632909  0.003648  0.800212  1
  O  O31  1  0.644235  0.215299  0.990035  1
  O  O32  1  0.807819  0.770295  0.114511  1
  O  O33  1  0.307819  0.270295  0.385489  1
  O  O34  1  0.367091  0.996352  0.199788  1
  O  O35  1  0.660459  0.250278  0.203938  1
  O  O36  1  0.692181  0.729705  0.614511  1
  O  O37  1  0.293714  0.566760  0.185169  1
  O  O38  1  0.706286  0.433240  0.814831  1
  O  O39  1  0.855765  0.284701  0.490035  1
