# generated using pymatgen
data_ErHO2
_symmetry_space_group_name_H-M   'P 1'
_cell_length_a   3.61623643
_cell_length_b   4.30773945
_cell_length_c   6.05673727
_cell_angle_alpha   112.32189267
_cell_angle_beta   90.00000000
_cell_angle_gamma   90.00000000
_symmetry_Int_Tables_number   1
_chemical_formula_structural   ErHO2
_chemical_formula_sum   'Er2 H2 O4'
_cell_volume   87.28046869
_cell_formula_units_Z   2
loop_
 _symmetry_equiv_pos_site_id
 _symmetry_equiv_pos_as_xyz
  1  'x, y, z'
loop_
 _atom_site_type_symbol
 _atom_site_label
 _atom_site_symmetry_multiplicity
 _atom_site_fract_x
 _atom_site_fract_y
 _atom_site_fract_z
 _atom_site_occupancy
  Er  Er0  1  0.250000  0.352554  0.188779  1
  Er  Er1  1  0.750000  0.647446  0.811221  1
  O  O2  1  0.250000  0.785923  0.053350  1
  O  O3  1  0.750000  0.214077  0.946650  1
  O  O4  1  0.250000  0.319498  0.566737  1
  O  O5  1  0.750000  0.680502  0.433263  1
  H  H6  1  0.250000  0.112794  0.596337  1
  H  H7  1  0.750000  0.887206  0.403663  1
