# generated using pymatgen
data_KNb(AgSe2)2
_symmetry_space_group_name_H-M   'P 1'
_cell_length_a   6.13859951
_cell_length_b   8.32436306
_cell_length_c   10.44310888
_cell_angle_alpha   90.00000000
_cell_angle_beta   107.09198714
_cell_angle_gamma   90.00000000
_symmetry_Int_Tables_number   1
_chemical_formula_structural   KNb(AgSe2)2
_chemical_formula_sum   'K2 Nb2 Ag4 Se8'
_cell_volume   510.07337185
_cell_formula_units_Z   2
loop_
 _symmetry_equiv_pos_site_id
 _symmetry_equiv_pos_as_xyz
  1  'x, y, z'
loop_
 _atom_site_type_symbol
 _atom_site_label
 _atom_site_symmetry_multiplicity
 _atom_site_fract_x
 _atom_site_fract_y
 _atom_site_fract_z
 _atom_site_occupancy
  K  K0  1  0.831238  0.250000  0.364073  1
  K  K1  1  0.467165  0.750000  0.635927  1
  Nb  Nb2  1  0.995710  0.750000  0.225329  1
  Nb  Nb3  1  0.770380  0.250000  0.774671  1
  Ag  Ag4  1  0.918750  0.500000  0.000000  1
  Ag  Ag5  1  0.918750  0.000000  0.000000  1
  Ag  Ag6  1  0.497494  0.750000  0.229184  1
  Ag  Ag7  1  0.268310  0.250000  0.770816  1
  Se  Se8  1  0.639726  0.250000  0.980275  1
  Se  Se9  1  0.226149  0.996126  0.237237  1
  Se  Se10  1  0.226149  0.503874  0.237237  1
  Se  Se11  1  0.880643  0.750000  0.428721  1
  Se  Se12  1  0.451923  0.250000  0.571279  1
  Se  Se13  1  0.988911  0.003874  0.762763  1
  Se  Se14  1  0.659451  0.750000  0.019725  1
  Se  Se15  1  0.988911  0.496126  0.762763  1
