# generated using pymatgen
data_Cs2Ge2S5
_symmetry_space_group_name_H-M   'P 1'
_cell_length_a   9.67154272
_cell_length_b   11.46048540
_cell_length_c   11.46048539
_cell_angle_alpha   90.40520988
_cell_angle_beta   100.75544041
_cell_angle_gamma   100.75544195
_symmetry_Int_Tables_number   1
_chemical_formula_structural   Cs2Ge2S5
_chemical_formula_sum   'Cs8 Ge8 S20'
_cell_volume   1224.89198972
_cell_formula_units_Z   4
loop_
 _symmetry_equiv_pos_site_id
 _symmetry_equiv_pos_as_xyz
  1  'x, y, z'
loop_
 _atom_site_type_symbol
 _atom_site_label
 _atom_site_symmetry_multiplicity
 _atom_site_fract_x
 _atom_site_fract_y
 _atom_site_fract_z
 _atom_site_occupancy
  Cs  Cs0  1  0.860573  0.939051  0.792846  1
  Cs  Cs1  1  0.139427  0.060949  0.207154  1
  Cs  Cs2  1  0.129849  0.479689  0.211457  1
  Cs  Cs3  1  0.370151  0.788543  0.520311  1
  Cs  Cs4  1  0.639427  0.207154  0.060949  1
  Cs  Cs5  1  0.360573  0.792846  0.939051  1
  Cs  Cs6  1  0.629849  0.211457  0.479689  1
  Cs  Cs7  1  0.870151  0.520311  0.788543  1
  Ge  Ge8  1  0.380237  0.141703  0.730729  1
  Ge  Ge9  1  0.605533  0.530533  0.265389  1
  Ge  Ge10  1  0.619763  0.858297  0.269271  1
  Ge  Ge11  1  0.119763  0.269271  0.858297  1
  Ge  Ge12  1  0.394467  0.469467  0.734611  1
  Ge  Ge13  1  0.105533  0.265389  0.530533  1
  Ge  Ge14  1  0.894467  0.734611  0.469467  1
  Ge  Ge15  1  0.880237  0.730729  0.141703  1
  S  S16  1  0.739588  0.548368  0.119581  1
  S  S17  1  0.464215  0.361336  0.242171  1
  S  S18  1  0.750000  0.878059  0.121941  1
  S  S19  1  0.035785  0.757829  0.638664  1
  S  S20  1  0.482466  0.986661  0.246673  1
  S  S21  1  0.972668  0.243164  0.676699  1
  S  S22  1  0.750000  0.552393  0.447607  1
  S  S23  1  0.250000  0.447607  0.552393  1
  S  S24  1  0.239588  0.119581  0.548368  1
  S  S25  1  0.527332  0.323301  0.756836  1
  S  S26  1  0.517534  0.013339  0.753327  1
  S  S27  1  0.760412  0.880419  0.451632  1
  S  S28  1  0.982466  0.246673  0.986661  1
  S  S29  1  0.250000  0.121941  0.878059  1
  S  S30  1  0.964215  0.242171  0.361336  1
  S  S31  1  0.017534  0.753327  0.013339  1
  S  S32  1  0.260412  0.451632  0.880419  1
  S  S33  1  0.535785  0.638664  0.757829  1
  S  S34  1  0.027332  0.756836  0.323301  1
  S  S35  1  0.472668  0.676699  0.243164  1
