# generated using pymatgen
data_LiAsS2
_symmetry_space_group_name_H-M   'P 1'
_cell_length_a   5.39028995
_cell_length_b   5.43588638
_cell_length_c   6.59025634
_cell_angle_alpha   114.35935457
_cell_angle_beta   111.14855196
_cell_angle_gamma   89.99921174
_symmetry_Int_Tables_number   1
_chemical_formula_structural   LiAsS2
_chemical_formula_sum   'Li2 As2 S4'
_cell_volume   161.52707861
_cell_formula_units_Z   2
loop_
 _symmetry_equiv_pos_site_id
 _symmetry_equiv_pos_as_xyz
  1  'x, y, z'
loop_
 _atom_site_type_symbol
 _atom_site_label
 _atom_site_symmetry_multiplicity
 _atom_site_fract_x
 _atom_site_fract_y
 _atom_site_fract_z
 _atom_site_occupancy
  Li  Li0  1  0.001202  0.767312  0.001272  1
  Li  Li1  1  0.501203  0.233949  0.001273  1
  As  As2  1  0.682752  0.943413  0.442544  1
  As  As3  1  0.182815  0.499222  0.442540  1
  S  S4  1  0.523994  0.760623  0.042937  1
  S  S5  1  0.024019  0.282217  0.042946  1
  S  S6  1  0.285802  0.961344  0.520384  1
  S  S7  1  0.785813  0.559059  0.520385  1
