# generated using pymatgen
data_P2W7O25
_symmetry_space_group_name_H-M   'P 1'
_cell_length_a   5.41614819
_cell_length_b   6.71513596
_cell_length_c   27.28221567
_cell_angle_alpha   90.00000000
_cell_angle_beta   90.00068820
_cell_angle_gamma   90.00000000
_symmetry_Int_Tables_number   1
_chemical_formula_structural   P2W7O25
_chemical_formula_sum   'P4 W14 O50'
_cell_volume   992.25886231
_cell_formula_units_Z   2
loop_
 _symmetry_equiv_pos_site_id
 _symmetry_equiv_pos_as_xyz
  1  'x, y, z'
loop_
 _atom_site_type_symbol
 _atom_site_label
 _atom_site_symmetry_multiplicity
 _atom_site_fract_x
 _atom_site_fract_y
 _atom_site_fract_z
 _atom_site_occupancy
  O  O0  1  0.214289  0.333119  0.801869  1
  O  O1  1  0.285711  0.833119  0.698131  1
  O  O2  1  0.785711  0.666881  0.198131  1
  O  O3  1  0.714289  0.166881  0.301869  1
  O  O4  1  0.745392  0.310054  0.797672  1
  O  O5  1  0.754608  0.810054  0.702328  1
  O  O6  1  0.254608  0.689946  0.202328  1
  O  O7  1  0.245392  0.189946  0.297672  1
  O  O8  1  0.236344  0.182164  0.647140  1
  O  O9  1  0.263656  0.682164  0.852860  1
  O  O10  1  0.763656  0.817836  0.352860  1
  O  O11  1  0.736344  0.317836  0.147140  1
  O  O12  1  0.739214  0.160668  0.650995  1
  O  O13  1  0.760786  0.660668  0.849005  1
  O  O14  1  0.260786  0.839332  0.349005  1
  O  O15  1  0.239214  0.339332  0.150995  1
  O  O16  1  0.730594  0.485512  0.413041  1
  O  O17  1  0.269406  0.514488  0.586959  1
  O  O18  1  0.500000  0.000000  0.000000  1
  O  O19  1  0.000000  0.500000  0.500000  1
  O  O20  1  0.501028  0.168906  0.561329  1
  O  O21  1  0.998972  0.668906  0.938671  1
  O  O22  1  0.498972  0.831094  0.438671  1
  O  O23  1  0.001028  0.331094  0.061329  1
  O  O24  1  0.996070  0.157734  0.383836  1
  O  O25  1  0.503930  0.657734  0.116164  1
  O  O26  1  0.003930  0.842266  0.616164  1
  O  O27  1  0.496070  0.342266  0.883836  1
  O  O28  1  0.002518  0.989429  0.176638  1
  O  O29  1  0.497482  0.489429  0.323362  1
  O  O30  1  0.997482  0.010571  0.823362  1
  O  O31  1  0.502518  0.510571  0.676638  1
  O  O32  1  0.508574  0.366061  0.236929  1
  O  O33  1  0.991426  0.866061  0.263071  1
  O  O34  1  0.491426  0.633939  0.763071  1
  O  O35  1  0.008574  0.133939  0.736929  1
  O  O36  1  0.265022  0.184079  0.467719  1
  O  O37  1  0.234978  0.684079  0.032281  1
  O  O38  1  0.734978  0.815921  0.532281  1
  O  O39  1  0.765022  0.315921  0.967719  1
  O  O40  1  0.766404  0.155902  0.473437  1
  O  O41  1  0.733596  0.655902  0.026563  1
  O  O42  1  0.233596  0.844098  0.526563  1
  O  O43  1  0.266404  0.344098  0.973437  1
  O  O44  1  0.272520  0.011801  0.091133  1
  O  O45  1  0.227480  0.511801  0.408867  1
  O  O46  1  0.727480  0.988199  0.908867  1
  O  O47  1  0.772520  0.488199  0.591133  1
  O  O48  1  0.769406  0.985512  0.086959  1
  O  O49  1  0.230594  0.014488  0.913041  1
  P  P50  1  0.991602  0.197777  0.791122  1
  P  P51  1  0.508398  0.697777  0.708878  1
  P  P52  1  0.008398  0.802223  0.208878  1
  P  P53  1  0.491602  0.302223  0.291122  1
  W  W54  1  0.501457  0.169196  0.943532  1
  W  W55  1  0.998543  0.669196  0.556468  1
  W  W56  1  0.498543  0.830804  0.056468  1
  W  W57  1  0.001457  0.330804  0.443532  1
  W  W58  1  0.497793  0.502828  0.828649  1
  W  W59  1  0.002207  0.002828  0.671351  1
  W  W60  1  0.502207  0.497172  0.171351  1
  W  W61  1  0.997793  0.997172  0.328649  1
  W  W62  1  0.502705  0.338771  0.614448  1
  W  W63  1  0.997295  0.838771  0.885552  1
  W  W64  1  0.497295  0.661229  0.385552  1
  W  W65  1  0.002705  0.161229  0.114448  1
  W  W66  1  0.500000  0.000000  0.500000  1
  W  W67  1  0.000000  0.500000  0.000000  1
