# generated using pymatgen
data_Cd3As2
_symmetry_space_group_name_H-M   'P 1'
_cell_length_a   12.90280536
_cell_length_b   12.90280536
_cell_length_c   15.87933204
_cell_angle_alpha   113.97115675
_cell_angle_beta   113.97115675
_cell_angle_gamma   90.00000000
_symmetry_Int_Tables_number   1
_chemical_formula_structural   Cd3As2
_chemical_formula_sum   'Cd48 As32'
_cell_volume   2163.70742224
_cell_formula_units_Z   16
loop_
 _symmetry_equiv_pos_site_id
 _symmetry_equiv_pos_as_xyz
  1  'x, y, z'
loop_
 _atom_site_type_symbol
 _atom_site_label
 _atom_site_symmetry_multiplicity
 _atom_site_fract_x
 _atom_site_fract_y
 _atom_site_fract_z
 _atom_site_occupancy
  Cd  Cd0  1  0.043266  0.556100  0.374806  1
  Cd  Cd1  1  0.831540  0.056100  0.374806  1
  Cd  Cd2  1  0.056100  0.543266  0.874806  1
  Cd  Cd3  1  0.318706  0.043266  0.874806  1
  Cd  Cd4  1  0.956734  0.443900  0.625194  1
  Cd  Cd5  1  0.168460  0.943900  0.625194  1
  Cd  Cd6  1  0.943900  0.456734  0.125194  1
  Cd  Cd7  1  0.681294  0.956734  0.125194  1
  Cd  Cd8  1  0.543266  0.818706  0.374806  1
  Cd  Cd9  1  0.331540  0.318706  0.374806  1
  Cd  Cd10  1  0.556100  0.331540  0.874806  1
  Cd  Cd11  1  0.818706  0.831540  0.874806  1
  Cd  Cd12  1  0.456734  0.181294  0.625194  1
  Cd  Cd13  1  0.668460  0.681294  0.625194  1
  Cd  Cd14  1  0.443900  0.668460  0.125194  1
  Cd  Cd15  1  0.181294  0.168460  0.125194  1
  Cd  Cd16  1  0.569799  0.539340  0.355005  1
  Cd  Cd17  1  0.285206  0.039340  0.355005  1
  Cd  Cd18  1  0.039340  0.069799  0.855005  1
  Cd  Cd19  1  0.315664  0.569799  0.855005  1
  Cd  Cd20  1  0.430201  0.460660  0.644995  1
  Cd  Cd21  1  0.714794  0.960660  0.644995  1
  Cd  Cd22  1  0.960660  0.930201  0.144995  1
  Cd  Cd23  1  0.684336  0.430201  0.144995  1
  Cd  Cd24  1  0.069799  0.815664  0.355005  1
  Cd  Cd25  1  0.785206  0.315664  0.355005  1
  Cd  Cd26  1  0.539340  0.785206  0.855005  1
  Cd  Cd27  1  0.815664  0.285206  0.855005  1
  Cd  Cd28  1  0.930201  0.184336  0.644995  1
  Cd  Cd29  1  0.214794  0.684336  0.644995  1
  Cd  Cd30  1  0.460660  0.214794  0.144995  1
  Cd  Cd31  1  0.184336  0.714794  0.144995  1
  Cd  Cd32  1  0.316749  0.586861  0.394932  1
  Cd  Cd33  1  0.578183  0.086861  0.394932  1
  Cd  Cd34  1  0.086861  0.816749  0.894932  1
  Cd  Cd35  1  0.308071  0.316749  0.894932  1
  Cd  Cd36  1  0.683251  0.413139  0.605068  1
  Cd  Cd37  1  0.421817  0.913139  0.605068  1
  Cd  Cd38  1  0.913139  0.183251  0.105068  1
  Cd  Cd39  1  0.691929  0.683251  0.105068  1
  Cd  Cd40  1  0.816749  0.808071  0.394932  1
  Cd  Cd41  1  0.078183  0.308071  0.394932  1
  Cd  Cd42  1  0.586861  0.078183  0.894932  1
  Cd  Cd43  1  0.808071  0.578183  0.894932  1
  Cd  Cd44  1  0.183251  0.191929  0.605068  1
  Cd  Cd45  1  0.921817  0.691929  0.605068  1
  Cd  Cd46  1  0.413139  0.921817  0.105068  1
  Cd  Cd47  1  0.191929  0.421817  0.105068  1
  As  As48  1  0.134817  0.622480  0.253866  1
  As  As49  1  0.619049  0.122480  0.253866  1
  As  As50  1  0.122480  0.634817  0.753866  1
  As  As51  1  0.131385  0.134817  0.753866  1
  As  As52  1  0.865183  0.377520  0.746134  1
  As  As53  1  0.380951  0.877520  0.746134  1
  As  As54  1  0.877520  0.365183  0.246134  1
  As  As55  1  0.868615  0.865183  0.246134  1
  As  As56  1  0.634817  0.631385  0.253866  1
  As  As57  1  0.119049  0.131385  0.253866  1
  As  As58  1  0.622480  0.119049  0.753866  1
  As  As59  1  0.631385  0.619049  0.753866  1
  As  As60  1  0.365183  0.368615  0.746134  1
  As  As61  1  0.880951  0.868615  0.746134  1
  As  As62  1  0.377520  0.880951  0.246134  1
  As  As63  1  0.368615  0.380951  0.246134  1
  As  As64  1  0.250580  0.500580  0.501159  1
  As  As65  1  0.750580  0.000580  0.501159  1
  As  As66  1  0.000580  0.750580  0.001159  1
  As  As67  1  0.500580  0.250580  0.001159  1
  As  As68  1  0.749420  0.499420  0.498841  1
  As  As69  1  0.249420  0.999420  0.498841  1
  As  As70  1  0.999420  0.249420  0.998841  1
  As  As71  1  0.499420  0.749420  0.998841  1
  As  As72  1  0.510891  0.750000  0.500000  1
  As  As73  1  0.489109  0.250000  0.500000  1
  As  As74  1  0.250000  0.010891  0.000000  1
  As  As75  1  0.250000  0.510891  0.000000  1
  As  As76  1  0.750000  0.989109  -0.000000  1
  As  As77  1  0.750000  0.489109  -0.000000  1
  As  As78  1  0.010891  0.750000  0.500000  1
  As  As79  1  0.989109  0.250000  0.500000  1
