# generated using pymatgen
data_Gd2S2O
_symmetry_space_group_name_H-M   'P 1'
_cell_length_a   6.94368481
_cell_length_b   7.01850270
_cell_length_c   8.37376071
_cell_angle_alpha   90.00000000
_cell_angle_beta   99.07333983
_cell_angle_gamma   90.00000000
_symmetry_Int_Tables_number   1
_chemical_formula_structural   Gd2S2O
_chemical_formula_sum   'Gd8 S8 O4'
_cell_volume   402.98282039
_cell_formula_units_Z   4
loop_
 _symmetry_equiv_pos_site_id
 _symmetry_equiv_pos_as_xyz
  1  'x, y, z'
loop_
 _atom_site_type_symbol
 _atom_site_label
 _atom_site_symmetry_multiplicity
 _atom_site_fract_x
 _atom_site_fract_y
 _atom_site_fract_z
 _atom_site_occupancy
  Gd  Gd0  1  0.249663  0.445244  0.862501  1
  Gd  Gd1  1  0.750337  0.554756  0.137499  1
  Gd  Gd2  1  0.182787  0.359666  0.422262  1
  Gd  Gd3  1  0.682787  0.140334  0.422262  1
  Gd  Gd4  1  0.749663  0.054756  0.862501  1
  Gd  Gd5  1  0.250337  0.945244  0.137499  1
  Gd  Gd6  1  0.817213  0.640334  0.577738  1
  Gd  Gd7  1  0.317213  0.859666  0.577738  1
  S  S8  1  0.571113  0.361455  0.678470  1
  S  S9  1  0.928887  0.861455  0.321530  1
  S  S10  1  0.529649  0.224075  0.076638  1
  S  S11  1  0.470351  0.775925  0.923362  1
  S  S12  1  0.071113  0.138545  0.678470  1
  S  S13  1  0.029649  0.275925  0.076638  1
  S  S14  1  0.970351  0.724075  0.923362  1
  S  S15  1  0.428887  0.638545  0.321530  1
  O  O16  1  0.649121  0.912821  0.617405  1
  O  O17  1  0.850879  0.412821  0.382595  1
  O  O18  1  0.149121  0.587179  0.617405  1
  O  O19  1  0.350879  0.087179  0.382595  1
