# generated using pymatgen
data_Rb4CO4
_symmetry_space_group_name_H-M   'P 1'
_cell_length_a   6.21808392
_cell_length_b   6.21808440
_cell_length_c   5.90139789
_cell_angle_alpha   97.87014408
_cell_angle_beta   97.87012789
_cell_angle_gamma   112.33400095
_symmetry_Int_Tables_number   1
_chemical_formula_structural   Rb4CO4
_chemical_formula_sum   'Rb4 C1 O4'
_cell_volume   204.57613895
_cell_formula_units_Z   1
loop_
 _symmetry_equiv_pos_site_id
 _symmetry_equiv_pos_as_xyz
  1  'x, y, z'
loop_
 _atom_site_type_symbol
 _atom_site_label
 _atom_site_symmetry_multiplicity
 _atom_site_fract_x
 _atom_site_fract_y
 _atom_site_fract_z
 _atom_site_occupancy
  C  C0  1  0.554105  0.554105  0.751782  1
  O  O1  1  0.711313  0.485320  0.631503  1
  O  O2  1  0.673458  0.673459  0.988719  1
  O  O3  1  0.344525  0.344525  0.751281  1
  Rb  Rb4  1  0.365707  0.365707  0.255461  1
  O  O5  1  0.485320  0.711313  0.631503  1
  Rb  Rb6  1  0.892516  0.892517  0.446300  1
  Rb  Rb7  1  0.666871  0.147505  0.891215  1
  Rb  Rb8  1  0.147504  0.666871  0.891215  1
