# generated using pymatgen
data_La11C11Cl7
_symmetry_space_group_name_H-M   'P 1'
_cell_length_a   6.94682664
_cell_length_b   7.82427666
_cell_length_c   47.24311483
_cell_angle_alpha   90.00000000
_cell_angle_beta   90.00000000
_cell_angle_gamma   104.27047709
_symmetry_Int_Tables_number   1
_chemical_formula_structural   La11C11Cl7
_chemical_formula_sum   'La44 C44 Cl28'
_cell_volume   2488.61084766
_cell_formula_units_Z   4
loop_
 _symmetry_equiv_pos_site_id
 _symmetry_equiv_pos_as_xyz
  1  'x, y, z'
loop_
 _atom_site_type_symbol
 _atom_site_label
 _atom_site_symmetry_multiplicity
 _atom_site_fract_x
 _atom_site_fract_y
 _atom_site_fract_z
 _atom_site_occupancy
  La  La0  1  0.134631  0.390248  0.411052  1
  La  La1  1  0.132411  0.385561  0.049048  1
  La  La2  1  0.867589  0.614439  0.950952  1
  La  La3  1  0.362549  0.766460  0.459383  1
  La  La4  1  0.380132  0.700171  0.358884  1
  La  La5  1  0.386361  0.556676  0.270242  1
  La  La6  1  0.864319  0.680117  0.865352  1
  La  La7  1  0.119868  0.299829  0.858884  1
  La  La8  1  0.869536  0.769587  0.404596  1
  La  La9  1  0.865369  0.609752  0.588948  1
  La  La10  1  0.616153  0.369529  0.815480  1
  La  La11  1  0.130464  0.230413  0.595404  1
  La  La12  1  0.862549  0.766460  0.040617  1
  La  La13  1  0.613639  0.443324  0.729758  1
  La  La14  1  0.123966  0.309252  0.497408  1
  La  La15  1  0.883847  0.630471  0.315480  1
  La  La16  1  0.623966  0.309252  0.002592  1
  La  La17  1  0.637451  0.233540  0.540617  1
  La  La18  1  0.367589  0.614439  0.549048  1
  La  La19  1  0.116153  0.369529  0.684520  1
  La  La20  1  0.848068  0.822135  0.777792  1
  La  La21  1  0.876034  0.690748  0.502592  1
  La  La22  1  0.357168  0.750000  0.822482  1
  La  La23  1  0.365369  0.609752  0.911052  1
  La  La24  1  0.142832  0.250000  0.322482  1
  La  La25  1  0.886361  0.556676  0.229758  1
  La  La26  1  0.651932  0.177865  0.277792  1
  La  La27  1  0.619868  0.299829  0.641116  1
  La  La28  1  0.857168  0.750000  0.677518  1
  La  La29  1  0.642832  0.250000  0.177518  1
  La  La30  1  0.635681  0.319883  0.365352  1
  La  La31  1  0.632411  0.385561  0.450952  1
  La  La32  1  0.137451  0.233540  0.959383  1
  La  La33  1  0.369536  0.769587  0.095404  1
  La  La34  1  0.135681  0.319883  0.134648  1
  La  La35  1  0.630464  0.230413  0.904596  1
  La  La36  1  0.348068  0.822135  0.722208  1
  La  La37  1  0.151932  0.177865  0.222208  1
  La  La38  1  0.383847  0.630471  0.184520  1
  La  La39  1  0.880132  0.700171  0.141116  1
  La  La40  1  0.376034  0.690748  0.997408  1
  La  La41  1  0.364319  0.680117  0.634648  1
  La  La42  1  0.113639  0.443324  0.770242  1
  La  La43  1  0.634631  0.390248  0.088948  1
  C  C44  1  0.522155  0.384179  0.944035  1
  C  C45  1  0.518328  0.501993  0.673210  1
  C  C46  1  0.526317  0.506637  0.036204  1
  C  C47  1  0.528461  0.440749  0.508151  1
  C  C48  1  0.521035  0.378602  0.581038  1
  C  C49  1  0.961290  0.619609  0.809551  1
  C  C50  1  0.981672  0.498007  0.173210  1
  C  C51  1  0.039713  0.453659  0.354533  1
  C  C52  1  0.981301  0.570116  0.371704  1
  C  C53  1  0.971539  0.559251  0.008151  1
  C  C54  1  0.029783  0.517077  0.101195  1
  C  C55  1  0.026317  0.506637  0.463796  1
  C  C56  1  0.538710  0.380391  0.309551  1
  C  C57  1  0.492226  0.430950  0.217334  1
  C  C58  1  0.481301  0.570116  0.128296  1
  C  C59  1  0.970217  0.482923  0.898805  1
  C  C60  1  0.473683  0.493363  0.963796  1
  C  C61  1  0.960287  0.546341  0.645467  1
  C  C62  1  0.507774  0.569050  0.782666  1
  C  C63  1  0.518699  0.429884  0.871704  1
  C  C64  1  0.022155  0.384179  0.555965  1
  C  C65  1  0.458164  0.673480  0.762479  1
  C  C66  1  0.021035  0.378602  0.918962  1
  C  C67  1  0.028461  0.440749  0.991849  1
  C  C68  1  0.018699  0.429884  0.628296  1
  C  C69  1  0.481671  0.498007  0.326790  1
  C  C70  1  0.038710  0.380391  0.190449  1
  C  C71  1  0.018329  0.501993  0.826790  1
  C  C72  1  0.978965  0.621398  0.081038  1
  C  C73  1  0.529783  0.517077  0.398805  1
  C  C74  1  0.478965  0.621398  0.418962  1
  C  C75  1  0.460287  0.546341  0.854533  1
  C  C76  1  0.977845  0.615821  0.444035  1
  C  C77  1  0.958164  0.673480  0.737521  1
  C  C78  1  0.973683  0.493363  0.536204  1
  C  C79  1  0.471539  0.559251  0.491849  1
  C  C80  1  0.470217  0.482923  0.601195  1
  C  C81  1  0.477845  0.615821  0.055965  1
  C  C82  1  0.041835  0.326520  0.262479  1
  C  C83  1  0.992226  0.430950  0.282666  1
  C  C84  1  0.539713  0.453659  0.145467  1
  C  C85  1  0.007774  0.569050  0.717334  1
  C  C86  1  0.541836  0.326520  0.237521  1
  C  C87  1  0.461290  0.619609  0.690449  1
  Cl  Cl88  1  0.283183  0.831376  0.233033  1
  Cl  Cl89  1  0.237262  0.117185  0.086968  1
  Cl  Cl90  1  0.761254  0.950122  0.984140  1
  Cl  Cl91  1  0.240278  0.023850  0.659975  1
  Cl  Cl92  1  0.740278  0.023850  0.840025  1
  Cl  Cl93  1  0.735132  0.116066  0.052342  1
  Cl  Cl94  1  0.762367  0.940396  0.624582  1
  Cl  Cl95  1  0.238746  0.049878  0.015860  1
  Cl  Cl96  1  0.759722  0.976150  0.340025  1
  Cl  Cl97  1  0.762738  0.882815  0.913032  1
  Cl  Cl98  1  0.264868  0.883934  0.947658  1
  Cl  Cl99  1  0.783183  0.831376  0.266967  1
  Cl  Cl100  1  0.737262  0.117185  0.413032  1
  Cl  Cl101  1  0.262367  0.940396  0.875418  1
  Cl  Cl102  1  0.717769  0.111170  0.694449  1
  Cl  Cl103  1  0.782231  0.888830  0.194449  1
  Cl  Cl104  1  0.716817  0.168624  0.766967  1
  Cl  Cl105  1  0.235132  0.116066  0.447658  1
  Cl  Cl106  1  0.262738  0.882815  0.586968  1
  Cl  Cl107  1  0.282231  0.888830  0.305551  1
  Cl  Cl108  1  0.764868  0.883934  0.552342  1
  Cl  Cl109  1  0.737633  0.059604  0.124582  1
  Cl  Cl110  1  0.738746  0.049878  0.484140  1
  Cl  Cl111  1  0.261254  0.950122  0.515860  1
  Cl  Cl112  1  0.237633  0.059604  0.375418  1
  Cl  Cl113  1  0.216817  0.168624  0.733033  1
  Cl  Cl114  1  0.259722  0.976150  0.159974  1
  Cl  Cl115  1  0.217769  0.111170  0.805551  1
