# generated using pymatgen
data_Pr9O16
_symmetry_space_group_name_H-M   'P 1'
_cell_length_a   6.88355093
_cell_length_b   7.01136388
_cell_length_c   9.14782761
_cell_angle_alpha   74.04455278
_cell_angle_beta   80.83499052
_cell_angle_gamma   81.39419604
_symmetry_Int_Tables_number   1
_chemical_formula_structural   Pr9O16
_chemical_formula_sum   'Pr9 O16'
_cell_volume   416.46064311
_cell_formula_units_Z   1
loop_
 _symmetry_equiv_pos_site_id
 _symmetry_equiv_pos_as_xyz
  1  'x, y, z'
loop_
 _atom_site_type_symbol
 _atom_site_label
 _atom_site_symmetry_multiplicity
 _atom_site_fract_x
 _atom_site_fract_y
 _atom_site_fract_z
 _atom_site_occupancy
  Pr  Pr0  1  0.671860  0.309206  0.671926  1
  Pr  Pr1  1  0.328139  0.690794  0.328074  1
  Pr  Pr2  1  0.408698  0.238391  0.100897  1
  Pr  Pr3  1  0.229969  0.124384  0.526911  1
  Pr  Pr4  1  0.000000  0.000000  0.000000  1
  Pr  Pr5  1  0.107245  0.521342  0.773018  1
  Pr  Pr6  1  0.892755  0.478658  0.226982  1
  Pr  Pr7  1  0.591302  0.761609  0.899103  1
  Pr  Pr8  1  0.770031  0.875616  0.473089  1
  O  O9  1  0.070794  0.295598  0.044751  1
  O  O10  1  0.779273  0.611883  0.702424  1
  O  O11  1  0.527709  0.005306  0.663204  1
  O  O12  1  0.646548  0.581083  0.428859  1
  O  O13  1  0.929206  0.704402  0.955249  1
  O  O14  1  0.124236  0.805574  0.545998  1
  O  O15  1  0.353452  0.418917  0.571141  1
  O  O16  1  0.974316  0.786774  0.256862  1
  O  O17  1  0.668055  0.087537  0.940111  1
  O  O18  1  0.220727  0.388117  0.297576  1
  O  O19  1  0.025684  0.213226  0.743138  1
  O  O20  1  0.423741  0.496727  0.858119  1
  O  O21  1  0.472291  0.994694  0.336796  1
  O  O22  1  0.576259  0.503273  0.141881  1
  O  O23  1  0.875764  0.194426  0.454002  1
  O  O24  1  0.331945  0.912463  0.059889  1
