# generated using pymatgen
data_Ta5Sb4
_symmetry_space_group_name_H-M   'P 1'
_cell_length_a   3.39848608
_cell_length_b   7.56284022
_cell_length_c   7.56284083
_cell_angle_alpha   87.10633778
_cell_angle_beta   77.01575063
_cell_angle_gamma   77.01575179
_symmetry_Int_Tables_number   1
_chemical_formula_structural   Ta5Sb4
_chemical_formula_sum   'Ta5 Sb4'
_cell_volume   184.56882181
_cell_formula_units_Z   1
loop_
 _symmetry_equiv_pos_site_id
 _symmetry_equiv_pos_as_xyz
  1  'x, y, z'
loop_
 _atom_site_type_symbol
 _atom_site_label
 _atom_site_symmetry_multiplicity
 _atom_site_fract_x
 _atom_site_fract_y
 _atom_site_fract_z
 _atom_site_occupancy
  Ta  Ta0  1  0.046094  0.302551  0.605260  1
  Ta  Ta1  1  0.651355  0.394740  0.302551  1
  Ta  Ta2  1  0.348645  0.605260  0.697449  1
  Ta  Ta3  1  0.953906  0.697449  0.394740  1
  Ta  Ta4  1  0.000000  0.000000  0.000000  1
  Sb  Sb5  1  0.322589  0.042400  0.312422  1
  Sb  Sb6  1  0.364989  0.312422  0.957600  1
  Sb  Sb7  1  0.677411  0.957600  0.687578  1
  Sb  Sb8  1  0.635011  0.687578  0.042400  1
