# generated using pymatgen
data_CdI2
_symmetry_space_group_name_H-M   'P 1'
_cell_length_a   4.33266037
_cell_length_b   4.33266064
_cell_length_c   59.29958761
_cell_angle_alpha   90.00000000
_cell_angle_beta   90.00000000
_cell_angle_gamma   119.99999798
_symmetry_Int_Tables_number   1
_chemical_formula_structural   CdI2
_chemical_formula_sum   'Cd8 I16'
_cell_volume   964.03240967
_cell_formula_units_Z   8
loop_
 _symmetry_equiv_pos_site_id
 _symmetry_equiv_pos_as_xyz
  1  'x, y, z'
loop_
 _atom_site_type_symbol
 _atom_site_label
 _atom_site_symmetry_multiplicity
 _atom_site_fract_x
 _atom_site_fract_y
 _atom_site_fract_z
 _atom_site_occupancy
  Cd  Cd0  1  0.000000  0.000000  0.781247  1
  Cd  Cd1  1  0.000000  0.000000  0.406223  1
  Cd  Cd2  1  0.000000  0.000000  0.906222  1
  Cd  Cd3  1  0.666667  0.333333  0.031282  1
  Cd  Cd4  1  0.666667  0.333333  0.531280  1
  Cd  Cd5  1  0.000000  0.000000  0.156224  1
  Cd  Cd6  1  0.000000  0.000000  0.656225  1
  Cd  Cd7  1  0.666667  0.333333  0.281281  1
  I  I8  1  0.333333  0.666667  0.810354  1
  I  I9  1  0.333333  0.666667  0.560374  1
  I  I10  1  0.666667  0.333333  0.127117  1
  I  I11  1  0.000000  0.000000  0.252199  1
  I  I12  1  0.333333  0.666667  0.060376  1
  I  I13  1  0.333333  0.666667  0.435332  1
  I  I14  1  0.666667  0.333333  0.627115  1
  I  I15  1  0.333333  0.666667  0.185333  1
  I  I16  1  0.666667  0.333333  0.877115  1
  I  I17  1  0.666667  0.333333  0.752146  1
  I  I18  1  0.333333  0.666667  0.310375  1
  I  I19  1  0.333333  0.666667  0.935330  1
  I  I20  1  0.666667  0.333333  0.377115  1
  I  I21  1  0.000000  0.000000  0.002200  1
  I  I22  1  0.333333  0.666667  0.685336  1
  I  I23  1  0.000000  0.000000  0.502198  1
