# generated using pymatgen
data_NbTe7Br5O
_symmetry_space_group_name_H-M   'P 1'
_cell_length_a   8.20446512
_cell_length_b   8.61341864
_cell_length_c   27.02271466
_cell_angle_alpha   90.00000000
_cell_angle_beta   90.00000000
_cell_angle_gamma   90.00000000
_symmetry_Int_Tables_number   1
_chemical_formula_structural   NbTe7Br5O
_chemical_formula_sum   'Nb4 Te28 Br20 O4'
_cell_volume   1909.65451627
_cell_formula_units_Z   4
loop_
 _symmetry_equiv_pos_site_id
 _symmetry_equiv_pos_as_xyz
  1  'x, y, z'
loop_
 _atom_site_type_symbol
 _atom_site_label
 _atom_site_symmetry_multiplicity
 _atom_site_fract_x
 _atom_site_fract_y
 _atom_site_fract_z
 _atom_site_occupancy
  Nb  Nb0  1  0.215438  0.500000  0.750000  1
  Nb  Nb1  1  0.284562  0.500000  0.250000  1
  Nb  Nb2  1  0.715438  0.500000  0.750000  1
  Nb  Nb3  1  0.784562  0.500000  0.250000  1
  Te  Te4  1  0.438096  0.247822  0.574609  1
  Te  Te5  1  0.561904  0.752178  0.425391  1
  Te  Te6  1  0.938096  0.752178  0.574609  1
  Te  Te7  1  0.438096  0.752178  0.925391  1
  Te  Te8  1  0.472270  0.983698  0.357735  1
  Te  Te9  1  0.917112  0.232062  0.078487  1
  Te  Te10  1  0.417112  0.767938  0.078487  1
  Te  Te11  1  0.027730  0.983698  0.642265  1
  Te  Te12  1  0.527730  0.983698  0.857735  1
  Te  Te13  1  0.082888  0.767938  0.921513  1
  Te  Te14  1  0.527730  0.016302  0.642265  1
  Te  Te15  1  0.027730  0.016302  0.857735  1
  Te  Te16  1  0.082888  0.232062  0.578487  1
  Te  Te17  1  0.582888  0.232062  0.921513  1
  Te  Te18  1  0.561904  0.247822  0.074609  1
  Te  Te19  1  0.417112  0.232062  0.421513  1
  Te  Te20  1  0.582888  0.767938  0.578487  1
  Te  Te21  1  0.500000  0.000000  0.500000  1
  Te  Te22  1  0.917112  0.767938  0.421513  1
  Te  Te23  1  0.972270  0.983698  0.142265  1
  Te  Te24  1  0.061904  0.752178  0.074609  1
  Te  Te25  1  0.972270  0.016302  0.357735  1
  Te  Te26  1  0.061904  0.247822  0.425391  1
  Te  Te27  1  0.000000  0.000000  0.000000  1
  Te  Te28  1  0.938096  0.247822  0.925391  1
  Te  Te29  1  0.472270  0.016302  0.142265  1
  Te  Te30  1  0.000000  0.000000  0.500000  1
  Te  Te31  1  0.500000  0.000000  0.000000  1
  Br  Br32  1  0.254731  0.566608  0.658065  1
  Br  Br33  1  0.245269  0.433392  0.158065  1
  Br  Br34  1  0.750000  0.493035  0.500000  1
  Br  Br35  1  0.751873  0.209651  0.771391  1
  Br  Br36  1  0.745269  0.566608  0.158065  1
  Br  Br37  1  0.245269  0.566608  0.341935  1
  Br  Br38  1  0.251873  0.790349  0.771391  1
  Br  Br39  1  0.254731  0.433392  0.841935  1
  Br  Br40  1  0.754731  0.433392  0.658065  1
  Br  Br41  1  0.248127  0.790349  0.228609  1
  Br  Br42  1  0.745269  0.433392  0.341935  1
  Br  Br43  1  0.751873  0.790349  0.728609  1
  Br  Br44  1  0.748127  0.209651  0.228609  1
  Br  Br45  1  0.250000  0.493035  0.000000  1
  Br  Br46  1  0.250000  0.506965  0.500000  1
  Br  Br47  1  0.754731  0.566608  0.841935  1
  Br  Br48  1  0.251873  0.209651  0.728609  1
  Br  Br49  1  0.248127  0.209651  0.271391  1
  Br  Br50  1  0.748127  0.790349  0.271391  1
  Br  Br51  1  0.750000  0.506965  0.000000  1
  O  O52  1  0.498109  0.500000  0.750000  1
  O  O53  1  0.998109  0.500000  0.750000  1
  O  O54  1  0.501891  0.500000  0.250000  1
  O  O55  1  0.001891  0.500000  0.250000  1
