# generated using pymatgen
data_Li15Cr2N9
_symmetry_space_group_name_H-M   'P 1'
_cell_length_a   9.37250515
_cell_length_b   10.22613874
_cell_length_c   10.21677208
_cell_angle_alpha   90.00000000
_cell_angle_beta   90.00000000
_cell_angle_gamma   90.00000000
_symmetry_Int_Tables_number   1
_chemical_formula_structural   Li15Cr2N9
_chemical_formula_sum   'Li60 Cr8 N36'
_cell_volume   979.22179991
_cell_formula_units_Z   4
loop_
 _symmetry_equiv_pos_site_id
 _symmetry_equiv_pos_as_xyz
  1  'x, y, z'
loop_
 _atom_site_type_symbol
 _atom_site_label
 _atom_site_symmetry_multiplicity
 _atom_site_fract_x
 _atom_site_fract_y
 _atom_site_fract_z
 _atom_site_occupancy
  Cr  Cr0  1  0.246792  0.081159  0.921606  1
  Cr  Cr1  1  0.246600  0.578434  0.081561  1
  Cr  Cr2  1  0.253208  0.918841  0.421606  1
  Cr  Cr3  1  0.253400  0.421566  0.581561  1
  Cr  Cr4  1  0.753208  0.581159  0.421606  1
  Cr  Cr5  1  0.753400  0.078434  0.581561  1
  Cr  Cr6  1  0.746792  0.418841  0.921606  1
  Cr  Cr7  1  0.746600  0.921566  0.081561  1
  Li  Li8  1  0.000067  0.744995  0.250962  1
  Li  Li9  1  0.006702  0.089756  0.219494  1
  Li  Li10  1  0.006648  0.281592  0.089835  1
  Li  Li11  1  0.006311  0.215184  0.411987  1
  Li  Li12  1  0.006086  0.412914  0.285283  1
  Li  Li13  1  0.036905  0.064414  0.596040  1
  Li  Li14  1  0.016124  0.600423  0.436624  1
  Li  Li15  1  0.032180  0.902411  0.070304  1
  Li  Li16  1  0.011247  0.427960  0.898056  1
  Li  Li17  1  0.233451  0.773326  0.916494  1
  Li  Li18  1  0.235099  0.595576  0.765003  1
  Li  Li19  1  0.235060  0.919141  0.732163  1
  Li  Li20  1  0.235271  0.740326  0.593237  1
  Li  Li21  1  0.250397  0.231253  0.731423  1
  Li  Li22  1  0.249603  0.768747  0.231423  1
  Li  Li23  1  0.249415  0.400089  0.901448  1
  Li  Li24  1  0.250586  0.599911  0.401448  1
  Li  Li25  1  0.264940  0.080858  0.232163  1
  Li  Li26  1  0.264729  0.259674  0.093237  1
  Li  Li27  1  0.266549  0.226674  0.416494  1
  Li  Li28  1  0.264901  0.404424  0.265003  1
  Li  Li29  1  0.467820  0.097589  0.570304  1
  Li  Li30  1  0.463095  0.935586  0.096040  1
  Li  Li31  1  0.488753  0.572040  0.398056  1
  Li  Li32  1  0.483876  0.399577  0.936624  1
  Li  Li33  1  0.493352  0.718408  0.589835  1
  Li  Li34  1  0.493298  0.910244  0.719494  1
  Li  Li35  1  0.493914  0.587086  0.785283  1
  Li  Li36  1  0.493689  0.784816  0.911987  1
  Li  Li37  1  0.500067  0.755005  0.250962  1
  Li  Li38  1  0.499933  0.255005  0.750962  1
  Li  Li39  1  0.506648  0.218408  0.089835  1
  Li  Li40  1  0.506086  0.087086  0.285283  1
  Li  Li41  1  0.506702  0.410244  0.219494  1
  Li  Li42  1  0.506311  0.284816  0.411987  1
  Li  Li43  1  0.532180  0.597589  0.070304  1
  Li  Li44  1  0.536905  0.435586  0.596040  1
  Li  Li45  1  0.511247  0.072040  0.898056  1
  Li  Li46  1  0.516124  0.899577  0.436624  1
  Li  Li47  1  0.735060  0.580859  0.732163  1
  Li  Li48  1  0.735271  0.759674  0.593237  1
  Li  Li49  1  0.733451  0.726674  0.916494  1
  Li  Li50  1  0.735099  0.904424  0.765003  1
  Li  Li51  1  0.749414  0.099911  0.901448  1
  Li  Li52  1  0.750586  0.900089  0.401448  1
  Li  Li53  1  0.750397  0.268747  0.731423  1
  Li  Li54  1  0.749603  0.731253  0.231423  1
  Li  Li55  1  0.766549  0.273326  0.416494  1
  Li  Li56  1  0.764901  0.095576  0.265003  1
  Li  Li57  1  0.764940  0.419142  0.232163  1
  Li  Li58  1  0.764729  0.240326  0.093237  1
  Li  Li59  1  0.983876  0.100423  0.936624  1
  Li  Li60  1  0.967820  0.402411  0.570304  1
  Li  Li61  1  0.963095  0.564414  0.096040  1
  Li  Li62  1  0.988753  0.927960  0.398056  1
  Li  Li63  1  0.993298  0.589756  0.719494  1
  Li  Li64  1  0.993689  0.715184  0.911987  1
  Li  Li65  1  0.993352  0.781592  0.589835  1
  Li  Li66  1  0.993914  0.912914  0.785283  1
  Li  Li67  1  0.999933  0.244995  0.750962  1
  N  N68  1  0.107694  0.752727  0.751755  1
  N  N69  1  0.126225  0.082763  0.788528  1
  N  N70  1  0.137334  0.778515  0.412391  1
  N  N71  1  0.137946  0.412362  0.721646  1
  N  N72  1  0.125980  0.711060  0.082381  1
  N  N73  1  0.144467  0.057684  0.409592  1
  N  N74  1  0.142623  0.089859  0.063514  1
  N  N75  1  0.146239  0.419536  0.440155  1
  N  N76  1  0.144120  0.434393  0.081618  1
  N  N77  1  0.355880  0.565607  0.581618  1
  N  N78  1  0.353761  0.580464  0.940155  1
  N  N79  1  0.357377  0.910141  0.563514  1
  N  N80  1  0.355533  0.942316  0.909592  1
  N  N81  1  0.374020  0.288940  0.582381  1
  N  N82  1  0.362054  0.587638  0.221646  1
  N  N83  1  0.362666  0.221485  0.912391  1
  N  N84  1  0.373775  0.917237  0.288528  1
  N  N85  1  0.392306  0.247273  0.251755  1
  N  N86  1  0.607694  0.747273  0.751755  1
  N  N87  1  0.637946  0.087638  0.721646  1
  N  N88  1  0.637334  0.721485  0.412391  1
  N  N89  1  0.626225  0.417237  0.788528  1
  N  N90  1  0.625980  0.788940  0.082381  1
  N  N91  1  0.644120  0.065607  0.081618  1
  N  N92  1  0.646239  0.080464  0.440155  1
  N  N93  1  0.642623  0.410141  0.063514  1
  N  N94  1  0.644467  0.442316  0.409592  1
  N  N95  1  0.853761  0.919536  0.940155  1
  N  N96  1  0.855533  0.557684  0.909592  1
  N  N97  1  0.857377  0.589859  0.563514  1
  N  N98  1  0.855880  0.934393  0.581618  1
  N  N99  1  0.874020  0.211060  0.582381  1
  N  N100  1  0.862666  0.278515  0.912391  1
  N  N101  1  0.873775  0.582763  0.288528  1
  N  N102  1  0.862054  0.912362  0.221646  1
  N  N103  1  0.892306  0.252727  0.251755  1
