# generated using pymatgen
data_Ho3Se4O12F
_symmetry_space_group_name_H-M   'P 1'
_cell_length_a   10.43498743
_cell_length_b   10.43498732
_cell_length_c   6.84493173
_cell_angle_alpha   90.00000000
_cell_angle_beta   90.00000000
_cell_angle_gamma   120.00000031
_symmetry_Int_Tables_number   1
_chemical_formula_structural   Ho3Se4O12F
_chemical_formula_sum   'Ho6 Se8 O24 F2'
_cell_volume   645.48121414
_cell_formula_units_Z   2
loop_
 _symmetry_equiv_pos_site_id
 _symmetry_equiv_pos_as_xyz
  1  'x, y, z'
loop_
 _atom_site_type_symbol
 _atom_site_label
 _atom_site_symmetry_multiplicity
 _atom_site_fract_x
 _atom_site_fract_y
 _atom_site_fract_z
 _atom_site_occupancy
  Ho  Ho0  1  0.075747  0.537873  0.202666  1
  Ho  Ho1  1  0.462127  0.924253  0.202666  1
  Ho  Ho2  1  0.537873  0.075747  0.702666  1
  Ho  Ho3  1  0.924253  0.462127  0.702666  1
  Ho  Ho4  1  0.462127  0.537873  0.202666  1
  Ho  Ho5  1  0.537873  0.462127  0.702666  1
  Se  Se6  1  0.309500  0.154750  0.935623  1
  Se  Se7  1  0.845250  0.154750  0.935623  1
  Se  Se8  1  0.333333  0.666667  0.768252  1
  Se  Se9  1  0.845250  0.690500  0.935623  1
  Se  Se10  1  0.690500  0.845250  0.435623  1
  Se  Se11  1  0.666667  0.333333  0.268252  1
  Se  Se12  1  0.154750  0.845250  0.435623  1
  Se  Se13  1  0.154750  0.309500  0.435623  1
  O  O14  1  0.336645  0.416971  0.505562  1
  O  O15  1  0.919674  0.336645  0.005562  1
  O  O16  1  0.419398  0.838796  0.881866  1
  O  O17  1  0.336645  0.919674  0.505562  1
  O  O18  1  0.635750  0.817875  0.194691  1
  O  O19  1  0.419398  0.580602  0.881866  1
  O  O20  1  0.182125  0.817875  0.194691  1
  O  O21  1  0.663355  0.583029  0.005562  1
  O  O22  1  0.838796  0.419398  0.381866  1
  O  O23  1  0.416971  0.336645  0.005562  1
  O  O24  1  0.364250  0.182125  0.694691  1
  O  O25  1  0.580602  0.419398  0.381866  1
  O  O26  1  0.663355  0.080326  0.005562  1
  O  O27  1  0.580602  0.161204  0.381866  1
  O  O28  1  0.817875  0.635750  0.694691  1
  O  O29  1  0.583029  0.919674  0.505562  1
  O  O30  1  0.817875  0.182125  0.694691  1
  O  O31  1  0.080326  0.416971  0.505562  1
  O  O32  1  0.161204  0.580602  0.881866  1
  O  O33  1  0.182125  0.364250  0.194691  1
  O  O34  1  0.919674  0.583029  0.005562  1
  O  O35  1  0.080326  0.663355  0.505562  1
  O  O36  1  0.416971  0.080326  0.005562  1
  O  O37  1  0.583029  0.663355  0.505562  1
  F  F38  1  0.666667  0.333333  0.748805  1
  F  F39  1  0.333333  0.666667  0.248805  1
