# generated using pymatgen
data_SiO2
_symmetry_space_group_name_H-M   'P 1'
_cell_length_a   7.47056767
_cell_length_b   8.85296841
_cell_length_c   15.90395583
_cell_angle_alpha   90.00000000
_cell_angle_beta   91.17997083
_cell_angle_gamma   90.00000000
_symmetry_Int_Tables_number   1
_chemical_formula_structural   SiO2
_chemical_formula_sum   'Si18 O36'
_cell_volume   1051.61210047
_cell_formula_units_Z   18
loop_
 _symmetry_equiv_pos_site_id
 _symmetry_equiv_pos_as_xyz
  1  'x, y, z'
loop_
 _atom_site_type_symbol
 _atom_site_label
 _atom_site_symmetry_multiplicity
 _atom_site_fract_x
 _atom_site_fract_y
 _atom_site_fract_z
 _atom_site_occupancy
  Si  Si0  1  0.350582  0.654279  0.079881  1
  Si  Si1  1  0.149418  0.654279  0.420119  1
  Si  Si2  1  0.390338  0.648649  0.679297  1
  Si  Si3  1  0.649418  0.345721  0.920119  1
  Si  Si4  1  0.250000  0.496292  0.250000  1
  Si  Si5  1  0.109662  0.648649  0.820703  1
  Si  Si6  1  0.745571  0.603591  0.055716  1
  Si  Si7  1  0.444590  0.825285  0.509256  1
  Si  Si8  1  0.944590  0.174715  0.009256  1
  Si  Si9  1  0.850582  0.345721  0.579881  1
  Si  Si10  1  0.254429  0.396409  0.944284  1
  Si  Si11  1  0.890338  0.351351  0.179297  1
  Si  Si12  1  0.750000  0.503708  0.750000  1
  Si  Si13  1  0.609662  0.351351  0.320703  1
  Si  Si14  1  0.055410  0.825285  0.990744  1
  Si  Si15  1  0.245571  0.396409  0.555716  1
  Si  Si16  1  0.754429  0.603591  0.444284  1
  Si  Si17  1  0.555410  0.174715  0.490744  1
  O  O18  1  0.912652  0.220866  0.107495  1
  O  O19  1  0.602190  0.722128  0.470640  1
  O  O20  1  0.698086  0.389408  0.825010  1
  O  O21  1  0.562856  0.694628  0.076561  1
  O  O22  1  0.916382  0.614260  0.775841  1
  O  O23  1  0.062856  0.305372  0.576561  1
  O  O24  1  0.937144  0.694628  0.423439  1
  O  O25  1  0.087348  0.779134  0.892505  1
  O  O26  1  0.583618  0.614260  0.724159  1
  O  O27  1  0.203345  0.509387  0.477804  1
  O  O28  1  0.801914  0.389408  0.674990  1
  O  O29  1  0.739152  0.199121  0.546510  1
  O  O30  1  0.814423  0.507534  0.137231  1
  O  O31  1  0.296655  0.509387  0.022196  1
  O  O32  1  0.102190  0.277872  0.970640  1
  O  O33  1  0.437144  0.305372  0.923439  1
  O  O34  1  0.416382  0.385740  0.275841  1
  O  O35  1  0.314423  0.492466  0.637231  1
  O  O36  1  0.685577  0.507534  0.362769  1
  O  O37  1  0.897810  0.722128  0.029360  1
  O  O38  1  0.301914  0.610592  0.174990  1
  O  O39  1  0.185577  0.492466  0.862769  1
  O  O40  1  0.000000  0.000000  0.000000  1
  O  O41  1  0.083618  0.385740  0.224159  1
  O  O42  1  0.198086  0.610592  0.325010  1
  O  O43  1  0.587348  0.220866  0.392505  1
  O  O44  1  0.412652  0.779134  0.607495  1
  O  O45  1  0.703345  0.490613  0.977804  1
  O  O46  1  0.760848  0.199121  0.953490  1
  O  O47  1  0.750000  0.293671  0.250000  1
  O  O48  1  0.796655  0.490613  0.522196  1
  O  O49  1  0.500000  0.000000  0.500000  1
  O  O50  1  0.250000  0.706329  0.750000  1
  O  O51  1  0.397810  0.277872  0.529360  1
  O  O52  1  0.260848  0.800879  0.453490  1
  O  O53  1  0.239152  0.800879  0.046510  1
