# generated using pymatgen
data_NaV(GeO3)2
_symmetry_space_group_name_H-M   'P 1'
_cell_length_a   5.59246700
_cell_length_b   6.77352653
_cell_length_c   6.77352694
_cell_angle_alpha   82.72950299
_cell_angle_beta   77.62255165
_cell_angle_gamma   77.62254958
_symmetry_Int_Tables_number   1
_chemical_formula_structural   NaV(GeO3)2
_chemical_formula_sum   'Na2 V2 Ge4 O12'
_cell_volume   243.92161307
_cell_formula_units_Z   2
loop_
 _symmetry_equiv_pos_site_id
 _symmetry_equiv_pos_as_xyz
  1  'x, y, z'
loop_
 _atom_site_type_symbol
 _atom_site_label
 _atom_site_symmetry_multiplicity
 _atom_site_fract_x
 _atom_site_fract_y
 _atom_site_fract_z
 _atom_site_occupancy
  Na  Na0  1  0.750000  0.805680  0.194320  1
  Na  Na1  1  0.250000  0.194320  0.805680  1
  V  V2  1  0.250000  0.593413  0.406587  1
  V  V3  1  0.750000  0.406587  0.593413  1
  Ge  Ge4  1  0.729803  0.307887  0.117362  1
  Ge  Ge5  1  0.229803  0.117362  0.307887  1
  Ge  Ge6  1  0.270197  0.692113  0.882638  1
  Ge  Ge7  1  0.770197  0.882638  0.692113  1
  O  O8  1  0.865924  0.690503  0.521820  1
  O  O9  1  0.495328  0.845399  0.874964  1
  O  O10  1  0.815712  0.408820  0.868515  1
  O  O11  1  0.504672  0.154601  0.125036  1
  O  O12  1  0.995328  0.874964  0.845399  1
  O  O13  1  0.004672  0.125036  0.154601  1
  O  O14  1  0.315712  0.868515  0.408820  1
  O  O15  1  0.684288  0.131485  0.591180  1
  O  O16  1  0.184288  0.591180  0.131485  1
  O  O17  1  0.365924  0.521820  0.690503  1
  O  O18  1  0.134076  0.309497  0.478180  1
  O  O19  1  0.634076  0.478180  0.309497  1
