# generated using pymatgen
data_La23Mg4Ni7
_symmetry_space_group_name_H-M   'P 1'
_cell_length_a   10.11457703
_cell_length_b   10.11457744
_cell_length_c   22.88769203
_cell_angle_alpha   90.00000000
_cell_angle_beta   90.00000000
_cell_angle_gamma   119.99999863
_symmetry_Int_Tables_number   1
_chemical_formula_structural   La23Mg4Ni7
_chemical_formula_sum   'La46 Mg8 Ni14'
_cell_volume   2027.81396085
_cell_formula_units_Z   2
loop_
 _symmetry_equiv_pos_site_id
 _symmetry_equiv_pos_as_xyz
  1  'x, y, z'
loop_
 _atom_site_type_symbol
 _atom_site_label
 _atom_site_symmetry_multiplicity
 _atom_site_fract_x
 _atom_site_fract_y
 _atom_site_fract_z
 _atom_site_occupancy
  La  La0  1  0.457999  0.915998  0.855478  1
  La  La1  1  0.921052  0.460526  0.086719  1
  La  La2  1  0.871916  0.743832  0.631531  1
  La  La3  1  0.743832  0.871916  0.131531  1
  La  La4  1  0.206374  0.793626  0.719236  1
  La  La5  1  0.000000  0.000000  0.998283  1
  La  La6  1  0.915998  0.457999  0.355478  1
  La  La7  1  0.542001  0.457999  0.355478  1
  La  La8  1  0.787281  0.574563  0.493413  1
  La  La9  1  0.411595  0.205797  0.781772  1
  La  La10  1  0.413401  0.206701  0.948240  1
  La  La11  1  0.793299  0.206701  0.948240  1
  La  La12  1  0.793626  0.206374  0.219236  1
  La  La13  1  0.425437  0.212719  0.493413  1
  La  La14  1  0.460526  0.921052  0.586719  1
  La  La15  1  0.539474  0.078948  0.086719  1
  La  La16  1  0.574563  0.787281  0.993413  1
  La  La17  1  0.666667  0.333333  0.645931  1
  La  La18  1  0.206701  0.793299  0.448240  1
  La  La19  1  0.078948  0.539474  0.586719  1
  La  La20  1  0.460526  0.539474  0.586719  1
  La  La21  1  0.794203  0.205797  0.781772  1
  La  La22  1  0.000000  0.000000  0.498283  1
  La  La23  1  0.794203  0.588405  0.781772  1
  La  La24  1  0.333333  0.666667  0.145931  1
  La  La25  1  0.212719  0.787281  0.993413  1
  La  La26  1  0.588405  0.794203  0.281772  1
  La  La27  1  0.587252  0.793626  0.719236  1
  La  La28  1  0.412748  0.206374  0.219236  1
  La  La29  1  0.206374  0.412748  0.719236  1
  La  La30  1  0.205797  0.411595  0.281772  1
  La  La31  1  0.205797  0.794203  0.281772  1
  La  La32  1  0.256168  0.128084  0.631531  1
  La  La33  1  0.793299  0.586599  0.948240  1
  La  La34  1  0.206701  0.413401  0.448240  1
  La  La35  1  0.212719  0.425437  0.993413  1
  La  La36  1  0.128084  0.256168  0.131531  1
  La  La37  1  0.542001  0.084002  0.355478  1
  La  La38  1  0.539474  0.460526  0.086719  1
  La  La39  1  0.128084  0.871916  0.131531  1
  La  La40  1  0.457999  0.542001  0.855478  1
  La  La41  1  0.084002  0.542001  0.855478  1
  La  La42  1  0.871916  0.128084  0.631531  1
  La  La43  1  0.586599  0.793299  0.448240  1
  La  La44  1  0.787281  0.212719  0.493413  1
  La  La45  1  0.793626  0.587252  0.219236  1
  Mg  Mg46  1  0.105038  0.894962  0.862994  1
  Mg  Mg47  1  0.105038  0.210076  0.862994  1
  Mg  Mg48  1  0.894962  0.789924  0.362994  1
  Mg  Mg49  1  0.000000  0.000000  0.749426  1
  Mg  Mg50  1  0.210076  0.105038  0.362994  1
  Mg  Mg51  1  0.894962  0.105038  0.362994  1
  Mg  Mg52  1  0.000000  0.000000  0.249426  1
  Mg  Mg53  1  0.789924  0.894962  0.862994  1
  Ni  Ni54  1  0.333333  0.666667  0.363713  1
  Ni  Ni55  1  0.143256  0.856744  0.562810  1
  Ni  Ni56  1  0.480187  0.960374  0.212243  1
  Ni  Ni57  1  0.519813  0.039626  0.712243  1
  Ni  Ni58  1  0.286511  0.143256  0.062810  1
  Ni  Ni59  1  0.143256  0.286511  0.562810  1
  Ni  Ni60  1  0.039626  0.519813  0.212243  1
  Ni  Ni61  1  0.666667  0.333333  0.863713  1
  Ni  Ni62  1  0.856744  0.143256  0.062810  1
  Ni  Ni63  1  0.519813  0.480187  0.712243  1
  Ni  Ni64  1  0.960374  0.480187  0.712243  1
  Ni  Ni65  1  0.713488  0.856744  0.562810  1
  Ni  Ni66  1  0.856744  0.713488  0.062810  1
  Ni  Ni67  1  0.480187  0.519813  0.212243  1
