# generated using pymatgen
data_Cr(PO3)3
_symmetry_space_group_name_H-M   'P 1'
_cell_length_a   6.32518083
_cell_length_b   8.44846627
_cell_length_c   15.48992018
_cell_angle_alpha   90.00000000
_cell_angle_beta   90.00000000
_cell_angle_gamma   105.96998083
_symmetry_Int_Tables_number   1
_chemical_formula_structural   Cr(PO3)3
_chemical_formula_sum   'Cr4 P12 O36'
_cell_volume   795.80528506
_cell_formula_units_Z   4
loop_
 _symmetry_equiv_pos_site_id
 _symmetry_equiv_pos_as_xyz
  1  'x, y, z'
loop_
 _atom_site_type_symbol
 _atom_site_label
 _atom_site_symmetry_multiplicity
 _atom_site_fract_x
 _atom_site_fract_y
 _atom_site_fract_z
 _atom_site_occupancy
  Cr  Cr0  1  0.881518  0.124641  0.636814  1
  Cr  Cr1  1  0.881518  0.624641  0.863186  1
  Cr  Cr2  1  0.118482  0.375359  0.136814  1
  Cr  Cr3  1  0.118482  0.875359  0.363186  1
  P  P4  1  0.849229  0.278175  0.955875  1
  P  P5  1  0.587581  0.790661  0.387421  1
  P  P6  1  0.412419  0.209339  0.612579  1
  P  P7  1  0.207748  0.015848  0.160857  1
  P  P8  1  0.792252  0.484152  0.660857  1
  P  P9  1  0.587581  0.290661  0.112579  1
  P  P10  1  0.207748  0.515848  0.339143  1
  P  P11  1  0.412419  0.709339  0.887421  1
  P  P12  1  0.150771  0.221825  0.455875  1
  P  P13  1  0.849229  0.778175  0.544125  1
  P  P14  1  0.150771  0.721825  0.044125  1
  P  P15  1  0.792252  0.984152  0.839143  1
  O  O16  1  0.435754  0.899153  0.387816  1
  O  O17  1  0.163669  0.904994  0.074721  1
  O  O18  1  0.836331  0.095006  0.925279  1
  O  O19  1  0.173910  0.119663  0.379037  1
  O  O20  1  0.534575  0.387705  0.651689  1
  O  O21  1  0.836331  0.595006  0.574721  1
  O  O22  1  0.198799  0.645791  0.840452  1
  O  O23  1  0.801201  0.854209  0.340452  1
  O  O24  1  0.534575  0.887705  0.848311  1
  O  O25  1  0.067540  0.632467  0.346801  1
  O  O26  1  0.052050  0.337083  0.010887  1
  O  O27  1  0.826090  0.380337  0.879037  1
  O  O28  1  0.184280  0.405334  0.262662  1
  O  O29  1  0.629906  0.244817  0.014088  1
  O  O30  1  0.947950  0.662917  0.989113  1
  O  O31  1  0.198799  0.145791  0.659548  1
  O  O32  1  0.564246  0.100847  0.612184  1
  O  O33  1  0.801201  0.354209  0.159548  1
  O  O34  1  0.370094  0.255183  0.514088  1
  O  O35  1  0.932460  0.867533  0.846801  1
  O  O36  1  0.815720  0.094666  0.762662  1
  O  O37  1  0.815720  0.594666  0.737338  1
  O  O38  1  0.435754  0.399153  0.112184  1
  O  O39  1  0.052050  0.837083  0.489113  1
  O  O40  1  0.947950  0.162917  0.510887  1
  O  O41  1  0.184280  0.905334  0.237338  1
  O  O42  1  0.465425  0.112295  0.151689  1
  O  O43  1  0.173910  0.619663  0.120963  1
  O  O44  1  0.163669  0.404994  0.425279  1
  O  O45  1  0.370094  0.755183  0.985912  1
  O  O46  1  0.465425  0.612295  0.348311  1
  O  O47  1  0.067540  0.132467  0.153199  1
  O  O48  1  0.826090  0.880337  0.620963  1
  O  O49  1  0.629906  0.744817  0.485912  1
  O  O50  1  0.564246  0.600847  0.887816  1
  O  O51  1  0.932460  0.367533  0.653199  1
