# generated using pymatgen
data_Fe3SiP5O19
_symmetry_space_group_name_H-M   'P 1'
_cell_length_a   14.58067790
_cell_length_b   14.58067804
_cell_length_c   7.64165246
_cell_angle_alpha   90.00000000
_cell_angle_beta   90.00000000
_cell_angle_gamma   119.99999969
_symmetry_Int_Tables_number   1
_chemical_formula_structural   Fe3SiP5O19
_chemical_formula_sum   'Fe12 Si4 P20 O76'
_cell_volume   1406.93279067
_cell_formula_units_Z   4
loop_
 _symmetry_equiv_pos_site_id
 _symmetry_equiv_pos_as_xyz
  1  'x, y, z'
loop_
 _atom_site_type_symbol
 _atom_site_label
 _atom_site_symmetry_multiplicity
 _atom_site_fract_x
 _atom_site_fract_y
 _atom_site_fract_z
 _atom_site_occupancy
  Fe  Fe0  1  0.657286  0.976594  0.288467  1
  Fe  Fe1  1  0.680692  0.657286  0.788467  1
  Fe  Fe2  1  0.325480  0.337198  0.691644  1
  Fe  Fe3  1  0.023406  0.680692  0.288467  1
  Fe  Fe4  1  0.337198  0.011718  0.191644  1
  Fe  Fe5  1  0.674520  0.662802  0.191644  1
  Fe  Fe6  1  0.976594  0.319308  0.788467  1
  Fe  Fe7  1  0.662802  0.988282  0.691644  1
  Fe  Fe8  1  0.319308  0.342714  0.288467  1
  Fe  Fe9  1  0.988282  0.325480  0.191644  1
  Fe  Fe10  1  0.011718  0.674520  0.691644  1
  Fe  Fe11  1  0.342714  0.023406  0.788467  1
  Si  Si12  1  0.666667  0.333333  0.952388  1
  Si  Si13  1  0.666667  0.333333  0.535191  1
  Si  Si14  1  0.333333  0.666667  0.035191  1
  Si  Si15  1  0.333333  0.666667  0.452388  1
  P  P16  1  0.577357  0.094533  0.996813  1
  P  P17  1  0.778918  0.568011  0.484893  1
  P  P18  1  0.210906  0.778918  0.984893  1
  P  P19  1  0.094533  0.517177  0.496813  1
  P  P20  1  0.085662  0.232012  0.489625  1
  P  P21  1  0.517177  0.422643  0.996813  1
  P  P22  1  0.853650  0.085662  0.989625  1
  P  P23  1  0.905467  0.482823  0.996813  1
  P  P24  1  0.000000  0.000000  0.932209  1
  P  P25  1  0.221082  0.431989  0.984893  1
  P  P26  1  0.767988  0.853650  0.489625  1
  P  P27  1  0.914338  0.767988  0.989625  1
  P  P28  1  0.422643  0.905467  0.496813  1
  P  P29  1  0.789094  0.221082  0.484893  1
  P  P30  1  0.000000  0.000000  0.432209  1
  P  P31  1  0.431989  0.210906  0.484893  1
  P  P32  1  0.232012  0.146350  0.989625  1
  P  P33  1  0.568011  0.789094  0.984893  1
  P  P34  1  0.146350  0.914338  0.489625  1
  P  P35  1  0.482823  0.577357  0.496813  1
  O  O36  1  0.456969  0.384656  0.824072  1
  O  O37  1  0.362549  0.264018  0.485478  1
  O  O38  1  0.601297  0.542289  0.990472  1
  O  O39  1  0.421846  0.640594  0.527976  1
  O  O40  1  0.550606  0.305964  0.462403  1
  O  O41  1  0.949741  0.551095  0.158943  1
  O  O42  1  0.788662  0.033378  0.152941  1
  O  O43  1  0.551095  0.601354  0.658943  1
  O  O44  1  0.333333  0.666667  0.243877  1
  O  O45  1  0.141149  0.729637  0.825193  1
  O  O46  1  0.000000  0.000000  0.243105  1
  O  O47  1  0.666667  0.333333  0.743877  1
  O  O48  1  0.542289  0.940992  0.490472  1
  O  O49  1  0.733057  0.575627  0.660507  1
  O  O50  1  0.588488  0.858851  0.825193  1
  O  O51  1  0.694036  0.244642  0.462403  1
  O  O52  1  0.270363  0.411512  0.825193  1
  O  O53  1  0.842570  0.266943  0.660507  1
  O  O54  1  0.033378  0.244716  0.652941  1
  O  O55  1  0.448905  0.398646  0.158943  1
  O  O56  1  0.956638  0.073787  0.000638  1
  O  O57  1  0.241664  0.203072  0.817449  1
  O  O58  1  0.729637  0.588488  0.325193  1
  O  O59  1  0.244716  0.211338  0.152941  1
  O  O60  1  0.457711  0.059008  0.990472  1
  O  O61  1  0.305964  0.755358  0.962403  1
  O  O62  1  0.966622  0.755284  0.152941  1
  O  O63  1  0.098531  0.362549  0.985478  1
  O  O64  1  0.695334  0.903267  0.491862  1
  O  O65  1  0.218748  0.578154  0.527976  1
  O  O66  1  0.792068  0.695334  0.991862  1
  O  O67  1  0.637451  0.735982  0.985478  1
  O  O68  1  0.781252  0.421846  0.027976  1
  O  O69  1  0.264018  0.901469  0.985478  1
  O  O70  1  0.927687  0.543031  0.824072  1
  O  O71  1  0.735982  0.098531  0.485478  1
  O  O72  1  0.615344  0.072313  0.824072  1
  O  O73  1  0.000000  0.000000  0.743105  1
  O  O74  1  0.207932  0.304666  0.491862  1
  O  O75  1  0.755358  0.449394  0.462403  1
  O  O76  1  0.359406  0.781252  0.527976  1
  O  O77  1  0.038592  0.241664  0.317449  1
  O  O78  1  0.424373  0.157430  0.660507  1
  O  O79  1  0.384656  0.927687  0.324072  1
  O  O80  1  0.266943  0.424373  0.160507  1
  O  O81  1  0.543031  0.615344  0.324072  1
  O  O82  1  0.903267  0.207932  0.991862  1
  O  O83  1  0.398646  0.949741  0.658943  1
  O  O84  1  0.072313  0.456969  0.324072  1
  O  O85  1  0.601354  0.050259  0.158943  1
  O  O86  1  0.926213  0.882852  0.000638  1
  O  O87  1  0.901469  0.637451  0.485478  1
  O  O88  1  0.961408  0.758336  0.817449  1
  O  O89  1  0.304666  0.096733  0.991862  1
  O  O90  1  0.640594  0.218748  0.027976  1
  O  O91  1  0.157430  0.733057  0.160507  1
  O  O92  1  0.449394  0.694036  0.962403  1
  O  O93  1  0.203072  0.961408  0.317449  1
  O  O94  1  0.796928  0.038592  0.817449  1
  O  O95  1  0.578154  0.359406  0.027976  1
  O  O96  1  0.398703  0.457711  0.490472  1
  O  O97  1  0.211338  0.966622  0.652941  1
  O  O98  1  0.758336  0.796928  0.317449  1
  O  O99  1  0.096733  0.792068  0.491862  1
  O  O100  1  0.411512  0.141149  0.325193  1
  O  O101  1  0.073787  0.117149  0.500638  1
  O  O102  1  0.755284  0.788662  0.652941  1
  O  O103  1  0.858851  0.270363  0.325193  1
  O  O104  1  0.050259  0.448905  0.658943  1
  O  O105  1  0.575627  0.842570  0.160507  1
  O  O106  1  0.940992  0.398703  0.990472  1
  O  O107  1  0.117149  0.043362  0.000638  1
  O  O108  1  0.882852  0.956638  0.500638  1
  O  O109  1  0.059008  0.601297  0.490472  1
  O  O110  1  0.043362  0.926213  0.500638  1
  O  O111  1  0.244642  0.550606  0.962403  1
