# generated using pymatgen
data_TaP4(SCl)5
_symmetry_space_group_name_H-M   'P 1'
_cell_length_a   7.30235508
_cell_length_b   13.89255113
_cell_length_c   18.50617461
_cell_angle_alpha   90.00000000
_cell_angle_beta   99.42142978
_cell_angle_gamma   90.00000000
_symmetry_Int_Tables_number   1
_chemical_formula_structural   TaP4(SCl)5
_chemical_formula_sum   'Ta4 P16 S20 Cl20'
_cell_volume   1852.09620024
_cell_formula_units_Z   4
loop_
 _symmetry_equiv_pos_site_id
 _symmetry_equiv_pos_as_xyz
  1  'x, y, z'
loop_
 _atom_site_type_symbol
 _atom_site_label
 _atom_site_symmetry_multiplicity
 _atom_site_fract_x
 _atom_site_fract_y
 _atom_site_fract_z
 _atom_site_occupancy
  Ta  Ta0  1  0.198007  0.305987  0.469799  1
  Ta  Ta1  1  0.301993  0.805987  0.030201  1
  Ta  Ta2  1  0.801993  0.694013  0.530201  1
  Ta  Ta3  1  0.698007  0.194013  0.969799  1
  P  P4  1  0.797537  0.052636  0.702117  1
  P  P5  1  0.080911  0.140401  0.385859  1
  P  P6  1  0.472491  0.672307  0.239695  1
  P  P7  1  0.972491  0.827693  0.739695  1
  P  P8  1  0.419089  0.640401  0.114141  1
  P  P9  1  0.527509  0.327693  0.760305  1
  P  P10  1  0.725125  0.007665  0.308628  1
  P  P11  1  0.027509  0.172307  0.260305  1
  P  P12  1  0.580911  0.359599  0.885859  1
  P  P13  1  0.202463  0.947364  0.297883  1
  P  P14  1  0.702463  0.552636  0.797883  1
  P  P15  1  0.774875  0.507665  0.191372  1
  P  P16  1  0.274875  0.992335  0.691372  1
  P  P17  1  0.297537  0.447364  0.202117  1
  P  P18  1  0.919089  0.859599  0.614141  1
  P  P19  1  0.225125  0.492335  0.808628  1
  S  S20  1  0.423386  0.600599  0.794375  1
  S  S21  1  0.301822  0.565223  0.276107  1
  S  S22  1  0.671678  0.583762  0.092735  1
  S  S23  1  0.276198  0.027634  0.397325  1
  S  S24  1  0.223802  0.527634  0.102675  1
  S  S25  1  0.250580  0.377774  0.734468  1
  S  S26  1  0.328322  0.416238  0.907265  1
  S  S27  1  0.723802  0.972366  0.602675  1
  S  S28  1  0.750580  0.122226  0.234468  1
  S  S29  1  0.776198  0.472366  0.897325  1
  S  S30  1  0.923386  0.899401  0.294375  1
  S  S31  1  0.576614  0.399401  0.205625  1
  S  S32  1  0.171678  0.916238  0.592735  1
  S  S33  1  0.828322  0.083762  0.407265  1
  S  S34  1  0.698178  0.434777  0.723893  1
  S  S35  1  0.801822  0.934777  0.776107  1
  S  S36  1  0.749420  0.622226  0.265532  1
  S  S37  1  0.249420  0.877774  0.765532  1
  S  S38  1  0.076614  0.100599  0.705625  1
  S  S39  1  0.198178  0.065223  0.223893  1
  Cl  Cl40  1  0.917055  0.201373  0.890295  1
  Cl  Cl41  1  0.118796  0.697446  0.952374  1
  Cl  Cl42  1  0.985679  0.374711  0.374738  1
  Cl  Cl43  1  0.618796  0.802554  0.452374  1
  Cl  Cl44  1  0.705369  0.555223  0.470756  1
  Cl  Cl45  1  0.381204  0.197446  0.547626  1
  Cl  Cl46  1  0.294631  0.444777  0.529244  1
  Cl  Cl47  1  0.881204  0.302554  0.047626  1
  Cl  Cl48  1  0.205369  0.944777  0.970756  1
  Cl  Cl49  1  0.485679  0.125289  0.874738  1
  Cl  Cl50  1  0.514321  0.874711  0.125262  1
  Cl  Cl51  1  0.050336  0.730024  0.470088  1
  Cl  Cl52  1  0.794631  0.055223  0.029244  1
  Cl  Cl53  1  0.417055  0.298627  0.390295  1
  Cl  Cl54  1  0.082945  0.798627  0.109705  1
  Cl  Cl55  1  0.949664  0.269976  0.529912  1
  Cl  Cl56  1  0.014321  0.625289  0.625262  1
  Cl  Cl57  1  0.550336  0.769976  0.970088  1
  Cl  Cl58  1  0.582945  0.701373  0.609705  1
  Cl  Cl59  1  0.449664  0.230024  0.029912  1
