# generated using pymatgen
data_Ga(MoSe2)4
_symmetry_space_group_name_H-M   'P 1'
_cell_length_a   7.28172128
_cell_length_b   7.28172128
_cell_length_c   7.28172128
_cell_angle_alpha   60.00000001
_cell_angle_beta   59.99999999
_cell_angle_gamma   60.00000001
_symmetry_Int_Tables_number   1
_chemical_formula_structural   Ga(MoSe2)4
_chemical_formula_sum   'Ga1 Mo4 Se8'
_cell_volume   273.01540746
_cell_formula_units_Z   1
loop_
 _symmetry_equiv_pos_site_id
 _symmetry_equiv_pos_as_xyz
  1  'x, y, z'
loop_
 _atom_site_type_symbol
 _atom_site_label
 _atom_site_symmetry_multiplicity
 _atom_site_fract_x
 _atom_site_fract_y
 _atom_site_fract_z
 _atom_site_occupancy
  Ga  Ga0  1  0.000000  0.000000  0.000000  1
  Se  Se1  1  0.137272  0.588185  0.137272  1
  Se  Se2  1  0.588185  0.137272  0.137272  1
  Se  Se3  1  0.137272  0.137272  0.588185  1
  Se  Se4  1  0.635523  0.635523  0.635523  1
  Se  Se5  1  0.635523  0.635523  0.093431  1
  Se  Se6  1  0.093431  0.635523  0.635523  1
  Se  Se7  1  0.635523  0.093431  0.635523  1
  Se  Se8  1  0.137272  0.137272  0.137272  1
  Mo  Mo9  1  0.399960  0.800120  0.399960  1
  Mo  Mo10  1  0.800120  0.399960  0.399960  1
  Mo  Mo11  1  0.399960  0.399960  0.800120  1
  Mo  Mo12  1  0.399960  0.399960  0.399960  1
