# generated using pymatgen
data_AsHPbO4
_symmetry_space_group_name_H-M   'P 1'
_cell_length_a   4.97294534
_cell_length_b   5.93595324
_cell_length_c   6.79012239
_cell_angle_alpha   90.00000000
_cell_angle_beta   90.00000000
_cell_angle_gamma   95.10183327
_symmetry_Int_Tables_number   1
_chemical_formula_structural   AsHPbO4
_chemical_formula_sum   'As2 H2 Pb2 O8'
_cell_volume   199.64468964
_cell_formula_units_Z   2
loop_
 _symmetry_equiv_pos_site_id
 _symmetry_equiv_pos_as_xyz
  1  'x, y, z'
loop_
 _atom_site_type_symbol
 _atom_site_label
 _atom_site_symmetry_multiplicity
 _atom_site_fract_x
 _atom_site_fract_y
 _atom_site_fract_z
 _atom_site_occupancy
  Pb  Pb0  1  0.000000  0.750000  0.796908  1
  Pb  Pb1  1  0.000000  0.250000  0.203092  1
  As  As2  1  0.500000  0.750000  0.208066  1
  As  As3  1  0.500000  0.250000  0.791934  1
  O  O4  1  0.639723  0.554069  0.358156  1
  O  O5  1  0.360277  0.945931  0.358156  1
  O  O6  1  0.360277  0.445931  0.641844  1
  O  O7  1  0.639723  0.054069  0.641844  1
  O  O8  1  0.751821  0.890418  0.070284  1
  O  O9  1  0.248179  0.609582  0.070284  1
  O  O10  1  0.248179  0.109582  0.929716  1
  O  O11  1  0.751821  0.390418  0.929716  1
  H  H12  1  0.500000  0.500000  0.500000  1
  H  H13  1  0.500000  0.000000  0.500000  1
