# generated using pymatgen
data_Sr8Ga16S31
_symmetry_space_group_name_H-M   'P 1'
_cell_length_a   12.08139149
_cell_length_b   11.98422369
_cell_length_c   12.25468049
_cell_angle_alpha   104.64359281
_cell_angle_beta   104.94459744
_cell_angle_gamma   118.67668436
_symmetry_Int_Tables_number   1
_chemical_formula_structural   Sr8Ga16S31
_chemical_formula_sum   'Sr8 Ga16 S31'
_cell_volume   1347.47320364
_cell_formula_units_Z   1
loop_
 _symmetry_equiv_pos_site_id
 _symmetry_equiv_pos_as_xyz
  1  'x, y, z'
loop_
 _atom_site_type_symbol
 _atom_site_label
 _atom_site_symmetry_multiplicity
 _atom_site_fract_x
 _atom_site_fract_y
 _atom_site_fract_z
 _atom_site_occupancy
  Ga  Ga0  1  0.030841  0.621930  0.004566  1
  Ga  Ga1  1  0.137820  0.610642  0.500051  1
  Ga  Ga2  1  0.387421  0.863816  1.000606  1
  Ga  Ga3  1  0.359163  0.966975  0.498382  1
  Ga  Ga4  1  0.108888  0.141186  1.002044  1
  Ga  Ga5  1  0.137252  0.110851  0.499765  1
  Ga  Ga6  1  0.360587  0.468002  0.500485  1
  Ga  Ga7  1  0.467296  0.359756  -0.000071  1
  Ga  Ga8  1  0.531886  0.639950  0.998563  1
  Ga  Ga9  1  0.638525  0.531295  0.499211  1
  Ga  Ga10  1  0.864224  0.891010  0.501037  1
  Ga  Ga11  1  0.893192  0.862528  0.002354  1
  Ga  Ga12  1  0.637657  0.030958  0.498209  1
  Ga  Ga13  1  0.614784  0.138239  0.001953  1
  Ga  Ga14  1  0.862829  0.389623  0.498398  1
  Ga  Ga15  1  0.976413  0.389787  0.009871  1
  S  S16  1  0.184647  0.834742  0.004115  1
  S  S17  1  0.081999  0.581662  0.661808  1
  S  S18  1  0.153243  0.809289  0.493908  1
  S  S19  1  0.419141  0.919519  0.837872  1
  S  S20  1  0.157052  0.313627  0.501699  1
  S  S21  1  0.082293  0.081620  0.663754  1
  S  S22  1  0.340110  0.650234  0.496794  1
  S  S23  1  0.413992  0.911966  0.333245  1
  S  S24  1  0.308780  0.156872  1.001037  1
  S  S25  1  0.150802  0.349785  0.007809  1
  S  S26  1  0.082227  0.082729  0.164918  1
  S  S27  1  0.417479  0.417002  0.835951  1
  S  S28  1  0.351252  0.659962  1.001323  1
  S  S29  1  0.416698  0.416735  0.336033  1
  S  S30  1  0.660145  0.849627  0.500523  1
  S  S31  1  0.341072  0.151270  0.499861  1
  S  S32  1  0.583069  0.583097  0.663664  1
  S  S33  1  0.649985  0.341874  0.001313  1
  S  S34  1  0.583001  0.583765  0.164279  1
  S  S35  1  0.919731  0.920029  0.838551  1
  S  S36  1  0.855795  0.658715  0.006552  1
  S  S37  1  0.690759  0.843729  0.998652  1
  S  S38  1  0.579015  0.080100  0.661555  1
  S  S39  1  0.658370  0.348080  0.497205  1
  S  S40  1  0.918338  0.919354  0.337000  1
  S  S41  1  0.842680  0.687300  0.499514  1
  S  S42  1  0.909892  0.411141  0.818364  1
  S  S43  1  0.582037  0.081947  0.163741  1
  S  S44  1  0.841343  0.185984  0.496794  1
  S  S45  1  0.919595  0.420169  0.334589  1
  S  S46  1  0.820082  0.171366  0.002867  1
  Sr  Sr47  1  0.124429  0.873922  0.751689  1
  Sr  Sr48  1  0.122407  0.374717  0.753728  1
  Sr  Sr49  1  0.383438  0.624855  0.250916  1
  Sr  Sr50  1  0.627262  0.878187  0.750349  1
  Sr  Sr51  1  0.373704  0.122747  0.249769  1
  Sr  Sr52  1  0.629477  0.377233  0.751215  1
  Sr  Sr53  1  0.867148  0.624238  0.248913  1
  Sr  Sr54  1  0.875430  0.126560  0.247708  1
