# generated using pymatgen
data_HI3O8
_symmetry_space_group_name_H-M   'P 1'
_cell_length_a   7.73598896
_cell_length_b   7.97616241
_cell_length_c   11.59357931
_cell_angle_alpha   90.00000000
_cell_angle_beta   88.87648925
_cell_angle_gamma   90.00000000
_symmetry_Int_Tables_number   1
_chemical_formula_structural   HI3O8
_chemical_formula_sum   'H4 I12 O32'
_cell_volume   715.22694271
_cell_formula_units_Z   4
loop_
 _symmetry_equiv_pos_site_id
 _symmetry_equiv_pos_as_xyz
  1  'x, y, z'
loop_
 _atom_site_type_symbol
 _atom_site_label
 _atom_site_symmetry_multiplicity
 _atom_site_fract_x
 _atom_site_fract_y
 _atom_site_fract_z
 _atom_site_occupancy
  I  I0  1  0.238728  0.227256  0.095343  1
  I  I1  1  0.261272  0.727256  0.404657  1
  I  I2  1  0.761272  0.772744  0.904657  1
  I  I3  1  0.738728  0.272744  0.595343  1
  I  I4  1  0.349651  0.741823  0.104269  1
  I  I5  1  0.150349  0.241823  0.395731  1
  I  I6  1  0.650349  0.258177  0.895731  1
  I  I7  1  0.849651  0.758177  0.604269  1
  I  I8  1  0.755683  0.049008  0.186844  1
  I  I9  1  0.744317  0.549008  0.313156  1
  I  I10  1  0.244317  0.950992  0.813156  1
  I  I11  1  0.255683  0.450992  0.686844  1
  O  O12  1  0.455465  0.300490  0.050984  1
  O  O13  1  0.044535  0.800490  0.449016  1
  O  O14  1  0.544535  0.699510  0.949016  1
  O  O15  1  0.955465  0.199510  0.550984  1
  O  O16  1  0.128422  0.425763  0.085910  1
  O  O17  1  0.371578  0.925763  0.414090  1
  O  O18  1  0.871578  0.574237  0.914090  1
  O  O19  1  0.628422  0.074237  0.585910  1
  O  O20  1  0.184935  0.821589  0.008945  1
  O  O21  1  0.315065  0.321588  0.491055  1
  O  O22  1  0.815065  0.178412  0.991055  1
  O  O23  1  0.684935  0.678411  0.508945  1
  O  O24  1  0.446038  0.944575  0.136531  1
  O  O25  1  0.053962  0.444575  0.363469  1
  O  O26  1  0.553962  0.055425  0.863469  1
  O  O27  1  0.946038  0.555425  0.636531  1
  O  O28  1  0.188576  0.749488  0.241733  1
  O  O29  1  0.311424  0.249488  0.258267  1
  O  O30  1  0.811424  0.250512  0.758267  1
  O  O31  1  0.688576  0.750512  0.741733  1
  O  O32  1  0.782548  0.455814  0.160928  1
  O  O33  1  0.717452  0.955814  0.339072  1
  O  O34  1  0.217452  0.544186  0.839072  1
  O  O35  1  0.282548  0.044186  0.660928  1
  O  O36  1  0.808837  0.849848  0.118055  1
  O  O37  1  0.691163  0.349848  0.381945  1
  O  O38  1  0.191163  0.150152  0.881945  1
  O  O39  1  0.308837  0.650152  0.618055  1
  O  O40  1  0.974707  0.116783  0.221589  1
  O  O41  1  0.525293  0.616783  0.278411  1
  O  O42  1  0.025293  0.883217  0.778411  1
  O  O43  1  0.474707  0.383217  0.721589  1
  H  H44  1  0.908605  0.453873  0.137647  1
  H  H45  1  0.591395  0.953873  0.362353  1
  H  H46  1  0.091395  0.546127  0.862353  1
  H  H47  1  0.408605  0.046127  0.637647  1
