# generated using pymatgen
data_K2BeF4
_symmetry_space_group_name_H-M   'P 1'
_cell_length_a   5.77334326
_cell_length_b   7.40863419
_cell_length_c   10.06688354
_cell_angle_alpha   90.00000000
_cell_angle_beta   90.00000000
_cell_angle_gamma   90.00000000
_symmetry_Int_Tables_number   1
_chemical_formula_structural   K2BeF4
_chemical_formula_sum   'K8 Be4 F16'
_cell_volume   430.58666478
_cell_formula_units_Z   4
loop_
 _symmetry_equiv_pos_site_id
 _symmetry_equiv_pos_as_xyz
  1  'x, y, z'
loop_
 _atom_site_type_symbol
 _atom_site_label
 _atom_site_symmetry_multiplicity
 _atom_site_fract_x
 _atom_site_fract_y
 _atom_site_fract_z
 _atom_site_occupancy
  Be  Be0  1  0.250000  0.231992  0.419969  1
  Be  Be1  1  0.250000  0.731992  0.080031  1
  Be  Be2  1  0.750000  0.268008  0.919969  1
  Be  Be3  1  0.750000  0.768008  0.580031  1
  F  F4  1  0.250000  0.522058  0.081252  1
  F  F5  1  0.750000  0.477942  0.918748  1
  F  F6  1  0.250000  0.022058  0.418748  1
  F  F7  1  0.750000  0.977942  0.581252  1
  F  F8  1  0.750000  0.690658  0.433764  1
  F  F9  1  0.250000  0.809342  0.933764  1
  F  F10  1  0.250000  0.309342  0.566236  1
  F  F11  1  0.750000  0.190658  0.066236  1
  F  F12  1  0.971632  0.694181  0.651884  1
  F  F13  1  0.471632  0.305819  0.348116  1
  F  F14  1  0.528368  0.194181  0.848116  1
  F  F15  1  0.028368  0.805819  0.151884  1
  F  F16  1  0.028368  0.305819  0.348116  1
  F  F17  1  0.528368  0.694181  0.651884  1
  F  F18  1  0.471632  0.805819  0.151884  1
  F  F19  1  0.971632  0.194181  0.848116  1
  K  K20  1  0.250000  0.490014  0.806580  1
  K  K21  1  0.750000  0.509986  0.193420  1
  K  K22  1  0.250000  0.990014  0.693420  1
  K  K23  1  0.750000  0.009986  0.306580  1
  K  K24  1  0.250000  0.660527  0.411765  1
  K  K25  1  0.750000  0.339473  0.588235  1
  K  K26  1  0.250000  0.160527  0.088235  1
  K  K27  1  0.750000  0.839473  0.911765  1
