# generated using pymatgen
data_Rb2U(SiO3)4
_symmetry_space_group_name_H-M   'P 1'
_cell_length_a   6.91552501
_cell_length_b   8.49144611
_cell_length_c   11.37301667
_cell_angle_alpha   72.99600358
_cell_angle_beta   88.79001769
_cell_angle_gamma   77.27044074
_symmetry_Int_Tables_number   1
_chemical_formula_structural   Rb2U(SiO3)4
_chemical_formula_sum   'Rb4 U2 Si8 O24'
_cell_volume   622.28988079
_cell_formula_units_Z   2
loop_
 _symmetry_equiv_pos_site_id
 _symmetry_equiv_pos_as_xyz
  1  'x, y, z'
loop_
 _atom_site_type_symbol
 _atom_site_label
 _atom_site_symmetry_multiplicity
 _atom_site_fract_x
 _atom_site_fract_y
 _atom_site_fract_z
 _atom_site_occupancy
  Rb  Rb0  1  0.803726  0.309513  0.005498  1
  Rb  Rb1  1  0.177146  0.729605  0.353842  1
  Rb  Rb2  1  0.196274  0.690487  0.994502  1
  Rb  Rb3  1  0.822854  0.270395  0.646158  1
  U  U4  1  0.675385  0.717463  0.173941  1
  U  U5  1  0.324615  0.282537  0.826059  1
  Si  Si6  1  0.698899  0.757156  0.483796  1
  Si  Si7  1  0.674689  0.138032  0.374605  1
  Si  Si8  1  0.617814  0.868280  0.833076  1
  Si  Si9  1  0.969570  0.677752  0.712483  1
  Si  Si10  1  0.030430  0.322248  0.287517  1
  Si  Si11  1  0.301101  0.242844  0.516204  1
  Si  Si12  1  0.325311  0.861968  0.625395  1
  Si  Si13  1  0.382186  0.131720  0.166924  1
  O  O14  1  0.940224  0.495322  0.181665  1
  O  O15  1  0.443433  0.826542  0.755490  1
  O  O16  1  0.575207  0.068794  0.818720  1
  O  O17  1  0.059776  0.504678  0.818335  1
  O  O18  1  0.424793  0.931206  0.181280  1
  O  O19  1  0.508236  0.417545  0.796643  1
  O  O20  1  0.622744  0.748438  0.973361  1
  O  O21  1  0.532661  0.202216  0.476335  1
  O  O22  1  0.145905  0.764519  0.641140  1
  O  O23  1  0.159863  0.358524  0.393073  1
  O  O24  1  0.772822  0.936364  0.434470  1
  O  O25  1  0.227178  0.063636  0.565530  1
  O  O26  1  0.377256  0.251562  0.026639  1
  O  O27  1  0.854095  0.235481  0.358860  1
  O  O28  1  0.556567  0.173458  0.244510  1
  O  O29  1  0.168226  0.180476  0.230814  1
  O  O30  1  0.278166  0.339588  0.618939  1
  O  O31  1  0.467339  0.797784  0.523665  1
  O  O32  1  0.143779  0.144065  0.858487  1
  O  O33  1  0.840137  0.641476  0.606927  1
  O  O34  1  0.856221  0.855935  0.141513  1
  O  O35  1  0.491764  0.582455  0.203357  1
  O  O36  1  0.831774  0.819524  0.769186  1
  O  O37  1  0.721834  0.660412  0.381061  1
