# generated using pymatgen
data_TiSCl6O
_symmetry_space_group_name_H-M   'P 1'
_cell_length_a   6.63209562
_cell_length_b   8.18878032
_cell_length_c   11.22515059
_cell_angle_alpha   108.50382994
_cell_angle_beta   91.38155619
_cell_angle_gamma   113.71642751
_symmetry_Int_Tables_number   1
_chemical_formula_structural   TiSCl6O
_chemical_formula_sum   'Ti2 S2 Cl12 O2'
_cell_volume   521.13695456
_cell_formula_units_Z   2
loop_
 _symmetry_equiv_pos_site_id
 _symmetry_equiv_pos_as_xyz
  1  'x, y, z'
loop_
 _atom_site_type_symbol
 _atom_site_label
 _atom_site_symmetry_multiplicity
 _atom_site_fract_x
 _atom_site_fract_y
 _atom_site_fract_z
 _atom_site_occupancy
  Ti  Ti0  1  0.930419  0.767165  0.857587  1
  Ti  Ti1  1  0.069581  0.232835  0.142413  1
  S  S2  1  0.354530  0.023558  0.299933  1
  S  S3  1  0.645470  0.976442  0.700067  1
  Cl  Cl4  1  0.612261  0.501314  0.807631  1
  Cl  Cl5  1  0.060759  0.826175  0.326866  1
  Cl  Cl6  1  0.453219  0.229034  0.483415  1
  Cl  Cl7  1  0.805270  0.890940  0.060083  1
  Cl  Cl8  1  0.546781  0.770966  0.516585  1
  Cl  Cl9  1  0.965823  0.265449  0.333153  1
  Cl  Cl10  1  0.387739  0.498686  0.192369  1
  Cl  Cl11  1  0.034177  0.734551  0.666847  1
  Cl  Cl12  1  0.194730  0.109060  0.939917  1
  Cl  Cl13  1  0.842234  0.319345  0.061096  1
  Cl  Cl14  1  0.939241  0.173825  0.673134  1
  Cl  Cl15  1  0.157766  0.680655  0.938904  1
  O  O16  1  0.703603  0.894794  0.786771  1
  O  O17  1  0.296397  0.105206  0.213229  1
