# generated using pymatgen
data_KC(NO2)2
_symmetry_space_group_name_H-M   'P 1'
_cell_length_a   7.67341919
_cell_length_b   7.67341967
_cell_length_c   9.15047754
_cell_angle_alpha   75.97483978
_cell_angle_beta   75.97483891
_cell_angle_gamma   61.05566213
_symmetry_Int_Tables_number   1
_chemical_formula_structural   KC(NO2)2
_chemical_formula_sum   'K4 C4 N8 O16'
_cell_volume   452.44667980
_cell_formula_units_Z   4
loop_
 _symmetry_equiv_pos_site_id
 _symmetry_equiv_pos_as_xyz
  1  'x, y, z'
loop_
 _atom_site_type_symbol
 _atom_site_label
 _atom_site_symmetry_multiplicity
 _atom_site_fract_x
 _atom_site_fract_y
 _atom_site_fract_z
 _atom_site_occupancy
  K  K0  1  0.166652  0.976277  0.294602  1
  K  K1  1  0.523723  0.333348  0.205398  1
  K  K2  1  0.833348  0.023723  0.705398  1
  K  K3  1  0.476277  0.666652  0.794602  1
  C  C4  1  0.224331  0.317513  0.667720  1
  C  C5  1  0.182487  0.275669  0.832280  1
  C  C6  1  0.775669  0.682487  0.332280  1
  C  C7  1  0.817513  0.724331  0.167720  1
  N  N8  1  0.315134  0.258781  0.920917  1
  N  N9  1  0.767689  0.500766  0.401209  1
  N  N10  1  0.241219  0.184866  0.579083  1
  N  N11  1  0.684866  0.741219  0.079083  1
  N  N12  1  0.758781  0.815134  0.420917  1
  N  N13  1  -0.000766  0.732311  0.098791  1
  N  N14  1  0.232311  0.499234  0.598791  1
  N  N15  1  1.000766  0.267689  0.901209  1
  O  O16  1  0.732360  0.785037  0.564578  1
  O  O17  1  0.170946  0.629386  0.685741  1
  O  O18  1  0.299683  0.530864  0.461162  1
  O  O19  1  0.700317  0.469136  0.538838  1
  O  O20  1  0.129386  0.670946  0.185741  1
  O  O21  1  0.218934  0.030148  0.650532  1
  O  O22  1  0.781066  0.969852  0.349468  1
  O  O23  1  0.530148  0.718934  0.150532  1
  O  O24  1  0.285037  0.232360  0.064578  1
  O  O25  1  0.030864  0.799683  0.961162  1
  O  O26  1  0.714963  0.767640  0.935422  1
  O  O27  1  0.870614  0.329054  0.814259  1
  O  O28  1  0.829054  0.370614  0.314259  1
  O  O29  1  0.267640  0.214963  0.435422  1
  O  O30  1  0.469852  0.281066  0.849468  1
  O  O31  1  0.969136  0.200317  0.038838  1
