# generated using pymatgen
data_Ba6Zn(InCl10)2
_symmetry_space_group_name_H-M   'P 1'
_cell_length_a   10.32866768
_cell_length_b   18.17542656
_cell_length_c   19.97289037
_cell_angle_alpha   111.08793908
_cell_angle_beta   90.00000000
_cell_angle_gamma   90.00000000
_symmetry_Int_Tables_number   1
_chemical_formula_structural   Ba6Zn(InCl10)2
_chemical_formula_sum   'Ba24 Zn4 In8 Cl80'
_cell_volume   3498.36495966
_cell_formula_units_Z   4
loop_
 _symmetry_equiv_pos_site_id
 _symmetry_equiv_pos_as_xyz
  1  'x, y, z'
loop_
 _atom_site_type_symbol
 _atom_site_label
 _atom_site_symmetry_multiplicity
 _atom_site_fract_x
 _atom_site_fract_y
 _atom_site_fract_z
 _atom_site_occupancy
  Ba  Ba0  1  0.207876  0.264944  0.959914  1
  Ba  Ba1  1  0.261732  0.009955  0.525559  1
  Ba  Ba2  1  0.253436  0.060063  0.269308  1
  Ba  Ba3  1  0.746564  0.939937  0.730692  1
  Ba  Ba4  1  0.792124  0.735056  0.040086  1
  Ba  Ba5  1  0.292124  0.764944  0.959914  1
  Ba  Ba6  1  0.246564  0.560063  0.269308  1
  Ba  Ba7  1  0.761732  0.490045  0.474441  1
  Ba  Ba8  1  0.508104  0.750679  0.495662  1
  Ba  Ba9  1  0.991896  0.250679  0.495662  1
  Ba  Ba10  1  0.513439  0.178959  0.734621  1
  Ba  Ba11  1  0.738268  0.990045  0.474441  1
  Ba  Ba12  1  0.753436  0.439937  0.730692  1
  Ba  Ba13  1  0.013439  0.321041  0.265379  1
  Ba  Ba14  1  0.008104  0.749321  0.504338  1
  Ba  Ba15  1  0.259292  0.911963  0.730491  1
  Ba  Ba16  1  0.707876  0.235056  0.040086  1
  Ba  Ba17  1  0.238268  0.509955  0.525559  1
  Ba  Ba18  1  0.759292  0.588037  0.269509  1
  Ba  Ba19  1  0.491896  0.249321  0.504338  1
  Ba  Ba20  1  0.986561  0.678959  0.734621  1
  Ba  Ba21  1  0.486561  0.821041  0.265379  1
  Ba  Ba22  1  0.240708  0.411963  0.730491  1
  Ba  Ba23  1  0.740708  0.088037  0.269509  1
  Zn  Zn24  1  0.976564  0.423924  0.107339  1
  Zn  Zn25  1  0.476564  0.076076  0.892661  1
  Zn  Zn26  1  0.523436  0.923924  0.107339  1
  Zn  Zn27  1  0.023436  0.576076  0.892661  1
  In  In28  1  0.007978  0.157836  0.688256  1
  In  In29  1  0.517527  0.414303  0.911780  1
  In  In30  1  0.982473  0.914303  0.911780  1
  In  In31  1  0.482473  0.585697  0.088220  1
  In  In32  1  0.507978  0.342164  0.311744  1
  In  In33  1  0.017527  0.085697  0.088220  1
  In  In34  1  0.492022  0.657836  0.688256  1
  In  In35  1  0.992022  0.842164  0.311744  1
  Cl  Cl36  1  0.514371  0.319687  0.673395  1
  Cl  Cl37  1  0.497016  0.497321  0.836410  1
  Cl  Cl38  1  0.330300  0.876748  0.135666  1
  Cl  Cl39  1  0.502984  0.502679  0.163590  1
  Cl  Cl40  1  0.689690  0.330636  0.833492  1
  Cl  Cl41  1  0.313610  0.115094  0.831790  1
  Cl  Cl42  1  0.686390  0.884906  0.168210  1
  Cl  Cl43  1  0.261114  0.691786  0.661931  1
  Cl  Cl44  1  0.831321  0.175986  0.161083  1
  Cl  Cl45  1  0.238886  0.191786  0.661931  1
  Cl  Cl46  1  0.987069  0.786896  0.180774  1
  Cl  Cl47  1  0.557092  0.788016  0.672520  1
  Cl  Cl48  1  0.487069  0.713104  0.819226  1
  Cl  Cl49  1  0.497745  0.673909  0.013361  1
  Cl  Cl50  1  0.168679  0.824014  0.838917  1
  Cl  Cl51  1  0.283055  0.403116  0.318267  1
  Cl  Cl52  1  0.490936  0.943655  0.844903  1
  Cl  Cl53  1  0.250575  0.631851  0.442027  1
  Cl  Cl54  1  0.997016  0.002679  0.163590  1
  Cl  Cl55  1  0.521098  0.107619  0.560726  1
  Cl  Cl56  1  0.716945  0.596884  0.681733  1
  Cl  Cl57  1  0.761114  0.808214  0.338069  1
  Cl  Cl58  1  0.905900  0.981570  0.334084  1
  Cl  Cl59  1  0.594100  0.481570  0.334084  1
  Cl  Cl60  1  0.761420  0.652961  0.437749  1
  Cl  Cl61  1  0.749425  0.368149  0.557973  1
  Cl  Cl62  1  0.442908  0.211984  0.327480  1
  Cl  Cl63  1  0.669700  0.123252  0.864334  1
  Cl  Cl64  1  0.331321  0.324014  0.838917  1
  Cl  Cl65  1  0.002255  0.173909  0.013361  1
  Cl  Cl66  1  0.310310  0.669364  0.166508  1
  Cl  Cl67  1  0.783055  0.096884  0.681733  1
  Cl  Cl68  1  0.512931  0.286896  0.180774  1
  Cl  Cl69  1  0.828905  0.006973  0.004148  1
  Cl  Cl70  1  0.238580  0.347039  0.562251  1
  Cl  Cl71  1  0.433414  0.146136  0.009132  1
  Cl  Cl72  1  0.216945  0.903116  0.318267  1
  Cl  Cl73  1  0.985629  0.819687  0.673395  1
  Cl  Cl74  1  0.566586  0.853864  0.990868  1
  Cl  Cl75  1  0.813610  0.384906  0.168210  1
  Cl  Cl76  1  0.171095  0.993027  0.995852  1
  Cl  Cl77  1  0.990936  0.556345  0.155097  1
  Cl  Cl78  1  0.261420  0.847039  0.562251  1
  Cl  Cl79  1  0.012931  0.213104  0.819226  1
  Cl  Cl80  1  0.942908  0.288016  0.672520  1
  Cl  Cl81  1  0.015546  0.897908  0.453695  1
  Cl  Cl82  1  0.738580  0.152961  0.437749  1
  Cl  Cl83  1  0.997745  0.826091  0.986639  1
  Cl  Cl84  1  0.516723  0.006099  0.323944  1
  Cl  Cl85  1  0.169700  0.376748  0.135666  1
  Cl  Cl86  1  0.509064  0.056345  0.155097  1
  Cl  Cl87  1  0.057092  0.711984  0.327480  1
  Cl  Cl88  1  0.668679  0.675986  0.161083  1
  Cl  Cl89  1  0.484454  0.397908  0.453695  1
  Cl  Cl90  1  0.978902  0.607619  0.560726  1
  Cl  Cl91  1  0.009064  0.443655  0.844903  1
  Cl  Cl92  1  0.983277  0.506099  0.323944  1
  Cl  Cl93  1  0.502255  0.326091  0.986639  1
  Cl  Cl94  1  0.405900  0.518430  0.665916  1
  Cl  Cl95  1  0.186390  0.615094  0.831790  1
  Cl  Cl96  1  0.249425  0.131851  0.442027  1
  Cl  Cl97  1  0.066586  0.646136  0.009132  1
  Cl  Cl98  1  0.738886  0.308214  0.338069  1
  Cl  Cl99  1  0.483277  0.993901  0.676056  1
  Cl  Cl100  1  0.671095  0.506973  0.004148  1
  Cl  Cl101  1  0.328905  0.493027  0.995852  1
  Cl  Cl102  1  0.830300  0.623252  0.864334  1
  Cl  Cl103  1  0.810310  0.830636  0.833492  1
  Cl  Cl104  1  0.984454  0.102092  0.546305  1
  Cl  Cl105  1  0.094100  0.018430  0.665916  1
  Cl  Cl106  1  0.189690  0.169364  0.166508  1
  Cl  Cl107  1  0.478902  0.892381  0.439274  1
  Cl  Cl108  1  0.016723  0.493901  0.676056  1
  Cl  Cl109  1  0.515546  0.602092  0.546305  1
  Cl  Cl110  1  0.750575  0.868149  0.557973  1
  Cl  Cl111  1  0.014371  0.180313  0.326605  1
  Cl  Cl112  1  0.002984  0.997321  0.836410  1
  Cl  Cl113  1  0.021098  0.392381  0.439274  1
  Cl  Cl114  1  0.485629  0.680313  0.326605  1
  Cl  Cl115  1  0.933414  0.353864  0.990868  1
