# generated using pymatgen
data_NaCuPO4
_symmetry_space_group_name_H-M   'P 1'
_cell_length_a   5.08101083
_cell_length_b   7.08611685
_cell_length_c   8.99995467
_cell_angle_alpha   90.00000000
_cell_angle_beta   90.00000000
_cell_angle_gamma   98.49217355
_symmetry_Int_Tables_number   1
_chemical_formula_structural   NaCuPO4
_chemical_formula_sum   'Na4 Cu4 P4 O16'
_cell_volume   320.48733494
_cell_formula_units_Z   4
loop_
 _symmetry_equiv_pos_site_id
 _symmetry_equiv_pos_as_xyz
  1  'x, y, z'
loop_
 _atom_site_type_symbol
 _atom_site_label
 _atom_site_symmetry_multiplicity
 _atom_site_fract_x
 _atom_site_fract_y
 _atom_site_fract_z
 _atom_site_occupancy
  Na  Na0  1  0.954007  0.303402  0.644222  1
  Na  Na1  1  0.454007  0.803402  0.855778  1
  Na  Na2  1  0.545993  0.196598  0.144222  1
  Na  Na3  1  0.045993  0.696598  0.355778  1
  Cu  Cu4  1  0.000000  0.500000  0.000000  1
  Cu  Cu5  1  0.500000  0.500000  0.500000  1
  Cu  Cu6  1  0.000000  0.000000  0.000000  1
  Cu  Cu7  1  0.500000  0.000000  0.500000  1
  P  P8  1  0.950329  0.802390  0.675060  1
  P  P9  1  0.549671  0.697610  0.175060  1
  P  P10  1  0.049671  0.197610  0.324940  1
  P  P11  1  0.450329  0.302390  0.824940  1
  O  O12  1  0.799651  0.969187  0.634247  1
  O  O13  1  0.200349  0.030813  0.365753  1
  O  O14  1  0.700349  0.530813  0.134247  1
  O  O15  1  0.244893  0.824976  0.623080  1
  O  O16  1  0.181745  0.389873  0.394505  1
  O  O17  1  0.299651  0.469187  0.865753  1
  O  O18  1  0.818255  0.610127  0.605495  1
  O  O19  1  0.255107  0.675024  0.123080  1
  O  O20  1  0.755107  0.175024  0.376920  1
  O  O21  1  0.439816  0.285444  0.650690  1
  O  O22  1  0.744893  0.324976  0.876920  1
  O  O23  1  0.939816  0.785444  0.849310  1
  O  O24  1  0.681745  0.889873  0.105495  1
  O  O25  1  0.318255  0.110127  0.894505  1
  O  O26  1  0.060184  0.214556  0.150690  1
  O  O27  1  0.560184  0.714556  0.349310  1
