# generated using pymatgen
data_LiV(PO3)5
_symmetry_space_group_name_H-M   'P 1'
_cell_length_a   10.40422204
_cell_length_b   13.66816691
_cell_length_c   8.86658873
_cell_angle_alpha   90.00000000
_cell_angle_beta   100.62272834
_cell_angle_gamma   90.00000000
_symmetry_Int_Tables_number   1
_chemical_formula_structural   LiV(PO3)5
_chemical_formula_sum   'Li4 V4 P20 O60'
_cell_volume   1239.27910634
_cell_formula_units_Z   4
loop_
 _symmetry_equiv_pos_site_id
 _symmetry_equiv_pos_as_xyz
  1  'x, y, z'
loop_
 _atom_site_type_symbol
 _atom_site_label
 _atom_site_symmetry_multiplicity
 _atom_site_fract_x
 _atom_site_fract_y
 _atom_site_fract_z
 _atom_site_occupancy
  Li  Li0  1  0.481856  0.625338  0.925145  1
  Li  Li1  1  0.518144  0.125338  0.074855  1
  Li  Li2  1  0.981856  0.874662  0.925145  1
  Li  Li3  1  0.018144  0.374662  0.074855  1
  V  V4  1  0.250000  0.000000  0.500000  1
  V  V5  1  0.750000  0.500000  0.500000  1
  V  V6  1  0.750000  0.000000  0.500000  1
  V  V7  1  0.250000  0.500000  0.500000  1
  P  P8  1  0.820961  0.913469  0.181001  1
  P  P9  1  0.679039  0.086531  0.818999  1
  P  P10  1  0.994568  0.857371  0.476248  1
  P  P11  1  0.337715  0.925877  0.185694  1
  P  P12  1  0.500987  0.360016  0.520552  1
  P  P13  1  0.999013  0.639984  0.479448  1
  P  P14  1  0.000987  0.139984  0.520552  1
  P  P15  1  0.320961  0.586531  0.181001  1
  P  P16  1  0.228646  0.750790  0.985217  1
  P  P17  1  0.494568  0.642629  0.476248  1
  P  P18  1  0.771354  0.250790  0.014783  1
  P  P19  1  0.162285  0.074123  0.814306  1
  P  P20  1  0.179039  0.413469  0.818999  1
  P  P21  1  0.005432  0.357371  0.523752  1
  P  P22  1  0.662285  0.425877  0.814306  1
  P  P23  1  0.837715  0.574123  0.185694  1
  P  P24  1  0.499013  0.860016  0.479448  1
  P  P25  1  0.728646  0.749210  0.985217  1
  P  P26  1  0.505432  0.142629  0.523752  1
  P  P27  1  0.271354  0.249210  0.014783  1
  O  O28  1  0.555453  0.359221  0.699209  1
  O  O29  1  0.114352  0.462386  0.932333  1
  O  O30  1  0.566703  0.148416  0.700538  1
  O  O31  1  0.639200  0.620913  0.502628  1
  O  O32  1  0.398996  0.232943  0.116420  1
  O  O33  1  0.055453  0.140779  0.699209  1
  O  O34  1  0.976265  0.748607  0.533389  1
  O  O35  1  0.413210  0.576811  0.559656  1
  O  O36  1  0.586790  0.076811  0.440344  1
  O  O37  1  0.023735  0.248607  0.466610  1
  O  O38  1  0.614352  0.037614  0.932333  1
  O  O39  1  0.885648  0.962386  0.067667  1
  O  O40  1  0.353014  0.730492  0.933065  1
  O  O41  1  0.786769  0.166070  0.880950  1
  O  O42  1  0.144903  0.621531  0.506506  1
  O  O43  1  0.742917  0.022524  0.707564  1
  O  O44  1  0.933297  0.851584  0.299462  1
  O  O45  1  0.944547  0.640779  0.300791  1
  O  O46  1  0.286769  0.333930  0.880950  1
  O  O47  1  0.853014  0.769508  0.933065  1
  O  O48  1  0.757083  0.977476  0.292436  1
  O  O49  1  0.644903  0.878469  0.506506  1
  O  O50  1  0.523735  0.251393  0.466610  1
  O  O51  1  0.403531  0.991105  0.092779  1
  O  O52  1  0.416862  0.926011  0.560377  1
  O  O53  1  0.583138  0.426011  0.439623  1
  O  O54  1  0.213231  0.666070  0.119050  1
  O  O55  1  0.101004  0.767057  0.883580  1
  O  O56  1  0.086790  0.423189  0.440344  1
  O  O57  1  0.083138  0.073989  0.439623  1
  O  O58  1  0.855097  0.121531  0.493494  1
  O  O59  1  0.433297  0.648416  0.299462  1
  O  O60  1  0.903531  0.508895  0.092779  1
  O  O61  1  0.066703  0.351584  0.700538  1
  O  O62  1  0.444547  0.859221  0.300791  1
  O  O63  1  0.385648  0.537614  0.067667  1
  O  O64  1  0.096469  0.008895  0.907221  1
  O  O65  1  0.743226  0.476312  0.704243  1
  O  O66  1  0.243226  0.023688  0.704243  1
  O  O67  1  0.360800  0.120913  0.497372  1
  O  O68  1  0.860800  0.379087  0.497372  1
  O  O69  1  0.139200  0.879087  0.502628  1
  O  O70  1  0.913210  0.923189  0.559656  1
  O  O71  1  0.257083  0.522524  0.292436  1
  O  O72  1  0.476265  0.751393  0.533389  1
  O  O73  1  0.257982  0.153847  0.895443  1
  O  O74  1  0.242917  0.477476  0.707564  1
  O  O75  1  0.713231  0.833930  0.119050  1
  O  O76  1  0.916862  0.573989  0.560377  1
  O  O77  1  0.146986  0.269508  0.066935  1
  O  O78  1  0.646986  0.230492  0.066935  1
  O  O79  1  0.898996  0.267057  0.116420  1
  O  O80  1  0.355097  0.378469  0.493494  1
  O  O81  1  0.757982  0.346153  0.895443  1
  O  O82  1  0.756774  0.523688  0.295757  1
  O  O83  1  0.596469  0.491105  0.907221  1
  O  O84  1  0.601004  0.732943  0.883580  1
  O  O85  1  0.256774  0.976312  0.295757  1
  O  O86  1  0.242018  0.846153  0.104557  1
  O  O87  1  0.742018  0.653847  0.104557  1
