# generated using pymatgen
data_Bi2O3
_symmetry_space_group_name_H-M   'P 1'
_cell_length_a   5.93078725
_cell_length_b   8.69807438
_cell_length_c   7.77157836
_cell_angle_alpha   90.00000000
_cell_angle_beta   90.00000000
_cell_angle_gamma   117.38608233
_symmetry_Int_Tables_number   1
_chemical_formula_structural   Bi2O3
_chemical_formula_sum   'Bi8 O12'
_cell_volume   355.97707160
_cell_formula_units_Z   4
loop_
 _symmetry_equiv_pos_site_id
 _symmetry_equiv_pos_as_xyz
  1  'x, y, z'
loop_
 _atom_site_type_symbol
 _atom_site_label
 _atom_site_symmetry_multiplicity
 _atom_site_fract_x
 _atom_site_fract_y
 _atom_site_fract_z
 _atom_site_occupancy
  Bi  Bi0  1  0.430396  0.153318  0.272746  1
  Bi  Bi1  1  0.059169  0.306086  0.525231  1
  Bi  Bi2  1  0.569604  0.346682  0.772746  1
  Bi  Bi3  1  0.940831  0.193914  0.025231  1
  Bi  Bi4  1  0.430396  0.653318  0.227254  1
  Bi  Bi5  1  0.569604  0.846682  0.727254  1
  Bi  Bi6  1  0.940831  0.693914  0.474769  1
  Bi  Bi7  1  0.059169  0.806086  0.974769  1
  O  O8  1  0.731262  0.885850  0.987943  1
  O  O9  1  0.730186  0.643148  0.742516  1
  O  O10  1  0.269814  0.356852  0.257484  1
  O  O11  1  0.946009  0.024144  0.422160  1
  O  O12  1  0.946009  0.524144  0.077840  1
  O  O13  1  0.268738  0.114150  0.012057  1
  O  O14  1  0.730186  0.143148  0.757484  1
  O  O15  1  0.053991  0.475856  0.922160  1
  O  O16  1  0.731262  0.385850  0.512057  1
  O  O17  1  0.269814  0.856852  0.242516  1
  O  O18  1  0.053991  0.975856  0.577840  1
  O  O19  1  0.268738  0.614150  0.487943  1
