# generated using pymatgen
data_CdI2
_symmetry_space_group_name_H-M   'P 1'
_cell_length_a   4.32908944
_cell_length_b   4.32908970
_cell_length_c   37.12641187
_cell_angle_alpha   90.00000000
_cell_angle_beta   90.00000000
_cell_angle_gamma   119.99999802
_symmetry_Int_Tables_number   1
_chemical_formula_structural   CdI2
_chemical_formula_sum   'Cd5 I10'
_cell_volume   602.56896774
_cell_formula_units_Z   5
loop_
 _symmetry_equiv_pos_site_id
 _symmetry_equiv_pos_as_xyz
  1  'x, y, z'
loop_
 _atom_site_type_symbol
 _atom_site_label
 _atom_site_symmetry_multiplicity
 _atom_site_fract_x
 _atom_site_fract_y
 _atom_site_fract_z
 _atom_site_occupancy
  Cd  Cd0  1  0.666667  0.333333  0.450015  1
  Cd  Cd1  1  0.000000  0.000000  0.649985  1
  Cd  Cd2  1  0.666667  0.333333  0.050012  1
  Cd  Cd3  1  0.000000  0.000000  0.849973  1
  Cd  Cd4  1  0.000000  0.000000  0.249982  1
  I  I5  1  0.666667  0.333333  0.203380  1
  I  I6  1  0.333333  0.666667  0.296590  1
  I  I7  1  0.666667  0.333333  0.803372  1
  I  I8  1  0.333333  0.666667  0.696590  1
  I  I9  1  0.333333  0.666667  0.096600  1
  I  I10  1  0.666667  0.333333  0.603407  1
  I  I11  1  0.000000  0.000000  0.003470  1
  I  I12  1  0.333333  0.666667  0.896540  1
  I  I13  1  0.000000  0.000000  0.403492  1
  I  I14  1  0.333333  0.666667  0.496592  1
