# generated using pymatgen
data_Sr3Li3(NiN)4
_symmetry_space_group_name_H-M   'P 1'
_cell_length_a   4.05305805
_cell_length_b   7.05965199
_cell_length_c   9.33380362
_cell_angle_alpha   112.16267504
_cell_angle_beta   102.55835330
_cell_angle_gamma   90.00256371
_symmetry_Int_Tables_number   1
_chemical_formula_structural   Sr3Li3(NiN)4
_chemical_formula_sum   'Sr3 Li3 Ni4 N4'
_cell_volume   240.42320018
_cell_formula_units_Z   1
loop_
 _symmetry_equiv_pos_site_id
 _symmetry_equiv_pos_as_xyz
  1  'x, y, z'
loop_
 _atom_site_type_symbol
 _atom_site_label
 _atom_site_symmetry_multiplicity
 _atom_site_fract_x
 _atom_site_fract_y
 _atom_site_fract_z
 _atom_site_occupancy
  Sr  Sr0  1  0.781845  0.781850  0.563666  1
  Sr  Sr1  1  0.218155  0.218150  0.436334  1
  Sr  Sr2  1  0.000000  0.000000  0.000000  1
  Li  Li3  1  0.115869  0.615888  0.231693  1
  Li  Li4  1  0.884131  0.384112  0.768307  1
  Li  Li5  1  0.500000  0.500000  0.000000  1
  Ni  Ni6  1  0.380368  0.630239  0.760521  1
  Ni  Ni7  1  0.380357  0.130195  0.760643  1
  Ni  Ni8  1  0.619632  0.369761  0.239479  1
  Ni  Ni9  1  0.619643  0.869805  0.239357  1
  N  N10  1  0.383650  0.883554  0.767171  1
  N  N11  1  0.616350  0.116446  0.232829  1
  N  N12  1  0.379478  0.379360  0.758924  1
  N  N13  1  0.620522  0.620640  0.241076  1
