# generated using pymatgen
data_CeCrS2O
_symmetry_space_group_name_H-M   'P 1'
_cell_length_a   3.77807233
_cell_length_b   5.95918342
_cell_length_c   8.02688678
_cell_angle_alpha   90.20389363
_cell_angle_beta   90.00000000
_cell_angle_gamma   108.48133593
_symmetry_Int_Tables_number   1
_chemical_formula_structural   CeCrS2O
_chemical_formula_sum   'Ce2 Cr2 S4 O2'
_cell_volume   171.39770192
_cell_formula_units_Z   2
loop_
 _symmetry_equiv_pos_site_id
 _symmetry_equiv_pos_as_xyz
  1  'x, y, z'
loop_
 _atom_site_type_symbol
 _atom_site_label
 _atom_site_symmetry_multiplicity
 _atom_site_fract_x
 _atom_site_fract_y
 _atom_site_fract_z
 _atom_site_occupancy
  Ce  Ce0  1  0.265299  0.530598  0.793204  1
  Ce  Ce1  1  0.734662  0.469324  0.206431  1
  Cr  Cr2  1  0.000000  0.000000  0.999958  1
  Cr  Cr3  1  0.499961  0.999923  0.500132  1
  S  S4  1  0.548776  0.097553  0.797528  1
  S  S5  1  0.141222  0.282444  0.465040  1
  S  S6  1  0.858672  0.717343  0.535189  1
  S  S7  1  0.451361  0.902722  0.202551  1
  O  O8  1  0.826369  0.652738  0.932998  1
  O  O9  1  0.173678  0.347355  0.066969  1
