# generated using pymatgen
data_Ba2ZrF8
_symmetry_space_group_name_H-M   'P 1'
_cell_length_a   5.72213940
_cell_length_b   10.00261874
_cell_length_c   12.04038246
_cell_angle_alpha   90.00000000
_cell_angle_beta   90.00000000
_cell_angle_gamma   90.00000000
_symmetry_Int_Tables_number   1
_chemical_formula_structural   Ba2ZrF8
_chemical_formula_sum   'Ba8 Zr4 F32'
_cell_volume   689.14789132
_cell_formula_units_Z   4
loop_
 _symmetry_equiv_pos_site_id
 _symmetry_equiv_pos_as_xyz
  1  'x, y, z'
loop_
 _atom_site_type_symbol
 _atom_site_label
 _atom_site_symmetry_multiplicity
 _atom_site_fract_x
 _atom_site_fract_y
 _atom_site_fract_z
 _atom_site_occupancy
  F  F0  1  0.250000  0.641378  0.807393  1
  F  F1  1  0.750000  0.358622  0.192607  1
  F  F2  1  0.250000  0.141378  0.692607  1
  F  F3  1  0.750000  0.858622  0.307393  1
  F  F4  1  0.250000  0.643559  0.475906  1
  F  F5  1  0.750000  0.356441  0.524094  1
  F  F6  1  0.250000  0.143559  0.024094  1
  F  F7  1  0.750000  0.856441  0.975906  1
  F  F8  1  0.514266  0.154332  0.256574  1
  F  F9  1  0.014266  0.845668  0.743426  1
  F  F10  1  0.985734  0.654332  0.243426  1
  F  F11  1  0.485734  0.345668  0.756574  1
  F  F12  1  0.487131  0.905326  0.138147  1
  F  F13  1  0.987131  0.094674  0.861853  1
  F  F14  1  0.012869  0.405326  0.361853  1
  F  F15  1  0.512869  0.594674  0.638147  1
  F  F16  1  0.512869  0.094674  0.861853  1
  F  F17  1  0.012869  0.905326  0.138147  1
  F  F18  1  0.987131  0.594674  0.638147  1
  F  F19  1  0.487131  0.405326  0.361853  1
  F  F20  1  0.017511  0.853793  0.534628  1
  F  F21  1  0.517511  0.146207  0.465372  1
  F  F22  1  0.482489  0.353793  0.965372  1
  F  F23  1  0.982489  0.646207  0.034628  1
  F  F24  1  0.982489  0.146207  0.465372  1
  F  F25  1  0.482489  0.853793  0.534628  1
  F  F26  1  0.517511  0.646207  0.034628  1
  F  F27  1  0.017511  0.353793  0.965372  1
  F  F28  1  0.514266  0.654332  0.243426  1
  F  F29  1  0.014266  0.345668  0.756574  1
  F  F30  1  0.985734  0.154332  0.256574  1
  F  F31  1  0.485734  0.845668  0.743426  1
  Zr  Zr32  1  0.250000  0.741312  0.640283  1
  Zr  Zr33  1  0.750000  0.258688  0.359717  1
  Zr  Zr34  1  0.250000  0.241312  0.859717  1
  Zr  Zr35  1  0.750000  0.758688  0.140283  1
  Ba  Ba36  1  0.250000  0.952386  0.340197  1
  Ba  Ba37  1  0.750000  0.047614  0.659803  1
  Ba  Ba38  1  0.250000  0.452386  0.159803  1
  Ba  Ba39  1  0.750000  0.547614  0.840197  1
  Ba  Ba40  1  0.250000  0.362314  0.559594  1
  Ba  Ba41  1  0.750000  0.637686  0.440406  1
  Ba  Ba42  1  0.250000  0.862314  0.940406  1
  Ba  Ba43  1  0.750000  0.137686  0.059594  1
