# generated using pymatgen
data_Sn5(W4O11)2
_symmetry_space_group_name_H-M   'P 1'
_cell_length_a   7.90514449
_cell_length_b   7.90514443
_cell_length_c   18.98279466
_cell_angle_alpha   90.00000000
_cell_angle_beta   90.00000000
_cell_angle_gamma   120.00000023
_symmetry_Int_Tables_number   1
_chemical_formula_structural   Sn5(W4O11)2
_chemical_formula_sum   'Sn10 W16 O44'
_cell_volume   1027.33102135
_cell_formula_units_Z   2
loop_
 _symmetry_equiv_pos_site_id
 _symmetry_equiv_pos_as_xyz
  1  'x, y, z'
loop_
 _atom_site_type_symbol
 _atom_site_label
 _atom_site_symmetry_multiplicity
 _atom_site_fract_x
 _atom_site_fract_y
 _atom_site_fract_z
 _atom_site_occupancy
  Sn  Sn0  1  0.666667  0.333333  0.933007  1
  Sn  Sn1  1  0.666667  0.333333  0.566993  1
  Sn  Sn2  1  0.307716  0.113292  0.750000  1
  Sn  Sn3  1  0.692284  0.886708  0.250000  1
  Sn  Sn4  1  0.333333  0.666667  0.433007  1
  Sn  Sn5  1  0.886708  0.194424  0.750000  1
  Sn  Sn6  1  0.194424  0.307716  0.250000  1
  Sn  Sn7  1  0.333333  0.666667  0.066993  1
  Sn  Sn8  1  0.805576  0.692284  0.750000  1
  Sn  Sn9  1  0.113292  0.805576  0.250000  1
  W  W10  1  0.943752  0.166676  0.439775  1
  W  W11  1  0.333333  0.666667  0.670825  1
  W  W12  1  0.777077  0.943752  0.560225  1
  W  W13  1  0.056248  0.833324  0.560225  1
  W  W14  1  0.666667  0.333333  0.329175  1
  W  W15  1  0.943752  0.166676  0.060225  1
  W  W16  1  0.833324  0.777077  0.439775  1
  W  W17  1  0.056248  0.833324  0.939775  1
  W  W18  1  0.777077  0.943752  0.939775  1
  W  W19  1  0.222923  0.056248  0.060225  1
  W  W20  1  0.666667  0.333333  0.170825  1
  W  W21  1  0.333333  0.666667  0.829175  1
  W  W22  1  0.222923  0.056248  0.439775  1
  W  W23  1  0.166676  0.222923  0.560225  1
  W  W24  1  0.833324  0.777077  0.060225  1
  W  W25  1  0.166676  0.222923  0.939775  1
  O  O26  1  0.235003  0.058465  0.622984  1
  O  O27  1  0.764997  0.941535  0.122984  1
  O  O28  1  0.536832  0.875690  0.875582  1
  O  O29  1  0.058465  0.823462  0.377016  1
  O  O30  1  0.124310  0.661141  0.624418  1
  O  O31  1  0.695885  0.165006  0.250000  1
  O  O32  1  0.823462  0.764997  0.877016  1
  O  O33  1  0.132473  0.412660  0.003068  1
  O  O34  1  0.304115  0.834994  0.750000  1
  O  O35  1  0.000000  0.000000  0.250000  1
  O  O36  1  0.661141  0.536832  0.375582  1
  O  O37  1  0.867527  0.587340  0.503068  1
  O  O38  1  0.834994  0.530878  0.250000  1
  O  O39  1  0.176538  0.235003  0.122984  1
  O  O40  1  0.587340  0.719813  0.003068  1
  O  O41  1  0.412660  0.280187  0.503068  1
  O  O42  1  0.587340  0.719813  0.496932  1
  O  O43  1  0.719813  0.132473  0.996932  1
  O  O44  1  0.338859  0.463168  0.875582  1
  O  O45  1  0.469122  0.304115  0.250000  1
  O  O46  1  0.719813  0.132473  0.503068  1
  O  O47  1  0.132473  0.412660  0.496932  1
  O  O48  1  0.176538  0.235003  0.377016  1
  O  O49  1  0.338859  0.463168  0.624418  1
  O  O50  1  0.280187  0.867527  0.496932  1
  O  O51  1  0.764997  0.941535  0.377016  1
  O  O52  1  0.463168  0.124310  0.375582  1
  O  O53  1  0.412660  0.280187  0.996932  1
  O  O54  1  0.165006  0.469122  0.750000  1
  O  O55  1  0.235003  0.058465  0.877016  1
  O  O56  1  0.941535  0.176538  0.877016  1
  O  O57  1  0.058465  0.823462  0.122984  1
  O  O58  1  0.823462  0.764997  0.622984  1
  O  O59  1  0.867527  0.587340  0.996932  1
  O  O60  1  0.875690  0.338859  0.375582  1
  O  O61  1  0.941535  0.176538  0.622984  1
  O  O62  1  0.280187  0.867527  0.003068  1
  O  O63  1  0.463168  0.124310  0.124418  1
  O  O64  1  0.124310  0.661141  0.875582  1
  O  O65  1  0.875690  0.338859  0.124418  1
  O  O66  1  0.536832  0.875690  0.624418  1
  O  O67  1  0.661141  0.536832  0.124418  1
  O  O68  1  0.000000  0.000000  0.750000  1
  O  O69  1  0.530878  0.695885  0.750000  1
