# generated using pymatgen
data_Ca4Ti3AlSi4O19F
_symmetry_space_group_name_H-M   'P 1'
_cell_length_a   5.47523696
_cell_length_b   21.93029522
_cell_length_c   7.10805123
_cell_angle_alpha   104.49858757
_cell_angle_beta   104.41397985
_cell_angle_gamma   105.57131498
_symmetry_Int_Tables_number   1
_chemical_formula_structural   Ca4Ti3AlSi4O19F
_chemical_formula_sum   'Ca8 Ti6 Al2 Si8 O38 F2'
_cell_volume   748.85608695
_cell_formula_units_Z   2
loop_
 _symmetry_equiv_pos_site_id
 _symmetry_equiv_pos_as_xyz
  1  'x, y, z'
loop_
 _atom_site_type_symbol
 _atom_site_label
 _atom_site_symmetry_multiplicity
 _atom_site_fract_x
 _atom_site_fract_y
 _atom_site_fract_z
 _atom_site_occupancy
  Al  Al0  1  0.500000  0.875000  0.500000  1
  Al  Al1  1  0.500000  0.875000  0.000000  1
  Ca  Ca2  1  0.162151  0.956742  0.747127  1
  Ca  Ca3  1  0.174470  0.710306  0.753264  1
  Ca  Ca4  1  0.171848  0.457797  0.752068  1
  Ca  Ca5  1  0.168712  0.205604  0.748689  1
  Ca  Ca6  1  0.837849  0.793258  0.252873  1
  Ca  Ca7  1  0.831288  0.544396  0.251311  1
  Ca  Ca8  1  0.828152  0.292203  0.247932  1
  Ca  Ca9  1  0.825530  0.039694  0.246736  1
  F  F10  1  0.436701  0.892912  0.751362  1
  F  F11  1  0.563299  0.857088  0.248638  1
  O  O12  1  0.134092  0.816855  0.903580  1
  O  O13  1  0.198550  0.901217  0.387463  1
  O  O14  1  0.124372  0.563706  0.913254  1
  O  O15  1  0.260549  0.785604  0.411486  1
  O  O16  1  0.385787  0.948425  0.109172  1
  O  O17  1  0.190527  0.656574  0.389476  1
  O  O18  1  0.614213  0.801575  0.890828  1
  O  O19  1  0.739451  0.964396  0.588514  1
  O  O20  1  0.430434  0.643842  0.754012  1
  O  O21  1  0.121852  0.311974  0.909179  1
  O  O22  1  0.250867  0.531933  0.410384  1
  O  O23  1  0.394657  0.706437  0.121852  1
  O  O24  1  0.186773  0.403671  0.384100  1
  O  O25  1  0.801450  0.848783  0.612537  1
  O  O26  1  0.614260  0.547950  0.886295  1
  O  O27  1  0.749826  0.722276  0.599401  1
  O  O28  1  0.429276  0.392252  0.749621  1
  O  O29  1  0.116081  0.059793  0.903657  1
  O  O30  1  0.865908  0.933145  0.096420  1
  O  O31  1  0.573107  0.609882  0.254666  1
  O  O32  1  0.248933  0.279769  0.407015  1
  O  O33  1  0.389035  0.454105  0.117621  1
  O  O34  1  0.183537  0.151467  0.380091  1
  O  O35  1  0.816463  0.598533  0.619909  1
  O  O36  1  0.610965  0.295895  0.882379  1
  O  O37  1  0.751067  0.470231  0.592985  1
  O  O38  1  0.426893  0.140118  0.745334  1
  O  O39  1  0.883919  0.690207  0.096343  1
  O  O40  1  0.570724  0.357748  0.250379  1
  O  O41  1  0.250174  0.027724  0.400599  1
  O  O42  1  0.385740  0.202050  0.113705  1
  O  O43  1  0.813227  0.346329  0.615900  1
  O  O44  1  0.605343  0.043563  0.878148  1
  O  O45  1  0.749133  0.218067  0.589616  1
  O  O46  1  0.878148  0.438026  0.090821  1
  O  O47  1  0.569566  0.106158  0.245988  1
  O  O48  1  0.809473  0.093426  0.610524  1
  O  O49  1  0.875628  0.186294  0.086746  1
  Si  Si50  1  0.177956  0.950324  0.244023  1
  Si  Si51  1  0.189729  0.708781  0.257247  1
  Si  Si52  1  0.182287  0.455800  0.251632  1
  Si  Si53  1  0.822044  0.799676  0.755977  1
  Si  Si54  1  0.179060  0.203498  0.247867  1
  Si  Si55  1  0.820940  0.546502  0.752133  1
  Si  Si56  1  0.817713  0.294200  0.748368  1
  Si  Si57  1  0.810271  0.041219  0.742753  1
  Ti  Ti58  1  0.504535  0.627792  0.503390  1
  Ti  Ti59  1  0.501941  0.626685  0.001492  1
  Ti  Ti60  1  0.500000  0.375000  0.500000  1
  Ti  Ti61  1  0.500000  0.375000  0.000000  1
  Ti  Ti62  1  0.495465  0.122208  0.496610  1
  Ti  Ti63  1  0.498059  0.123315  0.998508  1
