# generated using pymatgen
data_Rb4CO4
_symmetry_space_group_name_H-M   'P 1'
_cell_length_a   5.97415592
_cell_length_b   6.11134394
_cell_length_c   6.45482783
_cell_angle_alpha   113.11085373
_cell_angle_beta   117.56583740
_cell_angle_gamma   89.99997098
_symmetry_Int_Tables_number   1
_chemical_formula_structural   Rb4CO4
_chemical_formula_sum   'Rb4 C1 O4'
_cell_volume   187.31876908
_cell_formula_units_Z   1
loop_
 _symmetry_equiv_pos_site_id
 _symmetry_equiv_pos_as_xyz
  1  'x, y, z'
loop_
 _atom_site_type_symbol
 _atom_site_label
 _atom_site_symmetry_multiplicity
 _atom_site_fract_x
 _atom_site_fract_y
 _atom_site_fract_z
 _atom_site_occupancy
  Rb  Rb0  1  0.848708  0.460970  0.297129  1
  Rb  Rb1  1  0.159256  0.117776  0.721754  1
  O  O2  1  0.153264  0.203667  0.166823  1
  O  O3  1  0.873194  0.932175  0.163282  1
  Rb  Rb4  1  0.437503  0.882224  0.278247  1
  Rb  Rb5  1  0.551578  0.539030  0.702871  1
  O  O6  1  0.709912  0.067825  0.836718  1
  O  O7  1  0.986441  0.796334  0.833177  1
  C  C8  1  0.928644  1.000000  1.000000  1
