# generated using pymatgen
data_YCo5P3
_symmetry_space_group_name_H-M   'P 1'
_cell_length_a   3.64991286
_cell_length_b   10.27513136
_cell_length_c   11.74068661
_cell_angle_alpha   90.00000000
_cell_angle_beta   90.00000000
_cell_angle_gamma   90.00000000
_symmetry_Int_Tables_number   1
_chemical_formula_structural   YCo5P3
_chemical_formula_sum   'Y4 Co20 P12'
_cell_volume   440.31489237
_cell_formula_units_Z   4
loop_
 _symmetry_equiv_pos_site_id
 _symmetry_equiv_pos_as_xyz
  1  'x, y, z'
loop_
 _atom_site_type_symbol
 _atom_site_label
 _atom_site_symmetry_multiplicity
 _atom_site_fract_x
 _atom_site_fract_y
 _atom_site_fract_z
 _atom_site_occupancy
  Y  Y0  1  0.250000  0.917001  0.202830  1
  Y  Y1  1  0.750000  0.082999  0.797170  1
  Y  Y2  1  0.750000  0.417001  0.297170  1
  Y  Y3  1  0.250000  0.582999  0.702830  1
  Co  Co4  1  0.250000  0.784324  0.490825  1
  Co  Co5  1  0.750000  0.215676  0.509175  1
  Co  Co6  1  0.750000  0.284324  0.009175  1
  Co  Co7  1  0.250000  0.715676  0.990825  1
  Co  Co8  1  0.250000  0.093330  0.988171  1
  Co  Co9  1  0.750000  0.906670  0.011829  1
  Co  Co10  1  0.750000  0.593330  0.511829  1
  Co  Co11  1  0.250000  0.406670  0.488171  1
  Co  Co12  1  0.250000  0.278850  0.676604  1
  Co  Co13  1  0.750000  0.721150  0.323396  1
  Co  Co14  1  0.750000  0.778850  0.823396  1
  Co  Co15  1  0.250000  0.221150  0.176604  1
  Co  Co16  1  0.250000  0.617548  0.198386  1
  Co  Co17  1  0.750000  0.382452  0.801614  1
  Co  Co18  1  0.750000  0.117548  0.301614  1
  Co  Co19  1  0.250000  0.882452  0.698386  1
  Co  Co20  1  0.250000  0.032379  0.431929  1
  Co  Co21  1  0.750000  0.967621  0.568071  1
  Co  Co22  1  0.750000  0.532379  0.068071  1
  Co  Co23  1  0.250000  0.467621  0.931929  1
  P  P24  1  0.250000  0.081530  0.611765  1
  P  P25  1  0.750000  0.918470  0.388235  1
  P  P26  1  0.750000  0.581530  0.888235  1
  P  P27  1  0.250000  0.418470  0.111765  1
  P  P28  1  0.250000  0.229132  0.370319  1
  P  P29  1  0.750000  0.770868  0.629681  1
  P  P30  1  0.750000  0.729132  0.129681  1
  P  P31  1  0.250000  0.270868  0.870319  1
  P  P32  1  0.250000  0.897736  0.891449  1
  P  P33  1  0.750000  0.102264  0.108551  1
  P  P34  1  0.750000  0.397736  0.608551  1
  P  P35  1  0.250000  0.602264  0.391449  1
