# generated using pymatgen
data_Ti2Cu9(B3O11)2
_symmetry_space_group_name_H-M   'P 1'
_cell_length_a   7.46506812
_cell_length_b   10.71041191
_cell_length_c   11.81833070
_cell_angle_alpha   103.86401374
_cell_angle_beta   98.63688616
_cell_angle_gamma   91.02969949
_symmetry_Int_Tables_number   1
_chemical_formula_structural   Ti2Cu9(B3O11)2
_chemical_formula_sum   'Ti4 Cu18 B12 O44'
_cell_volume   905.55664826
_cell_formula_units_Z   2
loop_
 _symmetry_equiv_pos_site_id
 _symmetry_equiv_pos_as_xyz
  1  'x, y, z'
loop_
 _atom_site_type_symbol
 _atom_site_label
 _atom_site_symmetry_multiplicity
 _atom_site_fract_x
 _atom_site_fract_y
 _atom_site_fract_z
 _atom_site_occupancy
  Ti  Ti0  1  0.884546  0.914757  0.067614  1
  Ti  Ti1  1  0.610523  0.099527  0.951718  1
  Ti  Ti2  1  0.389477  0.900473  0.048282  1
  Ti  Ti3  1  0.115454  0.085243  0.932385  1
  Cu  Cu4  1  0.946447  0.213303  0.697070  1
  Cu  Cu5  1  0.433061  0.217802  0.711551  1
  Cu  Cu6  1  0.077423  0.765022  0.872704  1
  Cu  Cu7  1  0.868799  0.503999  0.611339  1
  Cu  Cu8  1  0.183961  0.357679  0.981225  1
  Cu  Cu9  1  0.381555  0.500866  0.612059  1
  Cu  Cu10  1  0.053553  0.786697  0.302930  1
  Cu  Cu11  1  0.242978  0.002221  0.510461  1
  Cu  Cu12  1  0.131201  0.496001  0.388661  1
  Cu  Cu13  1  0.566939  0.782198  0.288449  1
  Cu  Cu14  1  0.329111  0.632018  0.010303  1
  Cu  Cu15  1  0.922577  0.234978  0.127296  1
  Cu  Cu16  1  0.670889  0.367982  0.989697  1
  Cu  Cu17  1  0.757022  0.997779  0.489539  1
  Cu  Cu18  1  0.369533  0.232505  0.203715  1
  Cu  Cu19  1  0.630467  0.767495  0.796285  1
  Cu  Cu20  1  0.816039  0.642321  0.018775  1
  Cu  Cu21  1  0.618445  0.499134  0.387941  1
  B  B22  1  0.181509  0.259515  0.480543  1
  B  B23  1  0.487878  0.934762  0.696440  1
  B  B24  1  0.036257  0.072830  0.313650  1
  B  B25  1  0.328538  0.744413  0.532396  1
  B  B26  1  0.568681  0.496182  0.794479  1
  B  B27  1  0.431319  0.503818  0.205521  1
  B  B28  1  0.942596  0.503913  0.206161  1
  B  B29  1  0.963743  0.927170  0.686350  1
  B  B30  1  0.671462  0.255587  0.467604  1
  B  B31  1  0.512122  0.065238  0.303560  1
  B  B32  1  0.818491  0.740485  0.519457  1
  B  B33  1  0.057404  0.496087  0.793839  1
  O  O34  1  0.933722  0.053361  0.205187  1
  O  O35  1  0.906593  0.801225  0.631319  1
  O  O36  1  0.078057  0.973301  0.365900  1
  O  O37  1  0.446710  0.398151  0.725921  1
  O  O38  1  0.809314  0.608502  0.494941  1
  O  O39  1  0.659748  0.244520  0.085016  1
  O  O40  1  0.190686  0.391498  0.505059  1
  O  O41  1  0.957520  0.395260  0.251532  1
  O  O42  1  0.251731  0.189098  0.558370  1
  O  O43  1  0.832003  0.760387  0.918387  1
  O  O44  1  0.366539  0.054688  0.961231  1
  O  O45  1  0.921943  0.026699  0.634100  1
  O  O46  1  0.448246  0.805098  0.636578  1
  O  O47  1  0.236653  0.816576  0.464161  1
  O  O48  1  0.748269  0.810902  0.441630  1
  O  O49  1  0.426453  0.778418  0.139413  1
  O  O50  1  0.553290  0.601849  0.274079  1
  O  O51  1  0.042480  0.604740  0.748468  1
  O  O52  1  0.878231  0.079212  0.981738  1
  O  O53  1  0.121769  0.920788  0.018262  1
  O  O54  1  0.840491  0.505270  0.100918  1
  O  O55  1  0.053080  0.605072  0.281504  1
  O  O56  1  0.946920  0.394928  0.718496  1
  O  O57  1  0.586926  0.968254  0.346778  1
  O  O58  1  0.913062  0.786080  0.149748  1
  O  O59  1  0.581834  0.589877  0.731618  1
  O  O60  1  0.763347  0.183424  0.535839  1
  O  O61  1  0.607884  0.951161  0.799202  1
  O  O62  1  0.684513  0.387198  0.494792  1
  O  O63  1  0.093407  0.198775  0.368681  1
  O  O64  1  0.167997  0.239613  0.081613  1
  O  O65  1  0.418166  0.410123  0.268382  1
  O  O66  1  0.653129  0.504900  0.906054  1
  O  O67  1  0.346871  0.495100  0.093946  1
  O  O68  1  0.551754  0.194902  0.363422  1
  O  O69  1  0.315487  0.612802  0.505208  1
  O  O70  1  0.392116  0.048839  0.200798  1
  O  O71  1  0.066278  0.946639  0.794813  1
  O  O72  1  0.573547  0.221582  0.860587  1
  O  O73  1  0.340252  0.755480  0.914984  1
  O  O74  1  0.633461  0.945312  0.038769  1
  O  O75  1  0.086938  0.213920  0.850252  1
  O  O76  1  0.159509  0.494730  0.899082  1
  O  O77  1  0.413074  0.031746  0.653222  1
