# generated using pymatgen
data_Na5Zr2F13
_symmetry_space_group_name_H-M   'P 1'
_cell_length_a   5.58509145
_cell_length_b   6.51829771
_cell_length_c   8.57290058
_cell_angle_alpha   96.57169656
_cell_angle_beta   90.00000000
_cell_angle_gamma   115.36710361
_symmetry_Int_Tables_number   1
_chemical_formula_structural   Na5Zr2F13
_chemical_formula_sum   'Na5 Zr2 F13'
_cell_volume   279.73560466
_cell_formula_units_Z   1
loop_
 _symmetry_equiv_pos_site_id
 _symmetry_equiv_pos_as_xyz
  1  'x, y, z'
loop_
 _atom_site_type_symbol
 _atom_site_label
 _atom_site_symmetry_multiplicity
 _atom_site_fract_x
 _atom_site_fract_y
 _atom_site_fract_z
 _atom_site_occupancy
  Na  Na0  1  0.337016  0.674033  0.070811  1
  Na  Na1  1  0.777607  0.555215  0.346221  1
  Na  Na2  1  0.500000  0.000000  0.500000  1
  Na  Na3  1  0.222393  0.444785  0.653779  1
  Na  Na4  1  0.662984  0.325967  0.929189  1
  Zr  Zr5  1  0.926779  0.853558  0.756220  1
  Zr  Zr6  1  0.073221  0.146442  0.243780  1
  F  F7  1  0.419135  0.363633  0.143455  1
  F  F8  1  0.700167  0.876859  0.248891  1
  F  F9  1  0.944498  0.363633  0.143455  1
  F  F10  1  0.092622  0.733599  0.570260  1
  F  F11  1  0.299833  0.123141  0.751109  1
  F  F12  1  0.580865  0.636367  0.856545  1
  F  F13  1  0.055502  0.636367  0.856545  1
  F  F14  1  0.640977  0.733599  0.570260  1
  F  F15  1  0.359023  0.266401  0.429740  1
  F  F16  1  0.907378  0.266401  0.429740  1
  F  F17  1  0.176692  0.876859  0.248891  1
  F  F18  1  0.823308  0.123141  0.751109  1
  F  F19  1  0.000000  0.000000  0.000000  1
