# generated using pymatgen
data_U2PdS4
_symmetry_space_group_name_H-M   'P 1'
_cell_length_a   6.72269379
_cell_length_b   6.72269380
_cell_length_c   7.77595786
_cell_angle_alpha   108.91077449
_cell_angle_beta   108.91077443
_cell_angle_gamma   104.49262784
_symmetry_Int_Tables_number   1
_chemical_formula_structural   U2PdS4
_chemical_formula_sum   'U4 Pd2 S8'
_cell_volume   288.67134413
_cell_formula_units_Z   2
loop_
 _symmetry_equiv_pos_site_id
 _symmetry_equiv_pos_as_xyz
  1  'x, y, z'
loop_
 _atom_site_type_symbol
 _atom_site_label
 _atom_site_symmetry_multiplicity
 _atom_site_fract_x
 _atom_site_fract_y
 _atom_site_fract_z
 _atom_site_occupancy
  S  S0  1  0.555622  0.495520  0.254019  1
  S  S1  1  0.241501  0.301603  0.745981  1
  S  S2  1  0.745520  0.305622  0.754019  1
  S  S3  1  0.551603  0.991501  0.245981  1
  S  S4  1  0.587996  0.747149  0.724723  1
  S  S5  1  0.022426  0.863273  0.275277  1
  S  S6  1  0.113273  0.772426  0.775277  1
  S  S7  1  0.997149  0.337996  0.224723  1
  Pd  Pd8  1  0.249549  0.749549  0.500000  1
  Pd  Pd9  1  0.999549  0.999549  0.000000  1
  U  U10  1  0.527318  0.130232  0.947045  1
  U  U11  1  0.183187  0.580273  0.052955  1
  U  U12  1  0.380232  0.277318  0.447045  1
  U  U13  1  0.830273  0.933187  0.552955  1
