# generated using pymatgen
data_Rb2MnO4
_symmetry_space_group_name_H-M   'P 1'
_cell_length_a   6.15983019
_cell_length_b   8.13946651
_cell_length_c   10.92819884
_cell_angle_alpha   90.00000000
_cell_angle_beta   90.00000000
_cell_angle_gamma   90.00000000
_symmetry_Int_Tables_number   1
_chemical_formula_structural   Rb2MnO4
_chemical_formula_sum   'Rb8 Mn4 O16'
_cell_volume   547.91509964
_cell_formula_units_Z   4
loop_
 _symmetry_equiv_pos_site_id
 _symmetry_equiv_pos_as_xyz
  1  'x, y, z'
loop_
 _atom_site_type_symbol
 _atom_site_label
 _atom_site_symmetry_multiplicity
 _atom_site_fract_x
 _atom_site_fract_y
 _atom_site_fract_z
 _atom_site_occupancy
  Mn  Mn0  1  0.750000  0.767431  0.920554  1
  Mn  Mn1  1  0.250000  0.232569  0.079446  1
  Mn  Mn2  1  0.750000  0.267431  0.579446  1
  Mn  Mn3  1  0.250000  0.732569  0.420554  1
  Rb  Rb4  1  0.750000  0.832419  0.587990  1
  Rb  Rb5  1  0.250000  0.167581  0.412010  1
  Rb  Rb6  1  0.750000  0.332419  0.912010  1
  Rb  Rb7  1  0.250000  0.667581  0.087990  1
  Rb  Rb8  1  0.750000  0.513227  0.303818  1
  Rb  Rb9  1  0.250000  0.486773  0.696182  1
  Rb  Rb10  1  0.750000  0.013227  0.196182  1
  Rb  Rb11  1  0.250000  0.986773  0.803818  1
  O  O12  1  0.750000  0.205315  0.433658  1
  O  O13  1  0.250000  0.794685  0.566342  1
  O  O14  1  0.750000  0.705315  0.066342  1
  O  O15  1  0.250000  0.294685  0.933658  1
  O  O16  1  0.750000  0.971210  0.916727  1
  O  O17  1  0.250000  0.028790  0.083273  1
  O  O18  1  0.750000  0.471210  0.583273  1
  O  O19  1  0.250000  0.528790  0.416727  1
  O  O20  1  0.969515  0.693408  0.850665  1
  O  O21  1  0.469515  0.306592  0.149335  1
  O  O22  1  0.530485  0.193408  0.649335  1
  O  O23  1  0.030485  0.806592  0.350665  1
  O  O24  1  0.030485  0.306592  0.149335  1
  O  O25  1  0.530485  0.693408  0.850665  1
  O  O26  1  0.469515  0.806592  0.350665  1
  O  O27  1  0.969515  0.193408  0.649335  1
