# generated using pymatgen
data_Li3Er(NO3)6
_symmetry_space_group_name_H-M   'P 1'
_cell_length_a   7.64576350
_cell_length_b   7.92331887
_cell_length_c   24.49235964
_cell_angle_alpha   91.01417576
_cell_angle_beta   90.00000000
_cell_angle_gamma   90.00000000
_symmetry_Int_Tables_number   1
_chemical_formula_structural   Li3Er(NO3)6
_chemical_formula_sum   'Li12 Er4 N24 O72'
_cell_volume   1483.51035977
_cell_formula_units_Z   4
loop_
 _symmetry_equiv_pos_site_id
 _symmetry_equiv_pos_as_xyz
  1  'x, y, z'
loop_
 _atom_site_type_symbol
 _atom_site_label
 _atom_site_symmetry_multiplicity
 _atom_site_fract_x
 _atom_site_fract_y
 _atom_site_fract_z
 _atom_site_occupancy
  Li  Li0  1  0.184827  0.213042  0.635551  1
  Li  Li1  1  0.059562  1.001452  0.245360  1
  Li  Li2  1  0.288716  0.757209  0.475324  1
  Li  Li3  1  0.559562  0.498548  0.254640  1
  Li  Li4  1  0.440438  0.501452  0.745360  1
  Li  Li5  1  0.940438  -0.001452  0.754640  1
  Li  Li6  1  0.711284  0.242791  0.524676  1
  Li  Li7  1  0.815173  0.786958  0.364449  1
  Li  Li8  1  0.684827  0.286958  0.864449  1
  Li  Li9  1  0.315173  0.713042  0.135551  1
  Li  Li10  1  0.788716  0.742791  0.024676  1
  Li  Li11  1  0.211284  0.257209  0.975324  1
  Er  Er12  1  0.195242  0.756591  0.890562  1
  Er  Er13  1  0.804758  0.243409  0.109438  1
  Er  Er14  1  0.304758  0.256591  0.390562  1
  Er  Er15  1  0.695242  0.743409  0.609438  1
  N  N16  1  0.622557  0.395464  0.435627  1
  N  N17  1  0.701021  0.264428  0.764638  1
  N  N18  1  0.616999  0.928264  0.105980  1
  N  N19  1  0.883001  0.428264  0.605980  1
  N  N20  1  0.377443  0.604536  0.564373  1
  N  N21  1  0.997039  0.148528  0.445594  1
  N  N22  1  0.197968  0.739409  0.772173  1
  N  N23  1  0.802032  0.260591  0.227827  1
  N  N24  1  0.003806  0.550963  0.097795  1
  N  N25  1  0.383001  0.071736  0.894020  1
  N  N26  1  0.996194  0.449037  0.902205  1
  N  N27  1  0.116999  0.571736  0.394020  1
  N  N28  1  0.877443  0.895464  0.935627  1
  N  N29  1  0.497039  0.351472  0.054406  1
  N  N30  1  0.302032  0.239409  0.272173  1
  N  N31  1  0.122557  0.104536  0.064373  1
  N  N32  1  0.503806  0.949037  0.402205  1
  N  N33  1  0.002961  0.851472  0.554406  1
  N  N34  1  0.496194  0.050963  0.597795  1
  N  N35  1  0.201021  0.235572  0.735362  1
  N  N36  1  0.798979  0.764428  0.264638  1
  N  N37  1  0.502961  0.648528  0.945594  1
  N  N38  1  0.298979  0.735572  0.235362  1
  N  N39  1  0.697968  0.760591  0.727827  1
  O  O40  1  0.296181  0.745211  0.285849  1
  O  O41  1  0.638302  0.028966  0.570156  1
  O  O42  1  0.137592  0.893077  0.529390  1
  O  O43  1  0.603244  0.654081  0.700449  1
  O  O44  1  0.597956  0.824210  0.409821  1
  O  O45  1  0.242471  0.548268  0.543366  1
  O  O46  1  0.110953  0.248905  0.466930  1
  O  O47  1  0.574708  0.424739  0.387330  1
  O  O48  1  0.902044  0.324210  0.909821  1
  O  O49  1  0.637592  0.606923  0.970610  1
  O  O50  1  0.533158  0.795027  0.100649  1
  O  O51  1  0.019085  0.202974  0.036281  1
  O  O52  1  0.759835  0.947865  0.078703  1
  O  O53  1  0.740165  0.447865  0.578703  1
  O  O54  1  0.392020  0.625142  0.209467  1
  O  O55  1  0.429132  0.949425  0.863146  1
  O  O56  1  0.610953  0.251095  0.033070  1
  O  O57  1  0.699729  0.769192  0.777744  1
  O  O58  1  0.519085  0.297026  0.463719  1
  O  O59  1  0.389047  0.748905  0.966930  1
  O  O60  1  0.425292  0.575261  0.612670  1
  O  O61  1  0.107980  0.125142  0.709467  1
  O  O62  1  0.459231  0.938043  0.632287  1
  O  O63  1  0.070868  0.449425  0.363146  1
  O  O64  1  0.480915  0.702974  0.536281  1
  O  O65  1  0.966842  0.295027  0.600649  1
  O  O66  1  0.259835  0.552135  0.421297  1
  O  O67  1  0.703819  0.254789  0.714151  1
  O  O68  1  0.300271  0.230808  0.222256  1
  O  O69  1  0.959231  0.561957  0.867713  1
  O  O70  1  0.925292  0.924739  0.887330  1
  O  O71  1  0.540769  0.061957  0.367713  1
  O  O72  1  0.929132  0.550575  0.636854  1
  O  O73  1  0.471443  0.593366  0.897392  1
  O  O74  1  0.207989  0.141118  0.302007  1
  O  O75  1  0.707989  0.358882  0.197993  1
  O  O76  1  0.240165  0.052135  0.921297  1
  O  O77  1  0.033158  0.704973  0.399351  1
  O  O78  1  0.292011  0.641118  0.802007  1
  O  O79  1  0.790196  0.165008  0.794734  1
  O  O80  1  0.792011  0.858882  0.697993  1
  O  O81  1  0.862408  0.106923  0.470610  1
  O  O82  1  0.362408  0.393077  0.029390  1
  O  O83  1  0.709804  0.665008  0.294734  1
  O  O84  1  0.971443  0.906634  0.602608  1
  O  O85  1  0.040769  0.438043  0.132287  1
  O  O86  1  0.290196  0.334992  0.705266  1
  O  O87  1  0.402044  0.175790  0.590179  1
  O  O88  1  0.097956  0.675790  0.090179  1
  O  O89  1  0.892020  0.874858  0.290533  1
  O  O90  1  0.138302  0.471034  0.929844  1
  O  O91  1  0.757529  0.451732  0.456634  1
  O  O92  1  0.980915  0.797026  0.963719  1
  O  O93  1  0.570868  0.050575  0.136854  1
  O  O94  1  0.396756  0.345919  0.299551  1
  O  O95  1  0.028557  0.093366  0.397392  1
  O  O96  1  0.203819  0.245211  0.785849  1
  O  O97  1  0.466842  0.204973  0.899351  1
  O  O98  1  0.861698  0.528966  0.070156  1
  O  O99  1  0.209804  0.834992  0.205266  1
  O  O100  1  0.528557  0.406634  0.102608  1
  O  O101  1  0.103244  0.845919  0.799551  1
  O  O102  1  0.074708  0.075261  0.112670  1
  O  O103  1  0.361698  0.971034  0.429844  1
  O  O104  1  0.257529  0.048268  0.043366  1
  O  O105  1  0.199729  0.730808  0.722256  1
  O  O106  1  0.742471  0.951732  0.956634  1
  O  O107  1  0.800271  0.269192  0.277744  1
  O  O108  1  0.607980  0.374858  0.790533  1
  O  O109  1  0.896756  0.154081  0.200449  1
  O  O110  1  0.889047  0.751095  0.533070  1
  O  O111  1  0.796181  0.754789  0.214151  1
