# generated using pymatgen
data_Sc6Si11Ni18
_symmetry_space_group_name_H-M   'P 1'
_cell_length_a   8.03215740
_cell_length_b   11.57519158
_cell_length_c   11.57519145
_cell_angle_alpha   63.84579343
_cell_angle_beta   69.69877459
_cell_angle_gamma   69.69877425
_symmetry_Int_Tables_number   1
_chemical_formula_structural   Sc6Si11Ni18
_chemical_formula_sum   'Sc12 Si22 Ni36'
_cell_volume   881.60291752
_cell_formula_units_Z   2
loop_
 _symmetry_equiv_pos_site_id
 _symmetry_equiv_pos_as_xyz
  1  'x, y, z'
loop_
 _atom_site_type_symbol
 _atom_site_label
 _atom_site_symmetry_multiplicity
 _atom_site_fract_x
 _atom_site_fract_y
 _atom_site_fract_z
 _atom_site_occupancy
  Sc  Sc0  1  0.689841  0.810159  0.810159  1
  Sc  Sc1  1  0.310159  0.189841  0.189841  1
  Sc  Sc2  1  0.715113  0.468441  0.101332  1
  Sc  Sc3  1  0.129776  0.370224  0.370224  1
  Sc  Sc4  1  0.284887  0.531559  0.898668  1
  Sc  Sc5  1  0.870224  0.629776  0.629776  1
  Sc  Sc6  1  0.796085  0.182324  0.817676  1
  Sc  Sc7  1  0.284887  0.898668  0.531559  1
  Sc  Sc8  1  0.203915  0.817676  0.182324  1
  Sc  Sc9  1  0.715113  0.101332  0.468441  1
  Sc  Sc10  1  0.203915  0.182324  0.817676  1
  Sc  Sc11  1  0.796085  0.817676  0.182324  1
  Si  Si12  1  0.846447  0.331613  0.331613  1
  Si  Si13  1  0.767382  0.500000  0.500000  1
  Si  Si14  1  0.414594  0.675033  0.011108  1
  Si  Si15  1  0.500000  0.674413  0.325587  1
  Si  Si16  1  0.116579  0.166629  0.600214  1
  Si  Si17  1  0.490326  0.331613  0.331613  1
  Si  Si18  1  0.414594  0.011108  0.675033  1
  Si  Si19  1  0.116579  0.600214  0.166629  1
  Si  Si20  1  0.100735  0.324967  0.988892  1
  Si  Si21  1  0.883421  0.399786  0.833371  1
  Si  Si22  1  0.509674  0.668387  0.668387  1
  Si  Si23  1  0.232618  0.500000  0.500000  1
  Si  Si24  1  0.899265  0.675033  0.011108  1
  Si  Si25  1  0.000000  0.000000  0.000000  1
  Si  Si26  1  0.585406  0.324967  0.988892  1
  Si  Si27  1  0.100735  0.988892  0.324967  1
  Si  Si28  1  0.153553  0.668387  0.668387  1
  Si  Si29  1  0.883421  0.833371  0.399786  1
  Si  Si30  1  0.500000  0.000000  0.000000  1
  Si  Si31  1  0.585406  0.988892  0.324967  1
  Si  Si32  1  0.899265  0.011108  0.675033  1
  Si  Si33  1  0.500000  0.325587  0.674413  1
  Ni  Ni34  1  0.806842  0.267989  0.563413  1
  Ni  Ni35  1  0.638244  0.436587  0.732011  1
  Ni  Ni36  1  0.113069  0.987286  0.786575  1
  Ni  Ni37  1  0.886931  0.213425  0.012714  1
  Ni  Ni38  1  0.638244  0.732011  0.436587  1
  Ni  Ni39  1  0.193158  0.436587  0.732011  1
  Ni  Ni40  1  0.957142  0.209900  0.209900  1
  Ni  Ni41  1  0.806842  0.563413  0.267989  1
  Ni  Ni42  1  0.623058  0.209900  0.209900  1
  Ni  Ni43  1  0.000000  0.618237  0.381763  1
  Ni  Ni44  1  0.886931  0.012714  0.213425  1
  Ni  Ni45  1  0.579420  0.092997  0.748163  1
  Ni  Ni46  1  0.654777  0.075625  0.075625  1
  Ni  Ni47  1  0.431110  0.568890  0.568890  1
  Ni  Ni48  1  0.048334  0.126570  0.437841  1
  Ni  Ni49  1  0.361756  0.267989  0.563413  1
  Ni  Ni50  1  0.000000  0.381763  0.618237  1
  Ni  Ni51  1  0.420580  0.907003  0.251837  1
  Ni  Ni52  1  0.042858  0.790100  0.790100  1
  Ni  Ni53  1  0.113069  0.786575  0.987286  1
  Ni  Ni54  1  0.048334  0.437841  0.126570  1
  Ni  Ni55  1  0.420580  0.251837  0.907003  1
  Ni  Ni56  1  0.387254  0.437841  0.126570  1
  Ni  Ni57  1  0.376942  0.790100  0.790100  1
  Ni  Ni58  1  0.568890  0.431110  0.431110  1
  Ni  Ni59  1  0.612746  0.873430  0.562159  1
  Ni  Ni60  1  0.345223  0.924375  0.924375  1
  Ni  Ni61  1  0.361756  0.563413  0.267989  1
  Ni  Ni62  1  0.612746  0.562159  0.873430  1
  Ni  Ni63  1  0.951666  0.562159  0.873430  1
  Ni  Ni64  1  0.193158  0.732011  0.436587  1
  Ni  Ni65  1  0.387254  0.126570  0.437841  1
  Ni  Ni66  1  0.193972  0.075625  0.075625  1
  Ni  Ni67  1  0.951666  0.873430  0.562159  1
  Ni  Ni68  1  0.579420  0.748163  0.092997  1
  Ni  Ni69  1  0.806028  0.924375  0.924375  1
