# generated using pymatgen
data_SeS4(NCl)3
_symmetry_space_group_name_H-M   'P 1'
_cell_length_a   10.70872230
_cell_length_b   14.72501031
_cell_length_c   14.27651212
_cell_angle_alpha   90.00000000
_cell_angle_beta   99.06302210
_cell_angle_gamma   90.00000000
_symmetry_Int_Tables_number   1
_chemical_formula_structural   SeS4(NCl)3
_chemical_formula_sum   'Se8 S32 N24 Cl24'
_cell_volume   2223.10195113
_cell_formula_units_Z   8
loop_
 _symmetry_equiv_pos_site_id
 _symmetry_equiv_pos_as_xyz
  1  'x, y, z'
loop_
 _atom_site_type_symbol
 _atom_site_label
 _atom_site_symmetry_multiplicity
 _atom_site_fract_x
 _atom_site_fract_y
 _atom_site_fract_z
 _atom_site_occupancy
  Se  Se0  1  0.214693  0.624855  0.785916  1
  Se  Se1  1  0.785307  0.375145  0.214084  1
  Se  Se2  1  0.785307  0.124855  0.714084  1
  Se  Se3  1  0.873908  0.625809  0.608948  1
  Se  Se4  1  0.126092  0.125809  0.891052  1
  Se  Se5  1  0.873908  0.874191  0.108948  1
  Se  Se6  1  0.214693  0.875145  0.285916  1
  Se  Se7  1  0.126092  0.374191  0.391052  1
  S  S8  1  0.765655  0.109139  0.286010  1
  S  S9  1  0.156087  0.383823  0.808925  1
  S  S10  1  0.486147  0.630229  0.328055  1
  S  S11  1  0.403062  0.152181  0.425332  1
  S  S12  1  0.752965  0.648570  0.915100  1
  S  S13  1  0.247035  0.351430  0.084900  1
  S  S14  1  0.331388  0.851188  0.987579  1
  S  S15  1  0.513853  0.130229  0.171945  1
  S  S16  1  0.156087  0.116177  0.308925  1
  S  S17  1  0.067610  0.125830  0.500369  1
  S  S18  1  0.668612  0.148812  0.012421  1
  S  S19  1  0.850445  0.367459  0.594640  1
  S  S20  1  0.067610  0.374170  1.000369  1
  S  S21  1  0.486147  0.869771  0.828055  1
  S  S22  1  0.331388  0.648812  0.487579  1
  S  S23  1  0.149555  0.867459  0.905360  1
  S  S24  1  0.850445  0.132541  0.094640  1
  S  S25  1  0.752965  0.851430  0.415100  1
  S  S26  1  0.765655  0.390861  0.786010  1
  S  S27  1  0.149555  0.632541  0.405360  1
  S  S28  1  0.596938  0.652181  0.074668  1
  S  S29  1  0.247035  0.148570  0.584900  1
  S  S30  1  0.843913  0.616177  0.191075  1
  S  S31  1  0.932390  0.874170  0.499631  1
  S  S32  1  0.234345  0.609139  0.213990  1
  S  S33  1  0.513853  0.369771  0.671945  1
  S  S34  1  0.596938  0.847819  0.574668  1
  S  S35  1  0.403062  0.347819  0.925332  1
  S  S36  1  0.234345  0.890861  0.713990  1
  S  S37  1  0.932390  0.625830  -0.000369  1
  S  S38  1  0.668612  0.351188  0.512421  1
  S  S39  1  0.843913  0.883823  0.691075  1
  N  N40  1  0.562356  0.356218  0.576288  1
  N  N41  1  0.353799  0.154896  0.521506  1
  N  N42  1  0.080788  0.114281  0.392875  1
  N  N43  1  0.562356  0.143782  0.076288  1
  N  N44  1  0.646201  0.845104  0.478494  1
  N  N45  1  0.303452  0.364452  0.832290  1
  N  N46  1  0.646201  0.654896  0.978494  1
  N  N47  1  0.839884  0.117354  0.201776  1
  N  N48  1  0.839884  0.382646  0.701776  1
  N  N49  1  0.160116  0.882646  0.798224  1
  N  N50  1  0.696548  0.635548  0.167710  1
  N  N51  1  0.437644  0.856218  0.923712  1
  N  N52  1  0.616229  0.383610  0.764233  1
  N  N53  1  0.080788  0.385719  0.892875  1
  N  N54  1  0.160116  0.617354  0.298224  1
  N  N55  1  0.919212  0.885719  0.607125  1
  N  N56  1  0.616229  0.116390  0.264233  1
  N  N57  1  0.437644  0.643782  0.423712  1
  N  N58  1  0.383771  0.883610  0.735767  1
  N  N59  1  0.353799  0.345104  0.021506  1
  N  N60  1  0.919212  0.614281  0.107125  1
  N  N61  1  0.303452  0.135548  0.332290  1
  N  N62  1  0.696548  0.864452  0.667710  1
  N  N63  1  0.383771  0.616390  0.235767  1
  Cl  Cl64  1  0.041019  0.149883  0.699769  1
  Cl  Cl65  1  0.414498  0.886423  0.253852  1
  Cl  Cl66  1  0.826721  0.894436  0.949151  1
  Cl  Cl67  1  0.325204  0.095921  0.862383  1
  Cl  Cl68  1  0.126975  0.672978  0.604592  1
  Cl  Cl69  1  0.267804  0.588947  0.944986  1
  Cl  Cl70  1  0.732196  0.411053  0.055014  1
  Cl  Cl71  1  0.958981  0.649883  0.800231  1
  Cl  Cl72  1  0.325204  0.404079  0.362383  1
  Cl  Cl73  1  0.173279  0.105564  0.050849  1
  Cl  Cl74  1  0.414498  0.613577  0.753852  1
  Cl  Cl75  1  0.674796  0.904079  0.137617  1
  Cl  Cl76  1  0.267804  0.911053  0.444986  1
  Cl  Cl77  1  0.873025  0.327022  0.395408  1
  Cl  Cl78  1  0.674796  0.595921  0.637617  1
  Cl  Cl79  1  0.126975  0.827022  0.104592  1
  Cl  Cl80  1  0.585502  0.386423  0.246148  1
  Cl  Cl81  1  0.732196  0.088947  0.555014  1
  Cl  Cl82  1  0.958981  0.850117  0.300231  1
  Cl  Cl83  1  0.585502  0.113577  0.746148  1
  Cl  Cl84  1  0.826721  0.605564  0.449151  1
  Cl  Cl85  1  0.173279  0.394436  0.550849  1
  Cl  Cl86  1  0.041019  0.350117  0.199769  1
  Cl  Cl87  1  0.873025  0.172978  0.895408  1
