# generated using pymatgen
data_Ba2MnNiClF7
_symmetry_space_group_name_H-M   'P 1'
_cell_length_a   5.91770354
_cell_length_b   7.84473858
_cell_length_c   9.06925751
_cell_angle_alpha   106.08593419
_cell_angle_beta   90.00000000
_cell_angle_gamma   90.00000000
_symmetry_Int_Tables_number   1
_chemical_formula_structural   Ba2MnNiClF7
_chemical_formula_sum   'Ba4 Mn2 Ni2 Cl2 F14'
_cell_volume   404.53652961
_cell_formula_units_Z   2
loop_
 _symmetry_equiv_pos_site_id
 _symmetry_equiv_pos_as_xyz
  1  'x, y, z'
loop_
 _atom_site_type_symbol
 _atom_site_label
 _atom_site_symmetry_multiplicity
 _atom_site_fract_x
 _atom_site_fract_y
 _atom_site_fract_z
 _atom_site_occupancy
  Ba  Ba0  1  0.250000  0.308629  0.074072  1
  Ba  Ba1  1  0.750000  0.691371  0.925928  1
  Ba  Ba2  1  0.750000  0.665971  0.411542  1
  Ba  Ba3  1  0.250000  0.334029  0.588458  1
  Mn  Mn4  1  0.250000  0.830613  0.734212  1
  Mn  Mn5  1  0.750000  0.169387  0.265788  1
  Ni  Ni6  1  0.750000  0.185194  0.829433  1
  Ni  Ni7  1  0.250000  0.814806  0.170567  1
  Cl  Cl8  1  0.250000  0.884323  0.459378  1
  Cl  Cl9  1  0.750000  0.115677  0.540622  1
  F  F10  1  0.001826  0.365911  0.346769  1
  F  F11  1  0.506432  0.008388  0.833507  1
  F  F12  1  0.492028  0.631946  0.161200  1
  F  F13  1  0.992027  0.368054  0.838800  1
  F  F14  1  0.993568  0.008388  0.833507  1
  F  F15  1  0.507973  0.368054  0.838800  1
  F  F16  1  0.493568  0.991612  0.166493  1
  F  F17  1  0.498174  0.365911  0.346769  1
  F  F18  1  0.006432  0.991612  0.166493  1
  F  F19  1  0.750000  0.260955  0.062880  1
  F  F20  1  0.501826  0.634089  0.653231  1
  F  F21  1  0.998174  0.634089  0.653231  1
  F  F22  1  0.250000  0.739045  0.937120  1
  F  F23  1  0.007973  0.631946  0.161200  1
