# generated using pymatgen
data_CaTeO3
_symmetry_space_group_name_H-M   'P 1'
_cell_length_a   11.19773002
_cell_length_b   12.27266086
_cell_length_c   12.27266086
_cell_angle_alpha   90.00000000
_cell_angle_beta   90.00000000
_cell_angle_gamma   90.00000000
_symmetry_Int_Tables_number   1
_chemical_formula_structural   CaTeO3
_chemical_formula_sum   'Ca20 Te20 O60'
_cell_volume   1686.58199104
_cell_formula_units_Z   20
loop_
 _symmetry_equiv_pos_site_id
 _symmetry_equiv_pos_as_xyz
  1  'x, y, z'
loop_
 _atom_site_type_symbol
 _atom_site_label
 _atom_site_symmetry_multiplicity
 _atom_site_fract_x
 _atom_site_fract_y
 _atom_site_fract_z
 _atom_site_occupancy
  Ca  Ca0  1  0.273685  0.242441  0.227462  1
  Ca  Ca1  1  0.014484  0.345439  0.038167  1
  Ca  Ca2  1  0.036386  0.265939  0.741368  1
  Ca  Ca3  1  0.523685  0.227462  0.757559  1
  Ca  Ca4  1  0.517927  0.162357  0.434651  1
  Ca  Ca5  1  0.764484  0.961833  0.345439  1
  Ca  Ca6  1  0.267927  0.565349  0.162357  1
  Ca  Ca7  1  0.268041  0.462404  0.863286  1
  Ca  Ca8  1  0.514484  0.654561  0.961833  1
  Ca  Ca9  1  0.018041  0.136714  0.462404  1
  Ca  Ca10  1  0.264484  0.038167  0.654561  1
  Ca  Ca11  1  0.773685  0.757559  0.772538  1
  Ca  Ca12  1  0.768041  0.537597  0.136714  1
  Ca  Ca13  1  0.786386  0.258632  0.265939  1
  Ca  Ca14  1  0.767927  0.434651  0.837643  1
  Ca  Ca15  1  0.536386  0.734061  0.258632  1
  Ca  Ca16  1  0.023685  0.772538  0.242441  1
  Ca  Ca17  1  0.286386  0.741368  0.734061  1
  Ca  Ca18  1  0.017927  0.837643  0.565349  1
  Ca  Ca19  1  0.518041  0.863286  0.537597  1
  Te  Te20  1  0.509287  0.384079  0.006680  1
  Te  Te21  1  0.268158  0.311351  0.555498  1
  Te  Te22  1  0.759287  0.006680  0.615921  1
  Te  Te23  1  0.995459  0.057945  0.158197  1
  Te  Te24  1  0.792325  0.340921  0.559376  1
  Te  Te25  1  0.790572  0.169112  0.937472  1
  Te  Te26  1  0.745459  0.841803  0.057945  1
  Te  Te27  1  0.768158  0.688649  0.444502  1
  Te  Te28  1  0.518158  0.555498  0.688649  1
  Te  Te29  1  0.009287  0.615921  0.993320  1
  Te  Te30  1  0.540572  0.062528  0.169112  1
  Te  Te31  1  0.290572  0.830888  0.062528  1
  Te  Te32  1  0.292325  0.659079  0.440624  1
  Te  Te33  1  0.542325  0.440624  0.340921  1
  Te  Te34  1  0.495459  0.942055  0.841803  1
  Te  Te35  1  0.040572  0.937472  0.830888  1
  Te  Te36  1  0.018158  0.444502  0.311351  1
  Te  Te37  1  0.245459  0.158197  0.942055  1
  Te  Te38  1  0.259287  0.993320  0.384079  1
  Te  Te39  1  0.042325  0.559376  0.659079  1
  O  O40  1  0.164211  0.408818  0.241251  1
  O  O41  1  0.640681  0.027602  0.504010  1
  O  O42  1  0.390681  0.495990  0.027602  1
  O  O43  1  0.883159  0.984212  0.508979  1
  O  O44  1  0.344891  0.133387  0.817249  1
  O  O45  1  0.699742  0.273850  0.447024  1
  O  O46  1  0.914211  0.758749  0.408818  1
  O  O47  1  0.411843  0.600428  0.801220  1
  O  O48  1  0.665064  0.710233  0.098548  1
  O  O49  1  0.133159  0.508979  0.015788  1
  O  O50  1  0.911843  0.399572  0.198780  1
  O  O51  1  0.414211  0.241251  0.591182  1
  O  O52  1  0.898478  0.275034  0.883881  1
  O  O53  1  0.094891  0.182751  0.133387  1
  O  O54  1  0.165064  0.289767  0.901452  1
  O  O55  1  0.601330  0.044367  0.777946  1
  O  O56  1  0.633159  0.491021  0.984212  1
  O  O57  1  0.959675  0.628266  0.141829  1
  O  O58  1  0.435309  0.320589  0.334346  1
  O  O59  1  0.405349  0.089840  0.255036  1
  O  O60  1  0.486055  0.678410  0.601242  1
  O  O61  1  0.155349  0.744964  0.089840  1
  O  O62  1  0.986055  0.321590  0.398758  1
  O  O63  1  0.655349  0.255036  0.910160  1
  O  O64  1  0.459675  0.371734  0.858171  1
  O  O65  1  0.642496  0.399973  0.223270  1
  O  O66  1  0.685309  0.334346  0.679411  1
  O  O67  1  0.142496  0.600027  0.776730  1
  O  O68  1  0.383159  0.015788  0.491021  1
  O  O69  1  0.661843  0.801220  0.399572  1
  O  O70  1  0.161843  0.198780  0.600428  1
  O  O71  1  0.449742  0.552976  0.273850  1
  O  O72  1  0.140681  0.972398  0.495990  1
  O  O73  1  0.844891  0.866613  0.182751  1
  O  O74  1  0.664211  0.591182  0.758749  1
  O  O75  1  0.319813  0.796173  0.915751  1
  O  O76  1  0.890681  0.504010  0.972398  1
  O  O77  1  0.569813  0.915751  0.203827  1
  O  O78  1  0.594891  0.817249  0.866613  1
  O  O79  1  0.892496  0.223270  0.600027  1
  O  O80  1  0.415064  0.901452  0.710233  1
  O  O81  1  0.648478  0.116119  0.275034  1
  O  O82  1  0.935309  0.679411  0.665654  1
  O  O83  1  0.069813  0.084249  0.796173  1
  O  O84  1  0.915064  0.098548  0.289767  1
  O  O85  1  0.199742  0.726150  0.552976  1
  O  O86  1  0.101330  0.955633  0.222054  1
  O  O87  1  0.905349  0.910160  0.744964  1
  O  O88  1  0.351330  0.222054  0.044367  1
  O  O89  1  0.851330  0.777946  0.955633  1
  O  O90  1  0.736055  0.601242  0.321590  1
  O  O91  1  0.398478  0.724966  0.116119  1
  O  O92  1  0.185309  0.665654  0.320589  1
  O  O93  1  0.392496  0.776730  0.399973  1
  O  O94  1  0.236055  0.398758  0.678410  1
  O  O95  1  0.819813  0.203827  0.084249  1
  O  O96  1  0.709675  0.858171  0.628266  1
  O  O97  1  0.148478  0.883881  0.724966  1
  O  O98  1  0.949742  0.447024  0.726150  1
  O  O99  1  0.209675  0.141829  0.371734  1
