# generated using pymatgen
data_HgAs4(S2I)2
_symmetry_space_group_name_H-M   'P 1'
_cell_length_a   10.10543123
_cell_length_b   10.09952526
_cell_length_c   15.89930386
_cell_angle_alpha   90.00000000
_cell_angle_beta   90.00000000
_cell_angle_gamma   103.46587371
_symmetry_Int_Tables_number   1
_chemical_formula_structural   HgAs4(S2I)2
_chemical_formula_sum   'Hg4 As16 S16 I8'
_cell_volume   1578.07433390
_cell_formula_units_Z   4
loop_
 _symmetry_equiv_pos_site_id
 _symmetry_equiv_pos_as_xyz
  1  'x, y, z'
loop_
 _atom_site_type_symbol
 _atom_site_label
 _atom_site_symmetry_multiplicity
 _atom_site_fract_x
 _atom_site_fract_y
 _atom_site_fract_z
 _atom_site_occupancy
  Hg  Hg0  1  0.500318  0.711366  0.954444  1
  Hg  Hg1  1  0.499682  0.288634  0.045556  1
  Hg  Hg2  1  0.000318  0.211366  0.545556  1
  Hg  Hg3  1  0.999682  0.788634  0.454444  1
  As  As4  1  0.089809  0.222716  0.047826  1
  As  As5  1  0.786063  0.071020  0.153781  1
  As  As6  1  0.376157  0.762355  0.532569  1
  As  As7  1  0.123843  0.737645  0.032569  1
  As  As8  1  0.410191  0.277284  0.547826  1
  As  As9  1  0.364394  0.833441  0.314742  1
  As  As10  1  0.589809  0.722716  0.452174  1
  As  As11  1  0.635606  0.166559  0.685258  1
  As  As12  1  0.135606  0.666559  0.814742  1
  As  As13  1  0.864394  0.333441  0.185258  1
  As  As14  1  0.213937  0.928980  0.846219  1
  As  As15  1  0.623843  0.237645  0.467431  1
  As  As16  1  0.910191  0.777284  0.952174  1
  As  As17  1  0.713937  0.428980  0.653781  1
  As  As18  1  0.876157  0.262355  0.967431  1
  As  As19  1  0.286063  0.571020  0.346219  1
  S  S20  1  0.684455  0.087014  0.557522  1
  S  S21  1  0.008572  0.966579  0.878543  1
  S  S22  1  0.184455  0.587014  0.942478  1
  S  S23  1  0.315545  0.912986  0.442478  1
  S  S24  1  0.411967  0.134342  0.656866  1
  S  S25  1  0.911967  0.634342  0.843134  1
  S  S26  1  0.280164  0.917704  0.982253  1
  S  S27  1  0.719836  0.082296  0.017747  1
  S  S28  1  0.815545  0.412986  0.057522  1
  S  S29  1  0.088033  0.365658  0.156866  1
  S  S30  1  0.491428  0.533421  0.378543  1
  S  S31  1  0.219836  0.582296  0.482253  1
  S  S32  1  0.588033  0.865658  0.343134  1
  S  S33  1  0.508572  0.466579  0.621457  1
  S  S34  1  0.991428  0.033421  0.121457  1
  S  S35  1  0.780164  0.417704  0.517747  1
  I  I36  1  0.971214  0.845482  0.615753  1
  I  I37  1  0.471214  0.345482  0.884247  1
  I  I38  1  0.528786  0.654518  0.115753  1
  I  I39  1  0.028786  0.154518  0.384247  1
  I  I40  1  0.461800  0.206490  0.204374  1
  I  I41  1  0.961800  0.706490  0.295626  1
  I  I42  1  0.038200  0.293510  0.704374  1
  I  I43  1  0.538200  0.793510  0.795626  1
