# generated using pymatgen
data_CdB2XeF10
_symmetry_space_group_name_H-M   'P 1'
_cell_length_a   8.99173470
_cell_length_b   9.25424995
_cell_length_c   11.01248171
_cell_angle_alpha   90.00000000
_cell_angle_beta   111.01879655
_cell_angle_gamma   90.00000000
_symmetry_Int_Tables_number   1
_chemical_formula_structural   CdB2XeF10
_chemical_formula_sum   'Cd4 B8 Xe4 F40'
_cell_volume   855.39543791
_cell_formula_units_Z   4
loop_
 _symmetry_equiv_pos_site_id
 _symmetry_equiv_pos_as_xyz
  1  'x, y, z'
loop_
 _atom_site_type_symbol
 _atom_site_label
 _atom_site_symmetry_multiplicity
 _atom_site_fract_x
 _atom_site_fract_y
 _atom_site_fract_z
 _atom_site_occupancy
  Cd  Cd0  1  0.346692  0.536291  0.636752  1
  Cd  Cd1  1  0.846692  0.963709  0.636752  1
  Cd  Cd2  1  0.153308  0.036291  0.363248  1
  Cd  Cd3  1  0.653308  0.463709  0.363248  1
  B  B4  1  0.777719  0.599165  0.708835  1
  B  B5  1  0.722281  0.099165  0.291165  1
  B  B6  1  0.222281  0.400835  0.291165  1
  B  B7  1  0.973693  0.719326  0.425596  1
  B  B8  1  0.277719  0.900835  0.708835  1
  B  B9  1  0.473693  0.780674  0.425596  1
  B  B10  1  0.526307  0.219326  0.574404  1
  B  B11  1  0.026307  0.280674  0.574404  1
  Xe  Xe12  1  0.345946  0.296985  0.946440  1
  Xe  Xe13  1  0.654054  0.703015  0.053560  1
  Xe  Xe14  1  0.845946  0.203015  0.946440  1
  Xe  Xe15  1  0.154054  0.796985  0.053560  1
  F  F16  1  0.880798  0.498761  0.787764  1
  F  F17  1  0.419645  0.470321  0.852441  1
  F  F18  1  0.126188  0.907359  0.725364  1
  F  F19  1  0.580355  0.529679  0.147559  1
  F  F20  1  0.397063  0.680445  0.481419  1
  F  F21  1  0.841569  0.742677  0.743284  1
  F  F22  1  0.537954  0.703024  0.344421  1
  F  F23  1  0.253721  0.923034  0.574769  1
  F  F24  1  0.080355  0.970321  0.147559  1
  F  F25  1  0.226477  0.633445  0.964155  1
  F  F26  1  0.119202  0.501239  0.212236  1
  F  F27  1  0.037954  0.796976  0.344421  1
  F  F28  1  0.246280  0.423034  0.425231  1
  F  F29  1  0.273523  0.133445  0.035845  1
  F  F30  1  0.859047  0.619879  0.347234  1
  F  F31  1  0.158431  0.257323  0.256716  1
  F  F32  1  0.373812  0.407359  0.274636  1
  F  F33  1  0.873812  0.092641  0.274636  1
  F  F34  1  0.359047  0.880121  0.347234  1
  F  F35  1  0.919645  0.029679  0.852441  1
  F  F36  1  0.102937  0.180445  0.518581  1
  F  F37  1  0.593175  0.854850  0.524741  1
  F  F38  1  0.658431  0.242677  0.256716  1
  F  F39  1  0.897063  0.819555  0.481419  1
  F  F40  1  0.640953  0.119879  0.652766  1
  F  F41  1  0.626188  0.592641  0.725364  1
  F  F42  1  0.962046  0.203024  0.655579  1
  F  F43  1  0.746279  0.076966  0.425231  1
  F  F44  1  0.140953  0.380121  0.652766  1
  F  F45  1  0.093175  0.645150  0.524741  1
  F  F46  1  0.341569  0.757323  0.743284  1
  F  F47  1  0.773523  0.366555  0.035845  1
  F  F48  1  0.462046  0.296976  0.655579  1
  F  F49  1  0.406825  0.145150  0.475259  1
  F  F50  1  0.726477  0.866555  0.964155  1
  F  F51  1  0.380798  0.001239  0.787764  1
  F  F52  1  0.619202  0.998761  0.212236  1
  F  F53  1  0.753721  0.576966  0.574769  1
  F  F54  1  0.602937  0.319555  0.518581  1
  F  F55  1  0.906825  0.354850  0.475259  1
