# generated using pymatgen
data_K2NiP2WO10
_symmetry_space_group_name_H-M   'P 1'
_cell_length_a   9.30495309
_cell_length_b   9.30495309
_cell_length_c   10.82662429
_cell_angle_alpha   90.00000000
_cell_angle_beta   90.00000000
_cell_angle_gamma   90.00000000
_symmetry_Int_Tables_number   1
_chemical_formula_structural   K2NiP2WO10
_chemical_formula_sum   'K8 Ni4 P8 W4 O40'
_cell_volume   937.39243000
_cell_formula_units_Z   4
loop_
 _symmetry_equiv_pos_site_id
 _symmetry_equiv_pos_as_xyz
  1  'x, y, z'
loop_
 _atom_site_type_symbol
 _atom_site_label
 _atom_site_symmetry_multiplicity
 _atom_site_fract_x
 _atom_site_fract_y
 _atom_site_fract_z
 _atom_site_occupancy
  K  K0  1  0.998463  0.712524  0.043948  1
  K  K1  1  0.287476  0.001538  0.456052  1
  K  K2  1  0.787476  0.498463  0.293948  1
  K  K3  1  0.501537  0.212524  0.206052  1
  K  K4  1  0.498463  0.787476  0.706052  1
  K  K5  1  0.001538  0.287476  0.543948  1
  K  K6  1  0.712524  0.998463  0.956052  1
  K  K7  1  0.212524  0.501537  0.793948  1
  Ni  Ni8  1  0.635662  0.635662  0.000000  1
  Ni  Ni9  1  0.864338  0.135662  0.250000  1
  Ni  Ni10  1  0.364338  0.364338  0.500000  1
  Ni  Ni11  1  0.135662  0.864338  0.750000  1
  P  P12  1  0.329758  0.822788  0.002170  1
  P  P13  1  0.677212  0.829758  0.252170  1
  P  P14  1  0.177212  0.670242  0.497830  1
  P  P15  1  0.670242  0.177212  0.502170  1
  P  P16  1  0.829758  0.677212  0.747830  1
  P  P17  1  0.822788  0.329758  0.997830  1
  P  P18  1  0.322788  0.170242  0.752170  1
  P  P19  1  0.170242  0.322788  0.247830  1
  W  W20  1  0.111494  0.111494  0.000000  1
  W  W21  1  0.888506  0.888506  0.500000  1
  W  W22  1  0.611494  0.388506  0.750000  1
  W  W23  1  0.388506  0.611494  0.250000  1
  O  O24  1  0.456170  0.492989  0.368992  1
  O  O25  1  0.781290  0.760656  0.628858  1
  O  O26  1  0.255638  0.262550  0.357652  1
  O  O27  1  0.218710  0.239344  0.128858  1
  O  O28  1  0.217346  0.484200  0.220970  1
  O  O29  1  0.717346  0.015800  0.529030  1
  O  O30  1  0.237451  0.755637  0.607652  1
  O  O31  1  0.984200  0.282654  0.970970  1
  O  O32  1  0.782654  0.515800  0.720970  1
  O  O33  1  0.739344  0.281290  0.878858  1
  O  O34  1  0.316772  0.008328  0.732114  1
  O  O35  1  0.507011  0.543830  0.131008  1
  O  O36  1  0.262550  0.255638  0.642348  1
  O  O37  1  0.282654  0.984200  0.029030  1
  O  O38  1  0.956170  0.007011  0.381008  1
  O  O39  1  0.492989  0.456170  0.631008  1
  O  O40  1  0.718710  0.260656  0.621142  1
  O  O41  1  0.762550  0.244363  0.107652  1
  O  O42  1  0.491672  0.816772  0.982114  1
  O  O43  1  0.043830  0.992989  0.881008  1
  O  O44  1  0.007011  0.956170  0.618992  1
  O  O45  1  0.484200  0.217346  0.779030  1
  O  O46  1  0.683228  0.991672  0.232114  1
  O  O47  1  0.543830  0.507011  0.868992  1
  O  O48  1  0.015800  0.717346  0.470970  1
  O  O49  1  0.755637  0.237451  0.392348  1
  O  O50  1  0.260656  0.718710  0.378858  1
  O  O51  1  0.183228  0.508328  0.517886  1
  O  O52  1  0.816772  0.491672  0.017886  1
  O  O53  1  0.760656  0.781290  0.371142  1
  O  O54  1  0.281290  0.739344  0.121142  1
  O  O55  1  0.991672  0.683228  0.767886  1
  O  O56  1  0.515800  0.782654  0.279030  1
  O  O57  1  0.992989  0.043830  0.118992  1
  O  O58  1  0.244363  0.762550  0.892348  1
  O  O59  1  0.239344  0.218710  0.871142  1
  O  O60  1  0.744363  0.737450  0.857652  1
  O  O61  1  0.737450  0.744363  0.142348  1
  O  O62  1  0.008328  0.316772  0.267886  1
  O  O63  1  0.508328  0.183228  0.482114  1
