# generated using pymatgen
data_Sm5Si4
_symmetry_space_group_name_H-M   'P 1'
_cell_length_a   7.65613785
_cell_length_b   7.86731117
_cell_length_c   14.96501633
_cell_angle_alpha   90.00000000
_cell_angle_beta   90.00000000
_cell_angle_gamma   90.00000000
_symmetry_Int_Tables_number   1
_chemical_formula_structural   Sm5Si4
_chemical_formula_sum   'Sm20 Si16'
_cell_volume   901.39110335
_cell_formula_units_Z   4
loop_
 _symmetry_equiv_pos_site_id
 _symmetry_equiv_pos_as_xyz
  1  'x, y, z'
loop_
 _atom_site_type_symbol
 _atom_site_label
 _atom_site_symmetry_multiplicity
 _atom_site_fract_x
 _atom_site_fract_y
 _atom_site_fract_z
 _atom_site_occupancy
  Sm  Sm0  1  0.857021  0.486872  0.250000  1
  Sm  Sm1  1  0.313394  0.180845  0.877909  1
  Sm  Sm2  1  0.142979  0.513128  0.750000  1
  Sm  Sm3  1  0.813394  0.319155  0.622091  1
  Sm  Sm4  1  0.463610  0.686448  0.600465  1
  Sm  Sm5  1  0.686606  0.819155  0.122091  1
  Sm  Sm6  1  0.536390  0.313552  0.100465  1
  Sm  Sm7  1  0.963610  0.813552  0.899535  1
  Sm  Sm8  1  0.642979  0.986872  0.750000  1
  Sm  Sm9  1  0.357021  0.013128  0.250000  1
  Sm  Sm10  1  0.536390  0.313552  0.399535  1
  Sm  Sm11  1  0.036390  0.186448  0.100465  1
  Sm  Sm12  1  0.963610  0.813552  0.600465  1
  Sm  Sm13  1  0.186606  0.680845  0.122091  1
  Sm  Sm14  1  0.686606  0.819155  0.377909  1
  Sm  Sm15  1  0.313394  0.180845  0.622091  1
  Sm  Sm16  1  0.463610  0.686448  0.899535  1
  Sm  Sm17  1  0.036390  0.186448  0.399535  1
  Sm  Sm18  1  0.186606  0.680845  0.377909  1
  Sm  Sm19  1  0.813394  0.319155  0.877909  1
  Si  Si20  1  0.518486  0.399636  0.750000  1
  Si  Si21  1  0.138227  0.473130  0.959554  1
  Si  Si22  1  0.638227  0.026870  0.959554  1
  Si  Si23  1  0.256121  0.877274  0.750000  1
  Si  Si24  1  0.243879  0.377274  0.250000  1
  Si  Si25  1  0.861773  0.526870  0.040446  1
  Si  Si26  1  0.743879  0.122726  0.250000  1
  Si  Si27  1  0.481514  0.600364  0.250000  1
  Si  Si28  1  0.361773  0.973130  0.040446  1
  Si  Si29  1  0.981514  0.899636  0.250000  1
  Si  Si30  1  0.861773  0.526870  0.459554  1
  Si  Si31  1  0.361773  0.973130  0.459554  1
  Si  Si32  1  0.756121  0.622726  0.750000  1
  Si  Si33  1  0.138227  0.473130  0.540446  1
  Si  Si34  1  0.018486  0.100364  0.750000  1
  Si  Si35  1  0.638227  0.026870  0.540446  1
