# generated using pymatgen
data_KFe2(PO4)2
_symmetry_space_group_name_H-M   'P 1'
_cell_length_a   7.90970177
_cell_length_b   9.17907137
_cell_length_c   10.05784663
_cell_angle_alpha   90.00000000
_cell_angle_beta   90.00000000
_cell_angle_gamma   115.24097277
_symmetry_Int_Tables_number   1
_chemical_formula_structural   KFe2(PO4)2
_chemical_formula_sum   'K4 Fe8 P8 O32'
_cell_volume   660.51572779
_cell_formula_units_Z   4
loop_
 _symmetry_equiv_pos_site_id
 _symmetry_equiv_pos_as_xyz
  1  'x, y, z'
loop_
 _atom_site_type_symbol
 _atom_site_label
 _atom_site_symmetry_multiplicity
 _atom_site_fract_x
 _atom_site_fract_y
 _atom_site_fract_z
 _atom_site_occupancy
  K  K0  1  0.072631  0.427325  0.638047  1
  K  K1  1  0.427369  0.072675  0.138047  1
  K  K2  1  0.927369  0.572675  0.361953  1
  K  K3  1  0.572631  0.927325  0.861953  1
  Fe  Fe4  1  0.120583  0.053595  0.382713  1
  Fe  Fe5  1  0.013042  0.744623  0.879514  1
  Fe  Fe6  1  0.486958  0.755377  0.379514  1
  Fe  Fe7  1  0.379417  0.446405  0.882713  1
  Fe  Fe8  1  0.620583  0.553595  0.117287  1
  Fe  Fe9  1  0.513042  0.244623  0.620486  1
  Fe  Fe10  1  0.879417  0.946405  0.617287  1
  Fe  Fe11  1  0.986958  0.255377  0.120486  1
  P  P12  1  0.129444  0.133980  0.841813  1
  P  P13  1  0.870556  0.866020  0.158187  1
  P  P14  1  0.256391  0.645689  0.099139  1
  P  P15  1  0.743609  0.354311  0.900861  1
  P  P16  1  0.243609  0.854311  0.599139  1
  P  P17  1  0.370556  0.366020  0.341813  1
  P  P18  1  0.629444  0.633980  0.658187  1
  P  P19  1  0.756391  0.145689  0.400861  1
  O  O20  1  0.698973  0.760036  0.248487  1
  O  O21  1  0.081481  0.490363  0.132914  1
  O  O22  1  0.849374  0.745073  0.039048  1
  O  O23  1  0.411582  0.603575  0.036405  1
  O  O24  1  0.801027  0.739964  0.748487  1
  O  O25  1  0.718105  0.256056  0.501617  1
  O  O26  1  0.150626  0.254927  0.960952  1
  O  O27  1  0.946891  0.100286  0.766986  1
  O  O28  1  0.142843  0.982329  0.893389  1
  O  O29  1  0.664951  0.248661  0.775691  1
  O  O30  1  0.781895  0.243944  0.001617  1
  O  O31  1  0.642843  0.482329  0.606611  1
  O  O32  1  0.857157  0.017671  0.106611  1
  O  O33  1  0.357157  0.517671  0.393389  1
  O  O34  1  0.301027  0.239964  0.751513  1
  O  O35  1  0.588418  0.396425  0.963595  1
  O  O36  1  0.581481  0.990363  0.367086  1
  O  O37  1  0.198973  0.260036  0.251513  1
  O  O38  1  0.553109  0.399714  0.266986  1
  O  O39  1  0.164951  0.748661  0.724309  1
  O  O40  1  0.281895  0.743944  0.498383  1
  O  O41  1  0.911582  0.103575  0.463595  1
  O  O42  1  0.446891  0.600286  0.733014  1
  O  O43  1  0.218105  0.756056  0.998383  1
  O  O44  1  0.835049  0.251339  0.275691  1
  O  O45  1  0.335049  0.751339  0.224309  1
  O  O46  1  0.349374  0.245073  0.460952  1
  O  O47  1  0.053109  0.899714  0.233014  1
  O  O48  1  0.918519  0.509637  0.867086  1
  O  O49  1  0.088418  0.896425  0.536405  1
  O  O50  1  0.418519  0.009637  0.632914  1
  O  O51  1  0.650626  0.754927  0.539048  1
