# generated using pymatgen
data_Ba9Sc2(SiO4)6
_symmetry_space_group_name_H-M   'P 1'
_cell_length_a   9.39499586
_cell_length_b   9.39499598
_cell_length_c   9.39499563
_cell_angle_alpha   64.30745493
_cell_angle_beta   64.30745457
_cell_angle_gamma   64.30745537
_symmetry_Int_Tables_number   1
_chemical_formula_structural   Ba9Sc2(SiO4)6
_chemical_formula_sum   'Ba9 Sc2 Si6 O24'
_cell_volume   641.85880544
_cell_formula_units_Z   1
loop_
 _symmetry_equiv_pos_site_id
 _symmetry_equiv_pos_as_xyz
  1  'x, y, z'
loop_
 _atom_site_type_symbol
 _atom_site_label
 _atom_site_symmetry_multiplicity
 _atom_site_fract_x
 _atom_site_fract_y
 _atom_site_fract_z
 _atom_site_occupancy
  Ba  Ba0  1  0.437381  0.135987  0.752451  1
  Ba  Ba1  1  0.336574  0.336574  0.336574  1
  Ba  Ba2  1  0.247549  0.562619  0.864013  1
  Ba  Ba3  1  0.135987  0.752451  0.437381  1
  Ba  Ba4  1  0.000000  0.000000  0.000000  1
  Ba  Ba5  1  0.864013  0.247549  0.562619  1
  Ba  Ba6  1  0.562619  0.864013  0.247549  1
  Ba  Ba7  1  0.663426  0.663426  0.663426  1
  Ba  Ba8  1  0.752451  0.437381  0.135987  1
  Sc  Sc9  1  0.164789  0.164789  0.164789  1
  Sc  Sc10  1  0.835211  0.835211  0.835211  1
  Si  Si11  1  0.584805  0.236391  0.949695  1
  Si  Si12  1  0.949695  0.584805  0.236391  1
  Si  Si13  1  0.236391  0.949695  0.584805  1
  Si  Si14  1  0.050305  0.415195  0.763609  1
  Si  Si15  1  0.763609  0.050305  0.415195  1
  Si  Si16  1  0.415195  0.763609  0.050305  1
  O  O17  1  0.636070  0.273967  0.070678  1
  O  O18  1  0.095683  0.282773  0.939180  1
  O  O19  1  0.904317  0.717227  0.060820  1
  O  O20  1  0.070678  0.636070  0.273967  1
  O  O21  1  0.227174  0.431225  0.620590  1
  O  O22  1  0.620590  0.227174  0.431225  1
  O  O23  1  0.282773  0.939180  0.095683  1
  O  O24  1  0.939180  0.095683  0.282773  1
  O  O25  1  0.363930  0.726033  0.929322  1
  O  O26  1  0.948959  0.604242  0.790409  1
  O  O27  1  0.051041  0.395758  0.209591  1
  O  O28  1  0.431225  0.620590  0.227174  1
  O  O29  1  0.604242  0.790409  0.948959  1
  O  O30  1  0.726033  0.929322  0.363930  1
  O  O31  1  0.209591  0.051041  0.395758  1
  O  O32  1  0.379410  0.772826  0.568775  1
  O  O33  1  0.929322  0.363930  0.726033  1
  O  O34  1  0.568775  0.379410  0.772826  1
  O  O35  1  0.395758  0.209591  0.051041  1
  O  O36  1  0.060820  0.904317  0.717227  1
  O  O37  1  0.273967  0.070678  0.636070  1
  O  O38  1  0.772826  0.568775  0.379410  1
  O  O39  1  0.717227  0.060820  0.904317  1
  O  O40  1  0.790409  0.948959  0.604242  1
