# generated using pymatgen
data_SrGd2Al2O7
_symmetry_space_group_name_H-M   'P 1'
_cell_length_a   3.74420227
_cell_length_b   3.74417599
_cell_length_c   10.27586949
_cell_angle_alpha   100.49542029
_cell_angle_beta   100.49701087
_cell_angle_gamma   89.99999498
_symmetry_Int_Tables_number   1
_chemical_formula_structural   SrGd2Al2O7
_chemical_formula_sum   'Sr1 Gd2 Al2 O7'
_cell_volume   139.19416009
_cell_formula_units_Z   1
loop_
 _symmetry_equiv_pos_site_id
 _symmetry_equiv_pos_as_xyz
  1  'x, y, z'
loop_
 _atom_site_type_symbol
 _atom_site_label
 _atom_site_symmetry_multiplicity
 _atom_site_fract_x
 _atom_site_fract_y
 _atom_site_fract_z
 _atom_site_occupancy
  O  O0  1  0.895540  0.395563  0.791080  1
  O  O1  1  0.395540  0.895566  0.791080  1
  Al  Al2  1  0.095119  0.095099  0.190237  1
  O  O3  1  0.104460  0.604437  0.208920  1
  Al  Al4  1  0.904881  0.904901  0.809763  1
  O  O5  1  0.604460  0.104434  0.208919  1
  Sr  Sr6  1  0.500000  0.500000  1.000000  1
  Gd  Gd7  1  0.681734  0.681729  0.363467  1
  Gd  Gd8  1  0.318267  0.318273  0.636533  1
  O  O9  1  0.796160  0.796184  0.592319  1
  O  O10  1  0.203840  0.203813  0.407680  1
  O  O11  1  -0.000000  0.000001  -0.000000  1
