# generated using pymatgen
data_Li2Al(BO2)5
_symmetry_space_group_name_H-M   'P 1'
_cell_length_a   7.14452276
_cell_length_b   7.15182197
_cell_length_c   15.08941747
_cell_angle_alpha   90.00000000
_cell_angle_beta   90.00000000
_cell_angle_gamma   90.85678206
_symmetry_Int_Tables_number   1
_chemical_formula_structural   Li2Al(BO2)5
_chemical_formula_sum   'Li8 Al4 B20 O40'
_cell_volume   770.92802667
_cell_formula_units_Z   4
loop_
 _symmetry_equiv_pos_site_id
 _symmetry_equiv_pos_as_xyz
  1  'x, y, z'
loop_
 _atom_site_type_symbol
 _atom_site_label
 _atom_site_symmetry_multiplicity
 _atom_site_fract_x
 _atom_site_fract_y
 _atom_site_fract_z
 _atom_site_occupancy
  Li  Li0  1  0.103302  0.996958  0.172072  1
  Li  Li1  1  0.698044  0.914654  0.429212  1
  Li  Li2  1  0.103302  0.496958  0.327928  1
  Li  Li3  1  0.301956  0.085346  0.570788  1
  Li  Li4  1  0.896698  0.503042  0.672072  1
  Li  Li5  1  0.896698  0.003042  0.827928  1
  Li  Li6  1  0.301956  0.585346  0.929212  1
  Li  Li7  1  0.698044  0.414654  0.070788  1
  Al  Al8  1  0.150598  0.037155  0.375756  1
  Al  Al9  1  0.849402  0.962845  0.624244  1
  Al  Al10  1  0.150598  0.537155  0.124244  1
  Al  Al11  1  0.849402  0.462845  0.875756  1
  B  B12  1  0.757373  0.766288  0.999391  1
  B  B13  1  0.202811  0.400723  0.472091  1
  B  B14  1  0.680248  0.991820  0.120183  1
  B  B15  1  0.542380  0.999693  0.753015  1
  B  B16  1  0.542380  0.499693  0.746985  1
  B  B17  1  0.242627  0.233712  0.000609  1
  B  B18  1  0.457620  0.500307  0.253015  1
  B  B19  1  0.680248  0.491820  0.379817  1
  B  B20  1  0.790689  0.980939  0.278895  1
  B  B21  1  0.242627  0.733712  0.499391  1
  B  B22  1  0.757373  0.266288  0.500609  1
  B  B23  1  0.202811  0.900723  0.027909  1
  B  B24  1  0.790689  0.480939  0.221105  1
  B  B25  1  0.319752  0.508180  0.620183  1
  B  B26  1  0.209311  0.519061  0.778895  1
  B  B27  1  0.797189  0.599277  0.527909  1
  B  B28  1  0.319752  0.008180  0.879817  1
  B  B29  1  0.797189  0.099277  0.972091  1
  B  B30  1  0.457620  0.000307  0.246985  1
  B  B31  1  0.209311  0.019061  0.721105  1
  O  O32  1  0.396929  0.537323  0.806995  1
  O  O33  1  0.078880  0.029168  0.655489  1
  O  O34  1  0.833402  0.412396  0.551957  1
  O  O35  1  0.502028  0.975628  0.840213  1
  O  O36  1  0.760479  0.085920  0.531899  1
  O  O37  1  0.847546  0.227452  0.909572  1
  O  O38  1  0.239521  0.914080  0.468101  1
  O  O39  1  0.281090  0.859192  0.947663  1
  O  O40  1  0.603071  0.962677  0.306995  1
  O  O41  1  0.681962  0.305270  0.420363  1
  O  O42  1  0.921120  0.470832  0.155489  1
  O  O43  1  0.603071  0.462677  0.193005  1
  O  O44  1  0.718910  0.640808  0.447663  1
  O  O45  1  0.167967  0.995741  0.809138  1
  O  O46  1  0.152454  0.272548  0.409572  1
  O  O47  1  0.166598  0.087604  0.051957  1
  O  O48  1  0.681962  0.805270  0.079637  1
  O  O49  1  0.921120  0.970832  0.344511  1
  O  O50  1  0.847546  0.727452  0.590428  1
  O  O51  1  0.832033  0.504259  0.309138  1
  O  O52  1  0.318038  0.694730  0.579637  1
  O  O53  1  0.723144  0.486511  0.775911  1
  O  O54  1  0.318038  0.194730  0.920363  1
  O  O55  1  0.078880  0.529168  0.844511  1
  O  O56  1  0.502028  0.475628  0.659787  1
  O  O57  1  0.832033  0.004259  0.190862  1
  O  O58  1  0.276856  0.513489  0.224089  1
  O  O59  1  0.239521  0.414080  0.031899  1
  O  O60  1  0.166598  0.587604  0.448043  1
  O  O61  1  0.833402  0.912396  0.948043  1
  O  O62  1  0.497972  0.024372  0.159787  1
  O  O63  1  0.497972  0.524372  0.340213  1
  O  O64  1  0.276856  0.013489  0.275911  1
  O  O65  1  0.167967  0.495741  0.690862  1
  O  O66  1  0.723144  0.986511  0.724089  1
  O  O67  1  0.281090  0.359192  0.552337  1
  O  O68  1  0.396929  0.037323  0.693005  1
  O  O69  1  0.760479  0.585920  0.968101  1
  O  O70  1  0.718910  0.140808  0.052337  1
  O  O71  1  0.152454  0.772548  0.090428  1
