# generated using pymatgen
data_CdN6
_symmetry_space_group_name_H-M   'P 1'
_cell_length_a   6.59566693
_cell_length_b   7.94095854
_cell_length_c   16.26776658
_cell_angle_alpha   90.00000000
_cell_angle_beta   90.00000000
_cell_angle_gamma   90.00000000
_symmetry_Int_Tables_number   1
_chemical_formula_structural   CdN6
_chemical_formula_sum   'Cd8 N48'
_cell_volume   852.03920250
_cell_formula_units_Z   8
loop_
 _symmetry_equiv_pos_site_id
 _symmetry_equiv_pos_as_xyz
  1  'x, y, z'
loop_
 _atom_site_type_symbol
 _atom_site_label
 _atom_site_symmetry_multiplicity
 _atom_site_fract_x
 _atom_site_fract_y
 _atom_site_fract_z
 _atom_site_occupancy
  Cd  Cd0  1  0.078416  0.576488  0.395039  1
  Cd  Cd1  1  0.921584  0.423512  0.604961  1
  Cd  Cd2  1  0.921584  0.923512  0.895039  1
  Cd  Cd3  1  0.078416  0.076488  0.104961  1
  Cd  Cd4  1  0.421584  0.076488  0.604961  1
  Cd  Cd5  1  0.578416  0.923512  0.395039  1
  Cd  Cd6  1  0.578416  0.423512  0.104961  1
  Cd  Cd7  1  0.421584  0.576488  0.895039  1
  N  N8  1  0.822627  0.620951  0.789948  1
  N  N9  1  0.262761  0.811472  0.346302  1
  N  N10  1  0.237239  0.311472  0.653698  1
  N  N11  1  0.398344  0.940258  0.083881  1
  N  N12  1  0.898344  0.559742  0.083881  1
  N  N13  1  0.079234  0.303468  0.941194  1
  N  N14  1  0.601656  0.059742  0.916119  1
  N  N15  1  0.762761  0.188528  0.153698  1
  N  N16  1  0.177373  0.879049  0.289948  1
  N  N17  1  0.601656  0.559742  0.583881  1
  N  N18  1  0.898344  0.059742  0.416119  1
  N  N19  1  0.101656  0.440258  0.916119  1
  N  N20  1  0.822627  0.120951  0.710052  1
  N  N21  1  0.087303  0.942693  0.236814  1
  N  N22  1  0.322627  0.879049  0.789948  1
  N  N23  1  0.087303  0.442693  0.263186  1
  N  N24  1  0.737239  0.188528  0.653698  1
  N  N25  1  0.447323  0.663896  0.033139  1
  N  N26  1  0.762761  0.688528  0.346302  1
  N  N27  1  0.420766  0.803468  0.058806  1
  N  N28  1  0.579234  0.696532  0.558806  1
  N  N29  1  0.447323  0.163896  0.466861  1
  N  N30  1  0.237239  0.811472  0.846302  1
  N  N31  1  0.579234  0.196532  0.941194  1
  N  N32  1  0.677373  0.620951  0.289948  1
  N  N33  1  0.947323  0.336104  0.466861  1
  N  N34  1  0.912697  0.557307  0.736814  1
  N  N35  1  0.737239  0.688528  0.846302  1
  N  N36  1  0.262761  0.311472  0.153698  1
  N  N37  1  0.322627  0.379049  0.710052  1
  N  N38  1  0.052677  0.663896  0.533139  1
  N  N39  1  0.587303  0.057307  0.263186  1
  N  N40  1  0.947323  0.836104  0.033139  1
  N  N41  1  0.677373  0.120951  0.210052  1
  N  N42  1  0.412697  0.942693  0.736814  1
  N  N43  1  0.587303  0.557307  0.236814  1
  N  N44  1  0.920766  0.196532  0.441194  1
  N  N45  1  0.420766  0.303468  0.441194  1
  N  N46  1  0.177373  0.379049  0.210052  1
  N  N47  1  0.552677  0.836104  0.533139  1
  N  N48  1  0.552677  0.336104  0.966861  1
  N  N49  1  0.398344  0.440258  0.416119  1
  N  N50  1  0.912697  0.057307  0.763186  1
  N  N51  1  0.079234  0.803468  0.558806  1
  N  N52  1  0.052677  0.163896  0.966861  1
  N  N53  1  0.412697  0.442693  0.763186  1
  N  N54  1  0.920766  0.696532  0.058806  1
  N  N55  1  0.101656  0.940258  0.583881  1
