# generated using pymatgen
data_CsFe(SO4)2
_symmetry_space_group_name_H-M   'P 1'
_cell_length_a   4.83404879
_cell_length_b   4.83404841
_cell_length_c   9.09215143
_cell_angle_alpha   90.00000000
_cell_angle_beta   90.00000000
_cell_angle_gamma   120.00000265
_symmetry_Int_Tables_number   1
_chemical_formula_structural   CsFe(SO4)2
_chemical_formula_sum   'Cs1 Fe1 S2 O8'
_cell_volume   184.00062795
_cell_formula_units_Z   1
loop_
 _symmetry_equiv_pos_site_id
 _symmetry_equiv_pos_as_xyz
  1  'x, y, z'
loop_
 _atom_site_type_symbol
 _atom_site_label
 _atom_site_symmetry_multiplicity
 _atom_site_fract_x
 _atom_site_fract_y
 _atom_site_fract_z
 _atom_site_occupancy
  Cs  Cs0  1  0.000000  0.000000  0.500000  1
  Fe  Fe1  1  0.000000  0.000000  0.000000  1
  S  S2  1  0.333333  0.666667  0.181602  1
  S  S3  1  0.666667  0.333333  0.818398  1
  O  O4  1  0.704958  0.060916  0.871758  1
  O  O5  1  0.355959  0.295042  0.871758  1
  O  O6  1  0.060916  0.355959  0.128242  1
  O  O7  1  0.666667  0.333333  0.657159  1
  O  O8  1  0.333333  0.666667  0.342841  1
  O  O9  1  0.295042  0.939084  0.128242  1
  O  O10  1  0.939084  0.644041  0.871758  1
  O  O11  1  0.644041  0.704958  0.128242  1
