# generated using pymatgen
data_CsNb(PO4)2
_symmetry_space_group_name_H-M   'P 1'
_cell_length_a   4.99503325
_cell_length_b   9.04871502
_cell_length_c   18.81594628
_cell_angle_alpha   90.00000000
_cell_angle_beta   95.42563728
_cell_angle_gamma   90.00000000
_symmetry_Int_Tables_number   1
_chemical_formula_structural   CsNb(PO4)2
_chemical_formula_sum   'Cs4 Nb4 P8 O32'
_cell_volume   846.64479295
_cell_formula_units_Z   4
loop_
 _symmetry_equiv_pos_site_id
 _symmetry_equiv_pos_as_xyz
  1  'x, y, z'
loop_
 _atom_site_type_symbol
 _atom_site_label
 _atom_site_symmetry_multiplicity
 _atom_site_fract_x
 _atom_site_fract_y
 _atom_site_fract_z
 _atom_site_occupancy
  Cs  Cs0  1  0.224881  0.289551  0.060577  1
  Cs  Cs1  1  0.275119  0.789551  0.439423  1
  Cs  Cs2  1  0.775119  0.710449  0.939423  1
  Cs  Cs3  1  0.724881  0.210449  0.560577  1
  Nb  Nb4  1  0.829095  0.942775  0.167975  1
  Nb  Nb5  1  0.670905  0.442775  0.332025  1
  Nb  Nb6  1  0.170905  0.057225  0.832025  1
  Nb  Nb7  1  0.329095  0.557225  0.667975  1
  P  P8  1  0.298438  0.715381  0.107316  1
  P  P9  1  0.201562  0.215381  0.392684  1
  P  P10  1  0.701562  0.284619  0.892684  1
  P  P11  1  0.798438  0.784619  0.607316  1
  P  P12  1  0.115390  0.619242  0.242493  1
  P  P13  1  0.384610  0.119242  0.257507  1
  P  P14  1  0.884610  0.380758  0.757507  1
  P  P15  1  0.615390  0.880758  0.742493  1
  O  O16  1  0.693898  0.066828  0.102248  1
  O  O17  1  0.806102  0.566828  0.397752  1
  O  O18  1  0.306102  0.933172  0.897752  1
  O  O19  1  0.193898  0.433172  0.602248  1
  O  O20  1  0.567541  0.773045  0.144625  1
  O  O21  1  0.932459  0.273045  0.355375  1
  O  O22  1  0.432459  0.226955  0.855375  1
  O  O23  1  0.067541  0.726955  0.644625  1
  O  O24  1  0.086985  0.841773  0.103908  1
  O  O25  1  0.413015  0.341773  0.396092  1
  O  O26  1  0.913015  0.158227  0.896092  1
  O  O27  1  0.586985  0.658227  0.603908  1
  O  O28  1  0.316587  0.638173  0.038009  1
  O  O29  1  0.183413  0.138173  0.461991  1
  O  O30  1  0.683413  0.361827  0.961991  1
  O  O31  1  0.816587  0.861827  0.538009  1
  O  O32  1  0.195523  0.591219  0.162267  1
  O  O33  1  0.304477  0.091219  0.337733  1
  O  O34  1  0.804477  0.408781  0.837733  1
  O  O35  1  0.695523  0.908781  0.662267  1
  O  O36  1  0.030064  0.778277  0.249788  1
  O  O37  1  0.469936  0.278277  0.250212  1
  O  O38  1  0.969936  0.221723  0.750212  1
  O  O39  1  0.530064  0.721723  0.749788  1
  O  O40  1  0.609545  0.004857  0.249553  1
  O  O41  1  0.890455  0.504857  0.250447  1
  O  O42  1  0.390455  0.995143  0.750447  1
  O  O43  1  0.109545  0.495143  0.749553  1
  O  O44  1  0.135497  0.081919  0.205989  1
  O  O45  1  0.364503  0.581919  0.294011  1
  O  O46  1  0.864503  0.918081  0.794011  1
  O  O47  1  0.635497  0.418081  0.705989  1
