# generated using pymatgen
data_RbCuC2
_symmetry_space_group_name_H-M   'P 1'
_cell_length_a   4.93113188
_cell_length_b   4.93113188
_cell_length_c   8.49262962
_cell_angle_alpha   90.00000000
_cell_angle_beta   90.00000000
_cell_angle_gamma   90.00000000
_symmetry_Int_Tables_number   1
_chemical_formula_structural   RbCuC2
_chemical_formula_sum   'Rb2 Cu2 C4'
_cell_volume   206.50730514
_cell_formula_units_Z   2
loop_
 _symmetry_equiv_pos_site_id
 _symmetry_equiv_pos_as_xyz
  1  'x, y, z'
loop_
 _atom_site_type_symbol
 _atom_site_label
 _atom_site_symmetry_multiplicity
 _atom_site_fract_x
 _atom_site_fract_y
 _atom_site_fract_z
 _atom_site_occupancy
  C  C0  1  0.872757  0.500000  0.500000  1
  C  C1  1  0.500000  0.872757  0.000000  1
  C  C2  1  0.127243  0.500000  0.500000  1
  C  C3  1  0.500000  0.127243  0.000000  1
  Cu  Cu4  1  0.500000  0.500000  0.000000  1
  Cu  Cu5  1  0.500000  0.500000  0.500000  1
  Rb  Rb6  1  0.000000  0.000000  0.750000  1
  Rb  Rb7  1  0.000000  0.000000  0.250000  1
