# generated using pymatgen
data_Nb2Te4O13
_symmetry_space_group_name_H-M   'P 1'
_cell_length_a   7.71823055
_cell_length_b   12.96306811
_cell_length_c   13.00591108
_cell_angle_alpha   116.18287822
_cell_angle_beta   90.30261610
_cell_angle_gamma   90.18917217
_symmetry_Int_Tables_number   1
_chemical_formula_structural   Nb2Te4O13
_chemical_formula_sum   'Nb8 Te16 O52'
_cell_volume   1167.70482238
_cell_formula_units_Z   4
loop_
 _symmetry_equiv_pos_site_id
 _symmetry_equiv_pos_as_xyz
  1  'x, y, z'
loop_
 _atom_site_type_symbol
 _atom_site_label
 _atom_site_symmetry_multiplicity
 _atom_site_fract_x
 _atom_site_fract_y
 _atom_site_fract_z
 _atom_site_occupancy
  Te  Te0  1  0.446536  0.765946  0.288855  1
  Te  Te1  1  0.553464  0.234054  0.711145  1
  Te  Te2  1  0.120052  0.948882  0.759529  1
  Te  Te3  1  0.879948  0.051118  0.240471  1
  Te  Te4  1  0.621822  0.468206  0.299400  1
  Te  Te5  1  0.378178  0.531794  0.700600  1
  Te  Te6  1  0.371747  0.014708  0.199962  1
  Te  Te7  1  0.628253  0.985292  0.800038  1
  Te  Te8  1  0.875438  0.551978  0.723112  1
  Te  Te9  1  0.124562  0.448022  0.276888  1
  Te  Te10  1  0.970868  0.268545  0.809515  1
  Te  Te11  1  0.029132  0.731455  0.190485  1
  Te  Te12  1  0.211938  0.052667  0.520601  1
  Te  Te13  1  0.788062  0.947333  0.479399  1
  Te  Te14  1  0.699111  0.547623  0.011384  1
  Te  Te15  1  0.300889  0.452377  0.988616  1
  Nb  Nb16  1  0.604241  0.280917  0.464285  1
  Nb  Nb17  1  0.395759  0.719083  0.535715  1
  Nb  Nb18  1  0.355477  0.201881  0.037445  1
  Nb  Nb19  1  0.644523  0.798119  0.962555  1
  Nb  Nb20  1  0.105704  0.296376  0.472974  1
  Nb  Nb21  1  0.894296  0.703624  0.527026  1
  Nb  Nb22  1  0.143587  0.791191  0.951420  1
  Nb  Nb23  1  0.856413  0.208809  0.048580  1
  O  O24  1  0.606943  0.382824  0.385543  1
  O  O25  1  0.393057  0.617176  0.614457  1
  O  O26  1  0.124734  0.401888  0.853999  1
  O  O27  1  0.875266  0.598112  0.146001  1
  O  O28  1  0.386263  0.122867  0.132914  1
  O  O29  1  0.613737  0.877133  0.867086  1
  O  O30  1  0.308190  0.361174  0.175550  1
  O  O31  1  0.691810  0.638826  0.824450  1
  O  O32  1  0.105015  0.691568  0.038086  1
  O  O33  1  0.894985  0.308432  0.961914  1
  O  O34  1  0.053201  0.005339  0.601899  1
  O  O35  1  0.946799  0.994661  0.398101  1
  O  O36  1  0.130972  0.880962  0.863788  1
  O  O37  1  0.869028  0.119038  0.136212  1
  O  O38  1  0.930736  0.851352  0.675537  1
  O  O39  1  0.069264  0.148648  0.324463  1
  O  O40  1  0.064028  0.647906  0.809909  1
  O  O41  1  0.935972  0.352094  0.190091  1
  O  O42  1  0.540043  0.511776  0.102476  1
  O  O43  1  0.459957  0.488224  0.897524  1
  O  O44  1  0.310368  0.857919  0.671009  1
  O  O45  1  0.689632  0.142081  0.328991  1
  O  O46  1  0.852841  0.617232  0.619899  1
  O  O47  1  0.147159  0.382768  0.380101  1
  O  O48  1  0.187065  0.435866  0.614670  1
  O  O49  1  0.812935  0.564134  0.385330  1
  O  O50  1  0.121093  0.205261  0.566436  1
  O  O51  1  0.878907  0.794739  0.433564  1
  O  O52  1  0.303600  0.862847  0.251143  1
  O  O53  1  0.696400  0.137153  0.748857  1
  O  O54  1  0.633686  0.703927  0.059164  1
  O  O55  1  0.366314  0.296073  0.940836  1
  O  O56  1  0.208719  0.655746  0.230322  1
  O  O57  1  0.791281  0.344254  0.769678  1
  O  O58  1  0.364722  0.809899  0.442705  1
  O  O59  1  0.635278  0.190101  0.557295  1
  O  O60  1  0.437531  0.071180  0.890777  1
  O  O61  1  0.562469  0.928820  0.109223  1
  O  O62  1  0.874108  0.328537  0.501083  1
  O  O63  1  0.125892  0.671463  0.498917  1
  O  O64  1  0.875961  0.831867  0.994580  1
  O  O65  1  0.124039  0.168133  0.005420  1
  O  O66  1  0.178851  0.936059  0.102244  1
  O  O67  1  0.821149  0.063941  0.897756  1
  O  O68  1  0.376308  0.100857  0.649067  1
  O  O69  1  0.623692  0.899143  0.350933  1
  O  O70  1  0.372675  0.244988  0.436247  1
  O  O71  1  0.627325  0.755012  0.563753  1
  O  O72  1  0.374465  0.753910  0.927899  1
  O  O73  1  0.625535  0.246090  0.072101  1
  O  O74  1  0.442528  0.577040  0.378910  1
  O  O75  1  0.557472  0.422960  0.621090  1
