# generated using pymatgen
data_Sr2ZnReO6
_symmetry_space_group_name_H-M   'P 1'
_cell_length_a   5.64432255
_cell_length_b   5.64464018
_cell_length_c   5.68440855
_cell_angle_alpha   119.77752314
_cell_angle_beta   119.77476833
_cell_angle_gamma   89.98647214
_symmetry_Int_Tables_number   1
_chemical_formula_structural   Sr2ZnReO6
_chemical_formula_sum   'Sr2 Zn1 Re1 O6'
_cell_volume   128.93798708
_cell_formula_units_Z   1
loop_
 _symmetry_equiv_pos_site_id
 _symmetry_equiv_pos_as_xyz
  1  'x, y, z'
loop_
 _atom_site_type_symbol
 _atom_site_label
 _atom_site_symmetry_multiplicity
 _atom_site_fract_x
 _atom_site_fract_y
 _atom_site_fract_z
 _atom_site_occupancy
  O  O0  1  0.259806  0.259819  0.519620  1
  O  O1  1  0.740203  0.740193  0.480402  1
  O  O2  1  0.297806  0.222847  0.000014  1
  O  O3  1  0.702175  0.777139  0.999989  1
  O  O4  1  0.222894  0.702163  0.999995  1
  Sr  Sr5  1  0.749972  0.249985  0.499967  1
  O  O6  1  0.777079  0.297851  0.000007  1
  Sr  Sr7  1  0.250022  0.750030  0.500052  1
  Re  Re8  1  0.500041  0.499979  -0.000044  1
  Zn  Zn9  1  0.000002  0.999995  0.999998  1
