# generated using pymatgen
data_CoAu2(CN)4
_symmetry_space_group_name_H-M   'P 1'
_cell_length_a   8.65421238
_cell_length_b   8.65421215
_cell_length_c   20.22403883
_cell_angle_alpha   90.00000000
_cell_angle_beta   90.00000000
_cell_angle_gamma   120.00000090
_symmetry_Int_Tables_number   1
_chemical_formula_structural   CoAu2(CN)4
_chemical_formula_sum   'Co6 Au12 C24 N24'
_cell_volume   1311.75764561
_cell_formula_units_Z   6
loop_
 _symmetry_equiv_pos_site_id
 _symmetry_equiv_pos_as_xyz
  1  'x, y, z'
loop_
 _atom_site_type_symbol
 _atom_site_label
 _atom_site_symmetry_multiplicity
 _atom_site_fract_x
 _atom_site_fract_y
 _atom_site_fract_z
 _atom_site_occupancy
  Co  Co0  1  0.500000  0.500000  0.292384  1
  Co  Co1  1  0.000000  0.500000  0.707616  1
  Co  Co2  1  0.500000  0.000000  0.374283  1
  Co  Co3  1  0.000000  0.500000  0.959050  1
  Co  Co4  1  0.500000  0.500000  0.040950  1
  Co  Co5  1  0.500000  0.000000  0.625717  1
  Au  Au6  1  -0.001542  0.682917  0.459710  1
  Au  Au7  1  0.684459  0.682917  0.540290  1
  Au  Au8  1  -0.001542  0.315541  0.206956  1
  Au  Au9  1  0.682917  0.684459  0.793044  1
  Au  Au10  1  0.684459  1.001542  0.126377  1
  Au  Au11  1  1.001542  0.684459  0.206956  1
  Au  Au12  1  1.001542  0.317083  0.459710  1
  Au  Au13  1  0.315541  0.317083  0.540290  1
  Au  Au14  1  0.682917  -0.001542  0.873623  1
  Au  Au15  1  0.315541  -0.001542  0.126377  1
  Au  Au16  1  0.317083  1.001542  0.873623  1
  Au  Au17  1  0.317083  0.315541  0.793044  1
  C  C18  1  0.814939  0.603089  0.388639  1
  C  C19  1  0.214296  0.813382  0.804159  1
  C  C20  1  0.813382  0.599086  0.137492  1
  C  C21  1  0.813382  0.214296  0.529174  1
  C  C22  1  0.603089  0.788151  0.721973  1
  C  C23  1  0.788151  0.185061  0.055306  1
  C  C24  1  0.186618  0.400914  0.137492  1
  C  C25  1  0.211849  0.396911  0.611361  1
  C  C26  1  0.396911  0.185061  0.944694  1
  C  C27  1  0.185061  0.788151  0.278027  1
  C  C28  1  0.785704  0.599086  0.862508  1
  C  C29  1  0.599086  0.785704  0.470826  1
  C  C30  1  0.603089  0.814939  0.944694  1
  C  C31  1  0.400914  0.214296  0.470826  1
  C  C32  1  0.599086  0.813382  0.195841  1
  C  C33  1  0.788151  0.603089  0.611361  1
  C  C34  1  0.214296  0.400914  0.862508  1
  C  C35  1  0.400914  0.186618  0.195841  1
  C  C36  1  0.814939  0.211849  0.278027  1
  C  C37  1  0.785704  0.186618  0.804159  1
  C  C38  1  0.211849  0.814939  0.055306  1
  C  C39  1  0.185061  0.396911  0.388639  1
  C  C40  1  0.186618  0.785704  0.529174  1
  C  C41  1  0.396911  0.211849  0.721973  1
  N  N42  1  0.561287  0.859278  0.682372  1
  N  N43  1  0.438713  0.140723  0.682372  1
  N  N44  1  0.859278  0.561287  0.650962  1
  N  N45  1  0.298980  0.443879  0.097591  1
  N  N46  1  0.701020  0.144899  0.569075  1
  N  N47  1  0.701020  0.556121  0.097591  1
  N  N48  1  0.140723  0.438713  0.650962  1
  N  N49  1  0.556121  0.855101  0.430925  1
  N  N50  1  0.140723  0.702010  0.015705  1
  N  N51  1  0.443879  0.298980  0.235742  1
  N  N52  1  0.855101  0.556121  0.902409  1
  N  N53  1  0.144899  0.443879  0.902409  1
  N  N54  1  0.556121  0.701020  0.235742  1
  N  N55  1  0.702010  0.140723  0.317628  1
  N  N56  1  0.297990  0.438713  0.349038  1
  N  N57  1  0.443879  0.144899  0.430925  1
  N  N58  1  0.855101  0.298980  0.764258  1
  N  N59  1  0.702010  0.561287  0.349038  1
  N  N60  1  0.859278  0.297990  0.015705  1
  N  N61  1  0.438713  0.297990  0.984295  1
  N  N62  1  0.298980  0.855101  0.569075  1
  N  N63  1  0.561287  0.702010  0.984295  1
  N  N64  1  0.144899  0.701020  0.764258  1
  N  N65  1  0.297990  0.859278  0.317628  1
