# generated using pymatgen
data_PSN(Cl2O)2
_symmetry_space_group_name_H-M   'P 1'
_cell_length_a   7.81792120
_cell_length_b   11.41165964
_cell_length_c   20.27572524
_cell_angle_alpha   90.00000000
_cell_angle_beta   90.00000000
_cell_angle_gamma   90.00000000
_symmetry_Int_Tables_number   1
_chemical_formula_structural   PSN(Cl2O)2
_chemical_formula_sum   'P8 S8 N8 Cl32 O16'
_cell_volume   1808.90806950
_cell_formula_units_Z   8
loop_
 _symmetry_equiv_pos_site_id
 _symmetry_equiv_pos_as_xyz
  1  'x, y, z'
loop_
 _atom_site_type_symbol
 _atom_site_label
 _atom_site_symmetry_multiplicity
 _atom_site_fract_x
 _atom_site_fract_y
 _atom_site_fract_z
 _atom_site_occupancy
  P  P0  1  0.890462  0.187330  0.896421  1
  P  P1  1  0.609538  0.687330  0.896421  1
  P  P2  1  0.609538  0.812670  0.396421  1
  P  P3  1  0.890462  0.312670  0.396421  1
  P  P4  1  0.390462  0.187330  0.603579  1
  P  P5  1  0.109538  0.687330  0.603579  1
  P  P6  1  0.109538  0.812670  0.103579  1
  P  P7  1  0.390462  0.312670  0.103579  1
  S  S8  1  0.384626  0.487411  0.886283  1
  S  S9  1  0.884626  0.487411  0.613717  1
  S  S10  1  0.615374  0.987411  0.613717  1
  S  S11  1  0.384626  0.012589  0.386283  1
  S  S12  1  0.115374  0.512589  0.386283  1
  S  S13  1  0.115374  0.987411  0.886283  1
  S  S14  1  0.615374  0.512589  0.113717  1
  S  S15  1  0.884626  0.012589  0.113717  1
  N  N16  1  0.543673  0.106065  0.582949  1
  N  N17  1  0.043673  0.106065  0.917051  1
  N  N18  1  0.956327  0.893935  0.082949  1
  N  N19  1  0.456327  0.606065  0.917051  1
  N  N20  1  0.543673  0.393935  0.082949  1
  N  N21  1  0.043673  0.393935  0.417051  1
  N  N22  1  0.456327  0.893935  0.417051  1
  N  N23  1  0.956327  0.606065  0.582949  1
  Cl  Cl24  1  0.428685  0.220253  0.185821  1
  Cl  Cl25  1  0.244819  0.043221  0.801150  1
  Cl  Cl26  1  0.335279  0.890653  0.117015  1
  Cl  Cl27  1  0.244819  0.456779  0.301150  1
  Cl  Cl28  1  0.642677  0.802203  0.967937  1
  Cl  Cl29  1  0.164721  0.390653  0.117015  1
  Cl  Cl30  1  0.142677  0.697797  0.032063  1
  Cl  Cl31  1  0.335279  0.609347  0.617015  1
  Cl  Cl32  1  0.755181  0.956779  0.198850  1
  Cl  Cl33  1  0.928685  0.220253  0.314179  1
  Cl  Cl34  1  0.071315  0.779747  0.685821  1
  Cl  Cl35  1  0.928685  0.279747  0.814179  1
  Cl  Cl36  1  0.744819  0.456779  0.198850  1
  Cl  Cl37  1  0.642677  0.697797  0.467937  1
  Cl  Cl38  1  0.857323  0.302203  0.967937  1
  Cl  Cl39  1  0.255181  0.543221  0.801150  1
  Cl  Cl40  1  0.571315  0.720253  0.314179  1
  Cl  Cl41  1  0.835279  0.890653  0.382985  1
  Cl  Cl42  1  0.142677  0.802203  0.532063  1
  Cl  Cl43  1  0.255181  0.956779  0.301150  1
  Cl  Cl44  1  0.835279  0.609347  0.882985  1
  Cl  Cl45  1  0.744819  0.043221  0.698850  1
  Cl  Cl46  1  0.357323  0.197797  0.032063  1
  Cl  Cl47  1  0.664721  0.390653  0.382985  1
  Cl  Cl48  1  0.357323  0.302203  0.532063  1
  Cl  Cl49  1  0.755181  0.543221  0.698850  1
  Cl  Cl50  1  0.164721  0.109347  0.617015  1
  Cl  Cl51  1  0.857323  0.197797  0.467937  1
  Cl  Cl52  1  0.071315  0.720253  0.185821  1
  Cl  Cl53  1  0.664721  0.109347  0.882985  1
  Cl  Cl54  1  0.571315  0.779747  0.814179  1
  Cl  Cl55  1  0.428685  0.279747  0.685821  1
  O  O56  1  0.484538  0.909205  0.637460  1
  O  O57  1  0.515462  0.409205  0.862540  1
  O  O58  1  0.247886  0.555437  0.429114  1
  O  O59  1  0.984538  0.590795  0.362540  1
  O  O60  1  0.252114  0.055437  0.429114  1
  O  O61  1  0.515462  0.090795  0.362540  1
  O  O62  1  0.984538  0.909205  0.862540  1
  O  O63  1  0.747886  0.555437  0.070886  1
  O  O64  1  0.752114  0.444563  0.570886  1
  O  O65  1  0.747886  0.944563  0.570886  1
  O  O66  1  0.015462  0.409205  0.637460  1
  O  O67  1  0.015462  0.090795  0.137460  1
  O  O68  1  0.484538  0.590795  0.137460  1
  O  O69  1  0.252114  0.444563  0.929114  1
  O  O70  1  0.752114  0.055437  0.070886  1
  O  O71  1  0.247886  0.944563  0.929114  1
