# generated using pymatgen
data_CsAuN12
_symmetry_space_group_name_H-M   'P 1'
_cell_length_a   7.68339355
_cell_length_b   7.68339301
_cell_length_c   8.88424965
_cell_angle_alpha   90.83920687
_cell_angle_beta   90.83920661
_cell_angle_gamma   93.59807093
_symmetry_Int_Tables_number   1
_chemical_formula_structural   CsAuN12
_chemical_formula_sum   'Cs2 Au2 N24'
_cell_volume   523.32387497
_cell_formula_units_Z   2
loop_
 _symmetry_equiv_pos_site_id
 _symmetry_equiv_pos_as_xyz
  1  'x, y, z'
loop_
 _atom_site_type_symbol
 _atom_site_label
 _atom_site_symmetry_multiplicity
 _atom_site_fract_x
 _atom_site_fract_y
 _atom_site_fract_z
 _atom_site_occupancy
  Cs  Cs0  1  0.084428  0.915572  0.750000  1
  Cs  Cs1  1  0.915572  0.084428  0.250000  1
  Au  Au2  1  0.493353  0.506647  0.750000  1
  Au  Au3  1  0.506647  0.493353  0.250000  1
  N  N4  1  0.699350  0.896631  0.533320  1
  N  N5  1  0.896631  0.699350  0.033320  1
  N  N6  1  0.820422  0.392172  0.637827  1
  N  N7  1  0.179578  0.607828  0.362173  1
  N  N8  1  0.470000  0.760314  0.674090  1
  N  N9  1  0.478952  0.254336  0.826547  1
  N  N10  1  0.280509  0.906269  0.100531  1
  N  N11  1  0.300650  0.103369  0.466680  1
  N  N12  1  0.239686  0.530000  0.825910  1
  N  N13  1  0.589929  0.825577  0.602265  1
  N  N14  1  0.607828  0.179578  0.862173  1
  N  N15  1  0.392172  0.820422  0.137827  1
  N  N16  1  0.174423  0.410071  0.897735  1
  N  N17  1  0.410071  0.174423  0.397735  1
  N  N18  1  0.103369  0.300650  0.966680  1
  N  N19  1  0.719491  0.093731  0.899469  1
  N  N20  1  0.093731  0.719491  0.399469  1
  N  N21  1  0.745664  0.521048  0.673453  1
  N  N22  1  0.530000  0.239686  0.325910  1
  N  N23  1  0.760314  0.470000  0.174090  1
  N  N24  1  0.825577  0.589929  0.102265  1
  N  N25  1  0.906269  0.280509  0.600531  1
  N  N26  1  0.254336  0.478952  0.326547  1
  N  N27  1  0.521048  0.745664  0.173453  1
