# generated using pymatgen
data_KNiAu3(CN)6
_symmetry_space_group_name_H-M   'P 1'
_cell_length_a   7.00736717
_cell_length_b   7.00736679
_cell_length_c   7.59430566
_cell_angle_alpha   90.00000000
_cell_angle_beta   90.00000000
_cell_angle_gamma   120.00000173
_symmetry_Int_Tables_number   1
_chemical_formula_structural   KNiAu3(CN)6
_chemical_formula_sum   'K1 Ni1 Au3 C6 N6'
_cell_volume   322.94489359
_cell_formula_units_Z   1
loop_
 _symmetry_equiv_pos_site_id
 _symmetry_equiv_pos_as_xyz
  1  'x, y, z'
loop_
 _atom_site_type_symbol
 _atom_site_label
 _atom_site_symmetry_multiplicity
 _atom_site_fract_x
 _atom_site_fract_y
 _atom_site_fract_z
 _atom_site_occupancy
  K  K0  1  0.666667  0.333333  0.500000  1
  Ni  Ni1  1  0.000000  0.000000  0.500000  1
  Au  Au2  1  0.494568  0.505432  0.000000  1
  Au  Au3  1  0.010864  0.505432  0.000000  1
  Au  Au4  1  0.494568  0.989136  0.000000  1
  C  C5  1  0.660395  0.667467  0.785383  1
  C  C6  1  0.332533  0.339605  0.214617  1
  C  C7  1  0.660395  0.992928  0.214617  1
  C  C8  1  0.007072  0.667467  0.214617  1
  C  C9  1  0.007072  0.339605  0.785383  1
  C  C10  1  0.332533  0.992928  0.785383  1
  N  N11  1  0.764425  0.764949  0.662271  1
  N  N12  1  0.235051  0.999476  0.662271  1
  N  N13  1  0.764425  0.999476  0.337729  1
  N  N14  1  0.000524  0.764949  0.337729  1
  N  N15  1  0.235051  0.235575  0.337729  1
  N  N16  1  0.000524  0.235575  0.662271  1
