# generated using pymatgen
data_CdI2
_symmetry_space_group_name_H-M   'P 1'
_cell_length_a   4.33342308
_cell_length_b   4.33342335
_cell_length_c   78.17167642
_cell_angle_alpha   90.00000000
_cell_angle_beta   90.00000000
_cell_angle_gamma   119.99999797
_symmetry_Int_Tables_number   1
_chemical_formula_structural   CdI2
_chemical_formula_sum   'Cd10 I20'
_cell_volume   1271.28310993
_cell_formula_units_Z   10
loop_
 _symmetry_equiv_pos_site_id
 _symmetry_equiv_pos_as_xyz
  1  'x, y, z'
loop_
 _atom_site_type_symbol
 _atom_site_label
 _atom_site_symmetry_multiplicity
 _atom_site_fract_x
 _atom_site_fract_y
 _atom_site_fract_z
 _atom_site_occupancy
  Cd  Cd0  1  0.666667  0.333333  0.325009  1
  Cd  Cd1  1  0.000000  0.000000  0.724960  1
  Cd  Cd2  1  0.666667  0.333333  0.024988  1
  Cd  Cd3  1  0.666667  0.333333  0.225013  1
  Cd  Cd4  1  0.666667  0.333333  0.125027  1
  Cd  Cd5  1  0.000000  0.000000  0.525011  1
  Cd  Cd6  1  0.666667  0.333333  0.425023  1
  Cd  Cd7  1  0.000000  0.000000  0.625010  1
  Cd  Cd8  1  0.000000  0.000000  0.824991  1
  Cd  Cd9  1  0.666667  0.333333  0.925025  1
  I  I10  1  0.000000  0.000000  0.102969  1
  I  I11  1  0.333333  0.666667  0.447039  1
  I  I12  1  0.333333  0.666667  0.347014  1
  I  I13  1  0.333333  0.666667  0.947037  1
  I  I14  1  0.000000  0.000000  0.302956  1
  I  I15  1  0.666667  0.333333  0.702935  1
  I  I16  1  0.000000  0.000000  0.402983  1
  I  I17  1  0.000000  0.000000  0.202963  1
  I  I18  1  0.666667  0.333333  0.802984  1
  I  I19  1  0.000000  0.000000  0.902987  1
  I  I20  1  0.333333  0.666667  0.047011  1
  I  I21  1  0.666667  0.333333  0.602998  1
  I  I22  1  0.000000  0.000000  0.002939  1
  I  I23  1  0.333333  0.666667  0.547011  1
  I  I24  1  0.333333  0.666667  0.846988  1
  I  I25  1  0.333333  0.666667  0.247033  1
  I  I26  1  0.666667  0.333333  0.503013  1
  I  I27  1  0.333333  0.666667  0.147072  1
  I  I28  1  0.333333  0.666667  0.647032  1
  I  I29  1  0.333333  0.666667  0.746976  1
