# generated using pymatgen
data_CsLaZr6FeCl18
_symmetry_space_group_name_H-M   'P 1'
_cell_length_a   9.86218978
_cell_length_b   9.86218950
_cell_length_c   18.73291246
_cell_angle_alpha   90.00000000
_cell_angle_beta   90.00000000
_cell_angle_gamma   120.00000095
_symmetry_Int_Tables_number   1
_chemical_formula_structural   CsLaZr6FeCl18
_chemical_formula_sum   'Cs2 La2 Zr12 Fe2 Cl36'
_cell_volume   1577.91145765
_cell_formula_units_Z   2
loop_
 _symmetry_equiv_pos_site_id
 _symmetry_equiv_pos_as_xyz
  1  'x, y, z'
loop_
 _atom_site_type_symbol
 _atom_site_label
 _atom_site_symmetry_multiplicity
 _atom_site_fract_x
 _atom_site_fract_y
 _atom_site_fract_z
 _atom_site_occupancy
  Cs  Cs0  1  0.666667  0.333333  0.750000  1
  Cs  Cs1  1  0.333333  0.666667  0.250000  1
  La  La2  1  0.666667  0.333333  0.250000  1
  La  La3  1  0.333333  0.666667  0.750000  1
  Zr  Zr4  1  0.219850  0.041974  0.074864  1
  Zr  Zr5  1  0.041974  0.822124  0.925136  1
  Zr  Zr6  1  0.780150  0.958026  0.925136  1
  Zr  Zr7  1  0.219850  0.177876  0.425136  1
  Zr  Zr8  1  0.177876  0.219850  0.925136  1
  Zr  Zr9  1  0.822124  0.780150  0.074864  1
  Zr  Zr10  1  0.958026  0.177876  0.074864  1
  Zr  Zr11  1  0.822124  0.041974  0.425136  1
  Zr  Zr12  1  0.041974  0.219850  0.574864  1
  Zr  Zr13  1  0.177876  0.958026  0.574864  1
  Zr  Zr14  1  0.958026  0.780150  0.425136  1
  Zr  Zr15  1  0.780150  0.822124  0.574864  1
  Fe  Fe16  1  0.000000  0.000000  0.000000  1
  Fe  Fe17  1  0.000000  0.000000  0.500000  1
  Cl  Cl18  1  0.811774  0.767445  0.841595  1
  Cl  Cl19  1  0.580529  0.853460  0.498818  1
  Cl  Cl20  1  0.456287  0.081120  0.163355  1
  Cl  Cl21  1  0.918880  0.375167  0.163355  1
  Cl  Cl22  1  0.081120  0.456287  0.663355  1
  Cl  Cl23  1  0.767445  0.955671  0.158405  1
  Cl  Cl24  1  0.853460  0.580529  0.998818  1
  Cl  Cl25  1  0.580529  0.727069  0.001182  1
  Cl  Cl26  1  0.272931  0.419471  0.498818  1
  Cl  Cl27  1  0.767445  0.811774  0.341595  1
  Cl  Cl28  1  0.624833  0.543713  0.163355  1
  Cl  Cl29  1  0.955671  0.188226  0.841595  1
  Cl  Cl30  1  0.146540  0.419471  0.001182  1
  Cl  Cl31  1  0.188226  0.955671  0.341595  1
  Cl  Cl32  1  0.456287  0.375167  0.336645  1
  Cl  Cl33  1  0.044329  0.811774  0.158405  1
  Cl  Cl34  1  0.272931  0.853460  0.001182  1
  Cl  Cl35  1  0.232555  0.044329  0.841595  1
  Cl  Cl36  1  0.188226  0.232555  0.158405  1
  Cl  Cl37  1  0.375167  0.918880  0.663355  1
  Cl  Cl38  1  0.146540  0.727069  0.498818  1
  Cl  Cl39  1  0.232555  0.188226  0.658405  1
  Cl  Cl40  1  0.853460  0.272931  0.501182  1
  Cl  Cl41  1  0.624833  0.081120  0.336645  1
  Cl  Cl42  1  0.419471  0.272931  0.998818  1
  Cl  Cl43  1  0.955671  0.767445  0.658405  1
  Cl  Cl44  1  0.727069  0.580529  0.501182  1
  Cl  Cl45  1  0.543713  0.624833  0.663355  1
  Cl  Cl46  1  0.044329  0.232555  0.341595  1
  Cl  Cl47  1  0.419471  0.146540  0.501182  1
  Cl  Cl48  1  0.811774  0.044329  0.658405  1
  Cl  Cl49  1  0.375167  0.456287  0.836645  1
  Cl  Cl50  1  0.543713  0.918880  0.836645  1
  Cl  Cl51  1  0.081120  0.624833  0.836645  1
  Cl  Cl52  1  0.918880  0.543713  0.336645  1
  Cl  Cl53  1  0.727069  0.146540  0.998818  1
