# generated using pymatgen
data_TeCl4
_symmetry_space_group_name_H-M   'P 1'
_cell_length_a   10.53886221
_cell_length_b   10.54314505
_cell_length_c   15.55763108
_cell_angle_alpha   95.32134186
_cell_angle_beta   105.94494856
_cell_angle_gamma   117.26627674
_symmetry_Int_Tables_number   1
_chemical_formula_structural   TeCl4
_chemical_formula_sum   'Te8 Cl32'
_cell_volume   1428.31778353
_cell_formula_units_Z   8
loop_
 _symmetry_equiv_pos_site_id
 _symmetry_equiv_pos_as_xyz
  1  'x, y, z'
loop_
 _atom_site_type_symbol
 _atom_site_label
 _atom_site_symmetry_multiplicity
 _atom_site_fract_x
 _atom_site_fract_y
 _atom_site_fract_z
 _atom_site_occupancy
  Te  Te0  1  0.797721  0.840779  0.683797  1
  Te  Te1  1  0.877754  0.260005  0.613400  1
  Te  Te2  1  0.146401  0.264189  0.886708  1
  Te  Te3  1  0.853599  0.735811  0.113292  1
  Te  Te4  1  0.343096  0.885873  0.183817  1
  Te  Te5  1  0.122246  0.739995  0.386600  1
  Te  Te6  1  0.656904  0.114127  0.816183  1
  Te  Te7  1  0.202279  0.159221  0.316203  1
  Cl  Cl8  1  0.863733  0.996139  0.870306  1
  Cl  Cl9  1  0.170251  0.858245  0.538004  1
  Cl  Cl10  1  0.419163  0.365662  0.307953  1
  Cl  Cl11  1  0.513384  0.225922  0.756630  1
  Cl  Cl12  1  0.179811  0.367740  0.038145  1
  Cl  Cl13  1  0.625875  0.993707  0.629706  1
  Cl  Cl14  1  0.104825  0.475836  0.626170  1
  Cl  Cl15  1  0.374125  0.006293  0.370294  1
  Cl  Cl16  1  0.281323  0.781517  0.026192  1
  Cl  Cl17  1  0.055593  0.121294  0.689985  1
  Cl  Cl18  1  0.650430  0.521627  0.126028  1
  Cl  Cl19  1  0.744541  0.744908  0.526190  1
  Cl  Cl20  1  0.931509  0.365846  0.810163  1
  Cl  Cl21  1  0.136267  0.003861  0.129694  1
  Cl  Cl22  1  0.068491  0.634154  0.189837  1
  Cl  Cl23  1  0.442258  0.888981  0.807911  1
  Cl  Cl24  1  0.944407  0.878706  0.310015  1
  Cl  Cl25  1  0.716180  0.358409  0.566261  1
  Cl  Cl26  1  0.707896  0.850097  0.066201  1
  Cl  Cl27  1  0.030742  0.243004  0.256651  1
  Cl  Cl28  1  0.255459  0.255092  0.473810  1
  Cl  Cl29  1  0.292104  0.149903  0.933799  1
  Cl  Cl30  1  0.820189  0.632260  0.961855  1
  Cl  Cl31  1  0.557742  0.111019  0.192089  1
  Cl  Cl32  1  0.580837  0.634338  0.692047  1
  Cl  Cl33  1  0.829749  0.141755  0.461996  1
  Cl  Cl34  1  0.895175  0.524164  0.373830  1
  Cl  Cl35  1  0.969258  0.756996  0.743349  1
  Cl  Cl36  1  0.349570  0.478373  0.873972  1
  Cl  Cl37  1  0.486616  0.774078  0.243370  1
  Cl  Cl38  1  0.718677  0.218483  0.973808  1
  Cl  Cl39  1  0.283820  0.641591  0.433739  1
