# generated using pymatgen
data_La3InS6
_symmetry_space_group_name_H-M   'P 1'
_cell_length_a   4.09295439
_cell_length_b   14.02084345
_cell_length_c   16.99261999
_cell_angle_alpha   90.00000000
_cell_angle_beta   90.00000000
_cell_angle_gamma   90.00000000
_symmetry_Int_Tables_number   1
_chemical_formula_structural   La3InS6
_chemical_formula_sum   'La12 In4 S24'
_cell_volume   975.14992253
_cell_formula_units_Z   4
loop_
 _symmetry_equiv_pos_site_id
 _symmetry_equiv_pos_as_xyz
  1  'x, y, z'
loop_
 _atom_site_type_symbol
 _atom_site_label
 _atom_site_symmetry_multiplicity
 _atom_site_fract_x
 _atom_site_fract_y
 _atom_site_fract_z
 _atom_site_occupancy
  La  La0  1  0.745322  0.536924  0.720044  1
  La  La1  1  0.745322  0.463076  0.279956  1
  La  La2  1  0.254678  0.036924  0.779956  1
  La  La3  1  0.254678  0.963076  0.220044  1
  La  La4  1  0.740937  0.749408  0.890414  1
  La  La5  1  0.740937  0.250592  0.109586  1
  La  La6  1  0.259063  0.249408  0.609586  1
  La  La7  1  0.259063  0.750592  0.390414  1
  La  La8  1  0.253560  0.810096  0.642939  1
  La  La9  1  0.253560  0.189904  0.357061  1
  La  La10  1  0.746440  0.310096  0.857061  1
  La  La11  1  0.746440  0.689904  0.142939  1
  In  In12  1  0.247650  0.500000  0.000000  1
  In  In13  1  0.752350  0.000000  0.500000  1
  In  In14  1  0.588433  0.000000  0.000000  1
  In  In15  1  0.411567  0.500000  0.500000  1
  S  S16  1  0.234743  0.897757  0.912010  1
  S  S17  1  0.234743  0.102243  0.087990  1
  S  S18  1  0.765257  0.397757  0.587990  1
  S  S19  1  0.765257  0.602243  0.412010  1
  S  S20  1  0.754078  0.812771  0.517562  1
  S  S21  1  0.754078  0.187229  0.482438  1
  S  S22  1  0.245922  0.312771  0.982438  1
  S  S23  1  0.245922  0.687229  0.017562  1
  S  S24  1  0.246084  0.607588  0.608026  1
  S  S25  1  0.246084  0.392412  0.391974  1
  S  S26  1  0.753916  0.107588  0.891974  1
  S  S27  1  0.753916  0.892412  0.108026  1
  S  S28  1  0.242921  0.677533  0.782657  1
  S  S29  1  0.242921  0.322467  0.217343  1
  S  S30  1  0.757079  0.177533  0.717343  1
  S  S31  1  0.757079  0.822467  0.282657  1
  S  S32  1  0.752407  0.887127  0.744082  1
  S  S33  1  0.752407  0.112873  0.255918  1
  S  S34  1  0.247593  0.387127  0.755918  1
  S  S35  1  0.247593  0.612873  0.244082  1
  S  S36  1  0.746331  0.520420  0.897463  1
  S  S37  1  0.746331  0.479580  0.102537  1
  S  S38  1  0.253669  0.020420  0.602537  1
  S  S39  1  0.253669  0.979580  0.397463  1
