# generated using pymatgen
data_SbCl(OF3)2
_symmetry_space_group_name_H-M   'P 1'
_cell_length_a   5.84145798
_cell_length_b   7.21132792
_cell_length_c   7.65241270
_cell_angle_alpha   89.90011558
_cell_angle_beta   90.00000000
_cell_angle_gamma   90.00000000
_symmetry_Int_Tables_number   1
_chemical_formula_structural   SbCl(OF3)2
_chemical_formula_sum   'Sb2 Cl2 O4 F12'
_cell_volume   322.35486259
_cell_formula_units_Z   2
loop_
 _symmetry_equiv_pos_site_id
 _symmetry_equiv_pos_as_xyz
  1  'x, y, z'
loop_
 _atom_site_type_symbol
 _atom_site_label
 _atom_site_symmetry_multiplicity
 _atom_site_fract_x
 _atom_site_fract_y
 _atom_site_fract_z
 _atom_site_occupancy
  Sb  Sb0  1  0.979361  0.250000  0.750000  1
  Sb  Sb1  1  0.020639  0.750000  0.250000  1
  Cl  Cl2  1  0.626556  0.250000  0.250000  1
  Cl  Cl3  1  0.373444  0.750000  0.750000  1
  O  O4  1  0.499961  0.748524  0.909056  1
  O  O5  1  0.500039  0.248524  0.409056  1
  O  O6  1  0.500039  0.251476  0.090944  1
  O  O7  1  0.499961  0.751476  0.590944  1
  F  F8  1  0.752058  0.439738  0.747872  1
  F  F9  1  0.224056  0.433803  0.747940  1
  F  F10  1  0.013926  0.747458  1.000129  1
  F  F11  1  0.752058  0.060262  0.752128  1
  F  F12  1  0.986074  0.247458  0.500129  1
  F  F13  1  0.775944  0.566197  0.252060  1
  F  F14  1  0.986074  0.252542  -0.000129  1
  F  F15  1  0.224056  0.066197  0.752060  1
  F  F16  1  0.013926  0.752542  0.499871  1
  F  F17  1  0.775944  0.933803  0.247940  1
  F  F18  1  0.247942  0.560262  0.252128  1
  F  F19  1  0.247942  0.939738  0.247872  1
