# generated using pymatgen
data_MgAl2O4
_symmetry_space_group_name_H-M   'P 1'
_cell_length_a   5.77533474
_cell_length_b   5.77533490
_cell_length_c   40.44787271
_cell_angle_alpha   60.02369518
_cell_angle_beta   60.02369426
_cell_angle_gamma   59.92625194
_symmetry_Int_Tables_number   1
_chemical_formula_structural   MgAl2O4
_chemical_formula_sum   'Mg14 Al28 O56'
_cell_volume   953.77878370
_cell_formula_units_Z   14
loop_
 _symmetry_equiv_pos_site_id
 _symmetry_equiv_pos_as_xyz
  1  'x, y, z'
loop_
 _atom_site_type_symbol
 _atom_site_label
 _atom_site_symmetry_multiplicity
 _atom_site_fract_x
 _atom_site_fract_y
 _atom_site_fract_z
 _atom_site_occupancy
  Al  Al0  1  0.132399  0.132399  0.016251  1
  Al  Al1  1  0.503474  0.503474  0.998469  1
  Al  Al2  1  0.500008  0.500008  0.071426  1
  Al  Al3  1  0.002112  0.498156  0.214680  1
  Al  Al4  1  0.496498  0.496498  0.144391  1
  Al  Al5  1  0.498048  0.498048  0.214515  1
  Al  Al6  1  0.000349  0.500477  0.356959  1
  Al  Al7  1  0.498156  0.002112  0.214680  1
  Al  Al8  1  0.867590  0.867590  0.126613  1
  Al  Al9  1  0.500115  0.500115  0.285625  1
  Al  Al10  1  0.500470  0.500470  0.356946  1
  Al  Al11  1  0.500235  0.500235  0.428460  1
  Al  Al12  1  0.500477  0.000349  0.356959  1
  Al  Al13  1  0.500063  0.500063  0.499966  1
  Al  Al14  1  0.999935  0.499969  0.642881  1
  Al  Al15  1  0.499969  0.999935  0.642881  1
  Al  Al16  1  0.500069  0.000111  0.499966  1
  Al  Al17  1  0.500028  0.500028  0.571422  1
  Al  Al18  1  0.499976  0.499976  0.642882  1
  Al  Al19  1  0.000111  0.500069  0.499966  1
  Al  Al20  1  0.999610  0.499493  0.785903  1
  Al  Al21  1  0.499755  0.499755  0.714389  1
  Al  Al22  1  0.997863  0.501861  0.928184  1
  Al  Al23  1  0.499499  0.499499  0.785916  1
  Al  Al24  1  0.499830  0.499830  0.857251  1
  Al  Al25  1  0.499493  0.999610  0.785903  1
  Al  Al26  1  0.501982  0.501982  0.928339  1
  Al  Al27  1  0.501861  0.997863  0.928184  1
  Mg  Mg28  1  0.000041  0.499978  0.071429  1
  Mg  Mg29  1  0.132030  0.132030  0.158627  1
  Mg  Mg30  1  0.499978  0.000041  0.071429  1
  Mg  Mg31  1  0.124165  0.124165  0.303989  1
  Mg  Mg32  1  0.125391  0.125391  0.446290  1
  Mg  Mg33  1  0.877096  0.877096  0.266964  1
  Mg  Mg34  1  0.125156  0.125156  0.589250  1
  Mg  Mg35  1  0.874970  0.874970  0.410697  1
  Mg  Mg36  1  0.125010  0.125010  0.732157  1
  Mg  Mg37  1  0.874866  0.874866  0.553604  1
  Mg  Mg38  1  0.122929  0.122929  0.875894  1
  Mg  Mg39  1  0.874603  0.874603  0.696564  1
  Mg  Mg40  1  0.875828  0.875828  0.838868  1
  Mg  Mg41  1  0.867989  0.867989  0.984222  1
  O  O42  1  0.270087  0.270087  0.030927  1
  O  O43  1  0.278616  0.278616  0.100113  1
  O  O44  1  0.272567  0.745574  0.032756  1
  O  O45  1  0.745574  0.272567  0.032756  1
  O  O46  1  0.254429  0.727430  0.110104  1
  O  O47  1  0.259443  0.259443  0.182214  1
  O  O48  1  0.721421  0.721421  0.042737  1
  O  O49  1  0.727430  0.254429  0.110104  1
  O  O50  1  0.262286  0.262286  0.245043  1
  O  O51  1  0.257555  0.708986  0.181911  1
  O  O52  1  0.729925  0.729925  0.111927  1
  O  O53  1  0.708986  0.257555  0.181911  1
  O  O54  1  0.294422  0.736281  0.247644  1
  O  O55  1  0.264082  0.264082  0.323282  1
  O  O56  1  0.736281  0.294422  0.247644  1
  O  O57  1  0.742046  0.742046  0.182077  1
  O  O58  1  0.263719  0.709018  0.323304  1
  O  O59  1  0.263945  0.263945  0.386915  1
  O  O60  1  0.709018  0.263719  0.323304  1
  O  O61  1  0.735635  0.735635  0.247811  1
  O  O62  1  0.291270  0.736936  0.390721  1
  O  O63  1  0.263859  0.263859  0.466151  1
  O  O64  1  0.736936  0.291270  0.390721  1
  O  O65  1  0.737357  0.737357  0.326807  1
  O  O66  1  0.263800  0.263800  0.529841  1
  O  O67  1  0.263578  0.709306  0.466181  1
  O  O68  1  0.736643  0.736643  0.390762  1
  O  O69  1  0.709306  0.263578  0.466181  1
  O  O70  1  0.290841  0.736612  0.533741  1
  O  O71  1  0.263704  0.263704  0.609075  1
  O  O72  1  0.263669  0.263669  0.672754  1
  O  O73  1  0.736612  0.290841  0.533741  1
  O  O74  1  0.736343  0.736343  0.470097  1
  O  O75  1  0.263442  0.709187  0.609106  1
  O  O76  1  0.736335  0.736335  0.533771  1
  O  O77  1  0.709187  0.263442  0.609106  1
  O  O78  1  0.290709  0.736432  0.676670  1
  O  O79  1  0.263328  0.263328  0.752099  1
  O  O80  1  0.736432  0.290709  0.676670  1
  O  O81  1  0.262609  0.262609  0.816053  1
  O  O82  1  0.736237  0.736237  0.613013  1
  O  O83  1  0.263046  0.708693  0.752136  1
  O  O84  1  0.736148  0.736148  0.676701  1
  O  O85  1  0.708693  0.263046  0.752136  1
  O  O86  1  0.290953  0.736227  0.819565  1
  O  O87  1  0.264359  0.264359  0.895055  1
  O  O88  1  0.736227  0.290953  0.819565  1
  O  O89  1  0.736028  0.736028  0.755945  1
  O  O90  1  0.257951  0.257951  0.960781  1
  O  O91  1  0.263701  0.705593  0.895220  1
  O  O92  1  0.705593  0.263701  0.895220  1
  O  O93  1  0.735882  0.735882  0.819585  1
  O  O94  1  0.291019  0.742451  0.960948  1
  O  O95  1  0.737710  0.737710  0.897815  1
  O  O96  1  0.742451  0.291019  0.960948  1
  O  O97  1  0.740547  0.740547  0.960645  1
