# generated using pymatgen
data_Hg3S2ICl
_symmetry_space_group_name_H-M   'P 1'
_cell_length_a   9.52965939
_cell_length_b   10.54661562
_cell_length_c   10.91324378
_cell_angle_alpha   77.10414620
_cell_angle_beta   64.11222535
_cell_angle_gamma   63.14156959
_symmetry_Int_Tables_number   1
_chemical_formula_structural   Hg3S2ICl
_chemical_formula_sum   'Hg12 S8 I4 Cl4'
_cell_volume   879.86835954
_cell_formula_units_Z   4
loop_
 _symmetry_equiv_pos_site_id
 _symmetry_equiv_pos_as_xyz
  1  'x, y, z'
loop_
 _atom_site_type_symbol
 _atom_site_label
 _atom_site_symmetry_multiplicity
 _atom_site_fract_x
 _atom_site_fract_y
 _atom_site_fract_z
 _atom_site_occupancy
  Hg  Hg0  1  0.714323  0.500000  0.500000  1
  Hg  Hg1  1  0.285677  0.500000  0.500000  1
  Hg  Hg2  1  0.110954  0.531238  0.246855  1
  Hg  Hg3  1  0.889046  0.468762  0.753145  1
  Hg  Hg4  1  0.500000  0.000000  0.500000  1
  Hg  Hg5  1  0.000000  0.000000  0.500000  1
  Hg  Hg6  1  0.404131  0.979957  0.211782  1
  Hg  Hg7  1  0.595869  0.020043  0.788218  1
  Hg  Hg8  1  0.986837  0.255983  0.205078  1
  Hg  Hg9  1  0.447898  0.744017  0.794922  1
  Hg  Hg10  1  0.013163  0.744017  0.794922  1
  Hg  Hg11  1  0.552102  0.255983  0.205078  1
  S  S12  1  0.120285  0.996791  0.252382  1
  S  S13  1  0.369458  0.003209  0.747618  1
  S  S14  1  0.879715  0.003209  0.747618  1
  S  S15  1  0.630542  0.996791  0.252382  1
  S  S16  1  0.862094  0.512307  0.250685  1
  S  S17  1  0.625086  0.487693  0.749315  1
  S  S18  1  0.137906  0.487693  0.749315  1
  S  S19  1  0.374914  0.512307  0.250685  1
  I  I20  1  0.627050  0.746367  -0.000467  1
  I  I21  1  0.372950  0.253633  1.000467  1
  I  I22  1  0.877390  0.751391  0.493829  1
  I  I23  1  0.122610  0.248609  0.506171  1
  Cl  Cl24  1  0.854232  0.268355  0.023181  1
  Cl  Cl25  1  0.145768  0.731645  0.976819  1
  Cl  Cl26  1  0.372139  0.733966  0.521757  1
  Cl  Cl27  1  0.627861  0.266034  0.478243  1
