# generated using pymatgen
data_CuH14C3NCl3O2
_symmetry_space_group_name_H-M   'P 1'
_cell_length_a   7.67800979
_cell_length_b   7.92857775
_cell_length_c   16.96909871
_cell_angle_alpha   90.00000000
_cell_angle_beta   92.68371912
_cell_angle_gamma   90.00000000
_symmetry_Int_Tables_number   1
_chemical_formula_structural   CuH14C3NCl3O2
_chemical_formula_sum   'Cu4 H56 C12 N4 Cl12 O8'
_cell_volume   1031.87274090
_cell_formula_units_Z   4
loop_
 _symmetry_equiv_pos_site_id
 _symmetry_equiv_pos_as_xyz
  1  'x, y, z'
loop_
 _atom_site_type_symbol
 _atom_site_label
 _atom_site_symmetry_multiplicity
 _atom_site_fract_x
 _atom_site_fract_y
 _atom_site_fract_z
 _atom_site_occupancy
  Cu  Cu0  1  0.000000  0.000000  0.000000  1
  Cu  Cu1  1  0.500000  0.500000  0.500000  1
  Cu  Cu2  1  0.500000  0.000000  0.000000  1
  Cu  Cu3  1  0.000000  0.500000  0.500000  1
  H  H4  1  0.468642  0.202434  0.694553  1
  H  H5  1  0.101703  0.605174  0.267948  1
  H  H6  1  0.584216  0.118940  0.235591  1
  H  H7  1  0.415784  0.618940  0.264409  1
  H  H8  1  0.626606  0.981493  0.631488  1
  H  H9  1  0.596865  0.187817  0.485524  1
  H  H10  1  0.402708  0.681553  0.714066  1
  H  H11  1  0.758825  0.946866  0.720114  1
  H  H12  1  0.099737  0.688985  0.018837  1
  H  H13  1  0.983340  0.774289  0.310506  1
  H  H14  1  0.016660  0.274289  0.189494  1
  H  H15  1  0.596865  0.312183  0.985524  1
  H  H16  1  0.915922  0.195876  0.782932  1
  H  H17  1  0.241175  0.053134  0.279886  1
  H  H18  1  0.758825  0.553134  0.220114  1
  H  H19  1  0.597292  0.318447  0.285934  1
  H  H20  1  0.566817  0.690201  0.961149  1
  H  H21  1  0.402708  0.818447  0.214066  1
  H  H22  1  0.468642  0.297566  0.194553  1
  H  H23  1  0.433183  0.190201  0.538851  1
  H  H24  1  0.403135  0.687817  0.014476  1
  H  H25  1  0.900263  0.311015  0.981163  1
  H  H26  1  0.728814  0.234089  0.129778  1
  H  H27  1  0.099737  0.811015  0.518837  1
  H  H28  1  0.584216  0.381060  0.735591  1
  H  H29  1  0.898297  0.105174  0.232052  1
  H  H30  1  0.070735  0.191516  0.538584  1
  H  H31  1  0.900263  0.188985  0.481163  1
  H  H32  1  0.626606  0.518507  0.131488  1
  H  H33  1  0.070735  0.308484  0.038584  1
  H  H34  1  0.373394  0.018507  0.368512  1
  H  H35  1  0.101703  0.894826  0.767948  1
  H  H36  1  0.566817  0.809799  0.461149  1
  H  H37  1  0.433183  0.309799  0.038851  1
  H  H38  1  0.531358  0.702434  0.805447  1
  H  H39  1  0.271186  0.734089  0.370222  1
  H  H40  1  0.983340  0.725711  0.810506  1
  H  H41  1  0.140293  0.008681  0.371226  1
  H  H42  1  0.271186  0.765911  0.870222  1
  H  H43  1  0.084078  0.804124  0.217068  1
  H  H44  1  0.241175  0.446866  0.779886  1
  H  H45  1  0.898297  0.394826  0.732052  1
  H  H46  1  0.929265  0.808484  0.461416  1
  H  H47  1  0.415784  0.881060  0.764409  1
  H  H48  1  0.016660  0.225711  0.689494  1
  H  H49  1  0.084078  0.695876  0.717068  1
  H  H50  1  0.597292  0.181553  0.785934  1
  H  H51  1  0.859707  0.991319  0.628774  1
  H  H52  1  0.373394  0.481493  0.868512  1
  H  H53  1  0.859707  0.508681  0.128774  1
  H  H54  1  0.929265  0.691516  0.961416  1
  H  H55  1  0.140293  0.491319  0.871226  1
  H  H56  1  0.728814  0.265911  0.629778  1
  H  H57  1  0.915922  0.304124  0.282932  1
  H  H58  1  0.403135  0.812183  0.514476  1
  H  H59  1  0.531358  0.797566  0.305447  1
  C  C60  1  0.414020  0.744037  0.771668  1
  C  C61  1  0.747255  0.483607  0.164332  1
  C  C62  1  0.747255  0.016393  0.664332  1
  C  C63  1  0.252745  0.516393  0.835668  1
  C  C64  1  0.252745  0.983607  0.335668  1
  C  C65  1  0.585980  0.244037  0.728332  1
  C  C66  1  0.414020  0.755963  0.271668  1
  C  C67  1  0.906146  0.242071  0.225134  1
  C  C68  1  0.093854  0.742071  0.274866  1
  C  C69  1  0.093854  0.757929  0.774866  1
  C  C70  1  0.585980  0.255963  0.228332  1
  C  C71  1  0.906146  0.257929  0.725134  1
  N  N72  1  0.258114  0.799651  0.317172  1
  N  N73  1  0.741886  0.299651  0.182828  1
  N  N74  1  0.741886  0.200349  0.682828  1
  N  N75  1  0.258114  0.700349  0.817172  1
  Cl  Cl76  1  0.744517  0.995245  0.421900  1
  Cl  Cl77  1  0.209779  0.992842  0.099209  1
  Cl  Cl78  1  0.790221  0.007158  0.900791  1
  Cl  Cl79  1  0.790221  0.492842  0.400791  1
  Cl  Cl80  1  0.209779  0.507158  0.599209  1
  Cl  Cl81  1  0.306272  0.420509  0.399728  1
  Cl  Cl82  1  0.255483  0.495245  0.078100  1
  Cl  Cl83  1  0.306272  0.079491  0.899728  1
  Cl  Cl84  1  0.693728  0.920509  0.100272  1
  Cl  Cl85  1  0.744517  0.504755  0.921900  1
  Cl  Cl86  1  0.255483  0.004755  0.578100  1
  Cl  Cl87  1  0.693728  0.579491  0.600272  1
  O  O88  1  0.457109  0.752252  0.971653  1
  O  O89  1  0.037669  0.744549  0.476469  1
  O  O90  1  0.542891  0.252252  0.528347  1
  O  O91  1  0.542891  0.247748  0.028347  1
  O  O92  1  0.037669  0.755451  0.976469  1
  O  O93  1  0.962331  0.255451  0.523531  1
  O  O94  1  0.457109  0.747748  0.471653  1
  O  O95  1  0.962331  0.244549  0.023531  1
