# generated using pymatgen
data_Fe4As5O13
_symmetry_space_group_name_H-M   'P 1'
_cell_length_a   9.13094079
_cell_length_b   9.28883467
_cell_length_c   9.32033171
_cell_angle_alpha   94.15072716
_cell_angle_beta   115.98232010
_cell_angle_gamma   112.48111964
_symmetry_Int_Tables_number   1
_chemical_formula_structural   Fe4As5O13
_chemical_formula_sum   'Fe8 As10 O26'
_cell_volume   628.62863419
_cell_formula_units_Z   2
loop_
 _symmetry_equiv_pos_site_id
 _symmetry_equiv_pos_as_xyz
  1  'x, y, z'
loop_
 _atom_site_type_symbol
 _atom_site_label
 _atom_site_symmetry_multiplicity
 _atom_site_fract_x
 _atom_site_fract_y
 _atom_site_fract_z
 _atom_site_occupancy
  O  O0  1  0.095610  0.706399  0.685635  1
  O  O1  1  0.904393  0.293597  0.314354  1
  O  O2  1  0.626168  0.088654  0.962185  1
  O  O3  1  0.373811  0.911396  0.037798  1
  O  O4  1  0.007154  0.648793  0.355454  1
  O  O5  1  0.992855  0.351197  0.644546  1
  O  O6  1  0.483644  0.764298  0.363042  1
  O  O7  1  0.516376  0.235738  0.637055  1
  O  O8  1  0.260980  0.561836  0.548726  1
  O  O9  1  0.739039  0.438139  0.451274  1
  O  O10  1  0.863259  0.261886  0.854367  1
  O  O11  1  0.136707  0.738119  0.145625  1
  O  O12  1  0.290001  0.062385  0.731565  1
  O  O13  1  0.709996  0.937634  0.268442  1
  O  O14  1  0.139854  0.468298  0.220985  1
  O  O15  1  0.860137  0.531698  0.779012  1
  O  O16  1  0.781656  0.479284  0.027991  1
  O  O17  1  0.218307  0.520670  0.971984  1
  O  O18  1  0.621895  0.106525  0.417942  1
  O  O19  1  0.378111  0.893501  0.582077  1
  O  O20  1  0.366044  0.414536  0.801581  1
  O  O21  1  0.633988  0.585420  0.198428  1
  O  O22  1  0.981699  0.129273  0.110892  1
  O  O23  1  0.524127  0.256824  0.124092  1
  O  O24  1  0.018275  0.870721  0.889086  1
  O  O25  1  0.475872  0.743172  0.875850  1
  Fe  Fe26  1  1.000005  0.499998  1.000007  1
  Fe  Fe27  1  1.000016  0.499996  0.499997  1
  Fe  Fe28  1  0.738172  0.303078  0.620600  1
  Fe  Fe29  1  0.261826  0.696925  0.379406  1
  Fe  Fe30  1  0.352508  0.883609  0.803147  1
  Fe  Fe31  1  0.647481  0.116378  0.196851  1
  Fe  Fe32  1  0.469245  0.720948  0.105688  1
  Fe  Fe33  1  0.530758  0.279072  0.894309  1
  As  As34  1  0.900707  0.705112  0.697954  1
  As  As35  1  0.099299  0.294887  0.302034  1
  As  As36  1  0.159292  0.337172  0.832683  1
  As  As37  1  0.840719  0.662824  0.167338  1
  As  As38  1  0.212095  0.930908  0.095340  1
  As  As39  1  0.787882  0.069097  0.904647  1
  As  As40  1  0.533003  0.407695  0.262566  1
  As  As41  1  0.467023  0.592306  0.737442  1
  As  As42  1  0.698178  0.948987  0.459036  1
  As  As43  1  0.301830  0.051024  0.540971  1
