# generated using pymatgen
data_BaY6Si3B6(O12F)2
_symmetry_space_group_name_H-M   'P 1'
_cell_length_a   10.73728750
_cell_length_b   10.73728744
_cell_length_c   4.74986805
_cell_angle_alpha   90.00000000
_cell_angle_beta   90.00000000
_cell_angle_gamma   120.00000016
_symmetry_Int_Tables_number   1
_chemical_formula_structural   BaY6Si3B6(O12F)2
_chemical_formula_sum   'Ba1 Y6 Si3 B6 O24 F2'
_cell_volume   474.24344603
_cell_formula_units_Z   1
loop_
 _symmetry_equiv_pos_site_id
 _symmetry_equiv_pos_as_xyz
  1  'x, y, z'
loop_
 _atom_site_type_symbol
 _atom_site_label
 _atom_site_symmetry_multiplicity
 _atom_site_fract_x
 _atom_site_fract_y
 _atom_site_fract_z
 _atom_site_occupancy
  Ba  Ba0  1  0.000000  0.000000  0.004805  1
  Y  Y1  1  0.569977  0.784978  0.955088  1
  Y  Y2  1  0.215022  0.784999  0.955088  1
  Y  Y3  1  0.215001  0.430023  0.955088  1
  Y  Y4  1  0.784348  0.215559  1.000915  1
  Y  Y5  1  0.784441  0.568789  1.000915  1
  Y  Y6  1  0.431211  0.215652  1.000915  1
  Si  Si7  1  0.493010  0.507028  0.400733  1
  Si  Si8  1  0.014019  0.506990  0.400733  1
  Si  Si9  1  0.492972  0.985981  0.400733  1
  B  B10  1  0.749358  0.749217  0.482566  1
  B  B11  1  -0.000141  0.250642  0.482566  1
  B  B12  1  0.250797  0.250742  0.482607  1
  B  B13  1  0.749258  0.000055  0.482607  1
  B  B14  1  0.250783  1.000141  0.482566  1
  B  B15  1  0.999945  0.749203  0.482607  1
  O  O16  1  0.426061  0.852199  0.182495  1
  O  O17  1  0.025387  0.633415  0.622873  1
  O  O18  1  0.286744  0.143416  0.598231  1
  O  O19  1  0.569389  0.138848  0.230268  1
  O  O20  1  0.111525  0.888505  0.604451  1
  O  O21  1  0.737121  0.998104  0.182042  1
  O  O22  1  0.366585  0.391973  0.622873  1
  O  O23  1  0.861152  0.430541  0.230268  1
  O  O24  1  0.426138  0.573939  0.182495  1
  O  O25  1  0.001896  0.739017  0.182042  1
  O  O26  1  0.608027  0.974613  0.622873  1
  O  O27  1  0.025309  0.391870  0.622819  1
  O  O28  1  0.776980  0.888475  0.604451  1
  O  O29  1  0.001788  0.262692  0.181977  1
  O  O30  1  0.366561  0.974691  0.622819  1
  O  O31  1  0.260983  0.262879  0.182042  1
  O  O32  1  0.608130  0.633439  0.622819  1
  O  O33  1  0.856672  0.713256  0.598231  1
  O  O34  1  0.111495  0.223020  0.604451  1
  O  O35  1  0.260904  0.998212  0.181977  1
  O  O36  1  0.737308  0.739096  0.181977  1
  O  O37  1  0.147801  0.573862  0.182495  1
  O  O38  1  0.569459  0.430611  0.230268  1
  O  O39  1  0.856584  0.143328  0.598231  1
  F  F40  1  0.333333  0.666667  0.748924  1
  F  F41  1  0.666667  0.333333  0.797980  1
