# generated using pymatgen
data_Ca3UO6
_symmetry_space_group_name_H-M   'P 1'
_cell_length_a   5.76381868
_cell_length_b   5.99414321
_cell_length_c   8.39875951
_cell_angle_alpha   90.00000000
_cell_angle_beta   90.69093914
_cell_angle_gamma   90.00000000
_symmetry_Int_Tables_number   1
_chemical_formula_structural   Ca3UO6
_chemical_formula_sum   'Ca6 U2 O12'
_cell_volume   290.14894204
_cell_formula_units_Z   2
loop_
 _symmetry_equiv_pos_site_id
 _symmetry_equiv_pos_as_xyz
  1  'x, y, z'
loop_
 _atom_site_type_symbol
 _atom_site_label
 _atom_site_symmetry_multiplicity
 _atom_site_fract_x
 _atom_site_fract_y
 _atom_site_fract_z
 _atom_site_occupancy
  O  O0  1  0.427219  0.699836  0.166630  1
  O  O1  1  0.572781  0.199836  0.833370  1
  O  O2  1  0.954731  0.805523  0.304911  1
  O  O3  1  0.045269  0.305523  0.695089  1
  O  O4  1  0.879045  0.555741  0.980953  1
  O  O5  1  0.120955  0.055741  0.019047  1
  O  O6  1  0.926935  0.769100  0.666672  1
  O  O7  1  0.073065  0.269100  0.333328  1
  O  O8  1  0.620430  0.413328  0.518941  1
  O  O9  1  0.379570  0.913328  0.481059  1
  O  O10  1  0.546365  0.162923  0.195413  1
  O  O11  1  0.453635  0.662923  0.804587  1
  Ca  Ca12  1  0.249999  0.984558  0.749928  1
  Ca  Ca13  1  0.750001  0.484558  0.250072  1
  Ca  Ca14  1  0.233797  0.536227  0.509981  1
  Ca  Ca15  1  0.766203  0.036227  0.490019  1
  Ca  Ca16  1  0.734323  0.933046  0.009810  1
  Ca  Ca17  1  0.265677  0.433046  0.990190  1
  U  U18  1  0.250345  0.984519  0.250048  1
  U  U19  1  0.749655  0.484519  0.749952  1
