# generated using pymatgen
data_Cd2BiAsO6
_symmetry_space_group_name_H-M   'P 1'
_cell_length_a   5.52824657
_cell_length_b   7.52959639
_cell_length_c   7.52959559
_cell_angle_alpha   108.13012796
_cell_angle_beta   90.00000000
_cell_angle_gamma   90.00000000
_symmetry_Int_Tables_number   1
_chemical_formula_structural   Cd2BiAsO6
_chemical_formula_sum   'Cd4 Bi2 As2 O12'
_cell_volume   297.86217383
_cell_formula_units_Z   2
loop_
 _symmetry_equiv_pos_site_id
 _symmetry_equiv_pos_as_xyz
  1  'x, y, z'
loop_
 _atom_site_type_symbol
 _atom_site_label
 _atom_site_symmetry_multiplicity
 _atom_site_fract_x
 _atom_site_fract_y
 _atom_site_fract_z
 _atom_site_occupancy
  Cd  Cd0  1  0.386441  0.593060  0.801751  1
  Cd  Cd1  1  0.386441  0.198249  0.406940  1
  Cd  Cd2  1  0.886441  0.406940  0.198249  1
  Cd  Cd3  1  0.886441  0.801751  0.593060  1
  Bi  Bi4  1  0.391991  0.093548  0.906452  1
  Bi  Bi5  1  0.891991  0.906452  0.093548  1
  As  As6  1  0.346227  0.683423  0.316577  1
  As  As7  1  0.846227  0.316577  0.683423  1
  O  O8  1  0.632300  0.843302  0.848328  1
  O  O9  1  0.235975  0.907261  0.413581  1
  O  O10  1  0.132300  0.848328  0.843302  1
  O  O11  1  0.632300  0.151672  0.156698  1
  O  O12  1  0.132300  0.156698  0.151672  1
  O  O13  1  0.702470  0.443296  0.556704  1
  O  O14  1  0.661290  0.680306  0.319694  1
  O  O15  1  0.735975  0.092739  0.586419  1
  O  O16  1  0.735975  0.413581  0.907261  1
  O  O17  1  0.202470  0.556704  0.443296  1
  O  O18  1  0.161290  0.319694  0.680306  1
  O  O19  1  0.235975  0.586419  0.092739  1
