# generated using pymatgen
data_Na3Fe5O9
_symmetry_space_group_name_H-M   'P 1'
_cell_length_a   5.33197432
_cell_length_b   9.12777275
_cell_length_c   9.12777287
_cell_angle_alpha   84.21494636
_cell_angle_beta   90.44297385
_cell_angle_gamma   90.44298106
_symmetry_Int_Tables_number   1
_chemical_formula_structural   Na3Fe5O9
_chemical_formula_sum   'Na6 Fe10 O18'
_cell_volume   441.95353545
_cell_formula_units_Z   2
loop_
 _symmetry_equiv_pos_site_id
 _symmetry_equiv_pos_as_xyz
  1  'x, y, z'
loop_
 _atom_site_type_symbol
 _atom_site_label
 _atom_site_symmetry_multiplicity
 _atom_site_fract_x
 _atom_site_fract_y
 _atom_site_fract_z
 _atom_site_occupancy
  Fe  Fe0  1  0.716924  0.567627  0.200660  1
  Fe  Fe1  1  0.783076  0.799340  0.432373  1
  Fe  Fe2  1  0.283076  0.432373  0.799340  1
  Fe  Fe3  1  0.216924  0.200660  0.567627  1
  Fe  Fe4  1  0.782412  0.295278  0.978659  1
  Fe  Fe5  1  0.717588  0.021341  0.704722  1
  Fe  Fe6  1  0.217588  0.704722  0.021341  1
  Fe  Fe7  1  0.282412  0.978659  0.295278  1
  Fe  Fe8  1  0.750000  0.938106  0.061894  1
  Fe  Fe9  1  0.250000  0.061894  0.938106  1
  Na  Na10  1  0.732740  0.680895  0.837428  1
  Na  Na11  1  0.767260  0.162572  0.319105  1
  Na  Na12  1  0.267260  0.319105  0.162572  1
  Na  Na13  1  0.232740  0.837428  0.680895  1
  Na  Na14  1  0.750000  0.409516  0.590484  1
  Na  Na15  1  0.250000  0.590484  0.409516  1
  O  O16  1  0.877409  0.730703  0.084653  1
  O  O17  1  0.622591  0.915347  0.269297  1
  O  O18  1  0.122591  0.269297  0.915347  1
  O  O19  1  0.377409  0.084653  0.730703  1
  O  O20  1  0.635562  0.431154  0.834609  1
  O  O21  1  0.864438  0.165391  0.568846  1
  O  O22  1  0.364438  0.568846  0.165391  1
  O  O23  1  0.135562  0.834609  0.431154  1
  O  O24  1  0.823732  0.377785  0.162530  1
  O  O25  1  0.676268  0.837470  0.622215  1
  O  O26  1  0.176268  0.622215  0.837470  1
  O  O27  1  0.323732  0.162530  0.377785  1
  O  O28  1  0.571283  0.129227  0.027531  1
  O  O29  1  0.928717  0.972469  0.870773  1
  O  O30  1  0.428717  0.870773  0.972469  1
  O  O31  1  0.071283  0.027531  0.129227  1
  O  O32  1  0.750000  0.595825  0.404175  1
  O  O33  1  0.250000  0.404175  0.595825  1
