# generated using pymatgen
data_Cs2Li3Br5
_symmetry_space_group_name_H-M   'P 1'
_cell_length_a   4.42307215
_cell_length_b   8.23044361
_cell_length_c   10.20684126
_cell_angle_alpha   66.56768566
_cell_angle_beta   77.48636483
_cell_angle_gamma   74.41296039
_symmetry_Int_Tables_number   1
_chemical_formula_structural   Cs2Li3Br5
_chemical_formula_sum   'Cs2 Li3 Br5'
_cell_volume   325.84208305
_cell_formula_units_Z   1
loop_
 _symmetry_equiv_pos_site_id
 _symmetry_equiv_pos_as_xyz
  1  'x, y, z'
loop_
 _atom_site_type_symbol
 _atom_site_label
 _atom_site_symmetry_multiplicity
 _atom_site_fract_x
 _atom_site_fract_y
 _atom_site_fract_z
 _atom_site_occupancy
  Cs  Cs0  1  0.813184  0.643585  0.730047  1
  Cs  Cs1  1  0.186816  0.356415  0.269953  1
  Li  Li2  1  0.549165  0.193450  0.708219  1
  Li  Li3  1  0.450835  0.806550  0.291781  1
  Li  Li4  1  0.000000  0.000000  0.000000  1
  Br  Br5  1  0.403879  0.254695  0.937546  1
  Br  Br6  1  0.596121  0.745305  0.062454  1
  Br  Br7  1  0.868417  0.969840  0.293327  1
  Br  Br8  1  0.500000  0.500000  0.500000  1
  Br  Br9  1  0.131583  0.030160  0.706673  1
