# generated using pymatgen
data_BaCaCrF7
_symmetry_space_group_name_H-M   'P 1'
_cell_length_a   5.50645621
_cell_length_b   5.54823931
_cell_length_c   19.39798356
_cell_angle_alpha   90.00000000
_cell_angle_beta   91.97441683
_cell_angle_gamma   90.00000000
_symmetry_Int_Tables_number   1
_chemical_formula_structural   BaCaCrF7
_chemical_formula_sum   'Ba4 Ca4 Cr4 F28'
_cell_volume   592.27861111
_cell_formula_units_Z   4
loop_
 _symmetry_equiv_pos_site_id
 _symmetry_equiv_pos_as_xyz
  1  'x, y, z'
loop_
 _atom_site_type_symbol
 _atom_site_label
 _atom_site_symmetry_multiplicity
 _atom_site_fract_x
 _atom_site_fract_y
 _atom_site_fract_z
 _atom_site_occupancy
  F  F0  1  0.784198  0.053956  0.936684  1
  F  F1  1  0.715802  0.053956  0.563316  1
  F  F2  1  0.215802  0.946044  0.063316  1
  F  F3  1  0.284198  0.946044  0.436684  1
  F  F4  1  0.528114  0.023701  0.176534  1
  F  F5  1  0.971886  0.023701  0.323466  1
  F  F6  1  0.471886  0.976299  0.823466  1
  F  F7  1  0.028114  0.976299  0.676534  1
  F  F8  1  0.557288  0.286014  0.055436  1
  F  F9  1  0.942712  0.286014  0.444564  1
  F  F10  1  0.442712  0.713986  0.944564  1
  F  F11  1  0.057288  0.713986  0.555436  1
  F  F12  1  0.589398  0.591060  0.560750  1
  F  F13  1  0.910602  0.591060  0.939250  1
  F  F14  1  0.410602  0.408940  0.439250  1
  F  F15  1  0.089398  0.408940  0.060750  1
  F  F16  1  0.558413  0.869361  0.685765  1
  F  F17  1  0.941587  0.869361  0.814235  1
  F  F18  1  0.441587  0.130639  0.314235  1
  F  F19  1  0.058413  0.130639  0.185765  1
  F  F20  1  0.073552  0.495866  0.324942  1
  F  F21  1  0.426448  0.495866  0.175058  1
  F  F22  1  0.926448  0.504134  0.675058  1
  F  F23  1  0.573552  0.504134  0.824942  1
  F  F24  1  0.427673  0.370458  0.691426  1
  F  F25  1  0.072327  0.370458  0.808574  1
  F  F26  1  0.572327  0.629542  0.308574  1
  F  F27  1  0.927673  0.629542  0.191426  1
  Ca  Ca28  1  0.750000  0.327854  0.250000  1
  Ca  Ca29  1  0.250000  0.672146  0.750000  1
  Ca  Ca30  1  0.250000  0.792216  0.250000  1
  Ca  Ca31  1  0.750000  0.207784  0.750000  1
  Cr  Cr32  1  0.301747  0.223858  0.119622  1
  Cr  Cr33  1  0.801747  0.776142  0.619622  1
  Cr  Cr34  1  0.198253  0.223858  0.380378  1
  Cr  Cr35  1  0.698253  0.776142  0.880378  1
  Ba  Ba36  1  0.246211  0.246821  0.931459  1
  Ba  Ba37  1  0.753789  0.753179  0.068541  1
  Ba  Ba38  1  0.746211  0.753179  0.431459  1
  Ba  Ba39  1  0.253789  0.246821  0.568541  1
