# generated using pymatgen
data_YbAu2F9
_symmetry_space_group_name_H-M   'P 1'
_cell_length_a   9.33264728
_cell_length_b   11.35603072
_cell_length_c   22.22209254
_cell_angle_alpha   90.00000000
_cell_angle_beta   90.00000000
_cell_angle_gamma   90.00000000
_symmetry_Int_Tables_number   1
_chemical_formula_structural   YbAu2F9
_chemical_formula_sum   'Yb12 Au24 F108'
_cell_volume   2355.13801628
_cell_formula_units_Z   12
loop_
 _symmetry_equiv_pos_site_id
 _symmetry_equiv_pos_as_xyz
  1  'x, y, z'
loop_
 _atom_site_type_symbol
 _atom_site_label
 _atom_site_symmetry_multiplicity
 _atom_site_fract_x
 _atom_site_fract_y
 _atom_site_fract_z
 _atom_site_occupancy
  Yb  Yb0  1  0.042459  0.404524  0.915451  1
  Yb  Yb1  1  0.542459  0.095476  0.915451  1
  Yb  Yb2  1  0.314973  0.000000  0.750000  1
  Yb  Yb3  1  0.957541  0.404524  0.415451  1
  Yb  Yb4  1  0.042459  0.595476  0.584549  1
  Yb  Yb5  1  0.457541  0.095476  0.415451  1
  Yb  Yb6  1  0.685027  0.000000  0.250000  1
  Yb  Yb7  1  0.957541  0.595476  0.084549  1
  Yb  Yb8  1  0.814973  0.500000  0.750000  1
  Yb  Yb9  1  0.542459  0.904524  0.584549  1
  Yb  Yb10  1  0.185027  0.500000  0.250000  1
  Yb  Yb11  1  0.457541  0.904524  0.084549  1
  Au  Au12  1  0.660520  0.609552  0.490781  1
  Au  Au13  1  0.861901  0.286826  0.171195  1
  Au  Au14  1  0.160520  0.109552  0.009219  1
  Au  Au15  1  0.932697  0.926023  0.664885  1
  Au  Au16  1  0.339481  0.390448  0.509219  1
  Au  Au17  1  0.567303  0.573977  0.164885  1
  Au  Au18  1  0.638099  0.213174  0.671195  1
  Au  Au19  1  0.861901  0.713174  0.328805  1
  Au  Au20  1  0.138099  0.286826  0.671195  1
  Au  Au21  1  0.361901  0.213174  0.171195  1
  Au  Au22  1  0.138099  0.713174  0.828805  1
  Au  Au23  1  0.067303  0.926023  0.164885  1
  Au  Au24  1  0.932697  0.073977  0.835115  1
  Au  Au25  1  0.432697  0.426023  0.835115  1
  Au  Au26  1  0.660520  0.390448  0.009219  1
  Au  Au27  1  0.339481  0.609552  0.990781  1
  Au  Au28  1  0.432697  0.573977  0.664885  1
  Au  Au29  1  0.160520  0.890448  0.490781  1
  Au  Au30  1  0.638099  0.786826  0.828805  1
  Au  Au31  1  0.567303  0.426023  0.335115  1
  Au  Au32  1  0.839480  0.890448  0.990781  1
  Au  Au33  1  0.839480  0.109552  0.509219  1
  Au  Au34  1  0.361901  0.786826  0.328805  1
  Au  Au35  1  0.067303  0.073977  0.335115  1
  F  F36  1  0.913115  0.394153  0.106051  1
  F  F37  1  0.221630  0.285142  0.119242  1
  F  F38  1  0.507474  0.415075  0.066908  1
  F  F39  1  0.267615  0.880005  0.152332  1
  F  F40  1  0.303036  0.318599  0.236219  1
  F  F41  1  0.631136  0.525794  0.677218  1
  F  F42  1  0.992526  0.084925  0.566908  1
  F  F43  1  0.003641  0.358461  0.224412  1
  F  F44  1  0.868864  0.025794  0.322782  1
  F  F45  1  0.278370  0.214858  0.619242  1
  F  F46  1  0.696964  0.681401  0.763781  1
  F  F47  1  0.267615  0.119995  0.347668  1
  F  F48  1  -0.002831  0.221680  0.871021  1
  F  F49  1  0.191541  0.634338  0.051521  1
  F  F50  1  0.921301  0.261555  0.488157  1
  F  F51  1  0.691541  0.134338  0.448479  1
  F  F52  1  0.421301  0.761555  0.011843  1
  F  F53  1  0.578699  0.761555  0.511843  1
  F  F54  1  1.002831  0.221680  0.371021  1
  F  F55  1  0.078699  0.738445  0.511843  1
  F  F56  1  0.502831  0.721680  0.128979  1
  F  F57  1  0.761006  0.956927  0.532788  1
  F  F58  1  0.996359  0.358461  0.724412  1
  F  F59  1  0.221630  0.714858  0.380758  1
  F  F60  1  0.131136  0.025794  0.822782  1
  F  F61  1  -0.002831  0.778320  0.628979  1
  F  F62  1  0.308459  0.134338  0.948479  1
  F  F63  1  0.278370  0.785142  0.880758  1
  F  F64  1  0.196964  0.818599  0.763781  1
  F  F65  1  0.372501  0.575107  0.800288  1
  F  F66  1  0.767615  0.380005  0.347668  1
  F  F67  1  0.778370  0.285142  0.619242  1
  F  F68  1  0.086885  0.394153  0.606051  1
  F  F69  1  0.918447  0.550007  0.664976  1
  F  F70  1  0.086885  0.605847  0.893949  1
  F  F71  1  0.913115  0.605847  0.393949  1
  F  F72  1  0.413115  0.105847  0.106051  1
  F  F73  1  0.196964  0.181401  0.736219  1
  F  F74  1  0.767615  0.619995  0.152332  1
  F  F75  1  0.418447  0.050007  0.835024  1
  F  F76  1  0.503641  0.858461  0.275588  1
  F  F77  1  0.081553  0.550007  0.164976  1
  F  F78  1  0.497169  0.278320  0.871021  1
  F  F79  1  0.261006  0.543073  0.532788  1
  F  F80  1  0.232385  0.380005  0.847668  1
  F  F81  1  0.808459  0.365662  0.948479  1
  F  F82  1  0.761006  0.043073  0.967212  1
  F  F83  1  0.721630  0.785142  0.380758  1
  F  F84  1  0.238994  0.043073  0.467212  1
  F  F85  1  0.127499  0.924893  0.300288  1
  F  F86  1  0.496359  0.141539  0.724412  1
  F  F87  1  0.500000  0.000000  0.000000  1
  F  F88  1  0.778370  0.714858  0.880758  1
  F  F89  1  0.631136  0.474206  0.822782  1
  F  F90  1  0.492526  0.415075  0.566908  1
  F  F91  1  0.238994  0.956927  0.032788  1
  F  F92  1  0.696964  0.318599  0.736219  1
  F  F93  1  0.007474  0.084925  0.066908  1
  F  F94  1  0.131136  0.974206  0.677218  1
  F  F95  1  0.803036  0.818599  0.263781  1
  F  F96  1  0.738994  0.543073  0.032788  1
  F  F97  1  0.992526  0.915075  0.933092  1
  F  F98  1  0.502831  0.278320  0.371021  1
  F  F99  1  0.003641  0.641539  0.275588  1
  F  F100  1  0.691541  0.865662  0.051521  1
  F  F101  1  0.803036  0.181401  0.236219  1
  F  F102  1  0.732385  0.880005  0.652332  1
  F  F103  1  0.578699  0.238445  0.988157  1
  F  F104  1  0.507474  0.584925  0.433092  1
  F  F105  1  0.372501  0.424893  0.699712  1
  F  F106  1  0.308459  0.865662  0.551521  1
  F  F107  1  0.368864  0.525794  0.177218  1
  F  F108  1  0.868864  0.974206  0.177218  1
  F  F109  1  0.421301  0.238445  0.488157  1
  F  F110  1  0.808459  0.634338  0.551521  1
  F  F111  1  0.872501  0.075107  0.699712  1
  F  F112  1  0.368864  0.474206  0.322782  1
  F  F113  1  0.732385  0.119995  0.847668  1
  F  F114  1  0.261006  0.456927  0.967212  1
  F  F115  1  0.996359  0.641539  0.775588  1
  F  F116  1  0.000000  0.500000  0.000000  1
  F  F117  1  0.500000  0.000000  0.500000  1
  F  F118  1  0.586885  0.105847  0.606051  1
  F  F119  1  0.232385  0.619995  0.652332  1
  F  F120  1  0.627499  0.424893  0.199712  1
  F  F121  1  0.581553  0.050007  0.335024  1
  F  F122  1  1.002831  0.778320  0.128979  1
  F  F123  1  0.418447  0.949993  0.664976  1
  F  F124  1  0.497169  0.721680  0.628979  1
  F  F125  1  0.627499  0.575107  0.300288  1
  F  F126  1  0.496359  0.858461  0.775588  1
  F  F127  1  0.127499  0.075107  0.199712  1
  F  F128  1  0.007474  0.915075  0.433092  1
  F  F129  1  0.581553  0.949993  0.164976  1
  F  F130  1  0.586885  0.894153  0.893949  1
  F  F131  1  0.503641  0.141539  0.224412  1
  F  F132  1  0.738994  0.456927  0.467212  1
  F  F133  1  0.000000  0.500000  0.500000  1
  F  F134  1  0.081553  0.449993  0.335024  1
  F  F135  1  0.918447  0.449993  0.835024  1
  F  F136  1  0.921301  0.738445  0.011843  1
  F  F137  1  0.872501  0.924893  0.800288  1
  F  F138  1  0.413115  0.894153  0.393949  1
  F  F139  1  0.492526  0.584925  0.933092  1
  F  F140  1  0.721630  0.214858  0.119242  1
  F  F141  1  0.191541  0.365662  0.448479  1
  F  F142  1  0.303036  0.681401  0.263781  1
  F  F143  1  0.078699  0.261555  0.988157  1
