# generated using pymatgen
data_CrCuO4
_symmetry_space_group_name_H-M   'P 1'
_cell_length_a   5.28356933
_cell_length_b   5.28356932
_cell_length_c   5.95461332
_cell_angle_alpha   90.00000000
_cell_angle_beta   90.00000000
_cell_angle_gamma   117.52366042
_symmetry_Int_Tables_number   1
_chemical_formula_structural   CrCuO4
_chemical_formula_sum   'Cr2 Cu2 O8'
_cell_volume   147.41575517
_cell_formula_units_Z   2
loop_
 _symmetry_equiv_pos_site_id
 _symmetry_equiv_pos_as_xyz
  1  'x, y, z'
loop_
 _atom_site_type_symbol
 _atom_site_label
 _atom_site_symmetry_multiplicity
 _atom_site_fract_x
 _atom_site_fract_y
 _atom_site_fract_z
 _atom_site_occupancy
  O  O0  1  0.741294  0.785554  0.750000  1
  O  O1  1  0.258706  0.214446  0.250000  1
  O  O2  1  0.785554  0.741294  0.250000  1
  O  O3  1  0.214446  0.258706  0.750000  1
  O  O4  1  0.262970  0.737031  0.969660  1
  O  O5  1  0.737031  0.262970  0.469660  1
  O  O6  1  0.737031  0.262970  0.030340  1
  O  O7  1  0.262970  0.737031  0.530340  1
  Cr  Cr8  1  0.632571  0.367429  0.250000  1
  Cr  Cr9  1  0.367429  0.632571  0.750000  1
  Cu  Cu10  1  0.000000  0.000000  0.500000  1
  Cu  Cu11  1  0.000000  0.000000  0.000000  1
