# generated using pymatgen
data_SrMnV2(AgO4)2
_symmetry_space_group_name_H-M   'P 1'
_cell_length_a   5.68978133
_cell_length_b   5.75834368
_cell_length_c   13.93468291
_cell_angle_alpha   90.68545307
_cell_angle_beta   90.00000000
_cell_angle_gamma   119.60690791
_symmetry_Int_Tables_number   1
_chemical_formula_structural   SrMnV2(AgO4)2
_chemical_formula_sum   'Sr2 Mn2 V4 Ag4 O16'
_cell_volume   396.90487823
_cell_formula_units_Z   2
loop_
 _symmetry_equiv_pos_site_id
 _symmetry_equiv_pos_as_xyz
  1  'x, y, z'
loop_
 _atom_site_type_symbol
 _atom_site_label
 _atom_site_symmetry_multiplicity
 _atom_site_fract_x
 _atom_site_fract_y
 _atom_site_fract_z
 _atom_site_occupancy
  Ag  Ag0  1  0.290396  0.678753  0.403967  1
  Ag  Ag1  1  0.611644  0.321247  0.096033  1
  Ag  Ag2  1  0.709604  0.321247  0.596033  1
  Ag  Ag3  1  0.388356  0.678753  0.903967  1
  Sr  Sr4  1  0.917235  0.000000  0.250000  1
  Sr  Sr5  1  0.082765  0.000000  0.750000  1
  Mn  Mn6  1  0.000000  0.000000  0.500000  1
  Mn  Mn7  1  0.000000  0.000000  0.000000  1
  V  V8  1  0.287388  0.652880  0.130069  1
  V  V9  1  0.634508  0.347120  0.369931  1
  V  V10  1  0.712612  0.347120  0.869931  1
  V  V11  1  0.365492  0.652880  0.630069  1
  O  O12  1  0.802514  0.223230  0.441797  1
  O  O13  1  0.579284  0.776770  0.058203  1
  O  O14  1  0.197486  0.776770  0.558203  1
  O  O15  1  0.420716  0.223230  0.941797  1
  O  O16  1  0.397919  0.673223  0.246773  1
  O  O17  1  0.724696  0.326777  0.253227  1
  O  O18  1  0.602081  0.326777  0.753227  1
  O  O19  1  0.275304  0.673223  0.746773  1
  O  O20  1  0.066028  0.316242  0.099316  1
  O  O21  1  0.749786  0.683758  0.400684  1
  O  O22  1  0.933972  0.683758  0.900684  1
  O  O23  1  0.250214  0.316242  0.599316  1
  O  O24  1  0.130705  0.850101  0.118894  1
  O  O25  1  0.280604  0.149899  0.381106  1
  O  O26  1  0.869295  0.149899  0.881106  1
  O  O27  1  0.719396  0.850101  0.618894  1
