# generated using pymatgen
data_Na2AlCoF7
_symmetry_space_group_name_H-M   'P 1'
_cell_length_a   7.24717845
_cell_length_b   7.24717864
_cell_length_c   24.36833191
_cell_angle_alpha   81.95452530
_cell_angle_beta   81.95452510
_cell_angle_gamma   60.47557088
_symmetry_Int_Tables_number   1
_chemical_formula_structural   Na2AlCoF7
_chemical_formula_sum   'Na16 Al8 Co8 F56'
_cell_volume   1098.95708577
_cell_formula_units_Z   8
loop_
 _symmetry_equiv_pos_site_id
 _symmetry_equiv_pos_as_xyz
  1  'x, y, z'
loop_
 _atom_site_type_symbol
 _atom_site_label
 _atom_site_symmetry_multiplicity
 _atom_site_fract_x
 _atom_site_fract_y
 _atom_site_fract_z
 _atom_site_occupancy
  Na  Na0  1  0.000000  0.500000  0.000000  1
  Na  Na1  1  0.796282  0.699735  0.751554  1
  Na  Na2  1  0.865560  0.881238  0.378044  1
  Na  Na3  1  0.789269  0.210731  0.750000  1
  Na  Na4  1  0.300265  0.203718  0.748446  1
  Na  Na5  1  0.500000  0.500000  0.000000  1
  Na  Na6  1  0.210731  0.789269  0.250000  1
  Na  Na7  1  0.881238  0.865560  0.878044  1
  Na  Na8  1  0.000000  0.000000  0.500000  1
  Na  Na9  1  0.000000  0.000000  0.000000  1
  Na  Na10  1  0.500000  0.000000  0.500000  1
  Na  Na11  1  0.118762  0.134440  0.121956  1
  Na  Na12  1  0.203718  0.300265  0.248446  1
  Na  Na13  1  0.500000  0.500000  0.500000  1
  Na  Na14  1  0.699735  0.796282  0.251554  1
  Na  Na15  1  0.134440  0.118762  0.621956  1
  Al  Al16  1  0.361154  0.891981  0.374322  1
  Al  Al17  1  0.747935  0.252065  0.250000  1
  Al  Al18  1  0.638846  0.108019  0.625678  1
  Al  Al19  1  0.500000  0.000000  0.000000  1
  Al  Al20  1  0.000000  0.500000  0.500000  1
  Al  Al21  1  0.891981  0.361154  0.874322  1
  Al  Al22  1  0.252065  0.747935  0.750000  1
  Al  Al23  1  0.108019  0.638846  0.125678  1
  Co  Co24  1  0.137312  0.609629  0.625919  1
  Co  Co25  1  0.862688  0.390371  0.374081  1
  Co  Co26  1  0.389130  0.366537  0.872374  1
  Co  Co27  1  0.390371  0.862688  0.874081  1
  Co  Co28  1  0.633463  0.610870  0.627626  1
  Co  Co29  1  0.366537  0.389130  0.372374  1
  Co  Co30  1  0.609629  0.137312  0.125920  1
  Co  Co31  1  0.610870  0.633463  0.127626  1
  F  F32  1  0.924173  0.550911  0.111787  1
  F  F33  1  0.354071  0.974689  0.299058  1
  F  F34  1  0.005173  0.150522  0.209828  1
  F  F35  1  0.354913  0.705064  0.594108  1
  F  F36  1  0.075827  0.449089  0.888213  1
  F  F37  1  0.705336  0.276970  0.859901  1
  F  F38  1  0.645929  0.025311  0.700942  1
  F  F39  1  0.276970  0.705336  0.359901  1
  F  F40  1  0.921583  0.923567  0.611040  1
  F  F41  1  0.575943  0.759754  0.046681  1
  F  F42  1  0.424057  0.240246  0.953319  1
  F  F43  1  0.636940  0.151003  0.206906  1
  F  F44  1  0.361982  0.485965  0.790558  1
  F  F45  1  0.848997  0.363060  0.293094  1
  F  F46  1  0.974689  0.354071  0.799058  1
  F  F47  1  0.129013  0.574710  0.544860  1
  F  F48  1  0.812908  0.365786  0.949853  1
  F  F49  1  0.870987  0.425290  0.455140  1
  F  F50  1  0.240246  0.424057  0.453319  1
  F  F51  1  0.875094  0.779803  0.468977  1
  F  F52  1  0.294924  0.355756  0.139941  1
  F  F53  1  0.705064  0.354913  0.094108  1
  F  F54  1  0.076433  0.078417  0.888960  1
  F  F55  1  0.779803  0.875094  0.968977  1
  F  F56  1  0.025311  0.645929  0.200942  1
  F  F57  1  0.759754  0.575943  0.546681  1
  F  F58  1  0.151003  0.636940  0.706906  1
  F  F59  1  0.294936  0.645087  0.905892  1
  F  F60  1  0.294664  0.723030  0.140099  1
  F  F61  1  0.355756  0.294924  0.639941  1
  F  F62  1  0.187092  0.634214  0.050147  1
  F  F63  1  0.574710  0.129013  0.044860  1
  F  F64  1  0.425290  0.870987  0.955140  1
  F  F65  1  0.923567  0.921583  0.111040  1
  F  F66  1  0.723030  0.294664  0.640099  1
  F  F67  1  0.634214  0.187092  0.550147  1
  F  F68  1  0.516392  0.917530  0.158457  1
  F  F69  1  0.514035  0.638018  0.709442  1
  F  F70  1  0.150522  0.005173  0.709828  1
  F  F71  1  0.082470  0.483608  0.341543  1
  F  F72  1  0.363060  0.848997  0.793094  1
  F  F73  1  0.485965  0.361982  0.290558  1
  F  F74  1  0.550911  0.924173  0.611787  1
  F  F75  1  0.638018  0.514035  0.209442  1
  F  F76  1  0.365786  0.812908  0.449853  1
  F  F77  1  0.849478  0.994827  0.290172  1
  F  F78  1  0.705076  0.644244  0.860059  1
  F  F79  1  0.124906  0.220197  0.531023  1
  F  F80  1  0.645087  0.294936  0.405892  1
  F  F81  1  0.994827  0.849478  0.790172  1
  F  F82  1  0.483608  0.082470  0.841543  1
  F  F83  1  0.220197  0.124906  0.031023  1
  F  F84  1  0.449089  0.075827  0.388213  1
  F  F85  1  0.917530  0.516392  0.658457  1
  F  F86  1  0.078417  0.076433  0.388960  1
  F  F87  1  0.644244  0.705076  0.360059  1
