# generated using pymatgen
data_Na2Cu(PO3)4
_symmetry_space_group_name_H-M   'P 1'
_cell_length_a   7.91001856
_cell_length_b   8.25865060
_cell_length_c   8.25865018
_cell_angle_alpha   109.66820781
_cell_angle_beta   92.97964273
_cell_angle_gamma   92.97963907
_symmetry_Int_Tables_number   1
_chemical_formula_structural   Na2Cu(PO3)4
_chemical_formula_sum   'Na4 Cu2 P8 O24'
_cell_volume   505.95577116
_cell_formula_units_Z   2
loop_
 _symmetry_equiv_pos_site_id
 _symmetry_equiv_pos_as_xyz
  1  'x, y, z'
loop_
 _atom_site_type_symbol
 _atom_site_label
 _atom_site_symmetry_multiplicity
 _atom_site_fract_x
 _atom_site_fract_y
 _atom_site_fract_z
 _atom_site_occupancy
  Na  Na0  1  0.305968  0.183537  0.470530  1
  Na  Na1  1  0.694032  0.816463  0.529470  1
  Na  Na2  1  0.805968  0.470530  0.183537  1
  Na  Na3  1  0.194032  0.529470  0.816463  1
  Cu  Cu4  1  0.750000  0.137400  0.862600  1
  Cu  Cu5  1  0.250000  0.862600  0.137400  1
  P  P6  1  0.176502  0.212239  0.064127  1
  P  P7  1  0.323498  0.935873  0.787761  1
  P  P8  1  0.676502  0.064127  0.212239  1
  P  P9  1  0.875272  0.239732  0.551137  1
  P  P10  1  0.375272  0.551137  0.239732  1
  P  P11  1  0.624728  0.448863  0.760268  1
  P  P12  1  0.823498  0.787761  0.935873  1
  P  P13  1  0.124728  0.760268  0.448863  1
  O  O14  1  0.839842  0.914591  0.839853  1
  O  O15  1  0.250000  0.121507  0.878493  1
  O  O16  1  0.026776  0.306129  0.040348  1
  O  O17  1  0.750000  0.395866  0.604134  1
  O  O18  1  0.184967  0.896552  0.374335  1
  O  O19  1  0.473224  0.959652  0.693871  1
  O  O20  1  0.339842  0.839853  0.914591  1
  O  O21  1  0.660158  0.160147  0.085409  1
  O  O22  1  0.336544  0.345705  0.165030  1
  O  O23  1  0.315033  0.625665  0.103448  1
  O  O24  1  0.555360  0.586368  0.311183  1
  O  O25  1  0.815033  0.103448  0.625665  1
  O  O26  1  0.944640  0.688817  0.413632  1
  O  O27  1  0.055360  0.311183  0.586368  1
  O  O28  1  0.750000  0.878493  0.121507  1
  O  O29  1  0.836544  0.165030  0.345705  1
  O  O30  1  0.663456  0.654295  0.834970  1
  O  O31  1  0.973225  0.693871  0.959652  1
  O  O32  1  0.684967  0.374335  0.896552  1
  O  O33  1  0.163456  0.834970  0.654295  1
  O  O34  1  0.444640  0.413632  0.688817  1
  O  O35  1  0.160158  0.085409  0.160147  1
  O  O36  1  0.250000  0.604134  0.395866  1
  O  O37  1  0.526775  0.040348  0.306129  1
