# generated using pymatgen
data_Cr3CuO8
_symmetry_space_group_name_H-M   'P 1'
_cell_length_a   5.02642777
_cell_length_b   5.02655986
_cell_length_c   6.57646692
_cell_angle_alpha   86.59389384
_cell_angle_beta   86.58929978
_cell_angle_gamma   67.22108071
_symmetry_Int_Tables_number   1
_chemical_formula_structural   Cr3CuO8
_chemical_formula_sum   'Cr3 Cu1 O8'
_cell_volume   152.80835107
_cell_formula_units_Z   1
loop_
 _symmetry_equiv_pos_site_id
 _symmetry_equiv_pos_as_xyz
  1  'x, y, z'
loop_
 _atom_site_type_symbol
 _atom_site_label
 _atom_site_symmetry_multiplicity
 _atom_site_fract_x
 _atom_site_fract_y
 _atom_site_fract_z
 _atom_site_occupancy
  O  O0  1  0.790979  0.281486  0.273905  1
  O  O1  1  0.228488  0.228638  0.942003  1
  O  O2  1  0.281276  0.791097  0.273795  1
  Cr  Cr3  1  0.347644  0.347675  0.732372  1
  Cr  Cr4  1  0.652458  0.652282  0.267663  1
  O  O5  1  0.766299  0.766359  0.464259  1
  O  O6  1  0.718536  0.208928  0.726129  1
  Cu  Cu7  1  0.000700  0.999421  0.999810  1
  O  O8  1  0.233519  0.233674  0.535778  1
  O  O9  1  0.208704  0.718842  0.726268  1
  O  O10  1  0.771491  0.771475  0.058072  1
  Cr  Cr11  1  0.999906  0.000122  0.499946  1
