# generated using pymatgen
data_K2Be2(Si2O5)3
_symmetry_space_group_name_H-M   'P 1'
_cell_length_a   7.59193938
_cell_length_b   8.64212501
_cell_length_c   11.62144632
_cell_angle_alpha   90.00000000
_cell_angle_beta   90.00000000
_cell_angle_gamma   116.05542012
_symmetry_Int_Tables_number   1
_chemical_formula_structural   K2Be2(Si2O5)3
_chemical_formula_sum   'K4 Be4 Si12 O30'
_cell_volume   684.99674319
_cell_formula_units_Z   2
loop_
 _symmetry_equiv_pos_site_id
 _symmetry_equiv_pos_as_xyz
  1  'x, y, z'
loop_
 _atom_site_type_symbol
 _atom_site_label
 _atom_site_symmetry_multiplicity
 _atom_site_fract_x
 _atom_site_fract_y
 _atom_site_fract_z
 _atom_site_occupancy
  K  K0  1  0.097317  0.194633  0.398466  1
  K  K1  1  0.792673  0.585346  0.622791  1
  K  K2  1  0.207327  0.414654  0.122791  1
  K  K3  1  0.902683  0.805367  0.898466  1
  Be  Be4  1  0.228017  0.759130  0.754796  1
  Be  Be5  1  0.771983  0.240870  0.254796  1
  Be  Be6  1  0.468887  0.240870  0.254796  1
  Be  Be7  1  0.531113  0.759130  0.754796  1
  Si  Si8  1  0.648112  0.296223  0.019061  1
  Si  Si9  1  0.551317  0.102634  0.481859  1
  Si  Si10  1  0.151119  0.892510  0.170298  1
  Si  Si11  1  0.741391  0.892510  0.170298  1
  Si  Si12  1  0.001129  0.584157  0.350904  1
  Si  Si13  1  0.848881  0.107490  0.670298  1
  Si  Si14  1  0.416972  0.415843  0.850904  1
  Si  Si15  1  0.583028  0.584157  0.350904  1
  Si  Si16  1  0.351888  0.703777  0.519061  1
  Si  Si17  1  0.448683  0.897366  0.981859  1
  Si  Si18  1  0.258609  0.107490  0.670298  1
  Si  Si19  1  0.998871  0.415843  0.850904  1
  O  O20  1  0.447957  0.895913  0.464957  1
  O  O21  1  0.928878  0.857755  0.127380  1
  O  O22  1  0.562318  0.594972  0.793027  1
  O  O23  1  0.816551  0.085807  0.215130  1
  O  O24  1  0.269255  0.085807  0.215130  1
  O  O25  1  0.183449  0.914193  0.715130  1
  O  O26  1  0.876138  0.392832  0.972767  1
  O  O27  1  0.756756  0.158662  0.554734  1
  O  O28  1  0.483306  0.607168  0.472767  1
  O  O29  1  0.351889  0.703779  0.657960  1
  O  O30  1  0.071122  0.142245  0.627380  1
  O  O31  1  0.552043  0.104087  0.964957  1
  O  O32  1  0.871890  0.251306  0.768330  1
  O  O33  1  0.403494  0.806987  0.856600  1
  O  O34  1  0.967346  0.405028  0.293027  1
  O  O35  1  0.401906  0.158662  0.554734  1
  O  O36  1  0.598094  0.841338  0.054734  1
  O  O37  1  0.516694  0.392832  0.972767  1
  O  O38  1  0.797756  0.595512  0.390355  1
  O  O39  1  0.032654  0.594972  0.793027  1
  O  O40  1  0.730745  0.914193  0.715130  1
  O  O41  1  0.596506  0.193013  0.356600  1
  O  O42  1  0.620585  0.748694  0.268330  1
  O  O43  1  0.243244  0.841338  0.054734  1
  O  O44  1  0.202244  0.404488  0.890355  1
  O  O45  1  0.648111  0.296221  0.157960  1
  O  O46  1  0.123862  0.607168  0.472767  1
  O  O47  1  0.128110  0.748694  0.268330  1
  O  O48  1  0.379415  0.251306  0.768330  1
  O  O49  1  0.437682  0.405028  0.293027  1
