# generated using pymatgen
data_CeZr6(PO4)9
_symmetry_space_group_name_H-M   'P 1'
_cell_length_a   8.96255043
_cell_length_b   8.96255000
_cell_length_c   23.18763472
_cell_angle_alpha   90.00000000
_cell_angle_beta   90.00000000
_cell_angle_gamma   120.00000164
_symmetry_Int_Tables_number   1
_chemical_formula_structural   CeZr6(PO4)9
_chemical_formula_sum   'Ce2 Zr12 P18 O72'
_cell_volume   1613.05909548
_cell_formula_units_Z   2
loop_
 _symmetry_equiv_pos_site_id
 _symmetry_equiv_pos_as_xyz
  1  'x, y, z'
loop_
 _atom_site_type_symbol
 _atom_site_label
 _atom_site_symmetry_multiplicity
 _atom_site_fract_x
 _atom_site_fract_y
 _atom_site_fract_z
 _atom_site_occupancy
  Ce  Ce0  1  0.000000  0.000000  0.500000  1
  Ce  Ce1  1  0.000000  0.000000  0.000000  1
  Zr  Zr2  1  0.333333  0.666667  0.528424  1
  Zr  Zr3  1  0.333333  0.666667  0.028424  1
  Zr  Zr4  1  0.666667  0.333333  0.187724  1
  Zr  Zr5  1  0.666667  0.333333  0.687724  1
  Zr  Zr6  1  0.000000  0.000000  0.650294  1
  Zr  Zr7  1  0.000000  0.000000  0.849706  1
  Zr  Zr8  1  0.000000  0.000000  0.150294  1
  Zr  Zr9  1  0.666667  0.333333  0.971576  1
  Zr  Zr10  1  0.333333  0.666667  0.812276  1
  Zr  Zr11  1  0.000000  0.000000  0.349706  1
  Zr  Zr12  1  0.666667  0.333333  0.471576  1
  Zr  Zr13  1  0.333333  0.666667  0.312276  1
  P  P14  1  0.000000  0.709008  0.750000  1
  P  P15  1  0.053366  0.677178  0.420295  1
  P  P16  1  0.322822  0.376187  0.420295  1
  P  P17  1  0.677178  0.623813  0.579705  1
  P  P18  1  1.000000  0.290992  0.250000  1
  P  P19  1  0.946634  0.623813  0.079705  1
  P  P20  1  0.376187  0.053366  0.579705  1
  P  P21  1  0.946634  0.322822  0.579705  1
  P  P22  1  0.290992  0.000000  0.250000  1
  P  P23  1  0.376187  0.322822  0.079705  1
  P  P24  1  0.709008  0.709008  0.250000  1
  P  P25  1  0.677178  0.053366  0.079705  1
  P  P26  1  0.709008  0.000000  0.750000  1
  P  P27  1  0.322822  0.946634  0.920295  1
  P  P28  1  0.623813  0.677178  0.920295  1
  P  P29  1  0.623813  0.946634  0.420295  1
  P  P30  1  0.053366  0.376187  0.920295  1
  P  P31  1  0.290992  0.290992  0.750000  1
  O  O32  1  0.161103  0.186790  0.418214  1
  O  O33  1  0.025687  0.838897  0.418214  1
  O  O34  1  0.514404  0.639639  0.576043  1
  O  O35  1  0.360361  0.874766  0.576043  1
  O  O36  1  0.326826  0.472744  0.365618  1
  O  O37  1  0.158583  0.692060  0.760664  1
  O  O38  1  0.794778  0.827897  0.196740  1
  O  O39  1  0.172103  0.966881  0.196740  1
  O  O40  1  0.472744  0.145919  0.634382  1
  O  O41  1  0.813210  0.838897  0.918214  1
  O  O42  1  0.966881  0.172103  0.303260  1
  O  O43  1  0.458373  0.298514  0.024904  1
  O  O44  1  0.360361  0.485596  0.076043  1
  O  O45  1  0.838897  0.813210  0.581786  1
  O  O46  1  0.639639  0.125234  0.423957  1
  O  O47  1  0.205222  0.172103  0.803260  1
  O  O48  1  0.159860  0.458373  0.975096  1
  O  O49  1  0.458373  0.159860  0.524904  1
  O  O50  1  0.841417  0.533478  0.739336  1
  O  O51  1  0.692060  0.533478  0.239336  1
  O  O52  1  0.186790  0.161103  0.081786  1
  O  O53  1  0.533478  0.692060  0.260664  1
  O  O54  1  0.307940  0.841417  0.260664  1
  O  O55  1  0.701486  0.541627  0.524904  1
  O  O56  1  0.840140  0.298514  0.524904  1
  O  O57  1  0.854081  0.326826  0.634382  1
  O  O58  1  0.639639  0.514404  0.923957  1
  O  O59  1  0.974313  0.813210  0.081786  1
  O  O60  1  0.033119  0.205222  0.196740  1
  O  O61  1  0.145919  0.472744  0.865618  1
  O  O62  1  0.840140  0.541627  0.024904  1
  O  O63  1  0.527256  0.673174  0.865618  1
  O  O64  1  0.541627  0.840140  0.475096  1
  O  O65  1  0.527256  0.854081  0.365618  1
  O  O66  1  0.794778  0.966881  0.696740  1
  O  O67  1  0.298514  0.458373  0.475096  1
  O  O68  1  0.186790  0.025687  0.581786  1
  O  O69  1  0.827897  0.033119  0.803260  1
  O  O70  1  0.841417  0.307940  0.239336  1
  O  O71  1  0.466522  0.158583  0.239336  1
  O  O72  1  0.701486  0.159860  0.024904  1
  O  O73  1  0.205222  0.033119  0.303260  1
  O  O74  1  0.974313  0.161103  0.581786  1
  O  O75  1  0.827897  0.794778  0.303260  1
  O  O76  1  0.466522  0.307940  0.739336  1
  O  O77  1  0.172103  0.205222  0.696740  1
  O  O78  1  0.854081  0.527256  0.134382  1
  O  O79  1  0.813210  0.974313  0.418214  1
  O  O80  1  0.533478  0.841417  0.760664  1
  O  O81  1  0.033119  0.827897  0.696740  1
  O  O82  1  0.307940  0.466522  0.760664  1
  O  O83  1  0.673174  0.527256  0.634382  1
  O  O84  1  0.159860  0.701486  0.475096  1
  O  O85  1  0.326826  0.854081  0.865618  1
  O  O86  1  0.485596  0.125234  0.923957  1
  O  O87  1  0.125234  0.639639  0.076043  1
  O  O88  1  0.125234  0.485596  0.576043  1
  O  O89  1  0.874766  0.514404  0.423957  1
  O  O90  1  0.966881  0.794778  0.803260  1
  O  O91  1  0.485596  0.360361  0.423957  1
  O  O92  1  0.514404  0.874766  0.076043  1
  O  O93  1  0.673174  0.145919  0.134382  1
  O  O94  1  0.541627  0.701486  0.975096  1
  O  O95  1  0.145919  0.673174  0.365618  1
  O  O96  1  0.158583  0.466522  0.260664  1
  O  O97  1  0.472744  0.326826  0.134382  1
  O  O98  1  0.161103  0.974313  0.918214  1
  O  O99  1  0.298514  0.840140  0.975096  1
  O  O100  1  0.838897  0.025687  0.081786  1
  O  O101  1  0.692060  0.158583  0.739336  1
  O  O102  1  0.874766  0.360361  0.923957  1
  O  O103  1  0.025687  0.186790  0.918214  1
