# generated using pymatgen
data_Bi3Pt3O11
_symmetry_space_group_name_H-M   'P 1'
_cell_length_a   9.52071152
_cell_length_b   9.52071152
_cell_length_c   9.52071152
_cell_angle_alpha   90.00000000
_cell_angle_beta   90.00000000
_cell_angle_gamma   90.00000000
_symmetry_Int_Tables_number   1
_chemical_formula_structural   Bi3Pt3O11
_chemical_formula_sum   'Bi12 Pt12 O44'
_cell_volume   862.99487849
_cell_formula_units_Z   4
loop_
 _symmetry_equiv_pos_site_id
 _symmetry_equiv_pos_as_xyz
  1  'x, y, z'
loop_
 _atom_site_type_symbol
 _atom_site_label
 _atom_site_symmetry_multiplicity
 _atom_site_fract_x
 _atom_site_fract_y
 _atom_site_fract_z
 _atom_site_occupancy
  Bi  Bi0  1  0.117634  0.382366  0.117634  1
  Bi  Bi1  1  0.382366  0.382366  0.382366  1
  Bi  Bi2  1  0.617634  0.882366  0.882366  1
  Bi  Bi3  1  0.882366  0.617634  0.882366  1
  Bi  Bi4  1  0.117634  0.117634  0.382366  1
  Bi  Bi5  1  0.382366  0.117634  0.117634  1
  Bi  Bi6  1  0.500000  0.000000  0.500000  1
  Bi  Bi7  1  0.882366  0.882366  0.617634  1
  Bi  Bi8  1  0.000000  0.000000  0.000000  1
  Bi  Bi9  1  0.500000  0.500000  0.000000  1
  Bi  Bi10  1  0.000000  0.500000  0.500000  1
  Bi  Bi11  1  0.617634  0.617634  0.617634  1
  Pt  Pt12  1  0.750000  0.407831  0.250000  1
  Pt  Pt13  1  0.250000  0.750000  0.092169  1
  Pt  Pt14  1  0.750000  0.250000  0.907831  1
  Pt  Pt15  1  0.750000  0.250000  0.592169  1
  Pt  Pt16  1  0.407831  0.250000  0.750000  1
  Pt  Pt17  1  0.907831  0.750000  0.250000  1
  Pt  Pt18  1  0.250000  0.750000  0.407831  1
  Pt  Pt19  1  0.092169  0.250000  0.750000  1
  Pt  Pt20  1  0.250000  0.592169  0.750000  1
  Pt  Pt21  1  0.592169  0.750000  0.250000  1
  Pt  Pt22  1  0.250000  0.907831  0.750000  1
  Pt  Pt23  1  0.750000  0.092169  0.250000  1
  O  O24  1  0.147059  0.352941  0.352941  1
  O  O25  1  0.750000  0.105283  0.750000  1
  O  O26  1  0.081385  0.461677  0.744675  1
  O  O27  1  0.852941  0.852941  0.852941  1
  O  O28  1  0.581385  0.961677  0.255325  1
  O  O29  1  0.250000  0.250000  0.894717  1
  O  O30  1  0.147059  0.147059  0.147059  1
  O  O31  1  0.081385  0.038323  0.755325  1
  O  O32  1  0.961677  0.255325  0.581385  1
  O  O33  1  0.647059  0.647059  0.852941  1
  O  O34  1  0.418615  0.038323  0.744675  1
  O  O35  1  0.418615  0.461677  0.755325  1
  O  O36  1  0.852941  0.647059  0.647059  1
  O  O37  1  0.755325  0.418615  0.461677  1
  O  O38  1  0.918615  0.961677  0.244675  1
  O  O39  1  0.538323  0.244675  0.581385  1
  O  O40  1  0.744675  0.418615  0.038323  1
  O  O41  1  0.647059  0.852941  0.647059  1
  O  O42  1  0.105283  0.750000  0.750000  1
  O  O43  1  0.461677  0.755325  0.418615  1
  O  O44  1  0.961677  0.244675  0.918615  1
  O  O45  1  0.255325  0.918615  0.538323  1
  O  O46  1  0.244675  0.581385  0.538323  1
  O  O47  1  0.538323  0.255325  0.918615  1
  O  O48  1  0.038323  0.744675  0.418615  1
  O  O49  1  0.581385  0.538323  0.244675  1
  O  O50  1  0.755325  0.081385  0.038323  1
  O  O51  1  0.038323  0.755325  0.081385  1
  O  O52  1  0.605283  0.250000  0.250000  1
  O  O53  1  0.750000  0.394717  0.750000  1
  O  O54  1  0.352941  0.147059  0.352941  1
  O  O55  1  0.250000  0.894717  0.250000  1
  O  O56  1  0.744675  0.081385  0.461677  1
  O  O57  1  0.461677  0.744675  0.081385  1
  O  O58  1  0.352941  0.352941  0.147059  1
  O  O59  1  0.918615  0.538323  0.255325  1
  O  O60  1  0.750000  0.750000  0.105283  1
  O  O61  1  0.250000  0.250000  0.605283  1
  O  O62  1  0.244675  0.918615  0.961677  1
  O  O63  1  0.394717  0.750000  0.750000  1
  O  O64  1  0.894717  0.250000  0.250000  1
  O  O65  1  0.255325  0.581385  0.961677  1
  O  O66  1  0.750000  0.750000  0.394717  1
  O  O67  1  0.250000  0.605283  0.250000  1
