# generated using pymatgen
data_Sr(ClO2)2
_symmetry_space_group_name_H-M   'P 1'
_cell_length_a   6.03147911
_cell_length_b   6.05757057
_cell_length_c   7.30758494
_cell_angle_alpha   114.48603247
_cell_angle_beta   90.00000000
_cell_angle_gamma   90.00000000
_symmetry_Int_Tables_number   1
_chemical_formula_structural   Sr(ClO2)2
_chemical_formula_sum   'Sr2 Cl4 O8'
_cell_volume   242.97820752
_cell_formula_units_Z   2
loop_
 _symmetry_equiv_pos_site_id
 _symmetry_equiv_pos_as_xyz
  1  'x, y, z'
loop_
 _atom_site_type_symbol
 _atom_site_label
 _atom_site_symmetry_multiplicity
 _atom_site_fract_x
 _atom_site_fract_y
 _atom_site_fract_z
 _atom_site_occupancy
  Sr  Sr0  1  0.750000  0.250000  0.500000  1
  Sr  Sr1  1  0.250000  0.750000  0.500000  1
  Cl  Cl2  1  0.250000  0.083276  0.166552  1
  Cl  Cl3  1  0.250000  0.416724  0.833448  1
  Cl  Cl4  1  0.750000  0.583276  0.166552  1
  Cl  Cl5  1  0.750000  0.916724  0.833448  1
  O  O6  1  0.596824  0.495580  0.300031  1
  O  O7  1  0.096824  0.304450  0.300031  1
  O  O8  1  0.903176  0.695550  0.699969  1
  O  O9  1  0.403176  0.504420  0.699969  1
  O  O10  1  0.903176  0.804450  0.300031  1
  O  O11  1  0.596824  0.004420  0.699969  1
  O  O12  1  0.403176  0.995580  0.300031  1
  O  O13  1  0.096824  0.195550  0.699969  1
