# generated using pymatgen
data_Dy(CrS2)3
_symmetry_space_group_name_H-M   'P 1'
_cell_length_a   10.69544736
_cell_length_b   10.84985190
_cell_length_c   12.65206180
_cell_angle_alpha   90.00000000
_cell_angle_beta   90.00000000
_cell_angle_gamma   90.00000000
_symmetry_Int_Tables_number   1
_chemical_formula_structural   Dy(CrS2)3
_chemical_formula_sum   'Dy8 Cr24 S48'
_cell_volume   1468.19611079
_cell_formula_units_Z   8
loop_
 _symmetry_equiv_pos_site_id
 _symmetry_equiv_pos_as_xyz
  1  'x, y, z'
loop_
 _atom_site_type_symbol
 _atom_site_label
 _atom_site_symmetry_multiplicity
 _atom_site_fract_x
 _atom_site_fract_y
 _atom_site_fract_z
 _atom_site_occupancy
  Cr  Cr0  1  0.000000  0.331928  0.426493  1
  Cr  Cr1  1  0.000000  0.805789  0.223843  1
  Cr  Cr2  1  0.000000  0.301870  0.943488  1
  Cr  Cr3  1  0.000000  0.844981  0.736286  1
  Cr  Cr4  1  0.167197  0.664946  0.927751  1
  Cr  Cr5  1  0.163865  0.190298  0.712666  1
  Cr  Cr6  1  0.164303  0.708203  0.447631  1
  Cr  Cr7  1  0.164473  0.154230  0.239138  1
  Cr  Cr8  1  0.335527  0.845770  0.739138  1
  Cr  Cr9  1  0.335697  0.291797  0.947631  1
  Cr  Cr10  1  0.336135  0.809702  0.212666  1
  Cr  Cr11  1  0.332803  0.335054  0.427751  1
  Cr  Cr12  1  0.500000  0.155019  0.236286  1
  Cr  Cr13  1  0.500000  0.194211  0.723843  1
  Cr  Cr14  1  0.500000  0.668072  0.926493  1
  Cr  Cr15  1  0.500000  0.698130  0.443488  1
  Cr  Cr16  1  0.667197  0.335054  0.427751  1
  Cr  Cr17  1  0.663865  0.809702  0.212666  1
  Cr  Cr18  1  0.664303  0.291797  0.947631  1
  Cr  Cr19  1  0.664473  0.845770  0.739138  1
  Cr  Cr20  1  0.835527  0.154230  0.239138  1
  Cr  Cr21  1  0.835697  0.708203  0.447631  1
  Cr  Cr22  1  0.836135  0.190298  0.712666  1
  Cr  Cr23  1  0.832803  0.664946  0.927751  1
  Dy  Dy24  1  0.000000  0.489485  0.164690  1
  Dy  Dy25  1  0.000000  0.987624  0.000172  1
  Dy  Dy26  1  0.166518  0.517125  0.662879  1
  Dy  Dy27  1  0.333482  0.482875  0.162879  1
  Dy  Dy28  1  0.500000  0.012376  0.500172  1
  Dy  Dy29  1  0.500000  0.510515  0.664690  1
  Dy  Dy30  1  0.666518  0.482875  0.162879  1
  Dy  Dy31  1  0.833482  0.517125  0.662879  1
  S  S32  1  0.000000  0.211459  0.119002  1
  S  S33  1  0.000000  0.127908  0.362243  1
  S  S34  1  0.000000  0.053320  0.670427  1
  S  S35  1  0.000000  0.713574  0.044695  1
  S  S36  1  0.000000  0.554045  0.493982  1
  S  S37  1  0.000000  0.342382  0.757258  1
  S  S38  1  0.000000  0.841584  0.404796  1
  S  S39  1  0.000000  0.633605  0.800328  1
  S  S40  1  0.165583  0.870707  0.863794  1
  S  S41  1  0.166035  0.297779  0.546230  1
  S  S42  1  0.163060  0.162000  0.900698  1
  S  S43  1  0.167212  0.775604  0.624045  1
  S  S44  1  0.163376  0.945826  0.172986  1
  S  S45  1  0.165498  0.364768  0.298732  1
  S  S46  1  0.167341  0.656135  0.260265  1
  S  S47  1  0.164928  0.450120  0.996434  1
  S  S48  1  0.335072  0.549880  0.496434  1
  S  S49  1  0.332659  0.343865  0.760265  1
  S  S50  1  0.334502  0.635232  0.798732  1
  S  S51  1  0.336624  0.054174  0.672986  1
  S  S52  1  0.332788  0.224396  0.124045  1
  S  S53  1  0.336940  0.838000  0.400698  1
  S  S54  1  0.333965  0.702221  0.046230  1
  S  S55  1  0.334417  0.129293  0.363794  1
  S  S56  1  0.500000  0.286426  0.544695  1
  S  S57  1  0.500000  0.657618  0.257258  1
  S  S58  1  0.500000  0.788541  0.619002  1
  S  S59  1  0.500000  0.158416  0.904796  1
  S  S60  1  0.500000  0.366395  0.300328  1
  S  S61  1  0.500000  0.445955  0.993982  1
  S  S62  1  0.500000  0.946680  0.170427  1
  S  S63  1  0.500000  0.872092  0.862243  1
  S  S64  1  0.665583  0.129293  0.363794  1
  S  S65  1  0.666035  0.702221  0.046230  1
  S  S66  1  0.663060  0.838000  0.400698  1
  S  S67  1  0.667212  0.224396  0.124045  1
  S  S68  1  0.663376  0.054174  0.672986  1
  S  S69  1  0.665498  0.635232  0.798732  1
  S  S70  1  0.667341  0.343865  0.760265  1
  S  S71  1  0.664928  0.549880  0.496434  1
  S  S72  1  0.835072  0.450120  0.996434  1
  S  S73  1  0.832659  0.656135  0.260265  1
  S  S74  1  0.834502  0.364768  0.298732  1
  S  S75  1  0.836624  0.945826  0.172986  1
  S  S76  1  0.832788  0.775604  0.624045  1
  S  S77  1  0.836940  0.162000  0.900698  1
  S  S78  1  0.833965  0.297779  0.546230  1
  S  S79  1  0.834417  0.870707  0.863794  1
