# generated using pymatgen
data_TeI
_symmetry_space_group_name_H-M   'P 1'
_cell_length_a   4.26133513
_cell_length_b   8.48161913
_cell_length_c   10.05480666
_cell_angle_alpha   89.57549418
_cell_angle_beta   77.74494789
_cell_angle_gamma   75.50704093
_symmetry_Int_Tables_number   1
_chemical_formula_structural   TeI
_chemical_formula_sum   'Te4 I4'
_cell_volume   343.42747106
_cell_formula_units_Z   4
loop_
 _symmetry_equiv_pos_site_id
 _symmetry_equiv_pos_as_xyz
  1  'x, y, z'
loop_
 _atom_site_type_symbol
 _atom_site_label
 _atom_site_symmetry_multiplicity
 _atom_site_fract_x
 _atom_site_fract_y
 _atom_site_fract_z
 _atom_site_occupancy
  Te  Te0  1  0.701206  0.420461  0.176352  1
  Te  Te1  1  0.083768  0.670334  0.163013  1
  Te  Te2  1  0.916232  0.329666  0.836987  1
  Te  Te3  1  0.298794  0.579539  0.823648  1
  I  I4  1  0.665777  0.857088  0.812278  1
  I  I5  1  0.103963  0.230859  0.560751  1
  I  I6  1  0.896037  0.769141  0.439249  1
  I  I7  1  0.334223  0.142912  0.187722  1
