# generated using pymatgen
data_NaTeH12(CO)3
_symmetry_space_group_name_H-M   'P 1'
_cell_length_a   8.59139393
_cell_length_b   8.59139385
_cell_length_c   13.71329091
_cell_angle_alpha   90.00000000
_cell_angle_beta   90.00000000
_cell_angle_gamma   120.00000026
_symmetry_Int_Tables_number   1
_chemical_formula_structural   NaTeH12(CO)3
_chemical_formula_sum   'Na4 Te4 H48 C12 O12'
_cell_volume   876.59619454
_cell_formula_units_Z   4
loop_
 _symmetry_equiv_pos_site_id
 _symmetry_equiv_pos_as_xyz
  1  'x, y, z'
loop_
 _atom_site_type_symbol
 _atom_site_label
 _atom_site_symmetry_multiplicity
 _atom_site_fract_x
 _atom_site_fract_y
 _atom_site_fract_z
 _atom_site_occupancy
  Na  Na0  1  0.000000  0.000000  0.250000  1
  Na  Na1  1  0.000000  0.000000  0.000000  1
  Na  Na2  1  0.000000  0.000000  0.750000  1
  Na  Na3  1  0.000000  0.000000  0.500000  1
  Te  Te4  1  0.333333  0.666667  0.851558  1
  Te  Te5  1  0.666667  0.333333  0.148442  1
  Te  Te6  1  0.333333  0.666667  0.648442  1
  Te  Te7  1  0.666667  0.333333  0.351558  1
  H  H8  1  0.691085  0.546230  0.549543  1
  H  H9  1  0.308915  0.453770  0.450457  1
  H  H10  1  0.144855  0.453770  0.049543  1
  H  H11  1  0.639985  0.908853  0.104299  1
  H  H12  1  0.360015  0.091147  0.895701  1
  H  H13  1  0.546230  0.855145  0.450457  1
  H  H14  1  0.144855  0.691085  0.450457  1
  H  H15  1  0.287938  0.822534  0.178979  1
  H  H16  1  0.177466  0.465403  0.178979  1
  H  H17  1  0.731132  0.639985  0.895701  1
  H  H18  1  0.177466  0.712062  0.321021  1
  H  H19  1  0.465403  0.287938  0.821021  1
  H  H20  1  0.091147  0.731132  0.104299  1
  H  H21  1  0.908853  0.639985  0.604299  1
  H  H22  1  0.731132  0.091147  0.604299  1
  H  H23  1  0.268868  0.360015  0.104299  1
  H  H24  1  0.453770  0.144855  0.549543  1
  H  H25  1  0.712062  0.534597  0.678979  1
  H  H26  1  0.360015  0.268868  0.604299  1
  H  H27  1  0.534597  0.712062  0.178979  1
  H  H28  1  0.691085  0.144855  0.950457  1
  H  H29  1  0.767733  0.108127  0.368560  1
  H  H30  1  0.659606  0.891873  0.868560  1
  H  H31  1  0.534597  0.822534  0.321021  1
  H  H32  1  0.340394  0.108127  0.131440  1
  H  H33  1  0.340394  0.232267  0.368560  1
  H  H34  1  0.891873  0.659606  0.368560  1
  H  H35  1  0.268868  0.908853  0.395701  1
  H  H36  1  0.091147  0.360015  0.395701  1
  H  H37  1  0.108127  0.767733  0.868560  1
  H  H38  1  0.232267  0.891873  0.631440  1
  H  H39  1  0.891873  0.232267  0.131440  1
  H  H40  1  0.855145  0.308915  0.549543  1
  H  H41  1  0.465403  0.177466  0.678979  1
  H  H42  1  0.822534  0.287938  0.678979  1
  H  H43  1  0.308915  0.855145  0.049543  1
  H  H44  1  0.767733  0.659606  0.131440  1
  H  H45  1  0.855145  0.546230  0.950457  1
  H  H46  1  0.232267  0.340394  0.868560  1
  H  H47  1  0.659606  0.767733  0.631440  1
  H  H48  1  0.453770  0.308915  0.950457  1
  H  H49  1  0.287938  0.465403  0.321021  1
  H  H50  1  0.108127  0.340394  0.631440  1
  H  H51  1  0.822534  0.534597  0.821021  1
  H  H52  1  0.639985  0.731132  0.395701  1
  H  H53  1  0.546230  0.691085  0.049543  1
  H  H54  1  0.712062  0.177466  0.821021  1
  H  H55  1  0.908853  0.268868  0.895701  1
  C  C56  1  0.381851  0.154288  0.613782  1
  C  C57  1  0.772437  0.618149  0.613782  1
  C  C58  1  0.227563  0.845712  0.113782  1
  C  C59  1  0.154288  0.381851  0.113782  1
  C  C60  1  0.618149  0.845712  0.386218  1
  C  C61  1  0.154288  0.772437  0.386218  1
  C  C62  1  0.227563  0.381851  0.386218  1
  C  C63  1  0.381851  0.227563  0.886218  1
  C  C64  1  0.772437  0.154288  0.886218  1
  C  C65  1  0.845712  0.227563  0.613782  1
  C  C66  1  0.845712  0.618149  0.886218  1
  C  C67  1  0.618149  0.772437  0.113782  1
  O  O68  1  0.208782  0.994838  0.624633  1
  O  O69  1  0.791218  0.786056  0.124633  1
  O  O70  1  0.005162  0.791218  0.875367  1
  O  O71  1  0.994838  0.208782  0.124633  1
  O  O72  1  0.786056  0.791218  0.624633  1
  O  O73  1  0.786056  0.994838  0.875367  1
  O  O74  1  0.213944  0.208782  0.375367  1
  O  O75  1  0.213944  0.005162  0.124633  1
  O  O76  1  0.005162  0.213944  0.624633  1
  O  O77  1  0.208782  0.213944  0.875367  1
  O  O78  1  0.791218  0.005162  0.375367  1
  O  O79  1  0.994838  0.786056  0.375367  1
