# generated using pymatgen
data_P3NCl12
_symmetry_space_group_name_H-M   'P 1'
_cell_length_a   12.17217784
_cell_length_b   14.93526538
_cell_length_c   21.76179433
_cell_angle_alpha   90.00000000
_cell_angle_beta   90.00000000
_cell_angle_gamma   106.33445396
_symmetry_Int_Tables_number   1
_chemical_formula_structural   P3NCl12
_chemical_formula_sum   'P24 N8 Cl96'
_cell_volume   3796.49316009
_cell_formula_units_Z   8
loop_
 _symmetry_equiv_pos_site_id
 _symmetry_equiv_pos_as_xyz
  1  'x, y, z'
loop_
 _atom_site_type_symbol
 _atom_site_label
 _atom_site_symmetry_multiplicity
 _atom_site_fract_x
 _atom_site_fract_y
 _atom_site_fract_z
 _atom_site_occupancy
  P  P0  1  0.929037  0.870557  0.292761  1
  P  P1  1  0.791833  0.333380  0.529996  1
  P  P2  1  0.009398  0.046798  0.224850  1
  P  P3  1  0.755071  0.342685  0.963424  1
  P  P4  1  0.412762  0.935910  0.283726  1
  P  P5  1  0.587238  0.064090  0.716274  1
  P  P6  1  0.509398  0.546798  0.275150  1
  P  P7  1  0.708167  0.166620  0.029996  1
  P  P8  1  0.760571  0.715464  0.529669  1
  P  P9  1  0.208167  0.666620  0.470004  1
  P  P10  1  0.255071  0.842685  0.536576  1
  P  P11  1  0.239429  0.284536  0.470331  1
  P  P12  1  0.490602  0.453202  0.724850  1
  P  P13  1  0.570963  0.629443  0.792761  1
  P  P14  1  0.990602  0.953202  0.775150  1
  P  P15  1  0.912762  0.435910  0.216274  1
  P  P16  1  0.244929  0.657315  0.036576  1
  P  P17  1  0.291833  0.833380  0.970004  1
  P  P18  1  0.429037  0.370557  0.207239  1
  P  P19  1  0.739429  0.784536  0.029669  1
  P  P20  1  0.087238  0.564090  0.783726  1
  P  P21  1  0.744929  0.157315  0.463424  1
  P  P22  1  0.260571  0.215464  0.970331  1
  P  P23  1  0.070963  0.129443  0.707239  1
  N  N24  1  0.294245  0.730875  0.984573  1
  N  N25  1  0.012390  0.059112  0.759104  1
  N  N26  1  0.794245  0.230875  0.515427  1
  N  N27  1  0.205755  0.769125  0.484573  1
  N  N28  1  0.987610  0.940888  0.240896  1
  N  N29  1  0.512390  0.559112  0.740896  1
  N  N30  1  0.705755  0.269125  0.015427  1
  N  N31  1  0.487610  0.440888  0.259104  1
  Cl  Cl32  1  0.850776  0.647028  0.590686  1
  Cl  Cl33  1  0.422288  0.869216  0.549232  1
  Cl  Cl34  1  0.865769  0.084456  0.216462  1
  Cl  Cl35  1  0.764838  0.862727  0.304443  1
  Cl  Cl36  1  0.635599  0.343897  0.544955  1
  Cl  Cl37  1  0.670892  0.785569  0.467618  1
  Cl  Cl38  1  0.505147  0.141920  0.776263  1
  Cl  Cl39  1  0.338764  0.985362  0.203698  1
  Cl  Cl40  1  0.856580  0.423420  0.463405  1
  Cl  Cl41  1  0.161236  0.514638  0.703698  1
  Cl  Cl42  1  0.994853  0.358080  0.276263  1
  Cl  Cl43  1  0.816658  0.196444  0.382271  1
  Cl  Cl44  1  0.827920  0.745687  0.106913  1
  Cl  Cl45  1  0.077712  0.630784  0.049232  1
  Cl  Cl46  1  0.150428  0.322531  0.548762  1
  Cl  Cl47  1  0.263340  0.816067  0.290096  1
  Cl  Cl48  1  0.497405  0.598426  0.874179  1
  Cl  Cl49  1  0.602368  0.653908  0.039070  1
  Cl  Cl50  1  0.882896  0.378105  0.604580  1
  Cl  Cl51  1  0.364401  0.656103  0.455045  1
  Cl  Cl52  1  0.410015  0.426573  0.645589  1
  Cl  Cl53  1  0.264838  0.362727  0.195557  1
  Cl  Cl54  1  0.832904  0.514757  0.156848  1
  Cl  Cl55  1  0.763340  0.316067  0.209904  1
  Cl  Cl56  1  0.089985  0.073427  0.145589  1
  Cl  Cl57  1  0.225291  0.961956  0.514893  1
  Cl  Cl58  1  0.988269  0.387242  0.136886  1
  Cl  Cl59  1  0.511731  0.112758  0.636886  1
  Cl  Cl60  1  0.183342  0.803556  0.617729  1
  Cl  Cl61  1  0.875770  0.913059  0.018916  1
  Cl  Cl62  1  0.356580  0.923420  0.036595  1
  Cl  Cl63  1  0.149224  0.352972  0.409314  1
  Cl  Cl64  1  0.488269  0.887242  0.363114  1
  Cl  Cl65  1  0.774709  0.038044  0.485107  1
  Cl  Cl66  1  0.562289  0.755237  0.770890  1
  Cl  Cl67  1  0.235162  0.137273  0.695557  1
  Cl  Cl68  1  0.725291  0.461956  0.985107  1
  Cl  Cl69  1  0.563457  0.056911  0.276271  1
  Cl  Cl70  1  0.436543  0.943089  0.723729  1
  Cl  Cl71  1  0.329108  0.214431  0.532382  1
  Cl  Cl72  1  0.005147  0.641920  0.723737  1
  Cl  Cl73  1  0.494853  0.858080  0.223737  1
  Cl  Cl74  1  0.170892  0.285569  0.032382  1
  Cl  Cl75  1  0.643420  0.076580  0.963405  1
  Cl  Cl76  1  0.063457  0.556911  0.223729  1
  Cl  Cl77  1  0.997405  0.098426  0.625821  1
  Cl  Cl78  1  0.683342  0.303556  0.882271  1
  Cl  Cl79  1  0.649224  0.852972  0.090686  1
  Cl  Cl80  1  0.396713  0.368025  0.786960  1
  Cl  Cl81  1  0.896713  0.868025  0.713040  1
  Cl  Cl82  1  0.365769  0.584456  0.283538  1
  Cl  Cl83  1  0.849572  0.677469  0.451238  1
  Cl  Cl84  1  0.736660  0.183933  0.709904  1
  Cl  Cl85  1  0.397632  0.346092  0.960930  1
  Cl  Cl86  1  0.134231  0.915544  0.783538  1
  Cl  Cl87  1  0.936543  0.443089  0.776271  1
  Cl  Cl88  1  0.667096  0.985243  0.656848  1
  Cl  Cl89  1  0.349572  0.177469  0.048762  1
  Cl  Cl90  1  0.624230  0.586941  0.518916  1
  Cl  Cl91  1  0.172080  0.254313  0.893087  1
  Cl  Cl92  1  0.062289  0.255237  0.729110  1
  Cl  Cl93  1  0.577712  0.130784  0.450768  1
  Cl  Cl94  1  0.103287  0.131975  0.286960  1
  Cl  Cl95  1  0.735162  0.637273  0.804443  1
  Cl  Cl96  1  0.002595  0.901574  0.374179  1
  Cl  Cl97  1  0.937711  0.744763  0.270890  1
  Cl  Cl98  1  0.910015  0.926573  0.854411  1
  Cl  Cl99  1  0.603287  0.631975  0.213040  1
  Cl  Cl100  1  0.650428  0.822531  0.951238  1
  Cl  Cl101  1  0.350776  0.147028  0.909314  1
  Cl  Cl102  1  0.117104  0.621895  0.395420  1
  Cl  Cl103  1  0.589985  0.573427  0.354411  1
  Cl  Cl104  1  0.236660  0.683933  0.790096  1
  Cl  Cl105  1  0.661236  0.014638  0.796302  1
  Cl  Cl106  1  0.316658  0.696444  0.117729  1
  Cl  Cl107  1  0.634231  0.415544  0.716462  1
  Cl  Cl108  1  0.011731  0.612758  0.863114  1
  Cl  Cl109  1  0.617104  0.121895  0.104580  1
  Cl  Cl110  1  0.332904  0.014757  0.343152  1
  Cl  Cl111  1  0.135599  0.843897  0.955045  1
  Cl  Cl112  1  0.274709  0.538044  0.014893  1
  Cl  Cl113  1  0.502595  0.401574  0.125821  1
  Cl  Cl114  1  0.124230  0.086941  0.981084  1
  Cl  Cl115  1  0.167096  0.485243  0.843152  1
  Cl  Cl116  1  0.829108  0.714431  0.967618  1
  Cl  Cl117  1  0.437711  0.244763  0.229110  1
  Cl  Cl118  1  0.864401  0.156103  0.044955  1
  Cl  Cl119  1  0.102368  0.153908  0.460930  1
  Cl  Cl120  1  0.375770  0.413059  0.481084  1
  Cl  Cl121  1  0.382896  0.878105  0.895420  1
  Cl  Cl122  1  0.143420  0.576580  0.536595  1
  Cl  Cl123  1  0.897632  0.846092  0.539070  1
  Cl  Cl124  1  0.327920  0.245687  0.393087  1
  Cl  Cl125  1  0.672080  0.754313  0.606913  1
  Cl  Cl126  1  0.922288  0.369216  0.950768  1
  Cl  Cl127  1  0.838764  0.485362  0.296302  1
