# generated using pymatgen
data_Na2DyMoPO8
_symmetry_space_group_name_H-M   'P 1'
_cell_length_a   6.95783533
_cell_length_b   11.50284004
_cell_length_c   11.50283930
_cell_angle_alpha   64.16469234
_cell_angle_beta   72.39579278
_cell_angle_gamma   72.39579539
_symmetry_Int_Tables_number   1
_chemical_formula_structural   Na2DyMoPO8
_chemical_formula_sum   'Na8 Dy4 Mo4 P4 O32'
_cell_volume   774.02526382
_cell_formula_units_Z   4
loop_
 _symmetry_equiv_pos_site_id
 _symmetry_equiv_pos_as_xyz
  1  'x, y, z'
loop_
 _atom_site_type_symbol
 _atom_site_label
 _atom_site_symmetry_multiplicity
 _atom_site_fract_x
 _atom_site_fract_y
 _atom_site_fract_z
 _atom_site_occupancy
  Na  Na0  1  0.836851  0.209338  0.597168  1
  Na  Na1  1  0.336851  0.097168  0.709338  1
  Na  Na2  1  0.356643  0.709338  0.097168  1
  Na  Na3  1  0.856643  0.597168  0.209338  1
  Na  Na4  1  0.143357  0.402832  0.790662  1
  Na  Na5  1  0.643357  0.290662  0.902832  1
  Na  Na6  1  0.163149  0.790662  0.402832  1
  Na  Na7  1  0.663149  0.902832  0.290662  1
  Dy  Dy8  1  0.250000  0.177917  0.322083  1
  Dy  Dy9  1  0.750000  0.822083  0.677917  1
  Dy  Dy10  1  0.250000  0.677917  0.822083  1
  Dy  Dy11  1  0.750000  0.322083  0.177917  1
  Mo  Mo12  1  0.822006  0.927994  0.927994  1
  Mo  Mo13  1  0.677994  0.572006  0.572006  1
  Mo  Mo14  1  0.177994  0.072006  0.072006  1
  Mo  Mo15  1  0.322006  0.427994  0.427994  1
  P  P16  1  0.750000  0.069165  0.430835  1
  P  P17  1  0.250000  0.930835  0.569165  1
  P  P18  1  0.250000  0.430835  0.069165  1
  P  P19  1  0.750000  0.569165  0.930835  1
  O  O20  1  0.583626  0.140355  0.343575  1
  O  O21  1  0.330788  0.938544  0.425390  1
  O  O22  1  0.669212  0.061456  0.574610  1
  O  O23  1  0.169394  0.346416  0.395757  1
  O  O24  1  0.305279  0.438544  0.925390  1
  O  O25  1  0.916374  0.156425  0.359645  1
  O  O26  1  0.309593  0.362098  0.601557  1
  O  O27  1  0.932445  0.640355  0.843575  1
  O  O28  1  0.694721  0.561456  0.074610  1
  O  O29  1  0.567555  0.656425  0.859645  1
  O  O30  1  0.911568  0.153584  0.104243  1
  O  O31  1  0.588432  0.395757  0.346416  1
  O  O32  1  0.830788  0.925390  0.438544  1
  O  O33  1  0.726753  0.862098  0.101557  1
  O  O34  1  0.432445  0.343575  0.140355  1
  O  O35  1  0.088432  0.846416  0.895757  1
  O  O36  1  0.690407  0.637902  0.398443  1
  O  O37  1  0.169212  0.074610  0.561456  1
  O  O38  1  0.083626  0.843575  0.640355  1
  O  O39  1  0.411568  0.604243  0.653584  1
  O  O40  1  0.067555  0.359645  0.156425  1
  O  O41  1  0.773247  0.398443  0.637902  1
  O  O42  1  0.194721  0.574610  0.061456  1
  O  O43  1  0.190407  0.898443  0.137902  1
  O  O44  1  0.273247  0.137902  0.898443  1
  O  O45  1  0.330606  0.104243  0.153584  1
  O  O46  1  0.226753  0.601557  0.362098  1
  O  O47  1  0.805279  0.425390  0.938544  1
  O  O48  1  0.669394  0.895757  0.846416  1
  O  O49  1  0.416374  0.859645  0.656425  1
  O  O50  1  0.809593  0.101557  0.862098  1
  O  O51  1  0.830606  0.653584  0.604243  1
