# generated using pymatgen
data_SiO2
_symmetry_space_group_name_H-M   'P 1'
_cell_length_a   3.87878804
_cell_length_b   8.74804082
_cell_length_c   9.84036387
_cell_angle_alpha   90.00000000
_cell_angle_beta   90.00000000
_cell_angle_gamma   90.00000000
_symmetry_Int_Tables_number   1
_chemical_formula_structural   SiO2
_chemical_formula_sum   'Si8 O16'
_cell_volume   333.90122045
_cell_formula_units_Z   8
loop_
 _symmetry_equiv_pos_site_id
 _symmetry_equiv_pos_as_xyz
  1  'x, y, z'
loop_
 _atom_site_type_symbol
 _atom_site_label
 _atom_site_symmetry_multiplicity
 _atom_site_fract_x
 _atom_site_fract_y
 _atom_site_fract_z
 _atom_site_occupancy
  Si  Si0  1  0.345819  0.575970  0.857888  1
  Si  Si1  1  0.654181  0.924030  0.857888  1
  Si  Si2  1  0.345819  0.075970  0.142112  1
  Si  Si3  1  0.654181  0.424030  0.142112  1
  Si  Si4  1  0.345819  0.424030  0.357888  1
  Si  Si5  1  0.654181  0.075970  0.357888  1
  Si  Si6  1  0.345819  0.924030  0.642112  1
  Si  Si7  1  0.654181  0.575970  0.642112  1
  O  O8  1  0.000000  0.605675  0.750000  1
  O  O9  1  0.500000  0.000000  0.500000  1
  O  O10  1  0.500000  0.550207  0.250000  1
  O  O11  1  0.500000  0.750000  0.614430  1
  O  O12  1  0.000000  0.394325  0.250000  1
  O  O13  1  0.500000  0.250000  0.385570  1
  O  O14  1  0.500000  0.449793  0.750000  1
  O  O15  1  0.500000  0.250000  0.114430  1
  O  O16  1  0.500000  0.949793  0.250000  1
  O  O17  1  0.000000  0.894325  0.750000  1
  O  O18  1  0.500000  0.000000  0.000000  1
  O  O19  1  0.500000  0.750000  0.885570  1
  O  O20  1  0.500000  0.500000  0.500000  1
  O  O21  1  0.500000  0.500000  0.000000  1
  O  O22  1  0.000000  0.105675  0.250000  1
  O  O23  1  0.500000  0.050207  0.750000  1
