# generated using pymatgen
data_CsNb4Br11
_symmetry_space_group_name_H-M   'P 1'
_cell_length_a   7.47401806
_cell_length_b   7.43348319
_cell_length_c   17.08945621
_cell_angle_alpha   90.00000000
_cell_angle_beta   90.00000000
_cell_angle_gamma   90.00000000
_symmetry_Int_Tables_number   1
_chemical_formula_structural   CsNb4Br11
_chemical_formula_sum   'Cs2 Nb8 Br22'
_cell_volume   949.45579639
_cell_formula_units_Z   2
loop_
 _symmetry_equiv_pos_site_id
 _symmetry_equiv_pos_as_xyz
  1  'x, y, z'
loop_
 _atom_site_type_symbol
 _atom_site_label
 _atom_site_symmetry_multiplicity
 _atom_site_fract_x
 _atom_site_fract_y
 _atom_site_fract_z
 _atom_site_occupancy
  Cs  Cs0  1  0.509254  0.500000  0.750000  1
  Cs  Cs1  1  0.490746  0.500000  0.250000  1
  Nb  Nb2  1  0.882678  0.000000  0.361260  1
  Nb  Nb3  1  0.000000  0.792857  0.500000  1
  Nb  Nb4  1  0.000000  0.207143  0.000000  1
  Nb  Nb5  1  0.117322  0.000000  0.638740  1
  Nb  Nb6  1  0.117322  0.000000  0.861260  1
  Nb  Nb7  1  0.000000  0.207143  0.500000  1
  Nb  Nb8  1  0.882678  0.000000  0.138740  1
  Nb  Nb9  1  0.000000  0.792857  0.000000  1
  Br  Br10  1  0.128425  0.500000  0.084154  1
  Br  Br11  1  0.207417  0.000000  0.413139  1
  Br  Br12  1  0.692706  0.251399  0.076726  1
  Br  Br13  1  0.692706  0.748601  0.076726  1
  Br  Br14  1  0.395611  0.000000  0.750000  1
  Br  Br15  1  0.989191  0.233611  0.750000  1
  Br  Br16  1  0.307294  0.748601  0.923274  1
  Br  Br17  1  0.307294  0.251399  0.576726  1
  Br  Br18  1  0.792583  0.000000  0.586861  1
  Br  Br19  1  0.692706  0.748601  0.423274  1
  Br  Br20  1  0.692706  0.251399  0.423274  1
  Br  Br21  1  0.604389  0.000000  0.250000  1
  Br  Br22  1  0.010809  0.233611  0.250000  1
  Br  Br23  1  0.128425  0.500000  0.415846  1
  Br  Br24  1  0.010809  0.766389  0.250000  1
  Br  Br25  1  0.792583  0.000000  0.913139  1
  Br  Br26  1  0.307294  0.251399  0.923274  1
  Br  Br27  1  0.307294  0.748601  0.576726  1
  Br  Br28  1  0.207417  0.000000  0.086861  1
  Br  Br29  1  0.989191  0.766389  0.750000  1
  Br  Br30  1  0.871575  0.500000  0.915846  1
  Br  Br31  1  0.871575  0.500000  0.584154  1
