# generated using pymatgen
data_GePb3O5
_symmetry_space_group_name_H-M   'P 1'
_cell_length_a   5.39641620
_cell_length_b   5.61798325
_cell_length_c   10.63445887
_cell_angle_alpha   90.00000000
_cell_angle_beta   90.00000000
_cell_angle_gamma   93.28053123
_symmetry_Int_Tables_number   1
_chemical_formula_structural   GePb3O5
_chemical_formula_sum   'Ge2 Pb6 O10'
_cell_volume   321.87631397
_cell_formula_units_Z   2
loop_
 _symmetry_equiv_pos_site_id
 _symmetry_equiv_pos_as_xyz
  1  'x, y, z'
loop_
 _atom_site_type_symbol
 _atom_site_label
 _atom_site_symmetry_multiplicity
 _atom_site_fract_x
 _atom_site_fract_y
 _atom_site_fract_z
 _atom_site_occupancy
  Ge  Ge0  1  0.023853  0.452509  0.243348  1
  Ge  Ge1  1  0.976147  0.547491  0.743348  1
  Pb  Pb2  1  0.024549  0.952140  0.001389  1
  Pb  Pb3  1  0.975451  0.047860  0.501389  1
  Pb  Pb4  1  0.504593  0.012647  0.747393  1
  Pb  Pb5  1  0.483647  0.498817  0.516528  1
  Pb  Pb6  1  0.516353  0.501183  0.016528  1
  Pb  Pb7  1  0.495407  0.987353  0.247393  1
  O  O8  1  0.071764  0.471645  0.407823  1
  O  O9  1  0.620668  0.904374  0.049915  1
  O  O10  1  0.172116  0.700133  0.161475  1
  O  O11  1  0.827884  0.299867  0.661475  1
  O  O12  1  0.928236  0.528355  0.907823  1
  O  O13  1  0.379332  0.095626  0.549915  1
  O  O14  1  0.699461  0.414807  0.209489  1
  O  O15  1  0.162802  0.194106  0.181539  1
  O  O16  1  0.300539  0.585193  0.709489  1
  O  O17  1  0.837198  0.805894  0.681539  1
