# generated using pymatgen
data_K2Y4Sn2S11
_symmetry_space_group_name_H-M   'P 1'
_cell_length_a   8.69951057
_cell_length_b   8.69951057
_cell_length_c   28.33558239
_cell_angle_alpha   90.00000000
_cell_angle_beta   90.00000000
_cell_angle_gamma   90.00000000
_symmetry_Int_Tables_number   1
_chemical_formula_structural   K2Y4Sn2S11
_chemical_formula_sum   'K8 Y16 Sn8 S44'
_cell_volume   2144.47892974
_cell_formula_units_Z   4
loop_
 _symmetry_equiv_pos_site_id
 _symmetry_equiv_pos_as_xyz
  1  'x, y, z'
loop_
 _atom_site_type_symbol
 _atom_site_label
 _atom_site_symmetry_multiplicity
 _atom_site_fract_x
 _atom_site_fract_y
 _atom_site_fract_z
 _atom_site_occupancy
  K  K0  1  0.750000  0.750000  0.627436  1
  K  K1  1  0.750000  0.750000  0.803931  1
  K  K2  1  0.250000  0.250000  0.696069  1
  K  K3  1  0.750000  0.750000  0.127436  1
  K  K4  1  0.750000  0.750000  0.303931  1
  K  K5  1  0.250000  0.250000  0.872564  1
  K  K6  1  0.250000  0.250000  0.196069  1
  K  K7  1  0.250000  0.250000  0.372564  1
  Y  Y8  1  0.643618  0.448817  0.445544  1
  Y  Y9  1  0.356382  0.551183  0.554456  1
  Y  Y10  1  0.551183  0.143618  0.554456  1
  Y  Y11  1  0.448817  0.643618  0.945544  1
  Y  Y12  1  0.051183  0.856382  0.945544  1
  Y  Y13  1  0.356382  0.948817  0.054456  1
  Y  Y14  1  0.948817  0.143618  0.054456  1
  Y  Y15  1  0.448817  0.856382  0.445544  1
  Y  Y16  1  0.143618  0.948817  0.554456  1
  Y  Y17  1  0.643618  0.051183  0.945544  1
  Y  Y18  1  0.051183  0.643618  0.445544  1
  Y  Y19  1  0.551183  0.356382  0.054456  1
  Y  Y20  1  0.143618  0.551183  0.054456  1
  Y  Y21  1  0.856382  0.051183  0.445544  1
  Y  Y22  1  0.856382  0.448817  0.945544  1
  Y  Y23  1  0.948817  0.356382  0.554456  1
  Sn  Sn24  1  0.750000  0.250000  0.690622  1
  Sn  Sn25  1  0.250000  0.750000  0.809378  1
  Sn  Sn26  1  0.250000  0.750000  0.190622  1
  Sn  Sn27  1  0.750000  0.250000  0.309378  1
  Sn  Sn28  1  0.250000  0.750000  0.690622  1
  Sn  Sn29  1  0.750000  0.250000  0.809378  1
  Sn  Sn30  1  0.750000  0.250000  0.190622  1
  Sn  Sn31  1  0.250000  0.750000  0.309378  1
  S  S32  1  0.940058  0.144689  0.955060  1
  S  S33  1  0.059942  0.855311  0.044940  1
  S  S34  1  0.940058  0.355311  0.455060  1
  S  S35  1  0.925653  0.410910  0.647968  1
  S  S36  1  0.355311  0.559942  0.455060  1
  S  S37  1  0.855311  0.440058  0.044940  1
  S  S38  1  0.925653  0.089090  0.147968  1
  S  S39  1  0.559942  0.144689  0.455060  1
  S  S40  1  0.602611  0.102611  0.250000  1
  S  S41  1  0.559942  0.355311  0.955060  1
  S  S42  1  0.644689  0.440058  0.544940  1
  S  S43  1  0.144689  0.940058  0.455060  1
  S  S44  1  0.397389  0.897389  0.750000  1
  S  S45  1  0.602611  0.397389  0.750000  1
  S  S46  1  0.589090  0.074347  0.852032  1
  S  S47  1  0.410910  0.925653  0.147968  1
  S  S48  1  0.750000  0.750000  0.941455  1
  S  S49  1  0.144689  0.559942  0.955060  1
  S  S50  1  0.102611  0.602611  0.750000  1
  S  S51  1  0.910910  0.074347  0.352032  1
  S  S52  1  0.589090  0.425653  0.352032  1
  S  S53  1  0.089090  0.574347  0.147968  1
  S  S54  1  0.059942  0.644689  0.544940  1
  S  S55  1  0.750000  0.750000  0.441455  1
  S  S56  1  0.425653  0.589090  0.852032  1
  S  S57  1  0.574347  0.089090  0.647968  1
  S  S58  1  0.250000  0.250000  0.558545  1
  S  S59  1  0.425653  0.910910  0.352032  1
  S  S60  1  0.074347  0.910910  0.852032  1
  S  S61  1  0.089090  0.925653  0.647968  1
  S  S62  1  0.102611  0.897389  0.250000  1
  S  S63  1  0.355311  0.940058  0.955060  1
  S  S64  1  0.397389  0.602611  0.250000  1
  S  S65  1  0.644689  0.059942  0.044940  1
  S  S66  1  0.074347  0.589090  0.352032  1
  S  S67  1  0.250000  0.250000  0.058545  1
  S  S68  1  0.574347  0.410910  0.147968  1
  S  S69  1  0.440058  0.644689  0.044940  1
  S  S70  1  0.410910  0.574347  0.647968  1
  S  S71  1  0.855311  0.059942  0.544940  1
  S  S72  1  0.897389  0.397389  0.250000  1
  S  S73  1  0.910910  0.425653  0.852032  1
  S  S74  1  0.897389  0.102611  0.750000  1
  S  S75  1  0.440058  0.855311  0.544940  1
