# generated using pymatgen
data_Al7(CN)3
_symmetry_space_group_name_H-M   'P 1'
_cell_length_a   3.24861642
_cell_length_b   3.25411661
_cell_length_c   32.07933649
_cell_angle_alpha   90.00000000
_cell_angle_beta   90.00000000
_cell_angle_gamma   119.94410354
_symmetry_Int_Tables_number   1
_chemical_formula_structural   Al7(CN)3
_chemical_formula_sum   'Al14 C6 N6'
_cell_volume   293.85419579
_cell_formula_units_Z   2
loop_
 _symmetry_equiv_pos_site_id
 _symmetry_equiv_pos_as_xyz
  1  'x, y, z'
loop_
 _atom_site_type_symbol
 _atom_site_label
 _atom_site_symmetry_multiplicity
 _atom_site_fract_x
 _atom_site_fract_y
 _atom_site_fract_z
 _atom_site_occupancy
  Al  Al0  1  0.999617  0.999234  0.111106  1
  Al  Al1  1  0.000669  0.001339  0.891734  1
  Al  Al2  1  0.000383  0.000766  0.611106  1
  Al  Al3  1  0.666766  0.333532  0.183624  1
  Al  Al4  1  0.666420  0.332840  0.469847  1
  Al  Al5  1  0.001284  0.002568  0.741368  1
  Al  Al6  1  0.666566  0.333132  0.031654  1
  Al  Al7  1  0.665759  0.331519  0.312961  1
  Al  Al8  1  0.999331  0.998661  0.391734  1
  Al  Al9  1  0.333580  0.667160  0.969847  1
  Al  Al10  1  0.333434  0.666868  0.531654  1
  Al  Al11  1  0.334241  0.668481  0.812961  1
  Al  Al12  1  0.333234  0.666468  0.683624  1
  Al  Al13  1  0.998716  0.997432  0.241368  1
  C  C14  1  0.334032  0.668064  0.751970  1
  C  C15  1  0.000100  0.000199  0.999797  1
  C  C16  1  0.665968  0.331936  0.251970  1
  C  C17  1  0.999900  0.999801  0.499797  1
  C  C18  1  0.999470  0.998940  0.171202  1
  C  C19  1  0.000530  0.001060  0.671202  1
  N  N20  1  0.666233  0.332466  0.412123  1
  N  N21  1  0.333767  0.667534  0.912123  1
  N  N22  1  0.001076  0.002152  0.834008  1
  N  N23  1  0.998924  0.997848  0.334008  1
  N  N24  1  0.333516  0.667032  0.588508  1
  N  N25  1  0.666484  0.332968  0.088508  1
