# generated using pymatgen
data_Ce2SiS5
_symmetry_space_group_name_H-M   'P 1'
_cell_length_a   7.52678500
_cell_length_b   7.82983203
_cell_length_c   12.54979938
_cell_angle_alpha   90.00000000
_cell_angle_beta   90.00000000
_cell_angle_gamma   101.53637312
_symmetry_Int_Tables_number   1
_chemical_formula_structural   Ce2SiS5
_chemical_formula_sum   'Ce8 Si4 S20'
_cell_volume   724.66162317
_cell_formula_units_Z   4
loop_
 _symmetry_equiv_pos_site_id
 _symmetry_equiv_pos_as_xyz
  1  'x, y, z'
loop_
 _atom_site_type_symbol
 _atom_site_label
 _atom_site_symmetry_multiplicity
 _atom_site_fract_x
 _atom_site_fract_y
 _atom_site_fract_z
 _atom_site_occupancy
  Ce  Ce0  1  0.162996  0.635534  0.832171  1
  Ce  Ce1  1  0.762967  0.956104  0.905389  1
  Ce  Ce2  1  0.837004  0.864466  0.332171  1
  Ce  Ce3  1  0.237033  0.543896  0.405389  1
  Ce  Ce4  1  0.237033  0.043896  0.094611  1
  Ce  Ce5  1  0.762967  0.456104  0.594611  1
  Ce  Ce6  1  0.837004  0.364466  0.167829  1
  Ce  Ce7  1  0.162996  0.135534  0.667829  1
  Si  Si8  1  0.327005  0.594018  0.117670  1
  Si  Si9  1  0.672995  0.905982  0.617670  1
  Si  Si10  1  0.327005  0.094018  0.382330  1
  Si  Si11  1  0.672995  0.405982  0.882330  1
  S  S12  1  0.877304  0.805579  0.704866  1
  S  S13  1  0.829178  0.615675  0.970720  1
  S  S14  1  0.170822  0.884325  0.470720  1
  S  S15  1  0.580744  0.717967  0.498174  1
  S  S16  1  0.170822  0.384325  0.029280  1
  S  S17  1  0.861454  0.500161  0.381060  1
  S  S18  1  0.580744  0.217967  0.001826  1
  S  S19  1  0.861454  0.000161  0.118940  1
  S  S20  1  0.419256  0.782033  0.998174  1
  S  S21  1  0.122696  0.194421  0.295134  1
  S  S22  1  0.138546  0.999839  0.881060  1
  S  S23  1  0.475751  0.950754  0.729054  1
  S  S24  1  0.138546  0.499839  0.618940  1
  S  S25  1  0.524249  0.049246  0.270946  1
  S  S26  1  0.877304  0.305579  0.795134  1
  S  S27  1  0.475751  0.450754  0.770946  1
  S  S28  1  0.419256  0.282033  0.501826  1
  S  S29  1  0.524249  0.549246  0.229054  1
  S  S30  1  0.829178  0.115675  0.529280  1
  S  S31  1  0.122696  0.694421  0.204866  1
