# generated using pymatgen
data_MgP2H20C4(N2O3)4
_symmetry_space_group_name_H-M   'P 1'
_cell_length_a   5.42271228
_cell_length_b   7.39722308
_cell_length_c   21.79658428
_cell_angle_alpha   90.00000000
_cell_angle_beta   90.00000000
_cell_angle_gamma   91.25636959
_symmetry_Int_Tables_number   1
_chemical_formula_structural   MgP2H20C4(N2O3)4
_chemical_formula_sum   'Mg2 P4 H40 C8 N16 O24'
_cell_volume   874.11646353
_cell_formula_units_Z   2
loop_
 _symmetry_equiv_pos_site_id
 _symmetry_equiv_pos_as_xyz
  1  'x, y, z'
loop_
 _atom_site_type_symbol
 _atom_site_label
 _atom_site_symmetry_multiplicity
 _atom_site_fract_x
 _atom_site_fract_y
 _atom_site_fract_z
 _atom_site_occupancy
  Mg  Mg0  1  0.000000  0.000000  0.000000  1
  Mg  Mg1  1  0.500000  0.500000  0.500000  1
  P  P2  1  0.509136  0.104157  0.084060  1
  P  P3  1  0.990864  0.395843  0.584060  1
  P  P4  1  0.490864  0.895843  0.915940  1
  P  P5  1  0.009136  0.604157  0.415940  1
  O  O6  1  0.307957  0.137393  0.037178  1
  O  O7  1  0.192043  0.362607  0.537178  1
  O  O8  1  0.692043  0.862607  0.962822  1
  O  O9  1  0.807957  0.637393  0.462822  1
  O  O10  1  0.776126  0.134425  0.063898  1
  O  O11  1  0.723874  0.365575  0.563898  1
  O  O12  1  0.223874  0.865575  0.936102  1
  O  O13  1  0.276126  0.634425  0.436102  1
  O  O14  1  0.459631  0.234449  0.140692  1
  O  O15  1  0.040369  0.265551  0.640692  1
  O  O16  1  0.540369  0.765551  0.859308  1
  O  O17  1  0.959631  0.734449  0.359308  1
  O  O18  1  0.478407  0.901569  0.109573  1
  O  O19  1  0.021593  0.598431  0.609573  1
  O  O20  1  0.521593  0.098431  0.890427  1
  O  O21  1  0.978407  0.401569  0.390427  1
  O  O22  1  0.059352  0.784930  0.066670  1
  O  O23  1  0.440648  0.715070  0.566670  1
  O  O24  1  0.940648  0.215070  0.933330  1
  O  O25  1  0.559352  0.284930  0.433330  1
  O  O26  1  0.800679  0.258430  0.225406  1
  O  O27  1  0.699321  0.241570  0.725406  1
  O  O28  1  0.199321  0.741570  0.774594  1
  O  O29  1  0.300679  0.758430  0.274594  1
  C  C30  1  0.970440  0.624218  0.074276  1
  C  C31  1  0.529560  0.875782  0.574276  1
  C  C32  1  0.029560  0.375782  0.925724  1
  C  C33  1  0.470440  0.124218  0.425724  1
  C  C34  1  0.950956  0.134024  0.237994  1
  C  C35  1  0.549044  0.365976  0.737994  1
  C  C36  1  0.049044  0.865976  0.762006  1
  C  C37  1  0.450956  0.634024  0.262006  1
  N  N38  1  0.768903  0.567215  0.043720  1
  N  N39  1  0.731097  0.932785  0.543720  1
  N  N40  1  0.231097  0.432785  0.956280  1
  N  N41  1  0.268903  0.067215  0.456280  1
  N  N42  1  0.071097  0.510531  0.115497  1
  N  N43  1  0.428903  0.989469  0.615497  1
  N  N44  1  0.928903  0.489469  0.884503  1
  N  N45  1  0.571097  0.010531  0.384503  1
  N  N46  1  0.985001  0.991321  0.200454  1
  N  N47  1  0.514999  0.508679  0.700454  1
  N  N48  1  0.014999  0.008679  0.799546  1
  N  N49  1  0.485001  0.491321  0.299546  1
  N  N50  1  0.077838  0.135524  0.291597  1
  N  N51  1  0.422162  0.364476  0.791597  1
  N  N52  1  0.922162  0.864476  0.708403  1
  N  N53  1  0.577838  0.635524  0.208403  1
  H  H54  1  0.596008  0.235577  0.172897  1
  H  H55  1  0.903992  0.264423  0.672897  1
  H  H56  1  0.403992  0.764423  0.827103  1
  H  H57  1  0.096008  0.735577  0.327103  1
  H  H58  1  0.316005  0.845021  0.094417  1
  H  H59  1  0.183995  0.654979  0.594417  1
  H  H60  1  0.683995  0.154979  0.905583  1
  H  H61  1  0.816005  0.345021  0.405583  1
  H  H62  1  0.701916  0.654038  0.011282  1
  H  H63  1  0.798084  0.845962  0.511282  1
  H  H64  1  0.298084  0.345962  0.988718  1
  H  H65  1  0.201916  0.154038  0.488718  1
  H  H66  1  0.723825  0.432892  0.044050  1
  H  H67  1  0.776175  0.067108  0.544050  1
  H  H68  1  0.276175  0.567108  0.955950  1
  H  H69  1  0.223825  0.932892  0.455950  1
  H  H70  1  0.022932  0.376856  0.113591  1
  H  H71  1  0.477068  0.123144  0.613591  1
  H  H72  1  0.977068  0.623144  0.886409  1
  H  H73  1  0.522932  0.876856  0.386409  1
  H  H74  1  0.243925  0.537347  0.131544  1
  H  H75  1  0.256075  0.962653  0.631544  1
  H  H76  1  0.756075  0.462653  0.868456  1
  H  H77  1  0.743925  0.037347  0.368456  1
  H  H78  1  0.928528  0.999169  0.156070  1
  H  H79  1  0.571472  0.500831  0.656070  1
  H  H80  1  0.071472  0.000831  0.843930  1
  H  H81  1  0.428528  0.499169  0.343930  1
  H  H82  1  0.112536  0.897793  0.212465  1
  H  H83  1  0.387464  0.602207  0.712465  1
  H  H84  1  0.887464  0.102207  0.787535  1
  H  H85  1  0.612536  0.397793  0.287535  1
  H  H86  1  0.218592  0.048622  0.297792  1
  H  H87  1  0.281408  0.451378  0.797792  1
  H  H88  1  0.781408  0.951378  0.702208  1
  H  H89  1  0.718592  0.548622  0.202208  1
  H  H90  1  0.071611  0.247830  0.318690  1
  H  H91  1  0.428389  0.252170  0.818690  1
  H  H92  1  0.928389  0.752170  0.681310  1
  H  H93  1  0.571611  0.747830  0.181310  1
