# generated using pymatgen
data_Rb2In3F11
_symmetry_space_group_name_H-M   'P 1'
_cell_length_a   6.77623954
_cell_length_b   8.39070164
_cell_length_c   19.44585908
_cell_angle_alpha   90.00000000
_cell_angle_beta   90.88540826
_cell_angle_gamma   90.00000000
_symmetry_Int_Tables_number   1
_chemical_formula_structural   Rb2In3F11
_chemical_formula_sum   'Rb8 In12 F44'
_cell_volume   1105.50905749
_cell_formula_units_Z   4
loop_
 _symmetry_equiv_pos_site_id
 _symmetry_equiv_pos_as_xyz
  1  'x, y, z'
loop_
 _atom_site_type_symbol
 _atom_site_label
 _atom_site_symmetry_multiplicity
 _atom_site_fract_x
 _atom_site_fract_y
 _atom_site_fract_z
 _atom_site_occupancy
  Rb  Rb0  1  0.250179  0.250000  0.149340  1
  Rb  Rb1  1  0.237475  0.250000  0.346294  1
  Rb  Rb2  1  0.243809  0.750000  0.351312  1
  Rb  Rb3  1  0.257182  0.750000  0.152486  1
  Rb  Rb4  1  0.762525  0.750000  0.653706  1
  Rb  Rb5  1  0.756191  0.250000  0.648688  1
  Rb  Rb6  1  0.749821  0.750000  0.850660  1
  Rb  Rb7  1  0.742818  0.250000  0.847514  1
  In  In8  1  0.751204  0.001784  0.031743  1
  In  In9  1  0.748392  -0.000771  0.468346  1
  In  In10  1  0.253776  0.500110  0.750380  1
  In  In11  1  0.251608  0.499229  0.531654  1
  In  In12  1  0.251608  1.000771  0.531654  1
  In  In13  1  0.248796  0.501784  0.968257  1
  In  In14  1  0.248796  0.998216  0.968257  1
  In  In15  1  0.746224  1.000110  0.249620  1
  In  In16  1  0.748392  0.500771  0.468346  1
  In  In17  1  0.746224  0.499890  0.249620  1
  In  In18  1  0.253776  -0.000110  0.750380  1
  In  In19  1  0.751204  0.498216  0.031743  1
  F  F20  1  0.751070  0.250000  0.018044  1
  F  F21  1  0.244180  0.530995  0.858800  1
  F  F22  1  0.449222  0.453469  0.248224  1
  F  F23  1  0.244180  0.969005  0.858800  1
  F  F24  1  0.041997  0.550481  0.251162  1
  F  F25  1  0.557969  0.503164  0.939137  1
  F  F26  1  0.557969  -0.003164  0.939137  1
  F  F27  1  0.442031  0.496836  0.060863  1
  F  F28  1  0.755820  0.469005  0.141200  1
  F  F29  1  0.563306  0.508755  0.560823  1
  F  F30  1  0.056682  0.008020  0.438973  1
  F  F31  1  0.958003  0.449519  0.748838  1
  F  F32  1  0.258795  0.478966  0.641509  1
  F  F33  1  0.436694  0.008755  0.439177  1
  F  F34  1  0.943318  0.991980  0.561027  1
  F  F35  1  0.958003  0.050481  0.748838  1
  F  F36  1  0.751681  0.750000  0.032692  1
  F  F37  1  0.550778  0.546531  0.751776  1
  F  F38  1  0.550778  0.953469  0.751776  1
  F  F39  1  0.449222  0.046531  0.248224  1
  F  F40  1  0.748866  0.250000  0.477206  1
  F  F41  1  0.251134  0.750000  0.522794  1
  F  F42  1  0.755820  0.030995  0.141200  1
  F  F43  1  0.750095  0.750000  0.472883  1
  F  F44  1  0.741205  0.978966  0.358491  1
  F  F45  1  0.436694  0.491245  0.439177  1
  F  F46  1  0.056682  0.491980  0.438973  1
  F  F47  1  0.937432  -0.002944  0.939074  1
  F  F48  1  0.062568  1.002944  0.060926  1
  F  F49  1  0.741205  0.521034  0.358491  1
  F  F50  1  0.249905  0.250000  0.527117  1
  F  F51  1  0.563306  0.991245  0.560823  1
  F  F52  1  0.041997  0.949519  0.251162  1
  F  F53  1  0.258795  0.021034  0.641509  1
  F  F54  1  0.174549  0.750000  0.737971  1
  F  F55  1  0.334162  0.250000  0.762825  1
  F  F56  1  0.825451  0.250000  0.262029  1
  F  F57  1  0.442031  1.003164  0.060863  1
  F  F58  1  0.062568  0.497056  0.060926  1
  F  F59  1  0.248930  0.750000  0.981956  1
  F  F60  1  0.665838  0.750000  0.237175  1
  F  F61  1  0.943318  0.508020  0.561027  1
  F  F62  1  0.937432  0.502944  0.939074  1
  F  F63  1  0.248319  0.250000  0.967308  1
