# generated using pymatgen
data_K2La6OsI12
_symmetry_space_group_name_H-M   'P 1'
_cell_length_a   10.09074849
_cell_length_b   10.06193248
_cell_length_c   19.64852111
_cell_angle_alpha   90.00000000
_cell_angle_beta   90.00000000
_cell_angle_gamma   108.24188016
_symmetry_Int_Tables_number   1
_chemical_formula_structural   K2La6OsI12
_chemical_formula_sum   'K4 La12 Os2 I24'
_cell_volume   1894.70227657
_cell_formula_units_Z   2
loop_
 _symmetry_equiv_pos_site_id
 _symmetry_equiv_pos_as_xyz
  1  'x, y, z'
loop_
 _atom_site_type_symbol
 _atom_site_label
 _atom_site_symmetry_multiplicity
 _atom_site_fract_x
 _atom_site_fract_y
 _atom_site_fract_z
 _atom_site_occupancy
  K  K0  1  0.573337  0.911847  0.307584  1
  K  K1  1  0.426663  0.588153  0.807584  1
  K  K2  1  0.426663  0.088153  0.692416  1
  K  K3  1  0.573337  0.411847  0.192416  1
  La  La4  1  0.992507  0.763256  0.455785  1
  La  La5  1  0.022557  0.597794  0.644678  1
  La  La6  1  0.007493  0.236744  0.544215  1
  La  La7  1  0.707490  0.906716  0.986741  1
  La  La8  1  0.707490  0.406716  0.513259  1
  La  La9  1  0.022557  0.097794  0.855322  1
  La  La10  1  0.992507  0.263256  0.044215  1
  La  La11  1  0.977443  0.902206  0.144678  1
  La  La12  1  0.007493  0.736744  0.955785  1
  La  La13  1  0.292510  0.093284  0.013259  1
  La  La14  1  0.292510  0.593284  0.486741  1
  La  La15  1  0.977443  0.402206  0.355322  1
  Os  Os16  1  0.000000  0.500000  0.500000  1
  Os  Os17  1  0.000000  0.000000  0.000000  1
  I  I18  1  0.322929  0.405631  0.066039  1
  I  I19  1  0.919170  0.186561  0.205554  1
  I  I20  1  0.308452  0.019789  0.177615  1
  I  I21  1  0.080830  0.313439  0.705554  1
  I  I22  1  0.322929  0.905631  0.433961  1
  I  I23  1  0.347873  0.299615  0.531481  1
  I  I24  1  0.652127  0.700385  0.468519  1
  I  I25  1  0.974847  0.583802  0.103536  1
  I  I26  1  0.677071  0.094369  0.566039  1
  I  I27  1  0.363698  0.219979  0.855278  1
  I  I28  1  0.636302  0.280021  0.355278  1
  I  I29  1  0.691548  0.480211  0.677615  1
  I  I30  1  0.025153  0.916198  0.603536  1
  I  I31  1  0.652127  0.200385  0.031481  1
  I  I32  1  0.080830  0.813439  0.794446  1
  I  I33  1  0.919170  0.686561  0.294446  1
  I  I34  1  0.025153  0.416198  0.896464  1
  I  I35  1  0.974847  0.083802  0.396464  1
  I  I36  1  0.677071  0.594369  0.933961  1
  I  I37  1  0.363698  0.719979  0.644722  1
  I  I38  1  0.636302  0.780021  0.144722  1
  I  I39  1  0.691548  0.980211  0.822385  1
  I  I40  1  0.347873  0.799615  0.968519  1
  I  I41  1  0.308452  0.519789  0.322385  1
