# generated using pymatgen
data_MgAs2(XeF9)2
_symmetry_space_group_name_H-M   'P 1'
_cell_length_a   8.77731529
_cell_length_b   13.30965721
_cell_length_c   13.65154500
_cell_angle_alpha   101.37298311
_cell_angle_beta   90.00000000
_cell_angle_gamma   90.00000000
_symmetry_Int_Tables_number   1
_chemical_formula_structural   MgAs2(XeF9)2
_chemical_formula_sum   'Mg4 As8 Xe8 F72'
_cell_volume   1563.49986594
_cell_formula_units_Z   4
loop_
 _symmetry_equiv_pos_site_id
 _symmetry_equiv_pos_as_xyz
  1  'x, y, z'
loop_
 _atom_site_type_symbol
 _atom_site_label
 _atom_site_symmetry_multiplicity
 _atom_site_fract_x
 _atom_site_fract_y
 _atom_site_fract_z
 _atom_site_occupancy
  Mg  Mg0  1  0.962668  0.606693  0.864672  1
  Mg  Mg1  1  0.462668  0.893307  0.635328  1
  Mg  Mg2  1  0.537332  0.106693  0.364672  1
  Mg  Mg3  1  0.037332  0.393307  0.135328  1
  As  As4  1  0.692930  0.806051  0.829695  1
  As  As5  1  0.263971  0.899577  0.392826  1
  As  As6  1  0.807070  0.306051  0.329695  1
  As  As7  1  0.763971  0.600423  0.107174  1
  As  As8  1  0.307070  0.193949  0.170305  1
  As  As9  1  0.192930  0.693949  0.670305  1
  As  As10  1  0.236029  0.399577  0.892826  1
  As  As11  1  0.736029  0.100423  0.607174  1
  Xe  Xe12  1  0.148132  0.036070  0.831785  1
  Xe  Xe13  1  0.296521  0.767193  0.049602  1
  Xe  Xe14  1  0.203479  0.267193  0.549602  1
  Xe  Xe15  1  0.796521  0.732807  0.450398  1
  Xe  Xe16  1  0.351868  0.536070  0.331785  1
  Xe  Xe17  1  0.851868  0.963930  0.168215  1
  Xe  Xe18  1  0.703479  0.232807  0.950398  1
  Xe  Xe19  1  0.648132  0.463930  0.668215  1
  F  F20  1  0.271575  0.275782  0.285444  1
  F  F21  1  0.842109  0.739232  0.886320  1
  F  F22  1  0.905440  0.521616  0.155500  1
  F  F23  1  0.953393  0.370678  0.269134  1
  F  F24  1  0.635911  0.674134  0.053379  1
  F  F25  1  0.452537  0.845922  0.139613  1
  F  F26  1  0.200252  0.476610  0.212224  1
  F  F27  1  0.698077  0.341713  0.865981  1
  F  F28  1  0.390812  0.796384  0.362084  1
  F  F29  1  0.178297  0.869447  0.274439  1
  F  F30  1  0.771575  0.224218  0.214556  1
  F  F31  1  0.656970  0.886017  0.944985  1
  F  F32  1  0.156970  0.613983  0.555015  1
  F  F33  1  0.343030  0.113983  0.055015  1
  F  F34  1  0.198342  0.383096  0.473996  1
  F  F35  1  0.626581  0.815904  0.546651  1
  F  F36  1  0.594560  0.021616  0.655500  1
  F  F37  1  0.047463  0.345922  0.639613  1
  F  F38  1  0.157891  0.260768  0.113680  1
  F  F39  1  0.728425  0.724218  0.714556  1
  F  F40  1  0.848056  0.990667  0.573345  1
  F  F41  1  0.843030  0.386017  0.444985  1
  F  F42  1  0.135911  0.825866  0.446621  1
  F  F43  1  0.301923  0.658287  0.134019  1
  F  F44  1  0.348056  0.509333  0.926655  1
  F  F45  1  0.109188  0.296384  0.862084  1
  F  F46  1  0.828612  0.893020  0.802607  1
  F  F47  1  0.609188  0.203616  0.637916  1
  F  F48  1  0.171388  0.106980  0.197393  1
  F  F49  1  0.801658  0.616904  0.526004  1
  F  F50  1  0.546607  0.870678  0.769134  1
  F  F51  1  0.547463  0.154078  0.860387  1
  F  F52  1  0.301658  0.883096  0.973996  1
  F  F53  1  0.863554  0.564943  0.986984  1
  F  F54  1  0.321703  0.369447  0.774439  1
  F  F55  1  0.801923  0.841713  0.365982  1
  F  F56  1  0.151944  0.009333  0.426655  1
  F  F57  1  1.001372  0.095214  0.942669  1
  F  F58  1  0.328612  0.606980  0.697393  1
  F  F59  1  0.405440  0.978384  0.344500  1
  F  F60  1  0.651944  0.490667  0.073345  1
  F  F61  1  0.636446  0.064943  0.486984  1
  F  F62  1  0.700252  0.023390  0.287776  1
  F  F63  1  0.501372  0.404786  0.557331  1
  F  F64  1  0.136446  0.435057  0.013016  1
  F  F65  1  0.363554  0.935057  0.513016  1
  F  F66  1  0.046607  0.629322  0.730866  1
  F  F67  1  0.198077  0.158287  0.634019  1
  F  F68  1  0.799748  0.523390  0.787776  1
  F  F69  1  0.228425  0.775782  0.785444  1
  F  F70  1  0.698342  0.116904  0.026004  1
  F  F71  1  0.678297  0.630553  0.225561  1
  F  F72  1  0.890812  0.703616  0.137916  1
  F  F73  1  0.443446  0.280683  0.143189  1
  F  F74  1  0.556554  0.719317  0.856811  1
  F  F75  1  0.821703  0.130553  0.725561  1
  F  F76  1  0.373419  0.184096  0.453349  1
  F  F77  1  0.671388  0.393020  0.302607  1
  F  F78  1  0.453393  0.129322  0.230866  1
  F  F79  1  -0.001372  0.904786  0.057331  1
  F  F80  1  0.299748  0.976610  0.712224  1
  F  F81  1  0.943446  0.219317  0.356810  1
  F  F82  1  0.873419  0.315904  0.046651  1
  F  F83  1  0.498628  0.595214  0.442669  1
  F  F84  1  0.657891  0.239232  0.386320  1
  F  F85  1  0.094560  0.478384  0.844500  1
  F  F86  1  0.342109  0.760768  0.613680  1
  F  F87  1  0.364089  0.325866  0.946621  1
  F  F88  1  0.126581  0.684096  0.953349  1
  F  F89  1  0.952537  0.654078  0.360387  1
  F  F90  1  0.864089  0.174134  0.553379  1
  F  F91  1  0.056554  0.780683  0.643189  1
