# generated using pymatgen
data_Na5WNO4
_symmetry_space_group_name_H-M   'P 1'
_cell_length_a   5.78931139
_cell_length_b   5.78931088
_cell_length_c   10.77236229
_cell_angle_alpha   90.00000000
_cell_angle_beta   90.00000000
_cell_angle_gamma   119.30682919
_symmetry_Int_Tables_number   1
_chemical_formula_structural   Na5WNO4
_chemical_formula_sum   'Na10 W2 N2 O8'
_cell_volume   314.83765090
_cell_formula_units_Z   2
loop_
 _symmetry_equiv_pos_site_id
 _symmetry_equiv_pos_as_xyz
  1  'x, y, z'
loop_
 _atom_site_type_symbol
 _atom_site_label
 _atom_site_symmetry_multiplicity
 _atom_site_fract_x
 _atom_site_fract_y
 _atom_site_fract_z
 _atom_site_occupancy
  Na  Na0  1  0.534732  0.163995  0.240983  1
  Na  Na1  1  0.824064  0.206799  0.990922  1
  Na  Na2  1  0.175936  0.793201  0.490922  1
  Na  Na3  1  0.836005  0.465268  0.740983  1
  Na  Na4  1  0.570998  0.570998  0.974320  1
  Na  Na5  1  0.429002  0.429002  0.474320  1
  Na  Na6  1  0.163995  0.534732  0.240983  1
  Na  Na7  1  0.793201  0.175936  0.490922  1
  Na  Na8  1  0.206799  0.824064  0.990922  1
  Na  Na9  1  0.465268  0.836005  0.740983  1
  W  W10  1  0.791676  0.791676  0.252114  1
  W  W11  1  0.208324  0.208324  0.752114  1
  N  N12  1  0.902612  0.902612  0.776613  1
  N  N13  1  0.097388  0.097388  0.276613  1
  O  O14  1  0.812299  0.538259  0.368549  1
  O  O15  1  0.187701  0.461741  0.868549  1
  O  O16  1  0.855847  0.583780  0.123021  1
  O  O17  1  0.461741  0.187701  0.868549  1
  O  O18  1  0.538259  0.812299  0.368549  1
  O  O19  1  0.583780  0.855847  0.123021  1
  O  O20  1  0.416220  0.144153  0.623021  1
  O  O21  1  0.144153  0.416220  0.623021  1
