# generated using pymatgen
data_Na2Be2(SiO3)3
_symmetry_space_group_name_H-M   'P 1'
_cell_length_a   6.88703593
_cell_length_b   9.51848979
_cell_length_c   11.87765236
_cell_angle_alpha   90.00000000
_cell_angle_beta   90.00000000
_cell_angle_gamma   90.00000000
_symmetry_Int_Tables_number   1
_chemical_formula_structural   Na2Be2(SiO3)3
_chemical_formula_sum   'Na8 Be8 Si12 O36'
_cell_volume   778.62977484
_cell_formula_units_Z   4
loop_
 _symmetry_equiv_pos_site_id
 _symmetry_equiv_pos_as_xyz
  1  'x, y, z'
loop_
 _atom_site_type_symbol
 _atom_site_label
 _atom_site_symmetry_multiplicity
 _atom_site_fract_x
 _atom_site_fract_y
 _atom_site_fract_z
 _atom_site_occupancy
  Na  Na0  1  0.848027  0.967239  0.653041  1
  Na  Na1  1  0.348027  0.032761  0.846959  1
  Na  Na2  1  0.151973  0.032761  0.346959  1
  Na  Na3  1  0.848027  0.532761  0.653041  1
  Na  Na4  1  0.651973  0.532761  0.153041  1
  Na  Na5  1  0.151973  0.467239  0.346959  1
  Na  Na6  1  0.651973  0.967239  0.153041  1
  Na  Na7  1  0.348027  0.467239  0.846959  1
  Be  Be8  1  0.594386  0.059641  0.430475  1
  Be  Be9  1  0.094386  0.559641  0.069525  1
  Be  Be10  1  0.405614  0.940359  0.569525  1
  Be  Be11  1  0.405614  0.559641  0.569525  1
  Be  Be12  1  0.594386  0.440359  0.430475  1
  Be  Be13  1  0.905614  0.440359  0.930475  1
  Be  Be14  1  0.905614  0.059641  0.930475  1
  Be  Be15  1  0.094386  0.940359  0.069525  1
  Si  Si16  1  0.474939  0.250000  0.245964  1
  Si  Si17  1  0.399536  0.750000  0.003313  1
  Si  Si18  1  0.328716  0.250000  0.562341  1
  Si  Si19  1  0.899536  0.250000  0.496687  1
  Si  Si20  1  0.025061  0.250000  0.745964  1
  Si  Si21  1  0.671284  0.750000  0.437659  1
  Si  Si22  1  0.600464  0.250000  0.996687  1
  Si  Si23  1  0.525061  0.750000  0.754036  1
  Si  Si24  1  0.171284  0.250000  0.062341  1
  Si  Si25  1  0.974939  0.750000  0.254036  1
  Si  Si26  1  0.100464  0.750000  0.503313  1
  Si  Si27  1  0.828716  0.750000  0.937659  1
  O  O28  1  0.750540  0.750000  0.806577  1
  O  O29  1  0.682928  0.396113  0.946782  1
  O  O30  1  0.953492  0.608880  0.959613  1
  O  O31  1  0.453492  0.391120  0.540387  1
  O  O32  1  0.546508  0.608880  0.459613  1
  O  O33  1  0.250540  0.250000  0.693423  1
  O  O34  1  0.998556  0.896850  0.187388  1
  O  O35  1  0.498556  0.396850  0.312612  1
  O  O36  1  0.453492  0.108880  0.540387  1
  O  O37  1  0.501444  0.896850  0.687388  1
  O  O38  1  0.953492  0.891120  0.959613  1
  O  O39  1  0.998556  0.603150  0.187388  1
  O  O40  1  0.817072  0.103887  0.446782  1
  O  O41  1  0.124001  0.750000  0.363590  1
  O  O42  1  0.001444  0.396850  0.812612  1
  O  O43  1  0.249460  0.250000  0.193423  1
  O  O44  1  0.640280  0.750000  0.026120  1
  O  O45  1  0.046508  0.108880  0.040387  1
  O  O46  1  0.749460  0.750000  0.306577  1
  O  O47  1  0.546508  0.891120  0.459613  1
  O  O48  1  0.817072  0.396113  0.446782  1
  O  O49  1  0.001444  0.103150  0.812612  1
  O  O50  1  0.375999  0.750000  0.863590  1
  O  O51  1  0.359720  0.250000  0.973880  1
  O  O52  1  0.317072  0.603887  0.053218  1
  O  O53  1  0.498556  0.103150  0.312612  1
  O  O54  1  0.859720  0.750000  0.526120  1
  O  O55  1  0.875999  0.250000  0.636410  1
  O  O56  1  0.501444  0.603150  0.687388  1
  O  O57  1  0.182928  0.603887  0.553218  1
  O  O58  1  0.182928  0.896113  0.553218  1
  O  O59  1  0.682928  0.103887  0.946782  1
  O  O60  1  0.624001  0.250000  0.136410  1
  O  O61  1  0.046508  0.391120  0.040387  1
  O  O62  1  0.140280  0.250000  0.473880  1
  O  O63  1  0.317072  0.896113  0.053218  1
