# generated using pymatgen
data_Cu2As2O7
_symmetry_space_group_name_H-M   'P 1'
_cell_length_a   5.65105778
_cell_length_b   5.65105834
_cell_length_c   9.96361602
_cell_angle_alpha   105.05644881
_cell_angle_beta   105.05644990
_cell_angle_gamma   95.42904373
_symmetry_Int_Tables_number   1
_chemical_formula_structural   Cu2As2O7
_chemical_formula_sum   'Cu4 As4 O14'
_cell_volume   292.19457510
_cell_formula_units_Z   2
loop_
 _symmetry_equiv_pos_site_id
 _symmetry_equiv_pos_as_xyz
  1  'x, y, z'
loop_
 _atom_site_type_symbol
 _atom_site_label
 _atom_site_symmetry_multiplicity
 _atom_site_fract_x
 _atom_site_fract_y
 _atom_site_fract_z
 _atom_site_occupancy
  Cu  Cu0  1  0.346414  0.718492  0.990005  1
  Cu  Cu1  1  0.281508  0.653586  0.509995  1
  Cu  Cu2  1  0.653586  0.281508  0.009995  1
  Cu  Cu3  1  0.718492  0.346414  0.490005  1
  As  As4  1  0.179797  0.206701  0.707217  1
  As  As5  1  0.820203  0.793299  0.292783  1
  As  As6  1  0.793299  0.820203  0.792783  1
  As  As7  1  0.206701  0.179797  0.207217  1
  O  O8  1  0.614341  0.612838  0.124333  1
  O  O9  1  1.001084  0.678184  0.883839  1
  O  O10  1  0.385659  0.387162  0.875667  1
  O  O11  1  0.612838  0.614341  0.624333  1
  O  O12  1  0.938093  0.603051  0.392802  1
  O  O13  1  0.678184  1.001084  0.383839  1
  O  O14  1  0.321816  -0.001084  0.616161  1
  O  O15  1  0.084638  0.915362  0.250000  1
  O  O16  1  0.396949  0.061907  0.107198  1
  O  O17  1  0.061907  0.396949  0.607198  1
  O  O18  1  0.387162  0.385659  0.375667  1
  O  O19  1  -0.001084  0.321816  0.116161  1
  O  O20  1  0.915362  0.084638  0.750000  1
  O  O21  1  0.603051  0.938093  0.892802  1
