# generated using pymatgen
data_FeSnH12(OF)6
_symmetry_space_group_name_H-M   'P 1'
_cell_length_a   6.70189765
_cell_length_b   6.70189712
_cell_length_c   6.70189665
_cell_angle_alpha   96.59697727
_cell_angle_beta   96.59697691
_cell_angle_gamma   96.59697850
_symmetry_Int_Tables_number   1
_chemical_formula_structural   FeSnH12(OF)6
_chemical_formula_sum   'Fe1 Sn1 H12 O6 F6'
_cell_volume   294.53275880
_cell_formula_units_Z   1
loop_
 _symmetry_equiv_pos_site_id
 _symmetry_equiv_pos_as_xyz
  1  'x, y, z'
loop_
 _atom_site_type_symbol
 _atom_site_label
 _atom_site_symmetry_multiplicity
 _atom_site_fract_x
 _atom_site_fract_y
 _atom_site_fract_z
 _atom_site_occupancy
  Fe  Fe0  1  0.500000  0.500000  0.500000  1
  Sn  Sn1  1  0.000000  0.000000  0.000000  1
  F  F2  1  0.265298  0.136790  0.940157  1
  F  F3  1  0.940157  0.265298  0.136790  1
  F  F4  1  0.136790  0.940157  0.265298  1
  F  F5  1  0.734702  0.863210  0.059843  1
  F  F6  1  0.059843  0.734702  0.863210  1
  F  F7  1  0.863210  0.059843  0.734702  1
  O  O8  1  0.566188  0.363026  0.214833  1
  O  O9  1  0.214833  0.566188  0.363026  1
  O  O10  1  0.363026  0.214833  0.566188  1
  O  O11  1  0.433812  0.636974  0.785167  1
  O  O12  1  0.785167  0.433812  0.636974  1
  O  O13  1  0.636974  0.785167  0.433812  1
  H  H14  1  0.699280  0.324141  0.190995  1
  H  H15  1  0.190995  0.699280  0.324141  1
  H  H16  1  0.324141  0.190995  0.699280  1
  H  H17  1  0.300720  0.675859  0.809005  1
  H  H18  1  0.809005  0.300720  0.675859  1
  H  H19  1  0.675859  0.809005  0.300720  1
  H  H20  1  0.463087  0.279419  0.113926  1
  H  H21  1  0.113926  0.463087  0.279419  1
  H  H22  1  0.279419  0.113926  0.463087  1
  H  H23  1  0.536913  0.720581  0.886074  1
  H  H24  1  0.886074  0.536913  0.720581  1
  H  H25  1  0.720581  0.886074  0.536913  1
