# generated using pymatgen
data_Ag5GeO4
_symmetry_space_group_name_H-M   'P 1'
_cell_length_a   6.54620911
_cell_length_b   9.28214462
_cell_length_c   10.07194275
_cell_angle_alpha   90.00000000
_cell_angle_beta   90.00000000
_cell_angle_gamma   91.04838154
_symmetry_Int_Tables_number   1
_chemical_formula_structural   Ag5GeO4
_chemical_formula_sum   'Ag20 Ge4 O16'
_cell_volume   611.89759550
_cell_formula_units_Z   4
loop_
 _symmetry_equiv_pos_site_id
 _symmetry_equiv_pos_as_xyz
  1  'x, y, z'
loop_
 _atom_site_type_symbol
 _atom_site_label
 _atom_site_symmetry_multiplicity
 _atom_site_fract_x
 _atom_site_fract_y
 _atom_site_fract_z
 _atom_site_occupancy
  O  O0  1  0.500037  0.722258  0.560990  1
  O  O1  1  0.999963  0.777742  0.060990  1
  O  O2  1  0.499963  0.277742  0.439010  1
  O  O3  1  0.000037  0.222258  0.939010  1
  O  O4  1  0.483661  0.403307  0.709857  1
  O  O5  1  0.016339  0.096693  0.209857  1
  O  O6  1  0.516339  0.596693  0.290143  1
  O  O7  1  0.983661  0.903307  0.790143  1
  O  O8  1  0.712303  0.143061  0.656835  1
  O  O9  1  0.756877  0.638491  0.860284  1
  O  O10  1  0.787697  0.356939  0.156835  1
  O  O11  1  0.212303  0.643061  0.843165  1
  O  O12  1  0.256877  0.138491  0.639716  1
  O  O13  1  0.243123  0.361509  0.139716  1
  O  O14  1  0.743123  0.861509  0.360284  1
  O  O15  1  0.287697  0.856939  0.343165  1
  Ge  Ge16  1  0.489641  0.240579  0.613543  1
  Ge  Ge17  1  0.010359  0.259421  0.113543  1
  Ge  Ge18  1  0.510359  0.759421  0.386457  1
  Ge  Ge19  1  0.989641  0.740579  0.886457  1
  Ag  Ag20  1  0.834030  0.909850  0.584507  1
  Ag  Ag21  1  0.665970  0.590150  0.084507  1
  Ag  Ag22  1  0.165970  0.090150  0.415493  1
  Ag  Ag23  1  0.334030  0.409850  0.915493  1
  Ag  Ag24  1  0.275362  0.878632  0.645282  1
  Ag  Ag25  1  0.224638  0.621368  0.145282  1
  Ag  Ag26  1  0.724638  0.121368  0.354718  1
  Ag  Ag27  1  0.775362  0.378632  0.854718  1
  Ag  Ag28  1  0.978370  0.301100  0.592367  1
  Ag  Ag29  1  0.521630  0.198900  0.092367  1
  Ag  Ag30  1  0.021630  0.698900  0.407633  1
  Ag  Ag31  1  0.478370  0.801100  0.907633  1
  Ag  Ag32  1  0.774123  0.575684  0.622675  1
  Ag  Ag33  1  0.725877  0.924316  0.122675  1
  Ag  Ag34  1  0.225877  0.424316  0.377325  1
  Ag  Ag35  1  0.274123  0.075684  0.877325  1
  Ag  Ag36  1  0.209896  0.557196  0.624828  1
  Ag  Ag37  1  0.290104  0.942804  0.124828  1
  Ag  Ag38  1  0.790104  0.442804  0.375172  1
  Ag  Ag39  1  0.709896  0.057196  0.875172  1
