# generated using pymatgen
data_OsC4(ClO2)2
_symmetry_space_group_name_H-M   'P 1'
_cell_length_a   6.08941724
_cell_length_b   6.08941724
_cell_length_c   12.07405319
_cell_angle_alpha   90.00000000
_cell_angle_beta   90.00000000
_cell_angle_gamma   90.00000000
_symmetry_Int_Tables_number   1
_chemical_formula_structural   OsC4(ClO2)2
_chemical_formula_sum   'Os2 C8 Cl4 O8'
_cell_volume   447.71799438
_cell_formula_units_Z   2
loop_
 _symmetry_equiv_pos_site_id
 _symmetry_equiv_pos_as_xyz
  1  'x, y, z'
loop_
 _atom_site_type_symbol
 _atom_site_label
 _atom_site_symmetry_multiplicity
 _atom_site_fract_x
 _atom_site_fract_y
 _atom_site_fract_z
 _atom_site_occupancy
  Os  Os0  1  0.000000  0.000000  0.000000  1
  Os  Os1  1  0.500000  0.500000  0.500000  1
  C  C2  1  0.660570  0.660570  0.383802  1
  C  C3  1  0.339430  0.339430  0.383802  1
  C  C4  1  0.339430  0.339430  0.616198  1
  C  C5  1  0.160570  0.839430  0.116198  1
  C  C6  1  0.839430  0.160570  0.116198  1
  C  C7  1  0.839430  0.160570  0.883802  1
  C  C8  1  0.660570  0.660570  0.616198  1
  C  C9  1  0.160570  0.839430  0.883802  1
  Cl  Cl10  1  0.283393  0.283393  0.000000  1
  Cl  Cl11  1  0.716607  0.716607  0.000000  1
  Cl  Cl12  1  0.783393  0.216607  0.500000  1
  Cl  Cl13  1  0.216607  0.783393  0.500000  1
  O  O14  1  0.251049  0.748951  0.186105  1
  O  O15  1  0.751049  0.751049  0.313895  1
  O  O16  1  0.748951  0.251049  0.186105  1
  O  O17  1  0.748951  0.251049  0.813895  1
  O  O18  1  0.248951  0.248951  0.686105  1
  O  O19  1  0.248951  0.248951  0.313895  1
  O  O20  1  0.751049  0.751049  0.686105  1
  O  O21  1  0.251049  0.748951  0.813895  1
