# generated using pymatgen
data_LiNi2(PO4)3
_symmetry_space_group_name_H-M   'P 1'
_cell_length_a   8.90718909
_cell_length_b   8.42021738
_cell_length_c   8.33663783
_cell_angle_alpha   119.76156600
_cell_angle_beta   90.20897975
_cell_angle_gamma   61.69759860
_symmetry_Int_Tables_number   1
_chemical_formula_structural   LiNi2(PO4)3
_chemical_formula_sum   'Li2 Ni4 P6 O24'
_cell_volume   455.40657640
_cell_formula_units_Z   2
loop_
 _symmetry_equiv_pos_site_id
 _symmetry_equiv_pos_as_xyz
  1  'x, y, z'
loop_
 _atom_site_type_symbol
 _atom_site_label
 _atom_site_symmetry_multiplicity
 _atom_site_fract_x
 _atom_site_fract_y
 _atom_site_fract_z
 _atom_site_occupancy
  Li  Li0  1  0.135516  0.937256  0.255255  1
  Li  Li1  1  0.864484  0.062744  0.744745  1
  Ni  Ni2  1  0.574076  0.281597  0.141819  1
  Ni  Ni3  1  0.054696  0.298450  0.650585  1
  Ni  Ni4  1  0.425924  0.718403  0.858181  1
  Ni  Ni5  1  0.945304  0.701550  0.349415  1
  P  P6  1  0.751003  0.503534  0.039805  1
  P  P7  1  0.248913  0.790716  0.536206  1
  P  P8  1  0.246596  0.218633  0.255257  1
  P  P9  1  0.753404  0.781367  0.744743  1
  P  P10  1  0.751087  0.209284  0.463794  1
  P  P11  1  0.248997  0.496466  0.960195  1
  O  O12  1  0.205520  0.328702  0.827575  1
  O  O13  1  0.893748  0.316664  0.836232  1
  O  O14  1  0.899565  0.617415  0.780727  1
  O  O15  1  0.793488  0.703378  0.530796  1
  O  O16  1  0.741421  0.375351  0.117573  1
  O  O17  1  0.206512  0.296622  0.469204  1
  O  O18  1  0.084966  0.768180  0.539350  1
  O  O19  1  0.209408  0.961770  0.490934  1
  O  O20  1  0.434324  0.368419  0.978635  1
  O  O21  1  0.424251  0.577379  0.388637  1
  O  O22  1  0.565676  0.631581  0.021365  1
  O  O23  1  0.794480  0.671298  0.172425  1
  O  O24  1  0.746106  0.996182  0.873094  1
  O  O25  1  0.262092  0.868880  0.742826  1
  O  O26  1  0.570967  0.821449  0.810501  1
  O  O27  1  0.106252  0.683336  0.163768  1
  O  O28  1  0.100435  0.382585  0.219273  1
  O  O29  1  0.737908  0.131120  0.257174  1
  O  O30  1  0.915034  0.231820  0.460650  1
  O  O31  1  0.253894  0.003818  0.126906  1
  O  O32  1  0.790592  0.038230  0.509066  1
  O  O33  1  0.258579  0.624649  0.882427  1
  O  O34  1  0.429033  0.178551  0.189499  1
  O  O35  1  0.575749  0.422621  0.611363  1
