# generated using pymatgen
data_NaSiBO4
_symmetry_space_group_name_H-M   'P 1'
_cell_length_a   14.05524196
_cell_length_b   14.05524158
_cell_length_c   7.78989055
_cell_angle_alpha   90.00000000
_cell_angle_beta   90.00000000
_cell_angle_gamma   120.00000088
_symmetry_Int_Tables_number   1
_chemical_formula_structural   NaSiBO4
_chemical_formula_sum   'Na18 Si18 B18 O72'
_cell_volume   1332.71910859
_cell_formula_units_Z   18
loop_
 _symmetry_equiv_pos_site_id
 _symmetry_equiv_pos_as_xyz
  1  'x, y, z'
loop_
 _atom_site_type_symbol
 _atom_site_label
 _atom_site_symmetry_multiplicity
 _atom_site_fract_x
 _atom_site_fract_y
 _atom_site_fract_z
 _atom_site_occupancy
  Na  Na0  1  0.311434  0.325767  0.502698  1
  Na  Na1  1  0.014333  0.688566  0.502698  1
  Na  Na2  1  0.987304  0.654042  0.067245  1
  Na  Na3  1  0.666738  0.012696  0.067245  1
  Na  Na4  1  0.333262  0.987304  0.567245  1
  Na  Na5  1  0.666667  0.333333  0.523175  1
  Na  Na6  1  0.000000  0.000000  0.052884  1
  Na  Na7  1  0.985667  0.311434  0.002698  1
  Na  Na8  1  0.345958  0.333262  0.067245  1
  Na  Na9  1  0.666667  0.333333  0.024978  1
  Na  Na10  1  0.333333  0.666667  0.524978  1
  Na  Na11  1  0.674233  0.985667  0.502698  1
  Na  Na12  1  0.000000  0.000000  0.552884  1
  Na  Na13  1  0.333333  0.666667  0.023175  1
  Na  Na14  1  0.688566  0.674233  0.002698  1
  Na  Na15  1  0.325767  0.014333  0.002698  1
  Na  Na16  1  0.012696  0.345958  0.567245  1
  Na  Na17  1  0.654042  0.666738  0.567245  1
  Si  Si18  1  0.551095  0.763236  0.239685  1
  Si  Si19  1  0.236764  0.787859  0.239685  1
  Si  Si20  1  0.878770  0.782495  0.333885  1
  Si  Si21  1  0.212141  0.448905  0.239685  1
  Si  Si22  1  0.431373  0.545579  0.745994  1
  Si  Si23  1  0.545579  0.114207  0.245994  1
  Si  Si24  1  0.787859  0.551095  0.739685  1
  Si  Si25  1  0.903725  0.121230  0.333885  1
  Si  Si26  1  0.448905  0.236764  0.739685  1
  Si  Si27  1  0.114207  0.568627  0.745994  1
  Si  Si28  1  0.096275  0.878770  0.833885  1
  Si  Si29  1  0.885793  0.431373  0.245994  1
  Si  Si30  1  0.121230  0.217505  0.833885  1
  Si  Si31  1  0.782495  0.903725  0.833885  1
  Si  Si32  1  0.568627  0.454421  0.245994  1
  Si  Si33  1  0.217505  0.096275  0.333885  1
  Si  Si34  1  0.454421  0.885793  0.745994  1
  Si  Si35  1  0.763236  0.212141  0.739685  1
  B  B36  1  0.566829  0.453576  0.865135  1
  B  B37  1  0.552437  0.765960  0.864536  1
  B  B38  1  0.218589  0.098558  0.710296  1
  B  B39  1  0.098558  0.879969  0.210296  1
  B  B40  1  0.879969  0.781411  0.710296  1
  B  B41  1  0.546424  0.113253  0.865135  1
  B  B42  1  0.786476  0.552437  0.364536  1
  B  B43  1  0.120031  0.218589  0.210296  1
  B  B44  1  0.113253  0.566829  0.365135  1
  B  B45  1  0.453576  0.886747  0.365135  1
  B  B46  1  0.234040  0.786476  0.864536  1
  B  B47  1  0.765960  0.213524  0.364536  1
  B  B48  1  0.901442  0.120031  0.710296  1
  B  B49  1  0.213524  0.447563  0.864536  1
  B  B50  1  0.886747  0.433171  0.865135  1
  B  B51  1  0.447563  0.234040  0.364536  1
  B  B52  1  0.781411  0.901442  0.210296  1
  B  B53  1  0.433171  0.546424  0.365135  1
  O  O54  1  0.658848  0.456516  0.767535  1
  O  O55  1  0.340629  0.869066  0.363725  1
  O  O56  1  0.202584  0.864664  0.787846  1
  O  O57  1  0.876987  0.868399  0.812367  1
  O  O58  1  0.512224  0.118076  0.045408  1
  O  O59  1  0.538994  0.534369  0.792221  1
  O  O60  1  0.471563  0.340629  0.863725  1
  O  O61  1  0.843582  0.787493  0.532561  1
  O  O62  1  0.534369  0.995375  0.292221  1
  O  O63  1  0.869638  0.197615  0.784973  1
  O  O64  1  0.056089  0.843582  0.032561  1
  O  O65  1  0.659371  0.130934  0.863725  1
  O  O66  1  0.275953  0.823621  0.041348  1
  O  O67  1  0.004625  0.538994  0.292221  1
  O  O68  1  0.605852  0.487776  0.045408  1
  O  O69  1  0.861758  0.326651  0.368567  1
  O  O70  1  0.534567  0.324348  0.263293  1
  O  O71  1  0.200132  0.193504  0.707071  1
  O  O72  1  0.787493  0.943911  0.032561  1
  O  O73  1  0.006628  0.200132  0.207071  1
  O  O74  1  0.130362  0.802385  0.284973  1
  O  O75  1  0.197615  0.327976  0.284973  1
  O  O76  1  0.943911  0.156418  0.532561  1
  O  O77  1  0.008587  0.876987  0.312367  1
  O  O78  1  0.461006  0.465631  0.292221  1
  O  O79  1  0.176379  0.452332  0.041348  1
  O  O80  1  0.452332  0.275953  0.541348  1
  O  O81  1  0.823621  0.547668  0.541348  1
  O  O82  1  0.789780  0.465433  0.263293  1
  O  O83  1  0.806496  0.006628  0.707071  1
  O  O84  1  0.156418  0.212507  0.032561  1
  O  O85  1  0.802385  0.672024  0.784973  1
  O  O86  1  0.327976  0.130362  0.784973  1
  O  O87  1  0.868399  0.991413  0.312367  1
  O  O88  1  0.212507  0.056089  0.532561  1
  O  O89  1  0.991413  0.123013  0.812367  1
  O  O90  1  0.672024  0.869638  0.284973  1
  O  O91  1  0.131601  0.008587  0.812367  1
  O  O92  1  0.535107  0.861758  0.868567  1
  O  O93  1  0.543484  0.202332  0.767535  1
  O  O94  1  0.193504  0.993372  0.207071  1
  O  O95  1  0.673349  0.535107  0.368567  1
  O  O96  1  0.465631  0.004625  0.792221  1
  O  O97  1  0.797668  0.341152  0.767535  1
  O  O98  1  0.130934  0.471563  0.363725  1
  O  O99  1  0.528437  0.659371  0.363725  1
  O  O100  1  0.487776  0.881924  0.545408  1
  O  O101  1  0.995375  0.461006  0.792221  1
  O  O102  1  0.210220  0.534567  0.763293  1
  O  O103  1  0.662080  0.797416  0.787846  1
  O  O104  1  0.337920  0.202584  0.287846  1
  O  O105  1  0.993372  0.799868  0.707071  1
  O  O106  1  0.326651  0.464893  0.868567  1
  O  O107  1  0.456516  0.797668  0.267535  1
  O  O108  1  0.123013  0.131601  0.312367  1
  O  O109  1  0.341152  0.543484  0.267535  1
  O  O110  1  0.465433  0.675652  0.763293  1
  O  O111  1  0.324348  0.789780  0.763293  1
  O  O112  1  0.202332  0.658848  0.267535  1
  O  O113  1  0.724047  0.176379  0.541348  1
  O  O114  1  0.547668  0.724047  0.041348  1
  O  O115  1  0.394148  0.512224  0.545408  1
  O  O116  1  0.869066  0.528437  0.863725  1
  O  O117  1  0.864664  0.662080  0.287846  1
  O  O118  1  0.675652  0.210220  0.263293  1
  O  O119  1  0.118076  0.605852  0.545408  1
  O  O120  1  0.881924  0.394148  0.045408  1
  O  O121  1  0.797416  0.135336  0.287846  1
  O  O122  1  0.138242  0.673349  0.868567  1
  O  O123  1  0.135336  0.337920  0.787846  1
  O  O124  1  0.464893  0.138242  0.368567  1
  O  O125  1  0.799868  0.806496  0.207071  1
