# generated using pymatgen
data_Cs4Pr6C2I13
_symmetry_space_group_name_H-M   'P 1'
_cell_length_a   12.86263041
_cell_length_b   14.46666536
_cell_length_c   14.46666580
_cell_angle_alpha   78.60133558
_cell_angle_beta   63.60474381
_cell_angle_gamma   63.60474497
_symmetry_Int_Tables_number   1
_chemical_formula_structural   Cs4Pr6C2I13
_chemical_formula_sum   'Cs8 Pr12 C4 I26'
_cell_volume   2159.92627355
_cell_formula_units_Z   2
loop_
 _symmetry_equiv_pos_site_id
 _symmetry_equiv_pos_as_xyz
  1  'x, y, z'
loop_
 _atom_site_type_symbol
 _atom_site_label
 _atom_site_symmetry_multiplicity
 _atom_site_fract_x
 _atom_site_fract_y
 _atom_site_fract_z
 _atom_site_occupancy
  Cs  Cs0  1  0.028577  0.250000  0.442847  1
  Cs  Cs1  1  0.971423  0.057153  0.250000  1
  Cs  Cs2  1  0.278577  0.442847  0.250000  1
  Cs  Cs3  1  0.721423  0.250000  0.057153  1
  Cs  Cs4  1  0.971423  0.750000  0.557153  1
  Cs  Cs5  1  0.028577  0.942847  0.750000  1
  Cs  Cs6  1  0.721423  0.557153  0.750000  1
  Cs  Cs7  1  0.278577  0.750000  0.942847  1
  Pr  Pr8  1  0.608761  0.250000  0.750000  1
  Pr  Pr9  1  0.858761  0.750000  0.250000  1
  Pr  Pr10  1  0.141239  0.250000  0.750000  1
  Pr  Pr11  1  0.391239  0.750000  0.250000  1
  Pr  Pr12  1  0.376512  0.111279  0.888721  1
  Pr  Pr13  1  0.765234  0.611279  0.111279  1
  Pr  Pr14  1  0.487791  0.888721  0.388721  1
  Pr  Pr15  1  0.376512  0.388721  0.611279  1
  Pr  Pr16  1  0.512209  0.111279  0.611279  1
  Pr  Pr17  1  0.234766  0.388721  0.888721  1
  Pr  Pr18  1  0.623488  0.611279  0.388721  1
  Pr  Pr19  1  0.623488  0.888721  0.111279  1
  I  I20  1  0.125000  0.750000  0.250000  1
  I  I21  1  0.875000  0.250000  0.750000  1
  I  I22  1  0.546403  0.250000  0.407193  1
  I  I23  1  0.453597  0.092807  0.250000  1
  I  I24  1  0.796403  0.407193  0.250000  1
  I  I25  1  0.203597  0.250000  0.092807  1
  I  I26  1  0.453597  0.750000  0.592807  1
  I  I27  1  0.546403  0.907193  0.750000  1
  I  I28  1  0.203597  0.592807  0.750000  1
  I  I29  1  0.796403  0.750000  0.907193  1
  I  I30  1  0.122383  0.073514  0.926486  1
  I  I31  1  0.548869  0.573514  0.073514  1
  I  I32  1  0.195896  0.926486  0.426486  1
  I  I33  1  0.122383  0.426486  0.573514  1
  I  I34  1  0.804104  0.073514  0.573514  1
  I  I35  1  0.451131  0.426486  0.926486  1
  I  I36  1  0.877617  0.573514  0.426486  1
  I  I37  1  0.877617  0.926486  0.073514  1
  I  I38  1  0.630507  0.077365  0.922635  1
  I  I39  1  0.053143  0.577365  0.077365  1
  I  I40  1  0.707872  0.922635  0.422635  1
  I  I41  1  0.630507  0.422635  0.577365  1
  I  I42  1  0.292128  0.077365  0.577365  1
  I  I43  1  0.946857  0.422635  0.922635  1
  I  I44  1  0.369493  0.577365  0.422635  1
  I  I45  1  0.369493  0.922635  0.077365  1
  C  C46  1  0.429215  0.250000  0.750000  1
  C  C47  1  0.679215  0.750000  0.250000  1
  C  C48  1  0.320785  0.250000  0.750000  1
  C  C49  1  0.570785  0.750000  0.250000  1
