# generated using pymatgen
data_TlVH6SO9
_symmetry_space_group_name_H-M   'P 1'
_cell_length_a   6.29440174
_cell_length_b   6.76295209
_cell_length_c   10.06581397
_cell_angle_alpha   90.00000000
_cell_angle_beta   90.00000000
_cell_angle_gamma   107.73815122
_symmetry_Int_Tables_number   1
_chemical_formula_structural   TlVH6SO9
_chemical_formula_sum   'Tl2 V2 H12 S2 O18'
_cell_volume   408.11812175
_cell_formula_units_Z   2
loop_
 _symmetry_equiv_pos_site_id
 _symmetry_equiv_pos_as_xyz
  1  'x, y, z'
loop_
 _atom_site_type_symbol
 _atom_site_label
 _atom_site_symmetry_multiplicity
 _atom_site_fract_x
 _atom_site_fract_y
 _atom_site_fract_z
 _atom_site_occupancy
  Tl  Tl0  1  0.319346  0.819902  0.653537  1
  Tl  Tl1  1  0.680655  0.180098  0.153537  1
  V  V2  1  0.379734  0.621049  0.998402  1
  V  V3  1  0.620266  0.378951  0.498402  1
  H  H4  1  0.221114  0.308821  0.206119  1
  H  H5  1  0.527642  0.653661  0.262335  1
  H  H6  1  0.819474  0.819029  0.574249  1
  H  H7  1  0.032268  0.308261  0.849837  1
  H  H8  1  0.967732  0.691739  0.349837  1
  H  H9  1  0.108731  0.926105  0.343293  1
  H  H10  1  0.690591  0.262720  0.763545  1
  H  H11  1  0.180526  0.180971  0.074249  1
  H  H12  1  0.472358  0.346339  0.762335  1
  H  H13  1  0.309409  0.737280  0.263545  1
  H  H14  1  0.778886  0.691179  0.706119  1
  H  H15  1  0.891269  0.073895  0.843293  1
  S  S16  1  0.082414  0.265978  0.498062  1
  S  S17  1  0.917586  0.734022  0.998062  1
  O  O18  1  0.278251  0.310187  0.114368  1
  O  O19  1  0.455997  0.862133  0.943045  1
  O  O20  1  0.544003  0.137867  0.443045  1
  O  O21  1  0.061970  0.602408  0.041695  1
  O  O22  1  0.434335  0.716743  0.206785  1
  O  O23  1  0.565665  0.283257  0.706785  1
  O  O24  1  0.939417  0.777317  0.854366  1
  O  O25  1  0.938030  0.397592  0.541695  1
  O  O26  1  0.878018  0.213102  0.857204  1
  O  O27  1  0.684721  0.591350  0.029023  1
  O  O28  1  0.321081  0.474182  0.859566  1
  O  O29  1  0.678919  0.525818  0.359566  1
  O  O30  1  0.060583  0.222683  0.354366  1
  O  O31  1  0.968463  0.923661  0.077666  1
  O  O32  1  0.031537  0.076339  0.577666  1
  O  O33  1  0.315279  0.408650  0.529023  1
  O  O34  1  0.121982  0.786898  0.357204  1
  O  O35  1  0.721749  0.689813  0.614368  1
