# generated using pymatgen
data_VP2NCl10O
_symmetry_space_group_name_H-M   'P 1'
_cell_length_a   10.40650439
_cell_length_b   16.44836430
_cell_length_c   20.72638914
_cell_angle_alpha   90.00000000
_cell_angle_beta   90.00000000
_cell_angle_gamma   90.00000000
_symmetry_Int_Tables_number   1
_chemical_formula_structural   VP2NCl10O
_chemical_formula_sum   'V8 P16 N8 Cl80 O8'
_cell_volume   3547.73551707
_cell_formula_units_Z   8
loop_
 _symmetry_equiv_pos_site_id
 _symmetry_equiv_pos_as_xyz
  1  'x, y, z'
loop_
 _atom_site_type_symbol
 _atom_site_label
 _atom_site_symmetry_multiplicity
 _atom_site_fract_x
 _atom_site_fract_y
 _atom_site_fract_z
 _atom_site_occupancy
  V  V0  1  0.797761  0.583301  0.369684  1
  V  V1  1  0.702239  0.083301  0.369684  1
  V  V2  1  0.797761  0.916699  0.869684  1
  V  V3  1  0.297761  0.916699  0.630316  1
  V  V4  1  0.702239  0.416699  0.869684  1
  V  V5  1  0.202239  0.416699  0.630316  1
  V  V6  1  0.202239  0.083301  0.130316  1
  V  V7  1  0.297761  0.583301  0.130316  1
  P  P8  1  0.658447  0.646872  0.654649  1
  P  P9  1  0.158447  0.853128  0.345351  1
  P  P10  1  0.193384  0.279631  0.905255  1
  P  P11  1  0.806616  0.779631  0.594745  1
  P  P12  1  0.841553  0.146872  0.654649  1
  P  P13  1  0.806616  0.720369  0.094745  1
  P  P14  1  0.158447  0.646872  0.845351  1
  P  P15  1  0.341553  0.353128  0.345351  1
  P  P16  1  0.193384  0.220369  0.405255  1
  P  P17  1  0.658447  0.853128  0.154649  1
  P  P18  1  0.306616  0.720369  0.405255  1
  P  P19  1  0.306616  0.779631  0.905255  1
  P  P20  1  0.693384  0.220369  0.094745  1
  P  P21  1  0.841553  0.353128  0.154649  1
  P  P22  1  0.693384  0.279631  0.594745  1
  P  P23  1  0.341553  0.146872  0.845351  1
  N  N24  1  0.192953  0.719595  0.891129  1
  N  N25  1  0.807047  0.219595  0.608871  1
  N  N26  1  0.807047  0.280405  0.108871  1
  N  N27  1  0.307047  0.219595  0.891129  1
  N  N28  1  0.692953  0.780405  0.108871  1
  N  N29  1  0.692953  0.719595  0.608871  1
  N  N30  1  0.307047  0.280405  0.391129  1
  N  N31  1  0.192953  0.780405  0.391129  1
  Cl  Cl32  1  0.375419  0.664975  0.327302  1
  Cl  Cl33  1  0.624581  0.164975  0.172698  1
  Cl  Cl34  1  0.373374  0.182045  0.755166  1
  Cl  Cl35  1  0.994452  0.599193  0.320657  1
  Cl  Cl36  1  0.793810  0.778848  0.881137  1
  Cl  Cl37  1  0.165506  0.576318  0.042134  1
  Cl  Cl38  1  0.793810  0.721152  0.381137  1
  Cl  Cl39  1  0.126626  0.682045  0.755166  1
  Cl  Cl40  1  0.124581  0.335025  0.827302  1
  Cl  Cl41  1  0.494452  0.900807  0.679343  1
  Cl  Cl42  1  0.165506  0.923682  0.542134  1
  Cl  Cl43  1  0.498767  0.092924  0.876271  1
  Cl  Cl44  1  0.834494  0.076318  0.457866  1
  Cl  Cl45  1  0.998767  0.407076  0.123729  1
  Cl  Cl46  1  0.747877  0.635295  0.034455  1
  Cl  Cl47  1  0.206190  0.221152  0.118863  1
  Cl  Cl48  1  0.005548  0.099193  0.179343  1
  Cl  Cl49  1  0.126626  0.817955  0.255166  1
  Cl  Cl50  1  0.252123  0.135295  0.465545  1
  Cl  Cl51  1  0.368694  0.043820  0.601108  1
  Cl  Cl52  1  0.834494  0.423682  0.957866  1
  Cl  Cl53  1  0.631306  0.956180  0.398892  1
  Cl  Cl54  1  0.994452  0.900807  0.820657  1
  Cl  Cl55  1  0.875419  0.664975  0.172698  1
  Cl  Cl56  1  0.001233  0.907076  0.376271  1
  Cl  Cl57  1  0.252123  0.364705  0.965545  1
  Cl  Cl58  1  0.955513  0.774632  0.053744  1
  Cl  Cl59  1  0.626626  0.682045  0.744834  1
  Cl  Cl60  1  0.752123  0.364705  0.534455  1
  Cl  Cl61  1  0.498767  0.407076  0.376271  1
  Cl  Cl62  1  0.868694  0.456180  0.398892  1
  Cl  Cl63  1  0.544487  0.274632  0.053744  1
  Cl  Cl64  1  0.334494  0.423682  0.542134  1
  Cl  Cl65  1  0.001233  0.592924  0.876271  1
  Cl  Cl66  1  0.205987  0.061984  0.839699  1
  Cl  Cl67  1  0.706190  0.278848  0.881137  1
  Cl  Cl68  1  0.505548  0.400807  0.820657  1
  Cl  Cl69  1  0.373374  0.317955  0.255166  1
  Cl  Cl70  1  0.873374  0.317955  0.244834  1
  Cl  Cl71  1  0.955513  0.725368  0.553744  1
  Cl  Cl72  1  0.294013  0.938016  0.339699  1
  Cl  Cl73  1  0.247877  0.864705  0.965545  1
  Cl  Cl74  1  0.334494  0.076318  0.042134  1
  Cl  Cl75  1  0.455513  0.774632  0.446256  1
  Cl  Cl76  1  0.375419  0.835025  0.827302  1
  Cl  Cl77  1  0.794013  0.561984  0.660301  1
  Cl  Cl78  1  0.293810  0.778848  0.618863  1
  Cl  Cl79  1  0.005548  0.400807  0.679343  1
  Cl  Cl80  1  0.044487  0.274632  0.446256  1
  Cl  Cl81  1  0.505548  0.099193  0.320657  1
  Cl  Cl82  1  0.626626  0.817955  0.244834  1
  Cl  Cl83  1  0.044487  0.225368  0.946256  1
  Cl  Cl84  1  0.131306  0.956180  0.101108  1
  Cl  Cl85  1  0.544487  0.225368  0.553744  1
  Cl  Cl86  1  0.875419  0.835025  0.672698  1
  Cl  Cl87  1  0.706190  0.221152  0.381137  1
  Cl  Cl88  1  0.631306  0.543820  0.898892  1
  Cl  Cl89  1  0.206190  0.278848  0.618863  1
  Cl  Cl90  1  0.705987  0.438016  0.160301  1
  Cl  Cl91  1  0.624581  0.335025  0.672698  1
  Cl  Cl92  1  0.998767  0.092924  0.623729  1
  Cl  Cl93  1  0.494452  0.599193  0.179343  1
  Cl  Cl94  1  0.665506  0.923682  0.957866  1
  Cl  Cl95  1  0.752123  0.135295  0.034455  1
  Cl  Cl96  1  0.794013  0.938016  0.160301  1
  Cl  Cl97  1  0.747877  0.864705  0.534455  1
  Cl  Cl98  1  0.501233  0.592924  0.623729  1
  Cl  Cl99  1  0.124581  0.164975  0.327302  1
  Cl  Cl100  1  0.705987  0.061984  0.660301  1
  Cl  Cl101  1  0.294013  0.561984  0.839699  1
  Cl  Cl102  1  0.873374  0.182045  0.744834  1
  Cl  Cl103  1  0.131306  0.543820  0.601108  1
  Cl  Cl104  1  0.293810  0.721152  0.118863  1
  Cl  Cl105  1  0.205987  0.438016  0.339699  1
  Cl  Cl106  1  0.455513  0.725368  0.946256  1
  Cl  Cl107  1  0.868694  0.043820  0.898892  1
  Cl  Cl108  1  0.665506  0.576318  0.457866  1
  Cl  Cl109  1  0.501233  0.907076  0.123729  1
  Cl  Cl110  1  0.368694  0.456180  0.101108  1
  Cl  Cl111  1  0.247877  0.635295  0.465545  1
  O  O112  1  0.702882  0.566299  0.310268  1
  O  O113  1  0.797118  0.433701  0.810268  1
  O  O114  1  0.297118  0.433701  0.689732  1
  O  O115  1  0.202882  0.566299  0.189732  1
  O  O116  1  0.297118  0.066299  0.189732  1
  O  O117  1  0.797118  0.066299  0.310268  1
  O  O118  1  0.202882  0.933701  0.689732  1
  O  O119  1  0.702882  0.933701  0.810268  1
