# generated using pymatgen
data_Ta27S50
_symmetry_space_group_name_H-M   'P 1'
_cell_length_a   32.45461962
_cell_length_b   12.54799447
_cell_length_c   38.20987899
_cell_angle_alpha   22.14698096
_cell_angle_beta   25.02683461
_cell_angle_gamma   14.94153460
_symmetry_Int_Tables_number   1
_chemical_formula_structural   Ta27S50
_chemical_formula_sum   'Ta27 S50'
_cell_volume   1502.38988729
_cell_formula_units_Z   1
loop_
 _symmetry_equiv_pos_site_id
 _symmetry_equiv_pos_as_xyz
  1  'x, y, z'
loop_
 _atom_site_type_symbol
 _atom_site_label
 _atom_site_symmetry_multiplicity
 _atom_site_fract_x
 _atom_site_fract_y
 _atom_site_fract_z
 _atom_site_occupancy
  S  S0  1  0.194983  0.244338  0.049129  1
  S  S1  1  0.177711  0.430862  0.084503  1
  S  S2  1  0.149529  0.250139  0.250342  1
  S  S3  1  0.389403  0.246325  0.049464  1
  S  S4  1  0.143633  0.422632  0.281367  1
  S  S5  1  0.384576  0.410304  0.083161  1
  S  S6  1  0.106156  0.262325  0.448511  1
  S  S7  1  0.350402  0.252415  0.248392  1
  S  S8  1  0.589396  0.262419  0.049077  1
  S  S9  1  0.108157  0.405074  0.483082  1
  S  S10  1  0.342274  0.409859  0.286934  1
  S  S11  1  0.580665  0.397833  0.095333  1
  S  S12  1  0.074300  0.246638  0.648813  1
  S  S13  1  0.313639  0.242144  0.452474  1
  S  S14  1  0.548616  0.239607  0.255278  1
  S  S15  1  0.789175  0.249176  0.049110  1
  S  S16  1  0.060075  0.430849  0.683003  1
  S  S17  1  0.290477  0.469512  0.480001  1
  S  S18  1  0.543866  0.426884  0.280855  1
  S  S19  1  0.032863  0.244736  0.848482  1
  S  S20  1  0.782884  0.415729  0.082435  1
  S  S21  1  0.270948  0.244146  0.649232  1
  S  S22  1  0.510142  0.240050  0.450812  1
  S  S23  1  0.749563  0.254176  0.248433  1
  S  S24  1  0.020886  0.425712  0.882445  1
  S  S25  1  0.985019  0.270554  0.048639  1
  S  S26  1  0.262560  0.421907  0.681277  1
  S  S27  1  0.503596  0.412621  0.483228  1
  S  S28  1  0.743668  0.407055  0.286736  1
  S  S29  1  0.226455  0.264788  0.847498  1
  S  S30  1  0.989074  0.401549  0.084564  1
  S  S31  1  0.469719  0.263229  0.648277  1
  S  S32  1  0.704923  0.262752  0.452621  1
  S  S33  1  0.950505  0.249001  0.250014  1
  S  S34  1  0.225741  0.405753  0.885505  1
  S  S35  1  0.462542  0.391031  0.695734  1
  S  S36  1  0.719790  0.395024  0.480678  1
  S  S37  1  0.944820  0.419648  0.281397  1
  S  S38  1  0.433044  0.238573  0.853147  1
  S  S39  1  0.669468  0.244893  0.651484  1
  S  S40  1  0.913726  0.241491  0.449236  1
  S  S41  1  0.409375  0.475365  0.878657  1
  S  S42  1  0.663124  0.425415  0.680555  1
  S  S43  1  0.899079  0.429814  0.482717  1
  S  S44  1  0.629233  0.248698  0.848733  1
  S  S45  1  0.864975  0.270478  0.648043  1
  S  S46  1  0.625758  0.402094  0.885084  1
  S  S47  1  0.868629  0.399597  0.685633  1
  S  S48  1  0.827061  0.260043  0.851852  1
  S  S49  1  0.836773  0.404057  0.879545  1
  Ta  Ta50  1  0.002630  0.003224  0.996479  1
  Ta  Ta51  1  0.200587  0.004215  0.997705  1
  Ta  Ta52  1  0.163024  0.992503  0.200462  1
  Ta  Ta53  1  0.400456  0.006975  0.000636  1
  Ta  Ta54  1  0.117109  0.010750  0.399343  1
  Ta  Ta55  1  0.360966  0.989644  0.202364  1
  Ta  Ta56  1  0.598504  0.000800  -0.000114  1
  Ta  Ta57  1  0.077358  0.011188  0.598075  1
  Ta  Ta58  1  0.318987  0.000633  0.399685  1
  Ta  Ta59  1  0.559684  0.992354  0.203287  1
  Ta  Ta60  1  0.798131  0.010843  0.001206  1
  Ta  Ta61  1  0.044233  0.997614  0.798227  1
  Ta  Ta62  1  0.281234  0.002861  0.601362  1
  Ta  Ta63  1  0.520777  0.003914  0.401486  1
  Ta  Ta64  1  0.757648  0.996697  0.202864  1
  Ta  Ta65  1  0.238385  0.002733  0.800308  1
  Ta  Ta66  1  0.479143  0.000525  0.600150  1
  Ta  Ta67  1  0.721377  0.994594  0.399803  1
  Ta  Ta68  1  0.956416  0.006978  0.201008  1
  Ta  Ta69  1  0.437179  0.998468  0.802750  1
  Ta  Ta70  1  0.680127  0.004799  0.601420  1
  Ta  Ta71  1  0.921147  0.999830  0.399592  1
  Ta  Ta72  1  0.487681  0.814010  0.565349  1
  Ta  Ta73  1  0.637274  0.006967  0.802549  1
  Ta  Ta74  1  0.882622  0.999835  0.598030  1
  Ta  Ta75  1  0.842341  0.994739  0.799237  1
  Ta  Ta76  1  0.606113  0.820195  0.964653  1
