# generated using pymatgen
data_CsLi3Br4
_symmetry_space_group_name_H-M   'P 1'
_cell_length_a   5.06330741
_cell_length_b   8.82544524
_cell_length_c   11.01339698
_cell_angle_alpha   90.00000000
_cell_angle_beta   90.00000000
_cell_angle_gamma   90.00000000
_symmetry_Int_Tables_number   1
_chemical_formula_structural   CsLi3Br4
_chemical_formula_sum   'Cs2 Li6 Br8'
_cell_volume   492.14402176
_cell_formula_units_Z   2
loop_
 _symmetry_equiv_pos_site_id
 _symmetry_equiv_pos_as_xyz
  1  'x, y, z'
loop_
 _atom_site_type_symbol
 _atom_site_label
 _atom_site_symmetry_multiplicity
 _atom_site_fract_x
 _atom_site_fract_y
 _atom_site_fract_z
 _atom_site_occupancy
  Cs  Cs0  1  0.500000  0.144769  0.551053  1
  Cs  Cs1  1  0.500000  0.644769  0.448947  1
  Li  Li2  1  0.000000  0.114422  0.214492  1
  Li  Li3  1  0.000000  0.475075  0.146616  1
  Li  Li4  1  0.000000  0.614422  0.785508  1
  Li  Li5  1  0.500000  0.803614  0.046618  1
  Li  Li6  1  0.500000  0.303614  0.953382  1
  Li  Li7  1  0.000000  0.975075  0.853384  1
  Br  Br8  1  0.500000  0.485195  0.762069  1
  Br  Br9  1  0.500000  0.985195  0.237931  1
  Br  Br10  1  0.000000  0.746571  0.992364  1
  Br  Br11  1  0.500000  0.521820  0.141424  1
  Br  Br12  1  0.000000  0.337605  0.370636  1
  Br  Br13  1  0.000000  0.246571  0.007636  1
  Br  Br14  1  0.500000  0.021820  0.858576  1
  Br  Br15  1  0.000000  0.837605  0.629364  1
