# generated using pymatgen
data_MnPbO3
_symmetry_space_group_name_H-M   'P 1'
_cell_length_a   5.60775367
_cell_length_b   5.59410355
_cell_length_c   13.85591763
_cell_angle_alpha   88.94657064
_cell_angle_beta   87.89792724
_cell_angle_gamma   59.91925563
_symmetry_Int_Tables_number   1
_chemical_formula_structural   MnPbO3
_chemical_formula_sum   'Mn6 Pb6 O18'
_cell_volume   375.87121926
_cell_formula_units_Z   6
loop_
 _symmetry_equiv_pos_site_id
 _symmetry_equiv_pos_as_xyz
  1  'x, y, z'
loop_
 _atom_site_type_symbol
 _atom_site_label
 _atom_site_symmetry_multiplicity
 _atom_site_fract_x
 _atom_site_fract_y
 _atom_site_fract_z
 _atom_site_occupancy
  Pb  Pb0  1  0.010730  0.978541  0.250000  1
  Pb  Pb1  1  0.989270  0.021459  0.750000  1
  Pb  Pb2  1  0.669603  0.659698  0.089322  1
  Pb  Pb3  1  0.670700  0.659698  0.410678  1
  Pb  Pb4  1  0.330397  0.340302  0.910678  1
  Pb  Pb5  1  0.329300  0.340302  0.589322  1
  Mn  Mn6  1  0.000000  0.000000  0.000000  1
  Mn  Mn7  1  0.000000  0.000000  0.500000  1
  Mn  Mn8  1  0.680379  0.674083  0.845097  1
  Mn  Mn9  1  0.645539  0.674083  0.654903  1
  Mn  Mn10  1  0.319621  0.325917  0.154903  1
  Mn  Mn11  1  0.354461  0.325917  0.345097  1
  O  O12  1  0.487323  0.025355  0.250000  1
  O  O13  1  0.512677  0.974645  0.750000  1
  O  O14  1  0.040239  0.475015  0.264934  1
  O  O15  1  0.484747  0.475015  0.235066  1
  O  O16  1  0.959761  0.524985  0.735066  1
  O  O17  1  0.515253  0.524985  0.764934  1
  O  O18  1  0.106223  0.664015  0.079920  1
  O  O19  1  0.229762  0.664015  0.420080  1
  O  O20  1  0.893777  0.335985  0.920080  1
  O  O21  1  0.770238  0.335985  0.579920  1
  O  O22  1  0.105859  0.169022  0.100493  1
  O  O23  1  0.725120  0.169022  0.399507  1
  O  O24  1  0.894141  0.830978  0.899507  1
  O  O25  1  0.274880  0.830978  0.600493  1
  O  O26  1  0.614458  0.164868  0.058324  1
  O  O27  1  0.220675  0.164868  0.441676  1
  O  O28  1  0.385542  0.835132  0.941676  1
  O  O29  1  0.779325  0.835132  0.558324  1
