# generated using pymatgen
data_Ga3Os
_symmetry_space_group_name_H-M   'P 1'
_cell_length_a   6.55376175
_cell_length_b   6.55376175
_cell_length_c   6.83667047
_cell_angle_alpha   90.00000000
_cell_angle_beta   90.00000000
_cell_angle_gamma   90.00000000
_symmetry_Int_Tables_number   1
_chemical_formula_structural   Ga3Os
_chemical_formula_sum   'Ga12 Os4'
_cell_volume   293.64725535
_cell_formula_units_Z   4
loop_
 _symmetry_equiv_pos_site_id
 _symmetry_equiv_pos_as_xyz
  1  'x, y, z'
loop_
 _atom_site_type_symbol
 _atom_site_label
 _atom_site_symmetry_multiplicity
 _atom_site_fract_x
 _atom_site_fract_y
 _atom_site_fract_z
 _atom_site_occupancy
  Ga  Ga0  1  0.154615  0.345385  0.985111  1
  Ga  Ga1  1  0.154615  0.345385  0.514889  1
  Ga  Ga2  1  0.345385  0.845385  0.014889  1
  Ga  Ga3  1  0.654615  0.154615  0.014889  1
  Ga  Ga4  1  0.500000  0.500000  0.250000  1
  Ga  Ga5  1  0.000000  0.000000  0.750000  1
  Ga  Ga6  1  0.345385  0.845385  0.485111  1
  Ga  Ga7  1  0.845385  0.654615  0.985111  1
  Ga  Ga8  1  0.654615  0.154615  0.485111  1
  Ga  Ga9  1  0.000000  0.000000  0.250000  1
  Ga  Ga10  1  0.845385  0.654615  0.514889  1
  Ga  Ga11  1  0.500000  0.500000  0.750000  1
  Os  Os12  1  0.339691  0.160309  0.250000  1
  Os  Os13  1  0.160309  0.660309  0.750000  1
  Os  Os14  1  0.660309  0.839691  0.250000  1
  Os  Os15  1  0.839691  0.339691  0.750000  1
