# generated using pymatgen
data_CoP2PbO7
_symmetry_space_group_name_H-M   'P 1'
_cell_length_a   5.41442644
_cell_length_b   8.39556171
_cell_length_c   13.01032331
_cell_angle_alpha   90.00000000
_cell_angle_beta   89.78257565
_cell_angle_gamma   90.00000000
_symmetry_Int_Tables_number   1
_chemical_formula_structural   CoP2PbO7
_chemical_formula_sum   'Co4 P8 Pb4 O28'
_cell_volume   591.40797723
_cell_formula_units_Z   4
loop_
 _symmetry_equiv_pos_site_id
 _symmetry_equiv_pos_as_xyz
  1  'x, y, z'
loop_
 _atom_site_type_symbol
 _atom_site_label
 _atom_site_symmetry_multiplicity
 _atom_site_fract_x
 _atom_site_fract_y
 _atom_site_fract_z
 _atom_site_occupancy
  Pb  Pb0  1  0.209392  0.671096  0.222153  1
  Pb  Pb1  1  0.290608  0.171096  0.277847  1
  Pb  Pb2  1  0.790608  0.328904  0.777847  1
  Pb  Pb3  1  0.709392  0.828904  0.722153  1
  Co  Co4  1  0.679450  0.850887  0.395059  1
  Co  Co5  1  0.820550  0.350887  0.104941  1
  Co  Co6  1  0.320550  0.149113  0.604941  1
  Co  Co7  1  0.179450  0.649113  0.895059  1
  P  P8  1  0.183956  0.800608  0.519361  1
  P  P9  1  0.316044  0.300608  0.980639  1
  P  P10  1  0.816044  0.199392  0.480639  1
  P  P11  1  0.683956  0.699392  0.019361  1
  P  P12  1  0.249304  0.536391  0.665520  1
  P  P13  1  0.250696  0.036391  0.834480  1
  P  P14  1  0.750696  0.463609  0.334480  1
  P  P15  1  0.749304  0.963609  0.165520  1
  O  O16  1  0.904426  0.832065  0.521971  1
  O  O17  1  0.595574  0.332065  0.978029  1
  O  O18  1  0.095574  0.167935  0.478029  1
  O  O19  1  0.404426  0.667935  0.021971  1
  O  O20  1  0.303328  0.811254  0.412225  1
  O  O21  1  0.196672  0.311254  0.087775  1
  O  O22  1  0.696672  0.188746  0.587775  1
  O  O23  1  0.803328  0.688746  0.912225  1
  O  O24  1  0.322569  0.903422  0.599235  1
  O  O25  1  0.177431  0.403422  0.900765  1
  O  O26  1  0.677431  0.096578  0.400765  1
  O  O27  1  0.822569  0.596578  0.099235  1
  O  O28  1  0.223696  0.615726  0.552846  1
  O  O29  1  0.276304  0.115726  0.947154  1
  O  O30  1  0.776303  0.384274  0.447154  1
  O  O31  1  0.723697  0.884274  0.052846  1
  O  O32  1  0.179354  0.360936  0.652484  1
  O  O33  1  0.320646  0.860936  0.847516  1
  O  O34  1  0.820646  0.639064  0.347516  1
  O  O35  1  0.679354  0.139064  0.152484  1
  O  O36  1  0.060337  0.617818  0.737736  1
  O  O37  1  0.439663  0.117818  0.762264  1
  O  O38  1  0.939663  0.382182  0.262264  1
  O  O39  1  0.560337  0.882182  0.237736  1
  O  O40  1  0.515805  0.561453  0.700957  1
  O  O41  1  0.984195  0.061453  0.799043  1
  O  O42  1  0.484195  0.438547  0.299043  1
  O  O43  1  0.015805  0.938547  0.200957  1
