# generated using pymatgen
data_SrMo5O8
_symmetry_space_group_name_H-M   'P 1'
_cell_length_a   8.40940306
_cell_length_b   9.54827692
_cell_length_c   10.81020490
_cell_angle_alpha   90.00000000
_cell_angle_beta   109.75447405
_cell_angle_gamma   90.00000000
_symmetry_Int_Tables_number   1
_chemical_formula_structural   SrMo5O8
_chemical_formula_sum   'Sr4 Mo20 O32'
_cell_volume   816.92610477
_cell_formula_units_Z   4
loop_
 _symmetry_equiv_pos_site_id
 _symmetry_equiv_pos_as_xyz
  1  'x, y, z'
loop_
 _atom_site_type_symbol
 _atom_site_label
 _atom_site_symmetry_multiplicity
 _atom_site_fract_x
 _atom_site_fract_y
 _atom_site_fract_z
 _atom_site_occupancy
  O  O0  1  0.410441  0.499092  0.864221  1
  O  O1  1  0.589559  -0.000908  0.635779  1
  O  O2  1  0.589558  0.500908  0.135779  1
  O  O3  1  0.410441  1.000908  0.364221  1
  O  O4  1  0.625590  0.733254  0.322713  1
  O  O5  1  0.374410  0.233254  0.177287  1
  O  O6  1  0.374410  0.266746  0.677287  1
  O  O7  1  0.625589  0.766746  0.822713  1
  O  O8  1  0.211297  0.729364  0.695432  1
  O  O9  1  0.788703  0.229365  0.804568  1
  O  O10  1  0.788704  0.270635  0.304568  1
  O  O11  1  0.211296  0.770635  0.195432  1
  O  O12  1  0.805867  0.730480  0.600205  1
  O  O13  1  0.194134  0.230480  0.899795  1
  O  O14  1  0.194134  0.269519  0.399795  1
  O  O15  1  0.805866  0.769519  0.100205  1
  O  O16  1  0.396472  0.758265  0.509920  1
  O  O17  1  0.603528  0.258265  0.990081  1
  O  O18  1  0.603529  0.241735  0.490081  1
  O  O19  1  0.396471  0.741735  0.009920  1
  O  O20  1  0.976640  0.503680  0.759454  1
  O  O21  1  0.023359  0.003680  0.740546  1
  O  O22  1  0.023359  0.496320  0.240546  1
  O  O23  1  0.976641  0.996320  0.259454  1
  O  O24  1  0.390850  0.010244  0.836736  1
  O  O25  1  0.609150  0.510244  0.663264  1
  O  O26  1  0.609149  0.989756  0.163264  1
  O  O27  1  0.390850  0.489756  0.336736  1
  O  O28  1  -0.002162  0.755863  0.406423  1
  O  O29  1  1.002161  0.244137  0.593578  1
  O  O30  1  1.002162  0.255863  0.093578  1
  O  O31  1  -0.002162  0.744137  0.906423  1
  Sr  Sr32  1  0.283915  0.521989  0.532096  1
  Sr  Sr33  1  0.716085  0.021989  0.967905  1
  Sr  Sr34  1  0.716084  0.478011  0.467905  1
  Sr  Sr35  1  0.283916  0.978011  0.032096  1
  Mo  Mo36  1  0.410284  0.633315  0.190823  1
  Mo  Mo37  1  0.207473  0.139263  0.727475  1
  Mo  Mo38  1  0.207473  0.360737  0.227476  1
  Mo  Mo39  1  0.792527  0.860737  0.272524  1
  Mo  Mo40  1  0.194396  0.629857  0.864933  1
  Mo  Mo41  1  0.805603  0.129857  0.635066  1
  Mo  Mo42  1  0.805603  0.370143  0.135066  1
  Mo  Mo43  1  0.194396  0.870143  0.364933  1
  Mo  Mo44  1  0.792527  0.639263  0.772524  1
  Mo  Mo45  1  0.589716  0.133315  0.309177  1
  Mo  Mo46  1  0.589715  0.366686  0.809177  1
  Mo  Mo47  1  0.410285  0.866686  0.690823  1
  Mo  Mo48  1  0.604398  0.642967  0.981344  1
  Mo  Mo49  1  0.395601  0.142967  0.518655  1
  Mo  Mo50  1  0.395601  0.357033  0.018655  1
  Mo  Mo51  1  0.604399  0.857033  0.481344  1
  Mo  Mo52  1  0.007538  0.855431  0.586865  1
  Mo  Mo53  1  0.992462  0.355431  0.913135  1
  Mo  Mo54  1  0.992463  0.144570  0.413135  1
  Mo  Mo55  1  0.007537  0.644570  0.086864  1
