# generated using pymatgen
data_CeSn2Rh
_symmetry_space_group_name_H-M   'P 1'
_cell_length_a   4.60739341
_cell_length_b   8.91768459
_cell_length_c   9.65163970
_cell_angle_alpha   90.00000000
_cell_angle_beta   90.00000000
_cell_angle_gamma   104.97093510
_symmetry_Int_Tables_number   1
_chemical_formula_structural   CeSn2Rh
_chemical_formula_sum   'Ce4 Sn8 Rh4'
_cell_volume   383.09920897
_cell_formula_units_Z   4
loop_
 _symmetry_equiv_pos_site_id
 _symmetry_equiv_pos_as_xyz
  1  'x, y, z'
loop_
 _atom_site_type_symbol
 _atom_site_label
 _atom_site_symmetry_multiplicity
 _atom_site_fract_x
 _atom_site_fract_y
 _atom_site_fract_z
 _atom_site_occupancy
  Ce  Ce0  1  0.295596  0.591192  0.750000  1
  Ce  Ce1  1  0.704404  0.408808  0.250000  1
  Ce  Ce2  1  0.500000  0.000000  0.500000  1
  Ce  Ce3  1  0.500000  0.000000  0.000000  1
  Rh  Rh4  1  0.146310  0.292620  0.493865  1
  Rh  Rh5  1  0.853690  0.707380  0.506135  1
  Rh  Rh6  1  0.853690  0.707380  0.993865  1
  Rh  Rh7  1  0.146310  0.292620  0.006135  1
  Sn  Sn8  1  0.301522  0.603044  0.410289  1
  Sn  Sn9  1  0.698478  0.396956  0.589711  1
  Sn  Sn10  1  0.698478  0.396956  0.910289  1
  Sn  Sn11  1  0.301522  0.603044  0.089711  1
  Sn  Sn12  1  0.090215  0.180430  0.750000  1
  Sn  Sn13  1  0.909785  0.819570  0.250000  1
  Sn  Sn14  1  0.926086  0.852171  0.750000  1
  Sn  Sn15  1  0.073914  0.147829  0.250000  1
