# generated using pymatgen
data_Pr7Al7Co6
_symmetry_space_group_name_H-M   'P 1'
_cell_length_a   4.18363065
_cell_length_b   13.96013108
_cell_length_c   13.96013108
_cell_angle_alpha   90.00000000
_cell_angle_beta   90.00000000
_cell_angle_gamma   90.00000000
_symmetry_Int_Tables_number   1
_chemical_formula_structural   Pr7Al7Co6
_chemical_formula_sum   'Pr14 Al14 Co12'
_cell_volume   815.32794601
_cell_formula_units_Z   2
loop_
 _symmetry_equiv_pos_site_id
 _symmetry_equiv_pos_as_xyz
  1  'x, y, z'
loop_
 _atom_site_type_symbol
 _atom_site_label
 _atom_site_symmetry_multiplicity
 _atom_site_fract_x
 _atom_site_fract_y
 _atom_site_fract_z
 _atom_site_occupancy
  Al  Al0  1  0.000000  0.000000  0.500000  1
  Al  Al1  1  0.000000  0.500000  0.000000  1
  Al  Al2  1  0.500000  0.214572  0.714572  1
  Al  Al3  1  0.500000  0.285428  0.214572  1
  Al  Al4  1  0.500000  0.714572  0.785428  1
  Al  Al5  1  0.500000  0.785428  0.285428  1
  Al  Al6  1  0.500000  0.099231  0.139609  1
  Al  Al7  1  0.500000  0.860391  0.099231  1
  Al  Al8  1  0.500000  0.139609  0.900769  1
  Al  Al9  1  0.500000  0.900769  0.860391  1
  Al  Al10  1  0.500000  0.599231  0.360391  1
  Al  Al11  1  0.500000  0.400769  0.639609  1
  Al  Al12  1  0.500000  0.639609  0.599231  1
  Al  Al13  1  0.500000  0.360391  0.400769  1
  Co  Co14  1  0.500000  0.072847  0.572847  1
  Co  Co15  1  0.500000  0.427153  0.072847  1
  Co  Co16  1  0.500000  0.572847  0.927153  1
  Co  Co17  1  0.500000  0.927153  0.427153  1
  Co  Co18  1  0.000000  0.288870  0.334224  1
  Co  Co19  1  0.000000  0.665776  0.288870  1
  Co  Co20  1  0.000000  0.334224  0.711130  1
  Co  Co21  1  0.000000  0.711130  0.665776  1
  Co  Co22  1  0.000000  0.788870  0.165776  1
  Co  Co23  1  0.000000  0.211130  0.834224  1
  Co  Co24  1  0.000000  0.834224  0.788870  1
  Co  Co25  1  0.000000  0.165776  0.211130  1
  Pr  Pr26  1  0.000000  0.000000  0.000000  1
  Pr  Pr27  1  0.000000  0.500000  0.500000  1
  Pr  Pr28  1  0.500000  0.368283  0.868283  1
  Pr  Pr29  1  0.500000  0.131717  0.368283  1
  Pr  Pr30  1  0.500000  0.868283  0.631717  1
  Pr  Pr31  1  0.500000  0.631717  0.131717  1
  Pr  Pr32  1  0.000000  0.261649  0.047552  1
  Pr  Pr33  1  0.000000  0.952448  0.261649  1
  Pr  Pr34  1  0.000000  0.047552  0.738351  1
  Pr  Pr35  1  0.000000  0.738351  0.952448  1
  Pr  Pr36  1  0.000000  0.761649  0.452448  1
  Pr  Pr37  1  0.000000  0.238351  0.547552  1
  Pr  Pr38  1  0.000000  0.547552  0.761649  1
  Pr  Pr39  1  0.000000  0.452448  0.238351  1
