# generated using pymatgen
data_TcXeO4F5
_symmetry_space_group_name_H-M   'P 1'
_cell_length_a   5.40039225
_cell_length_b   8.33623479
_cell_length_c   9.42980842
_cell_angle_alpha   116.23251983
_cell_angle_beta   90.00000000
_cell_angle_gamma   90.00000000
_symmetry_Int_Tables_number   1
_chemical_formula_structural   TcXeO4F5
_chemical_formula_sum   'Tc2 Xe2 O8 F10'
_cell_volume   380.79764431
_cell_formula_units_Z   2
loop_
 _symmetry_equiv_pos_site_id
 _symmetry_equiv_pos_as_xyz
  1  'x, y, z'
loop_
 _atom_site_type_symbol
 _atom_site_label
 _atom_site_symmetry_multiplicity
 _atom_site_fract_x
 _atom_site_fract_y
 _atom_site_fract_z
 _atom_site_occupancy
  Tc  Tc0  1  0.103963  0.594707  0.189413  1
  Tc  Tc1  1  0.603963  0.405293  0.810587  1
  Xe  Xe2  1  0.443175  0.122959  0.245918  1
  Xe  Xe3  1  0.943175  0.877041  0.754082  1
  O  O4  1  0.300889  0.671919  0.343838  1
  O  O5  1  0.066990  0.645719  0.654899  1
  O  O6  1  0.825589  0.639651  0.279301  1
  O  O7  1  0.800889  0.328081  0.656162  1
  O  O8  1  0.066990  0.009180  0.654899  1
  O  O9  1  0.325589  0.360349  0.720699  1
  O  O10  1  0.566990  0.990820  0.345101  1
  O  O11  1  0.566990  0.354281  0.345101  1
  F  F12  1  0.121068  0.790313  0.140946  1
  F  F13  1  0.227585  0.961414  0.922827  1
  F  F14  1  0.127569  0.190460  0.380920  1
  F  F15  1  0.621068  0.209687  0.859054  1
  F  F16  1  0.414083  0.516540  0.033079  1
  F  F17  1  0.621068  0.649367  0.859054  1
  F  F18  1  0.121068  0.350633  0.140946  1
  F  F19  1  0.914083  0.483460  0.966921  1
  F  F20  1  0.727585  0.038586  0.077173  1
  F  F21  1  0.627569  0.809540  0.619080  1
