# generated using pymatgen
data_CoHgC4(SN)4
_symmetry_space_group_name_H-M   'P 1'
_cell_length_a   4.74588369
_cell_length_b   8.27149146
_cell_length_c   8.27149203
_cell_angle_alpha   85.27914655
_cell_angle_beta   73.32862936
_cell_angle_gamma   73.32862737
_symmetry_Int_Tables_number   1
_chemical_formula_structural   CoHgC4(SN)4
_chemical_formula_sum   'Co1 Hg1 C4 S4 N4'
_cell_volume   297.97849636
_cell_formula_units_Z   1
loop_
 _symmetry_equiv_pos_site_id
 _symmetry_equiv_pos_as_xyz
  1  'x, y, z'
loop_
 _atom_site_type_symbol
 _atom_site_label
 _atom_site_symmetry_multiplicity
 _atom_site_fract_x
 _atom_site_fract_y
 _atom_site_fract_z
 _atom_site_occupancy
  Hg  Hg0  1  0.000000  0.000000  0.000000  1
  S  S1  1  0.446897  0.954396  0.718730  1
  S  S2  1  0.834374  0.718730  0.045604  1
  S  S3  1  0.598707  0.281270  0.954396  1
  S  S4  1  0.120022  0.045604  0.281270  1
  C  C5  1  0.381475  0.795559  0.644741  1
  C  C6  1  0.973784  0.644741  0.204441  1
  C  C7  1  0.822967  0.355259  0.795559  1
  C  C8  1  0.821774  0.204441  0.355259  1
  N  N9  1  0.340064  0.681199  0.587243  1
  N  N10  1  0.072693  0.587243  0.318801  1
  N  N11  1  0.978738  0.412757  0.681199  1
  N  N12  1  0.608506  0.318801  0.412757  1
  Co  Co13  1  0.250000  0.500000  0.500000  1
