# generated using pymatgen
data_CdGe(BiO3)2
_symmetry_space_group_name_H-M   'P 1'
_cell_length_a   5.70321310
_cell_length_b   10.36483983
_cell_length_c   10.59770786
_cell_angle_alpha   90.53399513
_cell_angle_beta   90.00000000
_cell_angle_gamma   90.00000000
_symmetry_Int_Tables_number   1
_chemical_formula_structural   CdGe(BiO3)2
_chemical_formula_sum   'Cd4 Ge4 Bi8 O24'
_cell_volume   626.43393502
_cell_formula_units_Z   4
loop_
 _symmetry_equiv_pos_site_id
 _symmetry_equiv_pos_as_xyz
  1  'x, y, z'
loop_
 _atom_site_type_symbol
 _atom_site_label
 _atom_site_symmetry_multiplicity
 _atom_site_fract_x
 _atom_site_fract_y
 _atom_site_fract_z
 _atom_site_occupancy
  Cd  Cd0  1  0.749609  0.613816  0.501813  1
  Cd  Cd1  1  0.249609  0.886184  0.998187  1
  Cd  Cd2  1  0.750391  0.113816  0.001813  1
  Cd  Cd3  1  0.250391  0.386184  0.498187  1
  Ge  Ge4  1  0.745287  0.652612  0.998188  1
  Ge  Ge5  1  0.245287  0.847388  0.501812  1
  Ge  Ge6  1  0.754713  0.152612  0.498188  1
  Ge  Ge7  1  0.254713  0.347388  0.001812  1
  Bi  Bi8  1  0.285402  0.105183  0.262317  1
  Bi  Bi9  1  0.214598  0.605183  0.762317  1
  Bi  Bi10  1  0.785402  0.394817  0.237683  1
  Bi  Bi11  1  0.713648  0.390274  0.754700  1
  Bi  Bi12  1  0.286352  0.609726  0.245300  1
  Bi  Bi13  1  0.213648  0.109726  0.745300  1
  Bi  Bi14  1  0.714598  0.894817  0.737683  1
  Bi  Bi15  1  0.786352  0.890274  0.254700  1
  O  O16  1  0.488348  0.969901  0.145145  1
  O  O17  1  0.511652  0.030099  0.854855  1
  O  O18  1  0.957033  0.753205  0.074593  1
  O  O19  1  0.126204  0.942670  0.376907  1
  O  O20  1  0.873796  0.057330  0.623093  1
  O  O21  1  0.988503  0.027965  0.146863  1
  O  O22  1  0.125797  0.447204  0.121200  1
  O  O23  1  0.988348  0.530099  0.354855  1
  O  O24  1  0.625797  0.052796  0.378800  1
  O  O25  1  0.373796  0.442670  0.876907  1
  O  O26  1  0.475943  0.256781  0.080305  1
  O  O27  1  0.374203  0.947204  0.621200  1
  O  O28  1  0.626204  0.557330  0.123093  1
  O  O29  1  0.457033  0.746795  0.425407  1
  O  O30  1  0.011497  0.972035  0.853137  1
  O  O31  1  0.024057  0.756781  0.580305  1
  O  O32  1  0.042967  0.246795  0.925407  1
  O  O33  1  0.874203  0.552796  0.878800  1
  O  O34  1  0.011652  0.469901  0.645145  1
  O  O35  1  0.975943  0.243219  0.419695  1
  O  O36  1  0.542967  0.253205  0.574593  1
  O  O37  1  0.524057  0.743219  0.919695  1
  O  O38  1  0.511497  0.527965  0.646863  1
  O  O39  1  0.488503  0.472035  0.353137  1
