# generated using pymatgen
data_NaFe3O5
_symmetry_space_group_name_H-M   'P 1'
_cell_length_a   3.03135175
_cell_length_b   10.91893105
_cell_length_c   11.88504724
_cell_angle_alpha   90.00000000
_cell_angle_beta   90.00000000
_cell_angle_gamma   90.00000000
_symmetry_Int_Tables_number   1
_chemical_formula_structural   NaFe3O5
_chemical_formula_sum   'Na4 Fe12 O20'
_cell_volume   393.38461368
_cell_formula_units_Z   4
loop_
 _symmetry_equiv_pos_site_id
 _symmetry_equiv_pos_as_xyz
  1  'x, y, z'
loop_
 _atom_site_type_symbol
 _atom_site_label
 _atom_site_symmetry_multiplicity
 _atom_site_fract_x
 _atom_site_fract_y
 _atom_site_fract_z
 _atom_site_occupancy
  Fe  Fe0  1  0.500000  0.205721  0.117627  1
  Fe  Fe1  1  0.500000  0.794279  0.882373  1
  Fe  Fe2  1  0.000000  0.705721  0.382373  1
  Fe  Fe3  1  0.000000  0.294279  0.617627  1
  Fe  Fe4  1  0.000000  0.220150  0.381778  1
  Fe  Fe5  1  0.000000  0.779850  0.618222  1
  Fe  Fe6  1  0.500000  0.720150  0.118222  1
  Fe  Fe7  1  0.500000  0.279850  0.881778  1
  Fe  Fe8  1  0.000000  0.000000  0.000000  1
  Fe  Fe9  1  0.500000  0.500000  0.500000  1
  Fe  Fe10  1  0.000000  0.500000  0.000000  1
  Fe  Fe11  1  0.500000  0.000000  0.500000  1
  Na  Na12  1  0.500000  0.957955  0.249032  1
  Na  Na13  1  0.500000  0.042045  0.750968  1
  Na  Na14  1  0.000000  0.457955  0.250968  1
  Na  Na15  1  0.000000  0.542045  0.749032  1
  O  O16  1  0.000000  0.089221  0.147746  1
  O  O17  1  0.000000  0.910779  0.852254  1
  O  O18  1  0.500000  0.589221  0.352254  1
  O  O19  1  0.500000  0.410779  0.647746  1
  O  O20  1  0.000000  0.042292  0.391093  1
  O  O21  1  0.000000  0.957708  0.608907  1
  O  O22  1  0.500000  0.542292  0.108907  1
  O  O23  1  0.500000  0.457708  0.891093  1
  O  O24  1  0.000000  0.314059  0.040928  1
  O  O25  1  0.000000  0.685941  0.959072  1
  O  O26  1  0.500000  0.814059  0.459072  1
  O  O27  1  0.500000  0.185941  0.540928  1
  O  O28  1  0.500000  0.263530  0.280786  1
  O  O29  1  0.500000  0.736470  0.719214  1
  O  O30  1  0.000000  0.763530  0.219214  1
  O  O31  1  0.000000  0.236470  0.780786  1
  O  O32  1  0.000000  0.383311  0.457007  1
  O  O33  1  0.000000  0.616689  0.542993  1
  O  O34  1  0.500000  0.883311  0.042993  1
  O  O35  1  0.500000  0.116689  0.957007  1
