# generated using pymatgen
data_Sr3SiO5
_symmetry_space_group_name_H-M   'P 1'
_cell_length_a   7.12717128
_cell_length_b   7.12717128
_cell_length_c   10.83814319
_cell_angle_alpha   90.00000000
_cell_angle_beta   90.00000000
_cell_angle_gamma   90.00000000
_symmetry_Int_Tables_number   1
_chemical_formula_structural   Sr3SiO5
_chemical_formula_sum   'Sr12 Si4 O20'
_cell_volume   550.54050415
_cell_formula_units_Z   4
loop_
 _symmetry_equiv_pos_site_id
 _symmetry_equiv_pos_as_xyz
  1  'x, y, z'
loop_
 _atom_site_type_symbol
 _atom_site_label
 _atom_site_symmetry_multiplicity
 _atom_site_fract_x
 _atom_site_fract_y
 _atom_site_fract_z
 _atom_site_occupancy
  O  O0  1  0.250000  0.250000  0.712696  1
  O  O1  1  0.750000  0.750000  0.787304  1
  O  O2  1  0.750000  0.750000  0.287304  1
  O  O3  1  0.250000  0.250000  0.212696  1
  O  O4  1  0.669291  0.416274  0.092257  1
  O  O5  1  0.830709  0.083726  0.092257  1
  O  O6  1  0.916274  0.169291  0.407743  1
  O  O7  1  0.416274  0.830709  0.092257  1
  O  O8  1  0.083726  0.669291  0.092257  1
  O  O9  1  0.330709  0.916274  0.407743  1
  O  O10  1  0.169291  0.583726  0.407743  1
  O  O11  1  0.583726  0.330709  0.407743  1
  O  O12  1  0.330709  0.583726  0.907743  1
  O  O13  1  0.169291  0.916274  0.907743  1
  O  O14  1  0.083726  0.830709  0.592257  1
  O  O15  1  0.583726  0.169291  0.907743  1
  O  O16  1  0.416274  0.669291  0.592257  1
  O  O17  1  0.830709  0.416274  0.592257  1
  O  O18  1  0.669291  0.083726  0.592257  1
  O  O19  1  0.916274  0.330709  0.907743  1
  Si  Si20  1  0.250000  0.750000  0.500000  1
  Si  Si21  1  0.750000  0.250000  0.500000  1
  Si  Si22  1  0.750000  0.250000  0.000000  1
  Si  Si23  1  0.250000  0.750000  0.000000  1
  Sr  Sr24  1  0.250000  0.250000  0.486584  1
  Sr  Sr25  1  0.750000  0.750000  0.013416  1
  Sr  Sr26  1  0.750000  0.750000  0.513416  1
  Sr  Sr27  1  0.250000  0.250000  0.986584  1
  Sr  Sr28  1  0.947329  0.447329  0.250000  1
  Sr  Sr29  1  0.052671  0.947329  0.250000  1
  Sr  Sr30  1  0.447329  0.552671  0.250000  1
  Sr  Sr31  1  0.552671  0.052671  0.250000  1
  Sr  Sr32  1  0.052671  0.552671  0.750000  1
  Sr  Sr33  1  0.947329  0.052671  0.750000  1
  Sr  Sr34  1  0.552671  0.447329  0.750000  1
  Sr  Sr35  1  0.447329  0.947329  0.750000  1
