# generated using pymatgen
data_UTlH(SeO4)2
_symmetry_space_group_name_H-M   'P 1'
_cell_length_a   8.56306865
_cell_length_b   10.19512117
_cell_length_c   10.40282975
_cell_angle_alpha   90.00000000
_cell_angle_beta   90.00000000
_cell_angle_gamma   94.89742578
_symmetry_Int_Tables_number   1
_chemical_formula_structural   UTlH(SeO4)2
_chemical_formula_sum   'U4 Tl4 H4 Se8 O32'
_cell_volume   904.86722079
_cell_formula_units_Z   4
loop_
 _symmetry_equiv_pos_site_id
 _symmetry_equiv_pos_as_xyz
  1  'x, y, z'
loop_
 _atom_site_type_symbol
 _atom_site_label
 _atom_site_symmetry_multiplicity
 _atom_site_fract_x
 _atom_site_fract_y
 _atom_site_fract_z
 _atom_site_occupancy
  U  U0  1  0.625796  0.815527  0.709250  1
  U  U1  1  0.874204  0.684473  0.209250  1
  U  U2  1  0.374204  0.184473  0.290750  1
  U  U3  1  0.125796  0.315527  0.790750  1
  Tl  Tl4  1  0.220849  0.954036  0.948281  1
  Tl  Tl5  1  0.279151  0.545964  0.448281  1
  Tl  Tl6  1  0.779151  0.045964  0.051719  1
  Tl  Tl7  1  0.720849  0.454036  0.551719  1
  Se  Se8  1  0.006689  0.814673  0.526489  1
  Se  Se9  1  0.493311  0.685327  0.026489  1
  Se  Se10  1  0.993311  0.185327  0.473511  1
  Se  Se11  1  0.506689  0.314673  0.973511  1
  Se  Se12  1  0.614910  0.905168  0.377868  1
  Se  Se13  1  0.885090  0.594832  0.877868  1
  Se  Se14  1  0.385090  0.094832  0.622132  1
  Se  Se15  1  0.114910  0.405168  0.122132  1
  O  O16  1  0.155071  0.758656  0.631306  1
  O  O17  1  0.344929  0.741344  0.131306  1
  O  O18  1  0.844929  0.241344  0.368694  1
  O  O19  1  0.655071  0.258656  0.868694  1
  H  H20  1  0.240926  0.831245  0.645534  1
  H  H21  1  0.259074  0.668755  0.145534  1
  H  H22  1  0.759074  0.168755  0.354466  1
  H  H23  1  0.740926  0.331245  0.854466  1
  O  O24  1  0.850098  0.735880  0.604610  1
  O  O25  1  0.649902  0.764120  0.104610  1
  O  O26  1  0.149902  0.264120  0.395390  1
  O  O27  1  0.350098  0.235880  0.895390  1
  O  O28  1  0.667231  0.955050  0.533306  1
  O  O29  1  0.832769  0.544950  0.033306  1
  O  O30  1  0.332769  0.044950  0.466694  1
  O  O31  1  0.167231  0.455050  0.966694  1
  O  O32  1  0.797445  0.867056  0.325024  1
  O  O33  1  0.702555  0.632944  0.825024  1
  O  O34  1  0.202555  0.132944  0.674976  1
  O  O35  1  0.297445  0.367056  0.174976  1
  O  O36  1  0.394383  0.943619  0.696906  1
  O  O37  1  0.105617  0.556381  0.196906  1
  O  O38  1  0.605617  0.056381  0.303094  1
  O  O39  1  0.894383  0.443619  0.803094  1
  O  O40  1  0.464564  0.789476  0.900885  1
  O  O41  1  0.035436  0.710524  0.400885  1
  O  O42  1  0.535436  0.210524  0.099115  1
  O  O43  1  0.964564  0.289476  0.599115  1
  O  O44  1  0.509430  0.698430  0.606582  1
  O  O45  1  0.990570  0.801570  0.106582  1
  O  O46  1  0.490570  0.301570  0.393418  1
  O  O47  1  0.009430  0.198430  0.893418  1
  O  O48  1  0.753156  0.933257  0.801803  1
  O  O49  1  0.746844  0.566743  0.301803  1
  O  O50  1  0.246844  0.066742  0.198197  1
  O  O51  1  0.253156  0.433258  0.698197  1
