# generated using pymatgen
data_Y9C4I8O
_symmetry_space_group_name_H-M   'P 1'
_cell_length_a   3.86181084
_cell_length_b   11.36699380
_cell_length_c   29.16767856
_cell_angle_alpha   90.00000000
_cell_angle_beta   90.00000000
_cell_angle_gamma   90.00000000
_symmetry_Int_Tables_number   1
_chemical_formula_structural   Y9C4I8O
_chemical_formula_sum   'Y18 C8 I16 O2'
_cell_volume   1280.37883229
_cell_formula_units_Z   2
loop_
 _symmetry_equiv_pos_site_id
 _symmetry_equiv_pos_as_xyz
  1  'x, y, z'
loop_
 _atom_site_type_symbol
 _atom_site_label
 _atom_site_symmetry_multiplicity
 _atom_site_fract_x
 _atom_site_fract_y
 _atom_site_fract_z
 _atom_site_occupancy
  Y  Y0  1  0.750000  0.263561  0.315773  1
  Y  Y1  1  0.250000  0.600856  0.029255  1
  Y  Y2  1  0.750000  0.546061  0.750000  1
  Y  Y3  1  0.250000  0.736439  0.815773  1
  Y  Y4  1  0.750000  0.399144  0.529255  1
  Y  Y5  1  0.250000  0.600856  0.470745  1
  Y  Y6  1  0.250000  0.453939  0.250000  1
  Y  Y7  1  0.750000  0.529835  0.135909  1
  Y  Y8  1  0.750000  0.399144  0.970745  1
  Y  Y9  1  0.250000  0.470165  0.635909  1
  Y  Y10  1  0.750000  0.529835  0.364091  1
  Y  Y11  1  0.250000  0.470165  0.864091  1
  Y  Y12  1  0.750000  0.673902  0.578729  1
  Y  Y13  1  0.750000  0.673902  0.921271  1
  Y  Y14  1  0.750000  0.263561  0.184227  1
  Y  Y15  1  0.250000  0.736439  0.684227  1
  Y  Y16  1  0.250000  0.326098  0.421271  1
  Y  Y17  1  0.250000  0.326098  0.078729  1
  C  C18  1  0.750000  0.463519  0.444832  1
  C  C19  1  0.250000  0.536481  0.555168  1
  C  C20  1  0.250000  0.390110  0.338175  1
  C  C21  1  0.250000  0.390110  0.161825  1
  C  C22  1  0.750000  0.609890  0.661825  1
  C  C23  1  0.750000  0.463519  0.055168  1
  C  C24  1  0.750000  0.609890  0.838175  1
  C  C25  1  0.250000  0.536481  0.944832  1
  I  I26  1  0.250000  0.897037  0.602773  1
  I  I27  1  0.250000  0.740022  0.126932  1
  I  I28  1  0.250000  0.186678  0.988033  1
  I  I29  1  0.250000  0.740022  0.373068  1
  I  I30  1  0.750000  0.259978  0.626932  1
  I  I31  1  0.750000  0.813322  0.011967  1
  I  I32  1  0.250000  0.334382  0.750000  1
  I  I33  1  0.250000  0.897037  0.897227  1
  I  I34  1  0.750000  0.813322  0.488033  1
  I  I35  1  0.750000  0.259978  0.873068  1
  I  I36  1  0.750000  0.102963  0.397227  1
  I  I37  1  0.750000  0.102963  0.102773  1
  I  I38  1  0.250000  0.186678  0.511967  1
  I  I39  1  0.750000  0.665618  0.250000  1
  I  I40  1  0.250000  0.093241  0.250000  1
  I  I41  1  0.750000  0.906759  0.750000  1
  O  O42  1  0.750000  0.356661  0.250000  1
  O  O43  1  0.250000  0.643339  0.750000  1
