# generated using pymatgen
data_TaSi2PH18C6(NCl3)2
_symmetry_space_group_name_H-M   'P 1'
_cell_length_a   9.58095920
_cell_length_b   12.87933409
_cell_length_c   17.93492678
_cell_angle_alpha   90.00000000
_cell_angle_beta   102.81322854
_cell_angle_gamma   90.00000000
_symmetry_Int_Tables_number   1
_chemical_formula_structural   TaSi2PH18C6(NCl3)2
_chemical_formula_sum   'Ta4 Si8 P4 H72 C24 N8 Cl24'
_cell_volume   2157.99459358
_cell_formula_units_Z   4
loop_
 _symmetry_equiv_pos_site_id
 _symmetry_equiv_pos_as_xyz
  1  'x, y, z'
loop_
 _atom_site_type_symbol
 _atom_site_label
 _atom_site_symmetry_multiplicity
 _atom_site_fract_x
 _atom_site_fract_y
 _atom_site_fract_z
 _atom_site_occupancy
  Ta  Ta0  1  0.508113  0.573262  0.897320  1
  Ta  Ta1  1  0.491887  0.426738  0.102680  1
  Ta  Ta2  1  0.491887  0.073262  0.602680  1
  Ta  Ta3  1  0.508113  0.926738  0.397320  1
  Si  Si4  1  0.285171  0.911340  0.132120  1
  Si  Si5  1  0.285171  0.588660  0.632120  1
  Si  Si6  1  0.021371  0.756054  0.129196  1
  Si  Si7  1  0.978629  0.243946  0.870804  1
  Si  Si8  1  0.978629  0.256054  0.370804  1
  Si  Si9  1  0.021371  0.743946  0.629196  1
  Si  Si10  1  0.714829  0.088660  0.867880  1
  Si  Si11  1  0.714829  0.411340  0.367880  1
  P  P12  1  0.759478  0.192539  0.726302  1
  P  P13  1  0.759478  0.307461  0.226302  1
  P  P14  1  0.240522  0.807461  0.273698  1
  P  P15  1  0.240522  0.692539  0.773698  1
  H  H16  1  0.209453  0.167613  0.934435  1
  H  H17  1  0.998162  0.396418  0.785309  1
  H  H18  1  0.728015  0.189651  0.988363  1
  H  H19  1  0.533616  0.566010  0.712729  1
  H  H20  1  0.883658  0.110030  0.998676  1
  H  H21  1  0.719159  0.602612  0.377613  1
  H  H22  1  0.840092  0.638752  0.150921  1
  H  H23  1  0.121602  0.086115  0.858312  1
  H  H24  1  0.062647  0.712644  0.998345  1
  H  H25  1  0.209453  0.332387  0.434435  1
  H  H26  1  0.116342  0.889970  0.001324  1
  H  H27  1  0.878398  0.586115  0.641688  1
  H  H28  1  0.878398  0.913885  0.141688  1
  H  H29  1  0.069652  0.083934  0.947573  1
  H  H30  1  0.121602  0.413885  0.358312  1
  H  H31  1  0.516657  0.687336  0.663767  1
  H  H32  1  0.284180  0.946157  0.999788  1
  H  H33  1  0.715820  0.053843  0.000212  1
  H  H34  1  0.731457  0.563649  0.284541  1
  H  H35  1  0.116342  0.610030  0.501324  1
  H  H36  1  0.533616  0.933990  0.212729  1
  H  H37  1  0.885125  0.943154  0.861351  1
  H  H38  1  0.898437  0.790087  0.736630  1
  H  H39  1  0.001838  0.603582  0.214691  1
  H  H40  1  0.159518  0.871997  0.569707  1
  H  H41  1  0.840482  0.128003  0.430293  1
  H  H42  1  0.483343  0.312664  0.336233  1
  H  H43  1  0.114875  0.056846  0.138649  1
  H  H44  1  0.527550  0.929183  0.112967  1
  H  H45  1  0.728015  0.310349  0.488364  1
  H  H46  1  0.159518  0.628003  0.069707  1
  H  H47  1  0.731457  0.936351  0.784541  1
  H  H48  1  0.466384  0.066010  0.787271  1
  H  H49  1  0.715820  0.446157  0.500212  1
  H  H50  1  0.930348  0.583934  0.552427  1
  H  H51  1  0.472450  0.070817  0.887033  1
  H  H52  1  0.937353  0.212644  0.501655  1
  H  H53  1  0.466384  0.433990  0.287271  1
  H  H54  1  0.280841  0.102612  0.122387  1
  H  H55  1  0.883658  0.389970  0.498676  1
  H  H56  1  0.159908  0.138752  0.349079  1
  H  H57  1  0.101563  0.290087  0.763370  1
  H  H58  1  0.280841  0.397388  0.622387  1
  H  H59  1  0.069652  0.416066  0.447573  1
  H  H60  1  0.483343  0.187336  0.836233  1
  H  H61  1  0.271985  0.810349  0.011636  1
  H  H62  1  0.937353  0.287356  0.001655  1
  H  H63  1  0.971592  0.614023  0.037390  1
  H  H64  1  0.268543  0.436351  0.715459  1
  H  H65  1  0.472450  0.429183  0.387033  1
  H  H66  1  0.930348  0.916066  0.052427  1
  H  H67  1  0.840092  0.861248  0.650921  1
  H  H68  1  0.028408  0.385977  0.962610  1
  H  H69  1  0.516657  0.812664  0.163767  1
  H  H70  1  0.284180  0.553843  0.499788  1
  H  H71  1  0.840482  0.371997  0.930293  1
  H  H72  1  0.885125  0.556846  0.361351  1
  H  H73  1  0.114875  0.443154  0.638649  1
  H  H74  1  0.898437  0.709913  0.236630  1
  H  H75  1  0.101563  0.209913  0.263370  1
  H  H76  1  0.062647  0.787356  0.498345  1
  H  H77  1  0.790547  0.832387  0.065565  1
  H  H78  1  0.001838  0.896418  0.714691  1
  H  H79  1  0.028408  0.114023  0.462610  1
  H  H80  1  0.268543  0.063649  0.215459  1
  H  H81  1  0.527550  0.570817  0.612967  1
  H  H82  1  0.159908  0.361248  0.849079  1
  H  H83  1  0.271985  0.689651  0.511637  1
  H  H84  1  0.719159  0.897388  0.877613  1
  H  H85  1  0.971592  0.885977  0.537390  1
  H  H86  1  0.998162  0.103582  0.285309  1
  H  H87  1  0.790547  0.667613  0.565565  1
  C  C88  1  0.484151  0.894568  0.159285  1
  C  C89  1  0.768546  0.954422  0.845615  1
  C  C90  1  0.058934  0.671213  0.051203  1
  C  C91  1  0.064572  0.170095  0.309351  1
  C  C92  1  0.484151  0.605432  0.659285  1
  C  C93  1  0.935428  0.829905  0.690649  1
  C  C94  1  0.064572  0.329905  0.809351  1
  C  C95  1  0.231248  0.614696  0.526768  1
  C  C96  1  0.105208  0.134476  0.906183  1
  C  C97  1  0.515849  0.394568  0.340715  1
  C  C98  1  0.105208  0.365524  0.406183  1
  C  C99  1  0.768752  0.385304  0.473232  1
  C  C100  1  0.768752  0.114696  0.973232  1
  C  C101  1  0.058934  0.828787  0.551203  1
  C  C102  1  0.515849  0.105432  0.840715  1
  C  C103  1  0.935428  0.670095  0.190649  1
  C  C104  1  0.894792  0.634476  0.593817  1
  C  C105  1  0.231454  0.045578  0.154385  1
  C  C106  1  0.231454  0.454422  0.654385  1
  C  C107  1  0.941066  0.328787  0.948797  1
  C  C108  1  0.768546  0.545578  0.345615  1
  C  C109  1  0.941066  0.171213  0.448797  1
  C  C110  1  0.894792  0.865524  0.093817  1
  C  C111  1  0.231248  0.885304  0.026768  1
  N  N112  1  0.810119  0.317843  0.318126  1
  N  N113  1  0.624979  0.373098  0.185396  1
  N  N114  1  0.375021  0.626902  0.814604  1
  N  N115  1  0.189881  0.817843  0.181874  1
  N  N116  1  0.624979  0.126902  0.685396  1
  N  N117  1  0.189881  0.682157  0.681874  1
  N  N118  1  0.375021  0.873098  0.314603  1
  N  N119  1  0.810119  0.182157  0.818126  1
  Cl  Cl120  1  0.273463  0.105636  0.636348  1
  Cl  Cl121  1  0.671314  0.485139  0.031334  1
  Cl  Cl122  1  0.328686  0.985139  0.468666  1
  Cl  Cl123  1  0.077170  0.846116  0.323856  1
  Cl  Cl124  1  0.671314  0.014861  0.531334  1
  Cl  Cl125  1  0.461989  0.225437  0.527684  1
  Cl  Cl126  1  0.922830  0.153884  0.676144  1
  Cl  Cl127  1  0.489415  0.902015  0.648511  1
  Cl  Cl128  1  0.461989  0.274563  0.027684  1
  Cl  Cl129  1  0.276323  0.656193  0.302870  1
  Cl  Cl130  1  0.276323  0.843807  0.802870  1
  Cl  Cl131  1  0.726537  0.605636  0.863652  1
  Cl  Cl132  1  0.922830  0.346116  0.176144  1
  Cl  Cl133  1  0.538011  0.774563  0.472316  1
  Cl  Cl134  1  0.723677  0.156193  0.197130  1
  Cl  Cl135  1  0.328686  0.514861  0.968666  1
  Cl  Cl136  1  0.538011  0.725437  0.972316  1
  Cl  Cl137  1  0.510585  0.402015  0.851489  1
  Cl  Cl138  1  0.077170  0.653884  0.823856  1
  Cl  Cl139  1  0.489415  0.597985  0.148511  1
  Cl  Cl140  1  0.723677  0.343807  0.697130  1
  Cl  Cl141  1  0.726537  0.894364  0.363652  1
  Cl  Cl142  1  0.273463  0.394364  0.136348  1
  Cl  Cl143  1  0.510585  0.097985  0.351489  1
