# generated using pymatgen
data_V4O7
_symmetry_space_group_name_H-M   'P 1'
_cell_length_a   5.60978684
_cell_length_b   6.95543116
_cell_length_c   7.13500490
_cell_angle_alpha   64.29303787
_cell_angle_beta   71.99177228
_cell_angle_gamma   76.79298139
_symmetry_Int_Tables_number   1
_chemical_formula_structural   V4O7
_chemical_formula_sum   'V8 O14'
_cell_volume   237.10321829
_cell_formula_units_Z   2
loop_
 _symmetry_equiv_pos_site_id
 _symmetry_equiv_pos_as_xyz
  1  'x, y, z'
loop_
 _atom_site_type_symbol
 _atom_site_label
 _atom_site_symmetry_multiplicity
 _atom_site_fract_x
 _atom_site_fract_y
 _atom_site_fract_z
 _atom_site_occupancy
  V  V0  1  0.174353  0.105817  0.263537  1
  V  V1  1  0.825647  0.894183  0.736463  1
  V  V2  1  0.722556  0.360148  0.411205  1
  V  V3  1  0.277444  0.639852  0.588795  1
  V  V4  1  0.294347  0.642893  0.074626  1
  V  V5  1  0.705653  0.357107  0.925374  1
  V  V6  1  0.191911  0.102784  0.757656  1
  V  V7  1  0.808089  0.897216  0.242344  1
  O  O8  1  0.796825  0.049123  0.427891  1
  O  O9  1  0.203175  0.950877  0.572109  1
  O  O10  1  0.838765  0.213382  0.698937  1
  O  O11  1  0.161235  0.786618  0.301063  1
  O  O12  1  0.970409  0.834590  0.981422  1
  O  O13  1  0.029591  0.165410  0.018578  1
  O  O14  1  0.095776  0.371743  0.262038  1
  O  O15  1  0.904224  0.628257  0.737962  1
  O  O16  1  0.474032  0.902594  0.862211  1
  O  O17  1  0.525968  0.097406  0.137789  1
  O  O18  1  0.392929  0.531124  0.845235  1
  O  O19  1  0.607071  0.468876  0.154765  1
  O  O20  1  0.354293  0.329745  0.596127  1
  O  O21  1  0.645707  0.670255  0.403873  1
