# generated using pymatgen
data_Eu(Al10V)2
_symmetry_space_group_name_H-M   'P 1'
_cell_length_a   10.29339480
_cell_length_b   10.29339546
_cell_length_c   10.29339457
_cell_angle_alpha   59.99999967
_cell_angle_beta   59.99999756
_cell_angle_gamma   59.99999863
_symmetry_Int_Tables_number   1
_chemical_formula_structural   Eu(Al10V)2
_chemical_formula_sum   'Eu2 Al40 V4'
_cell_volume   771.18912663
_cell_formula_units_Z   2
loop_
 _symmetry_equiv_pos_site_id
 _symmetry_equiv_pos_as_xyz
  1  'x, y, z'
loop_
 _atom_site_type_symbol
 _atom_site_label
 _atom_site_symmetry_multiplicity
 _atom_site_fract_x
 _atom_site_fract_y
 _atom_site_fract_z
 _atom_site_occupancy
  Eu  Eu0  1  0.375000  0.375000  0.375000  1
  Eu  Eu1  1  0.625000  0.625000  0.625000  1
  Al  Al2  1  0.174380  0.174380  0.443344  1
  Al  Al3  1  0.292103  0.556656  0.825620  1
  Al  Al4  1  0.707897  0.174380  0.174380  1
  Al  Al5  1  0.292103  0.825620  0.825620  1
  Al  Al6  1  0.825620  0.825620  0.556656  1
  Al  Al7  1  0.292103  0.825620  0.556656  1
  Al  Al8  1  0.443344  0.174380  0.707897  1
  Al  Al9  1  0.443344  0.707897  0.174380  1
  Al  Al10  1  0.263875  0.986125  0.986125  1
  Al  Al11  1  0.013875  0.013875  0.736125  1
  Al  Al12  1  0.556656  0.825620  0.292103  1
  Al  Al13  1  0.825620  0.825620  0.292103  1
  Al  Al14  1  0.825620  0.556656  0.825620  1
  Al  Al15  1  0.736125  0.736125  0.013875  1
  Al  Al16  1  0.986125  0.263875  0.263875  1
  Al  Al17  1  0.013875  0.736125  0.736125  1
  Al  Al18  1  0.986125  0.986125  0.263875  1
  Al  Al19  1  0.174380  0.443344  0.707897  1
  Al  Al20  1  0.174380  0.707897  0.443344  1
  Al  Al21  1  0.736125  0.013875  0.013875  1
  Al  Al22  1  0.825620  0.292103  0.825620  1
  Al  Al23  1  0.174380  0.707897  0.174380  1
  Al  Al24  1  0.707897  0.174380  0.443344  1
  Al  Al25  1  0.013875  0.736125  0.013875  1
  Al  Al26  1  0.500000  0.000000  0.500000  1
  Al  Al27  1  0.174380  0.174380  0.707897  1
  Al  Al28  1  0.736125  0.013875  0.736125  1
  Al  Al29  1  0.263875  0.263875  0.986125  1
  Al  Al30  1  0.986125  0.263875  0.986125  1
  Al  Al31  1  0.825620  0.556656  0.292103  1
  Al  Al32  1  0.443344  0.174380  0.174380  1
  Al  Al33  1  0.263875  0.986125  0.263875  1
  Al  Al34  1  0.707897  0.443344  0.174380  1
  Al  Al35  1  0.500000  0.500000  0.500000  1
  Al  Al36  1  0.556656  0.825620  0.825620  1
  Al  Al37  1  0.556656  0.292103  0.825620  1
  Al  Al38  1  0.825620  0.292103  0.556656  1
  Al  Al39  1  0.500000  0.500000  0.000000  1
  Al  Al40  1  0.174380  0.443344  0.174380  1
  Al  Al41  1  0.000000  0.500000  0.500000  1
  V  V42  1  0.000000  0.500000  0.000000  1
  V  V43  1  0.500000  0.000000  0.000000  1
  V  V44  1  0.000000  0.000000  0.500000  1
  V  V45  1  0.000000  0.000000  0.000000  1
