# generated using pymatgen
data_Cs4Ba(PO3)6
_symmetry_space_group_name_H-M   'P 1'
_cell_length_a   11.74606890
_cell_length_b   11.74606854
_cell_length_c   9.26490802
_cell_angle_alpha   90.00000000
_cell_angle_beta   90.00000000
_cell_angle_gamma   120.00000100
_symmetry_Int_Tables_number   1
_chemical_formula_structural   Cs4Ba(PO3)6
_chemical_formula_sum   'Cs8 Ba2 P12 O36'
_cell_volume   1107.02343365
_cell_formula_units_Z   2
loop_
 _symmetry_equiv_pos_site_id
 _symmetry_equiv_pos_as_xyz
  1  'x, y, z'
loop_
 _atom_site_type_symbol
 _atom_site_label
 _atom_site_symmetry_multiplicity
 _atom_site_fract_x
 _atom_site_fract_y
 _atom_site_fract_z
 _atom_site_occupancy
  Cs  Cs0  1  0.007584  0.236935  0.009178  1
  Cs  Cs1  1  0.236935  0.007584  0.509178  1
  Cs  Cs2  1  0.992416  0.229350  0.509178  1
  Cs  Cs3  1  0.763065  0.770650  0.009178  1
  Cs  Cs4  1  0.770650  0.763065  0.509178  1
  Cs  Cs5  1  0.229350  0.992416  0.009178  1
  Cs  Cs6  1  0.666667  0.333333  0.749832  1
  Cs  Cs7  1  0.333333  0.666667  0.249832  1
  Ba  Ba8  1  0.333333  0.666667  0.759366  1
  Ba  Ba9  1  0.666667  0.333333  0.259366  1
  P  P10  1  0.544962  0.996610  0.494349  1
  P  P11  1  0.285719  0.308794  0.746256  1
  P  P12  1  0.455038  0.451648  0.994349  1
  P  P13  1  0.308794  0.285719  0.246256  1
  P  P14  1  0.996610  0.544962  0.994349  1
  P  P15  1  0.691206  0.976925  0.746256  1
  P  P16  1  0.714281  0.023075  0.246256  1
  P  P17  1  0.003390  0.548352  0.494349  1
  P  P18  1  0.023075  0.714281  0.746256  1
  P  P19  1  0.451648  0.455038  0.494349  1
  P  P20  1  0.548352  0.003390  0.994349  1
  P  P21  1  0.976925  0.691206  0.246256  1
  O  O22  1  0.675824  0.022898  0.584816  1
  O  O23  1  0.022898  0.675824  0.084816  1
  O  O24  1  0.952466  0.576910  0.839194  1
  O  O25  1  0.375556  0.423090  0.339194  1
  O  O26  1  0.347073  0.324176  0.584816  1
  O  O27  1  0.324176  0.347073  0.084816  1
  O  O28  1  0.576910  0.952466  0.339194  1
  O  O29  1  0.576779  0.455002  0.049128  1
  O  O30  1  0.423221  0.878223  0.549128  1
  O  O31  1  0.953727  0.789779  0.774562  1
  O  O32  1  0.977102  0.652927  0.584816  1
  O  O33  1  0.125932  0.548903  0.980731  1
  O  O34  1  0.121777  0.544998  0.549128  1
  O  O35  1  0.789779  0.953727  0.274562  1
  O  O36  1  0.163948  0.210221  0.274562  1
  O  O37  1  0.874068  0.422971  0.480731  1
  O  O38  1  0.388989  0.219417  0.261987  1
  O  O39  1  0.652927  0.977102  0.084816  1
  O  O40  1  0.451097  0.577029  0.980731  1
  O  O41  1  0.878223  0.423221  0.049128  1
  O  O42  1  0.577029  0.451097  0.480731  1
  O  O43  1  0.455002  0.576779  0.549128  1
  O  O44  1  0.210221  0.163948  0.774562  1
  O  O45  1  0.047534  0.624444  0.339194  1
  O  O46  1  0.611011  0.830429  0.761987  1
  O  O47  1  0.548903  0.125932  0.480731  1
  O  O48  1  0.544998  0.121777  0.049128  1
  O  O49  1  0.780583  0.169571  0.261987  1
  O  O50  1  0.169571  0.780583  0.761987  1
  O  O51  1  0.624444  0.047534  0.839194  1
  O  O52  1  0.830429  0.611011  0.261987  1
  O  O53  1  0.422971  0.874068  0.980731  1
  O  O54  1  0.423090  0.375556  0.839194  1
  O  O55  1  0.219417  0.388989  0.761987  1
  O  O56  1  0.046273  0.836052  0.274562  1
  O  O57  1  0.836052  0.046273  0.774562  1
