# generated using pymatgen
data_K3Na2LiTeO6
_symmetry_space_group_name_H-M   'P 1'
_cell_length_a   6.88720159
_cell_length_b   7.64216610
_cell_length_c   7.64216583
_cell_angle_alpha   104.03164186
_cell_angle_beta   92.29949362
_cell_angle_gamma   92.29949113
_symmetry_Int_Tables_number   1
_chemical_formula_structural   K3Na2LiTeO6
_chemical_formula_sum   'K6 Na4 Li2 Te2 O12'
_cell_volume   389.39923118
_cell_formula_units_Z   2
loop_
 _symmetry_equiv_pos_site_id
 _symmetry_equiv_pos_as_xyz
  1  'x, y, z'
loop_
 _atom_site_type_symbol
 _atom_site_label
 _atom_site_symmetry_multiplicity
 _atom_site_fract_x
 _atom_site_fract_y
 _atom_site_fract_z
 _atom_site_occupancy
  K  K0  1  0.760430  0.382552  0.401150  1
  K  K1  1  0.426207  0.014099  0.107902  1
  K  K2  1  0.245730  0.782719  0.703073  1
  K  K3  1  0.260430  0.401150  0.382552  1
  K  K4  1  0.926207  0.107902  0.014099  1
  K  K5  1  0.745730  0.703073  0.782719  1
  Na  Na6  1  0.898160  0.073710  0.610016  1
  Na  Na7  1  0.398160  0.610016  0.073710  1
  Na  Na8  1  0.595542  0.860498  0.429128  1
  Na  Na9  1  0.095542  0.429128  0.860498  1
  Li  Li10  1  0.249174  0.029667  0.473863  1
  Li  Li11  1  0.749174  0.473863  0.029667  1
  Te  Te12  1  0.999966  0.757111  0.243167  1
  Te  Te13  1  0.499966  0.243167  0.757111  1
  O  O14  1  0.514228  0.322000  0.027543  1
  O  O15  1  0.600055  0.007064  0.766117  1
  O  O16  1  0.902639  0.745070  0.480173  1
  O  O17  1  0.226473  0.142553  0.744115  1
  O  O18  1  0.100055  0.766117  0.007064  1
  O  O19  1  0.726473  0.744115  0.142553  1
  O  O20  1  0.014228  0.027543  0.322000  1
  O  O21  1  0.496156  0.163834  0.487836  1
  O  O22  1  0.996156  0.487836  0.163834  1
  O  O23  1  0.273038  0.766297  0.345541  1
  O  O24  1  0.402639  0.480173  0.745070  1
  O  O25  1  0.773038  0.345541  0.766297  1
