# generated using pymatgen
data_NaPr2S2O8F3
_symmetry_space_group_name_H-M   'P 1'
_cell_length_a   6.99456577
_cell_length_b   8.30391993
_cell_length_c   8.65380389
_cell_angle_alpha   113.43073430
_cell_angle_beta   113.83677395
_cell_angle_gamma   89.99999678
_symmetry_Int_Tables_number   1
_chemical_formula_structural   NaPr2S2O8F3
_chemical_formula_sum   'Na2 Pr4 S4 O16 F6'
_cell_volume   414.04244453
_cell_formula_units_Z   2
loop_
 _symmetry_equiv_pos_site_id
 _symmetry_equiv_pos_as_xyz
  1  'x, y, z'
loop_
 _atom_site_type_symbol
 _atom_site_label
 _atom_site_symmetry_multiplicity
 _atom_site_fract_x
 _atom_site_fract_y
 _atom_site_fract_z
 _atom_site_occupancy
  Na  Na0  1  0.382197  0.250000  1.000000  1
  Na  Na1  1  0.617803  0.750000  0.000000  1
  Pr  Pr2  1  0.210992  0.962138  0.239691  1
  Pr  Pr3  1  0.971301  0.537862  0.760309  1
  Pr  Pr4  1  0.028699  0.462138  0.239691  1
  Pr  Pr5  1  0.789008  0.037862  0.760309  1
  S  S6  1  0.592437  0.661211  0.358464  1
  S  S7  1  0.407563  0.338789  0.641536  1
  S  S8  1  0.233973  0.838789  0.641536  1
  S  S9  1  0.766027  0.161211  0.358464  1
  O  O10  1  0.154212  0.655549  0.610606  1
  O  O11  1  0.605698  0.473730  0.735761  1
  O  O12  1  0.130063  0.973730  0.735761  1
  O  O13  1  0.176523  0.820519  0.449070  1
  O  O14  1  0.292692  0.388817  0.760123  1
  O  O15  1  0.845788  0.344451  0.389394  1
  O  O16  1  0.543606  0.844451  0.389394  1
  O  O17  1  0.707308  0.611183  0.239877  1
  O  O18  1  0.869937  0.026270  0.264239  1
  O  O19  1  0.272547  0.320519  0.449070  1
  O  O20  1  0.532569  0.111183  0.239877  1
  O  O21  1  0.727453  0.679481  0.550930  1
  O  O22  1  0.467431  0.888817  0.760123  1
  O  O23  1  0.394302  0.526270  0.264239  1
  O  O24  1  0.456394  0.155549  0.610606  1
  O  O25  1  0.823477  0.179481  0.550930  1
  F  F26  1  0.102623  0.160092  0.090208  1
  F  F27  1  0.987585  0.660092  0.090208  1
  F  F28  1  0.897377  0.839908  0.909792  1
  F  F29  1  0.012415  0.339908  0.909792  1
  F  F30  1  0.716132  0.250000  1.000000  1
  F  F31  1  0.283868  0.750000  0.000000  1
