# generated using pymatgen
data_InSi2As(H3C)8
_symmetry_space_group_name_H-M   'P 1'
_cell_length_a   9.54553158
_cell_length_b   9.81395641
_cell_length_c   10.09703358
_cell_angle_alpha   77.86617556
_cell_angle_beta   81.41934079
_cell_angle_gamma   65.52804087
_symmetry_Int_Tables_number   1
_chemical_formula_structural   InSi2As(H3C)8
_chemical_formula_sum   'In2 Si4 As2 H48 C16'
_cell_volume   839.62263161
_cell_formula_units_Z   2
loop_
 _symmetry_equiv_pos_site_id
 _symmetry_equiv_pos_as_xyz
  1  'x, y, z'
loop_
 _atom_site_type_symbol
 _atom_site_label
 _atom_site_symmetry_multiplicity
 _atom_site_fract_x
 _atom_site_fract_y
 _atom_site_fract_z
 _atom_site_occupancy
  In  In0  1  0.545842  0.654708  0.572002  1
  In  In1  1  0.454158  0.345292  0.427998  1
  Si  Si2  1  0.687333  0.621057  0.156723  1
  Si  Si3  1  0.250636  0.818325  0.253605  1
  Si  Si4  1  0.749364  0.181675  0.746395  1
  Si  Si5  1  0.312667  0.378943  0.843277  1
  As  As6  1  0.514292  0.383147  0.673689  1
  As  As7  1  0.485708  0.616853  0.326311  1
  H  H8  1  0.867506  0.523579  0.531353  1
  H  H9  1  0.839552  0.900763  0.803949  1
  H  H10  1  0.369325  0.957183  0.585864  1
  H  H11  1  0.278276  0.350084  0.095038  1
  H  H12  1  0.814081  0.613597  0.678003  1
  H  H13  1  0.357886  0.011490  0.139631  1
  H  H14  1  0.157454  0.221405  0.907456  1
  H  H15  1  0.694762  0.974687  0.685648  1
  H  H16  1  0.721724  0.649916  0.904962  1
  H  H17  1  0.620456  0.148785  0.246836  1
  H  H18  1  0.160448  0.099237  0.196051  1
  H  H19  1  0.786294  0.764910  0.269283  1
  H  H20  1  0.842546  0.778595  0.092544  1
  H  H21  1  0.213706  0.235090  0.730717  1
  H  H22  1  0.348366  0.109310  0.849844  1
  H  H23  1  0.630675  0.042817  0.414136  1
  H  H24  1  0.174098  0.661797  0.817791  1
  H  H25  1  0.803523  0.724411  0.512922  1
  H  H26  1  0.821993  0.318415  0.890048  1
  H  H27  1  0.408885  0.439692  0.033357  1
  H  H28  1  0.185919  0.386403  0.321997  1
  H  H29  1  0.082777  0.709243  0.413353  1
  H  H30  1  0.013518  0.091216  0.632958  1
  H  H31  1  0.077757  0.881580  0.069515  1
  H  H32  1  0.986482  0.908784  0.367042  1
  H  H33  1  0.651634  0.890690  0.150156  1
  H  H34  1  0.752915  0.143443  0.357060  1
  H  H35  1  0.272712  0.793165  0.006735  1
  H  H36  1  0.126568  0.832944  0.489975  1
  H  H37  1  0.642114  0.988510  0.860369  1
  H  H38  1  0.825902  0.338203  0.182209  1
  H  H39  1  0.528553  0.759730  0.956139  1
  H  H40  1  0.896522  0.412263  0.291848  1
  H  H41  1  0.917223  0.290757  0.586647  1
  H  H42  1  0.379544  0.851215  0.753164  1
  H  H43  1  0.178007  0.681585  0.109952  1
  H  H44  1  0.132494  0.476421  0.468647  1
  H  H45  1  0.471447  0.240270  0.043861  1
  H  H46  1  0.247085  0.856557  0.642940  1
  H  H47  1  0.103478  0.587737  0.708152  1
  H  H48  1  0.873432  0.167056  0.510025  1
  H  H49  1  0.047149  0.568970  0.884602  1
  H  H50  1  0.922243  0.118420  0.930485  1
  H  H51  1  0.305238  0.025313  0.314352  1
  H  H52  1  0.591115  0.560308  0.966643  1
  H  H53  1  0.196477  0.275589  0.487078  1
  H  H54  1  0.727288  0.206835  0.993265  1
  H  H55  1  0.952851  0.431030  0.115398  1
  C  C56  1  0.786986  0.624502  0.573343  1
  C  C57  1  0.271323  0.005598  0.223072  1
  C  C58  1  0.098001  0.816760  0.394644  1
  C  C59  1  0.809401  0.209748  0.905210  1
  C  C60  1  0.637510  0.146799  0.352521  1
  C  C61  1  0.362490  0.853201  0.647478  1
  C  C62  1  0.144148  0.567319  0.809579  1
  C  C63  1  0.728677  0.994402  0.776928  1
  C  C64  1  0.253050  0.221384  0.831353  1
  C  C65  1  0.374478  0.349972  0.019637  1
  C  C66  1  0.746950  0.778616  0.168647  1
  C  C67  1  0.855852  0.432681  0.190421  1
  C  C68  1  0.625522  0.650028  0.980363  1
  C  C69  1  0.190599  0.790252  0.094790  1
  C  C70  1  0.901999  0.183240  0.605356  1
  C  C71  1  0.213014  0.375498  0.426657  1
