# generated using pymatgen
data_Cd5Mo2(P2O7)4
_symmetry_space_group_name_H-M   'P 1'
_cell_length_a   6.78855234
_cell_length_b   6.78855261
_cell_length_c   24.90352634
_cell_angle_alpha   95.26826478
_cell_angle_beta   95.26826500
_cell_angle_gamma   96.68119335
_symmetry_Int_Tables_number   1
_chemical_formula_structural   Cd5Mo2(P2O7)4
_chemical_formula_sum   'Cd10 Mo4 P16 O56'
_cell_volume   1128.94364940
_cell_formula_units_Z   2
loop_
 _symmetry_equiv_pos_site_id
 _symmetry_equiv_pos_as_xyz
  1  'x, y, z'
loop_
 _atom_site_type_symbol
 _atom_site_label
 _atom_site_symmetry_multiplicity
 _atom_site_fract_x
 _atom_site_fract_y
 _atom_site_fract_z
 _atom_site_occupancy
  Cd  Cd0  1  0.300511  0.319630  0.009110  1
  Cd  Cd1  1  0.699489  0.680370  0.990890  1
  Cd  Cd2  1  0.201972  0.798028  0.750000  1
  Cd  Cd3  1  0.798028  0.201972  0.250000  1
  Cd  Cd4  1  0.583984  0.882870  0.862317  1
  Cd  Cd5  1  0.416016  0.117130  0.137683  1
  Cd  Cd6  1  0.882870  0.583984  0.362317  1
  Cd  Cd7  1  0.680370  0.699489  0.490890  1
  Cd  Cd8  1  0.319630  0.300511  0.509110  1
  Cd  Cd9  1  0.117130  0.416016  0.637683  1
  Mo  Mo10  1  0.280371  0.975022  0.382966  1
  Mo  Mo11  1  0.024978  0.719629  0.117034  1
  Mo  Mo12  1  0.975022  0.280371  0.882966  1
  Mo  Mo13  1  0.719629  0.024978  0.617034  1
  P  P14  1  0.797880  0.693359  0.230592  1
  P  P15  1  0.202120  0.306641  0.769408  1
  P  P16  1  0.230841  0.823234  0.006747  1
  P  P17  1  0.823234  0.230841  0.506747  1
  P  P18  1  0.917924  0.194518  0.112594  1
  P  P19  1  0.380952  0.475000  0.373382  1
  P  P20  1  0.619048  0.525000  0.626618  1
  P  P21  1  0.306641  0.202120  0.269408  1
  P  P22  1  0.194518  0.917924  0.612594  1
  P  P23  1  0.176766  0.769159  0.493253  1
  P  P24  1  0.475000  0.380952  0.873382  1
  P  P25  1  0.082076  0.805482  0.887406  1
  P  P26  1  0.525000  0.619048  0.126618  1
  P  P27  1  0.693359  0.797880  0.730592  1
  P  P28  1  0.805482  0.082076  0.387406  1
  P  P29  1  0.769159  0.176766  0.993253  1
  O  O30  1  0.069987  0.047045  0.125212  1
  O  O31  1  0.816050  0.105137  0.052024  1
  O  O32  1  0.020825  0.287125  0.801829  1
  O  O33  1  0.016899  0.329950  0.539319  1
  O  O34  1  0.741383  0.883484  0.256938  1
  O  O35  1  0.761029  0.360667  0.629161  1
  O  O36  1  0.290876  0.296356  0.402094  1
  O  O37  1  0.564307  0.587776  0.900188  1
  O  O38  1  0.712875  0.979175  0.698171  1
  O  O39  1  0.412224  0.435693  0.599812  1
  O  O40  1  0.606111  0.589887  0.187010  1
  O  O41  1  0.287125  0.020825  0.301829  1
  O  O42  1  0.655961  0.363740  0.503120  1
  O  O43  1  0.401586  0.018491  0.606223  1
  O  O44  1  0.259732  0.968651  0.472079  1
  O  O45  1  0.589887  0.606111  0.687010  1
  O  O46  1  0.184713  0.461897  0.728620  1
  O  O47  1  0.740268  0.031349  0.527921  1
  O  O48  1  0.930013  0.952955  0.874788  1
  O  O49  1  0.639333  0.238971  0.870839  1
  O  O50  1  0.344039  0.636260  0.496880  1
  O  O51  1  0.883484  0.741383  0.756938  1
  O  O52  1  0.952955  0.930013  0.374788  1
  O  O53  1  0.238971  0.639333  0.370839  1
  O  O54  1  0.047045  0.069987  0.625212  1
  O  O55  1  0.670050  0.983101  0.960681  1
  O  O56  1  0.709124  0.703644  0.597906  1
  O  O57  1  0.435693  0.412224  0.099812  1
  O  O58  1  0.894863  0.183950  0.447976  1
  O  O59  1  0.815287  0.538103  0.271380  1
  O  O60  1  0.296356  0.290876  0.902094  1
  O  O61  1  0.983101  0.670050  0.460681  1
  O  O62  1  0.329950  0.016899  0.039319  1
  O  O63  1  0.820233  0.246265  0.350017  1
  O  O64  1  0.981509  0.598414  0.893777  1
  O  O65  1  0.105137  0.816050  0.552024  1
  O  O66  1  0.410113  0.393889  0.312990  1
  O  O67  1  0.183950  0.894863  0.947976  1
  O  O68  1  0.116516  0.258617  0.243062  1
  O  O69  1  0.753735  0.179767  0.149983  1
  O  O70  1  0.363740  0.655961  0.003120  1
  O  O71  1  0.979175  0.712875  0.198171  1
  O  O72  1  0.246265  0.820233  0.850017  1
  O  O73  1  0.703644  0.709124  0.097906  1
  O  O74  1  0.179767  0.753735  0.649983  1
  O  O75  1  0.018491  0.401586  0.106223  1
  O  O76  1  0.360667  0.761029  0.129161  1
  O  O77  1  0.031349  0.740268  0.027921  1
  O  O78  1  0.258617  0.116516  0.743062  1
  O  O79  1  0.636260  0.344039  0.996880  1
  O  O80  1  0.393889  0.410113  0.812990  1
  O  O81  1  0.598414  0.981509  0.393777  1
  O  O82  1  0.538103  0.815287  0.771380  1
  O  O83  1  0.461897  0.184713  0.228620  1
  O  O84  1  0.587776  0.564307  0.400188  1
  O  O85  1  0.968651  0.259732  0.972079  1
