# generated using pymatgen
data_CaV2(PO5)2
_symmetry_space_group_name_H-M   'P 1'
_cell_length_a   6.92945515
_cell_length_b   6.92945464
_cell_length_c   8.82580858
_cell_angle_alpha   102.60658700
_cell_angle_beta   102.60658599
_cell_angle_gamma   116.36137248
_symmetry_Int_Tables_number   1
_chemical_formula_structural   CaV2(PO5)2
_chemical_formula_sum   'Ca2 V4 P4 O20'
_cell_volume   345.65995342
_cell_formula_units_Z   2
loop_
 _symmetry_equiv_pos_site_id
 _symmetry_equiv_pos_as_xyz
  1  'x, y, z'
loop_
 _atom_site_type_symbol
 _atom_site_label
 _atom_site_symmetry_multiplicity
 _atom_site_fract_x
 _atom_site_fract_y
 _atom_site_fract_z
 _atom_site_occupancy
  Ca  Ca0  1  0.500758  0.000758  0.500000  1
  Ca  Ca1  1  0.250758  0.250758  1.000000  1
  V  V2  1  0.876548  0.604762  0.260233  1
  V  V3  1  0.344529  0.616314  0.739767  1
  V  V4  1  0.866314  0.094529  0.239767  1
  V  V5  1  0.854762  0.626548  0.760233  1
  P  P6  1  0.038598  0.037804  0.584428  1
  P  P7  1  0.704170  0.203376  0.915572  1
  P  P8  1  0.453376  0.454170  0.415572  1
  P  P9  1  0.287804  0.788598  0.084428  1
  O  O10  1  0.580163  0.552077  0.301634  1
  O  O11  1  0.658273  0.660183  0.830869  1
  O  O12  1  0.316077  0.606335  0.968517  1
  O  O13  1  0.802077  0.330163  0.801634  1
  O  O14  1  0.216891  0.241541  0.296522  1
  O  O15  1  0.419813  0.635659  0.527480  1
  O  O16  1  0.077404  0.579314  0.669131  1
  O  O17  1  0.829314  0.827404  0.169131  1
  O  O18  1  0.910183  0.408273  0.330869  1
  O  O19  1  0.170369  0.695019  0.203478  1
  O  O20  1  0.250443  0.278530  0.698366  1
  O  O21  1  0.491541  0.966891  0.796522  1
  O  O22  1  0.945019  0.920369  0.703478  1
  O  O23  1  0.142334  0.858180  0.972520  1
  O  O24  1  0.108180  0.892334  0.472520  1
  O  O25  1  0.885659  0.169813  0.027480  1
  O  O26  1  0.856335  0.066077  0.468517  1
  O  O27  1  0.637818  0.347560  0.031483  1
  O  O28  1  0.528530  0.000443  0.198366  1
  O  O29  1  0.597560  0.387818  0.531483  1
