# generated using pymatgen
data_CsAu(SO4)2
_symmetry_space_group_name_H-M   'P 1'
_cell_length_a   9.30700493
_cell_length_b   9.24685567
_cell_length_c   10.55066466
_cell_angle_alpha   111.41054368
_cell_angle_beta   90.00000000
_cell_angle_gamma   90.00000000
_symmetry_Int_Tables_number   1
_chemical_formula_structural   CsAu(SO4)2
_chemical_formula_sum   'Cs4 Au4 S8 O32'
_cell_volume   845.33379424
_cell_formula_units_Z   4
loop_
 _symmetry_equiv_pos_site_id
 _symmetry_equiv_pos_as_xyz
  1  'x, y, z'
loop_
 _atom_site_type_symbol
 _atom_site_label
 _atom_site_symmetry_multiplicity
 _atom_site_fract_x
 _atom_site_fract_y
 _atom_site_fract_z
 _atom_site_occupancy
  Cs  Cs0  1  0.859422  0.612329  0.756056  1
  Cs  Cs1  1  0.359422  0.887671  0.243944  1
  Cs  Cs2  1  0.140578  0.387671  0.243944  1
  Cs  Cs3  1  0.640578  0.112329  0.756056  1
  Au  Au4  1  0.644478  0.366916  0.288963  1
  Au  Au5  1  0.855522  0.866916  0.288963  1
  Au  Au6  1  0.144478  0.133084  0.711037  1
  Au  Au7  1  0.355522  0.633084  0.711037  1
  S  S8  1  0.257144  0.459907  0.901648  1
  S  S9  1  0.528681  0.695433  0.473666  1
  S  S10  1  0.242856  0.959907  0.901648  1
  S  S11  1  0.742856  0.540093  0.098352  1
  S  S12  1  0.028681  0.804567  0.526334  1
  S  S13  1  0.971319  0.195433  0.473666  1
  S  S14  1  0.757144  0.040093  0.098352  1
  S  S15  1  0.471319  0.304567  0.526334  1
  O  O16  1  0.293666  0.037900  0.800386  1
  O  O17  1  0.505994  0.253278  0.371300  1
  O  O18  1  0.645563  0.568822  0.454389  1
  O  O19  1  0.494006  0.746722  0.628700  1
  O  O20  1  0.005994  0.246722  0.628700  1
  O  O21  1  0.766782  0.434707  0.959327  1
  O  O22  1  0.793666  0.462100  0.199614  1
  O  O23  1  0.600927  0.604863  0.134540  1
  O  O24  1  0.094752  0.667537  0.537665  1
  O  O25  1  0.145563  0.931178  0.545611  1
  O  O26  1  0.706334  0.962100  0.199614  1
  O  O27  1  0.594752  0.832463  0.462335  1
  O  O28  1  0.266782  0.065293  0.040673  1
  O  O29  1  0.354437  0.431178  0.545611  1
  O  O30  1  0.100927  0.895137  0.865460  1
  O  O31  1  0.094898  0.132419  0.388198  1
  O  O32  1  0.899073  0.104863  0.134540  1
  O  O33  1  0.206334  0.537900  0.800386  1
  O  O34  1  0.640322  0.168120  0.119987  1
  O  O35  1  0.994006  0.753278  0.371300  1
  O  O36  1  0.405102  0.632419  0.388198  1
  O  O37  1  0.594898  0.367581  0.611802  1
  O  O38  1  0.854437  0.068822  0.454389  1
  O  O39  1  0.359678  0.831880  0.880013  1
  O  O40  1  0.405248  0.167537  0.537665  1
  O  O41  1  0.233218  0.565293  0.040673  1
  O  O42  1  0.399073  0.395137  0.865460  1
  O  O43  1  0.733218  0.934707  0.959327  1
  O  O44  1  0.905248  0.332463  0.462335  1
  O  O45  1  0.859678  0.668120  0.119987  1
  O  O46  1  0.140322  0.331880  0.880013  1
  O  O47  1  0.905102  0.867581  0.611802  1
