# generated using pymatgen
data_SiO2
_symmetry_space_group_name_H-M   'P 1'
_cell_length_a   4.92671403
_cell_length_b   5.24384026
_cell_length_c   5.65659784
_cell_angle_alpha   90.00000000
_cell_angle_beta   90.00000000
_cell_angle_gamma   107.16716288
_symmetry_Int_Tables_number   1
_chemical_formula_structural   SiO2
_chemical_formula_sum   'Si4 O8'
_cell_volume   139.62687614
_cell_formula_units_Z   4
loop_
 _symmetry_equiv_pos_site_id
 _symmetry_equiv_pos_as_xyz
  1  'x, y, z'
loop_
 _atom_site_type_symbol
 _atom_site_label
 _atom_site_symmetry_multiplicity
 _atom_site_fract_x
 _atom_site_fract_y
 _atom_site_fract_z
 _atom_site_occupancy
  Si  Si0  1  0.462182  0.463817  0.500000  1
  Si  Si1  1  0.471622  0.478747  0.000000  1
  Si  Si2  1  0.035160  0.772225  0.000000  1
  Si  Si3  1  0.986179  0.979712  0.500000  1
  O  O4  1  0.550910  0.350253  0.752762  1
  O  O5  1  0.134784  0.901460  0.739800  1
  O  O6  1  0.644455  0.791523  0.500000  1
  O  O7  1  0.134784  0.901460  0.260200  1
  O  O8  1  0.105670  0.315920  0.500000  1
  O  O9  1  0.550910  0.350253  0.247238  1
  O  O10  1  0.149177  0.504947  0.000000  1
  O  O11  1  0.702067  0.772663  0.000000  1
