# generated using pymatgen
data_SmSnPd
_symmetry_space_group_name_H-M   'P 1'
_cell_length_a   4.70198440
_cell_length_b   7.39956510
_cell_length_c   8.03413568
_cell_angle_alpha   90.00000000
_cell_angle_beta   90.00000000
_cell_angle_gamma   90.00000000
_symmetry_Int_Tables_number   1
_chemical_formula_structural   SmSnPd
_chemical_formula_sum   'Sm4 Sn4 Pd4'
_cell_volume   279.52878775
_cell_formula_units_Z   4
loop_
 _symmetry_equiv_pos_site_id
 _symmetry_equiv_pos_as_xyz
  1  'x, y, z'
loop_
 _atom_site_type_symbol
 _atom_site_label
 _atom_site_symmetry_multiplicity
 _atom_site_fract_x
 _atom_site_fract_y
 _atom_site_fract_z
 _atom_site_occupancy
  Sm  Sm0  1  0.750000  0.509323  0.205389  1
  Sm  Sm1  1  0.750000  0.009323  0.294611  1
  Sm  Sm2  1  0.250000  0.990677  0.705389  1
  Sm  Sm3  1  0.250000  0.490677  0.794611  1
  Sn  Sn4  1  0.750000  0.192498  0.913011  1
  Sn  Sn5  1  0.750000  0.692498  0.586989  1
  Sn  Sn6  1  0.250000  0.807502  0.086989  1
  Sn  Sn7  1  0.250000  0.307502  0.413011  1
  Pd  Pd8  1  0.750000  0.797696  0.916059  1
  Pd  Pd9  1  0.250000  0.202304  0.083941  1
  Pd  Pd10  1  0.750000  0.297696  0.583941  1
  Pd  Pd11  1  0.250000  0.702304  0.416059  1
