# generated using pymatgen
data_SiO2
_symmetry_space_group_name_H-M   'P 1'
_cell_length_a   5.81414592
_cell_length_b   5.81414585
_cell_length_c   12.07119071
_cell_angle_alpha   103.93537645
_cell_angle_beta   103.93537625
_cell_angle_gamma   90.00000325
_symmetry_Int_Tables_number   1
_chemical_formula_structural   SiO2
_chemical_formula_sum   'Si8 O16'
_cell_volume   383.66233529
_cell_formula_units_Z   8
loop_
 _symmetry_equiv_pos_site_id
 _symmetry_equiv_pos_as_xyz
  1  'x, y, z'
loop_
 _atom_site_type_symbol
 _atom_site_label
 _atom_site_symmetry_multiplicity
 _atom_site_fract_x
 _atom_site_fract_y
 _atom_site_fract_z
 _atom_site_occupancy
  Si  Si0  1  0.434928  0.310361  0.123244  1
  Si  Si1  1  0.315072  0.437117  0.376756  1
  Si  Si2  1  0.562883  0.684928  0.623244  1
  Si  Si3  1  0.689639  0.565072  0.876756  1
  Si  Si4  1  0.061685  0.939639  0.376756  1
  Si  Si5  1  0.688315  0.812883  0.123244  1
  Si  Si6  1  0.060361  0.938315  0.623244  1
  Si  Si7  1  0.187117  0.311685  0.876756  1
  O  O8  1  0.564665  0.064665  0.129330  1
  O  O9  1  0.976430  0.023570  0.500000  1
  O  O10  1  0.875000  0.859686  0.250000  1
  O  O11  1  0.140314  0.125000  0.750000  1
  O  O12  1  0.558116  0.558116  0.116232  1
  O  O13  1  0.226430  0.226430  0.000000  1
  O  O14  1  0.375000  0.390314  0.250000  1
  O  O15  1  0.185335  0.185335  0.370670  1
  O  O16  1  0.441884  0.441884  0.883768  1
  O  O17  1  0.523570  0.476430  0.500000  1
  O  O18  1  0.935335  0.435335  0.870670  1
  O  O19  1  0.814665  0.814665  0.629330  1
  O  O20  1  0.191884  0.691884  0.383768  1
  O  O21  1  0.773570  0.773570  1.000000  1
  O  O22  1  0.308116  0.808116  0.616232  1
  O  O23  1  0.609686  0.625000  0.750000  1
