# generated using pymatgen
data_NaLiYb2F8
_symmetry_space_group_name_H-M   'P 1'
_cell_length_a   6.56990142
_cell_length_b   6.56990079
_cell_length_c   7.30869001
_cell_angle_alpha   90.11962050
_cell_angle_beta   89.88037952
_cell_angle_gamma   99.11943686
_symmetry_Int_Tables_number   1
_chemical_formula_structural   NaLiYb2F8
_chemical_formula_sum   'Na2 Li2 Yb4 F16'
_cell_volume   311.48070127
_cell_formula_units_Z   2
loop_
 _symmetry_equiv_pos_site_id
 _symmetry_equiv_pos_as_xyz
  1  'x, y, z'
loop_
 _atom_site_type_symbol
 _atom_site_label
 _atom_site_symmetry_multiplicity
 _atom_site_fract_x
 _atom_site_fract_y
 _atom_site_fract_z
 _atom_site_occupancy
  Yb  Yb0  1  0.439552  0.066167  0.747521  1
  Yb  Yb1  1  0.560448  0.933833  0.252479  1
  Yb  Yb2  1  0.066167  0.439552  0.752479  1
  Yb  Yb3  1  0.933833  0.560448  0.247521  1
  Na  Na4  1  0.331014  0.331014  0.250000  1
  Na  Na5  1  0.668986  0.668986  0.750000  1
  Li  Li6  1  0.000000  0.000000  0.000000  1
  Li  Li7  1  0.000000  0.000000  0.500000  1
  F  F8  1  0.415946  0.415946  0.750000  1
  F  F9  1  0.584054  0.584054  0.250000  1
  F  F10  1  0.338836  0.065055  0.046615  1
  F  F11  1  0.661164  0.934945  0.953385  1
  F  F12  1  0.724640  0.306441  0.749172  1
  F  F13  1  0.693559  0.275360  0.249172  1
  F  F14  1  0.065055  0.338836  0.453385  1
  F  F15  1  0.934627  0.666711  0.950719  1
  F  F16  1  0.275360  0.693559  0.250828  1
  F  F17  1  0.934945  0.661164  0.546615  1
  F  F18  1  0.333289  0.065373  0.450719  1
  F  F19  1  0.912283  0.912283  0.250000  1
  F  F20  1  0.666711  0.934627  0.549281  1
  F  F21  1  0.306441  0.724640  0.750828  1
  F  F22  1  0.065373  0.333289  0.049281  1
  F  F23  1  0.087717  0.087717  0.750000  1
