# generated using pymatgen
data_ZrRu2
_symmetry_space_group_name_H-M   'P 1'
_cell_length_a   5.19994587
_cell_length_b   5.19994587
_cell_length_c   8.57947375
_cell_angle_alpha   90.00000000
_cell_angle_beta   90.00000000
_cell_angle_gamma   120.00700151
_symmetry_Int_Tables_number   1
_chemical_formula_structural   ZrRu2
_chemical_formula_sum   'Zr4 Ru8'
_cell_volume   200.88998310
_cell_formula_units_Z   4
loop_
 _symmetry_equiv_pos_site_id
 _symmetry_equiv_pos_as_xyz
  1  'x, y, z'
loop_
 _atom_site_type_symbol
 _atom_site_label
 _atom_site_symmetry_multiplicity
 _atom_site_fract_x
 _atom_site_fract_y
 _atom_site_fract_z
 _atom_site_occupancy
  Zr  Zr0  1  0.666683  0.333317  0.566189  1
  Zr  Zr1  1  0.333317  0.666683  0.433811  1
  Zr  Zr2  1  0.333317  0.666683  0.066189  1
  Zr  Zr3  1  0.666683  0.333317  0.933811  1
  Ru  Ru4  1  0.000000  -0.000000  0.500000  1
  Ru  Ru5  1  0.000000  -0.000000  -0.000000  1
  Ru  Ru6  1  0.171886  0.343683  0.750000  1
  Ru  Ru7  1  0.171837  0.828163  0.750000  1
  Ru  Ru8  1  0.656317  0.828114  0.750000  1
  Ru  Ru9  1  0.828114  0.656317  0.250000  1
  Ru  Ru10  1  0.828163  0.171837  0.250000  1
  Ru  Ru11  1  0.343683  0.171886  0.250000  1
