# generated using pymatgen
data_TlCu5Se3
_symmetry_space_group_name_H-M   'P 1'
_cell_length_a   3.94778838
_cell_length_b   12.92435920
_cell_length_c   12.92435920
_cell_angle_alpha   90.00000000
_cell_angle_beta   90.00000000
_cell_angle_gamma   90.00000000
_symmetry_Int_Tables_number   1
_chemical_formula_structural   TlCu5Se3
_chemical_formula_sum   'Tl4 Cu20 Se12'
_cell_volume   659.43486296
_cell_formula_units_Z   4
loop_
 _symmetry_equiv_pos_site_id
 _symmetry_equiv_pos_as_xyz
  1  'x, y, z'
loop_
 _atom_site_type_symbol
 _atom_site_label
 _atom_site_symmetry_multiplicity
 _atom_site_fract_x
 _atom_site_fract_y
 _atom_site_fract_z
 _atom_site_occupancy
  Tl  Tl0  1  0.000000  0.107245  0.107245  1
  Tl  Tl1  1  0.500000  0.392755  0.607245  1
  Tl  Tl2  1  0.500000  0.607245  0.392755  1
  Tl  Tl3  1  0.000000  0.892755  0.892755  1
  Cu  Cu4  1  0.000000  0.819899  0.180101  1
  Cu  Cu5  1  0.500000  0.319899  0.319899  1
  Cu  Cu6  1  0.500000  0.680101  0.680101  1
  Cu  Cu7  1  0.000000  0.180101  0.819899  1
  Cu  Cu8  1  0.000000  0.212771  0.420725  1
  Cu  Cu9  1  0.500000  0.079275  0.712771  1
  Cu  Cu10  1  0.500000  0.920725  0.287229  1
  Cu  Cu11  1  0.000000  0.787229  0.579275  1
  Cu  Cu12  1  0.500000  0.712771  0.079275  1
  Cu  Cu13  1  0.500000  0.287229  0.920725  1
  Cu  Cu14  1  0.000000  0.420725  0.212771  1
  Cu  Cu15  1  0.000000  0.579275  0.787229  1
  Cu  Cu16  1  0.000000  0.014230  0.397124  1
  Cu  Cu17  1  0.500000  0.102876  0.514230  1
  Cu  Cu18  1  0.500000  0.897124  0.485770  1
  Cu  Cu19  1  0.000000  0.985770  0.602876  1
  Cu  Cu20  1  0.500000  0.514230  0.102876  1
  Cu  Cu21  1  0.500000  0.485770  0.897124  1
  Cu  Cu22  1  0.000000  0.397124  0.014230  1
  Cu  Cu23  1  0.000000  0.602876  0.985770  1
  Se  Se24  1  0.000000  0.398868  0.398868  1
  Se  Se25  1  0.500000  0.101132  0.898868  1
  Se  Se26  1  0.500000  0.898868  0.101132  1
  Se  Se27  1  0.000000  0.601132  0.601132  1
  Se  Se28  1  0.000000  0.618244  0.175016  1
  Se  Se29  1  0.500000  0.324984  0.118244  1
  Se  Se30  1  0.500000  0.675016  0.881756  1
  Se  Se31  1  0.000000  0.381756  0.824984  1
  Se  Se32  1  0.500000  0.118244  0.324984  1
  Se  Se33  1  0.500000  0.881756  0.675016  1
  Se  Se34  1  0.000000  0.175016  0.618244  1
  Se  Se35  1  0.000000  0.824984  0.381756  1
