# generated using pymatgen
data_Ba2V5(PO6)4
_symmetry_space_group_name_H-M   'P 1'
_cell_length_a   7.81630526
_cell_length_b   11.79530580
_cell_length_c   13.27209765
_cell_angle_alpha   111.99580930
_cell_angle_beta   100.89979593
_cell_angle_gamma   103.71716708
_symmetry_Int_Tables_number   1
_chemical_formula_structural   Ba2V5(PO6)4
_chemical_formula_sum   'Ba4 V10 P8 O48'
_cell_volume   1048.43541727
_cell_formula_units_Z   2
loop_
 _symmetry_equiv_pos_site_id
 _symmetry_equiv_pos_as_xyz
  1  'x, y, z'
loop_
 _atom_site_type_symbol
 _atom_site_label
 _atom_site_symmetry_multiplicity
 _atom_site_fract_x
 _atom_site_fract_y
 _atom_site_fract_z
 _atom_site_occupancy
  Ba  Ba0  1  0.994600  0.526246  0.496146  1
  Ba  Ba1  1  0.738271  0.733440  0.000000  1
  Ba  Ba2  1  0.305464  0.879994  0.000000  1
  Ba  Ba3  1  0.498454  0.030100  0.503854  1
  V  V4  1  0.976824  0.770795  0.363136  1
  V  V5  1  0.011454  0.335350  0.723901  1
  V  V6  1  0.195618  0.929762  0.714026  1
  V  V7  1  0.877300  0.145768  0.373594  1
  V  V8  1  0.287553  0.611449  0.276099  1
  V  V9  1  0.607789  0.428243  1.000000  1
  V  V10  1  0.481592  0.215735  0.285974  1
  V  V11  1  0.613688  0.407658  0.636864  1
  V  V12  1  0.881484  0.084273  0.000000  1
  V  V13  1  0.503705  0.772173  0.626406  1
  P  P14  1  0.376752  0.222758  0.739722  1
  P  P15  1  0.844419  0.058561  0.744029  1
  P  P16  1  0.129788  0.977450  0.265252  1
  P  P17  1  0.618851  0.835969  0.262537  1
  P  P18  1  0.100390  0.314533  0.255971  1
  P  P19  1  0.864536  0.712197  0.734748  1
  P  P20  1  0.637030  0.483037  0.260278  1
  P  P21  1  0.356314  0.573432  0.737463  1
  O  O22  1  0.148546  0.464361  0.298518  1
  O  O23  1  0.487123  0.349545  0.505071  1
  O  O24  1  0.949025  0.728048  0.853676  1
  O  O25  1  0.803871  0.344531  0.636517  1
  O  O26  1  0.476145  0.517798  0.000000  1
  O  O27  1  0.772314  0.564129  0.644826  1
  O  O28  1  0.391528  0.678712  0.854898  1
  O  O29  1  0.709970  0.979377  0.356969  1
  O  O30  1  0.487270  0.128700  0.158230  1
  O  O31  1  0.004372  0.290268  0.342333  1
  O  O32  1  0.505006  0.273208  0.863191  1
  O  O33  1  0.353001  0.622408  0.643031  1
  O  O34  1  0.806853  0.516400  0.000000  1
  O  O35  1  0.312372  0.824305  0.615181  1
  O  O36  1  0.701664  0.974406  1.000000  1
  O  O37  1  0.214853  0.274220  0.744283  1
  O  O38  1  0.975340  0.040626  0.264607  1
  O  O39  1  0.052035  0.025867  1.000000  1
  O  O40  1  0.825380  0.109132  0.866806  1
  O  O41  1  0.095349  0.874372  0.146324  1
  O  O42  1  0.269589  0.273950  0.257192  1
  O  O43  1  0.004804  0.195210  0.504137  1
  O  O44  1  0.662039  0.947934  0.657667  1
  O  O45  1  0.500667  0.691073  0.495863  1
  O  O46  1  0.536629  0.823814  0.145102  1
  O  O47  1  0.516101  0.512967  0.743726  1
  O  O48  1  0.012396  0.016757  0.742808  1
  O  O49  1  0.488143  0.266235  0.667273  1
  O  O50  1  0.850028  0.165843  0.701482  1
  O  O51  1  0.176459  0.572814  0.147499  1
  O  O52  1  0.127488  0.919302  0.355174  1
  O  O53  1  0.327265  0.080450  0.319895  1
  O  O54  1  0.476695  0.776839  0.313549  1
  O  O55  1  0.982052  0.844474  0.494929  1
  O  O56  1  0.820870  0.598963  0.332727  1
  O  O57  1  0.028960  0.425315  0.852501  1
  O  O58  1  0.329040  0.970470  0.841770  1
  O  O59  1  0.007369  0.760555  0.680105  1
  O  O60  1  0.163146  0.463290  0.686451  1
  O  O61  1  0.697191  0.209124  0.384819  1
  O  O62  1  0.167354  0.708014  0.363483  1
  O  O63  1  0.640900  0.396035  0.322344  1
  O  O64  1  0.958574  0.242326  0.133194  1
  O  O65  1  0.772374  0.769241  0.256274  1
  O  O66  1  0.641815  0.410017  0.136809  1
  O  O67  1  0.318556  0.073692  0.677656  1
  O  O68  1  0.710733  0.776019  0.735393  1
  O  O69  1  0.470569  0.529936  0.255717  1
