# generated using pymatgen
data_CdI2
_symmetry_space_group_name_H-M   'P 1'
_cell_length_a   4.33754772
_cell_length_b   4.33754798
_cell_length_c   88.92714755
_cell_angle_alpha   90.00000000
_cell_angle_beta   90.00000000
_cell_angle_gamma   119.99999799
_symmetry_Int_Tables_number   1
_chemical_formula_structural   CdI2
_chemical_formula_sum   'Cd12 I24'
_cell_volume   1448.95053782
_cell_formula_units_Z   12
loop_
 _symmetry_equiv_pos_site_id
 _symmetry_equiv_pos_as_xyz
  1  'x, y, z'
loop_
 _atom_site_type_symbol
 _atom_site_label
 _atom_site_symmetry_multiplicity
 _atom_site_fract_x
 _atom_site_fract_y
 _atom_site_fract_z
 _atom_site_occupancy
  Cd  Cd0  1  0.333333  0.666667  0.687509  1
  Cd  Cd1  1  0.666667  0.333333  0.020847  1
  Cd  Cd2  1  0.666667  0.333333  0.770817  1
  Cd  Cd3  1  0.333333  0.666667  0.270815  1
  Cd  Cd4  1  0.333333  0.666667  0.604142  1
  Cd  Cd5  1  0.333333  0.666667  0.354183  1
  Cd  Cd6  1  0.333333  0.666667  0.104152  1
  Cd  Cd7  1  0.333333  0.666667  0.854183  1
  Cd  Cd8  1  0.333333  0.666667  0.937473  1
  Cd  Cd9  1  0.333333  0.666667  0.437481  1
  Cd  Cd10  1  0.333333  0.666667  0.520842  1
  Cd  Cd11  1  0.333333  0.666667  0.187508  1
  I  I12  1  0.000000  0.000000  0.168145  1
  I  I13  1  0.666667  0.333333  0.706885  1
  I  I14  1  0.333333  0.666667  0.790201  1
  I  I15  1  0.666667  0.333333  0.456866  1
  I  I16  1  0.000000  0.000000  0.418115  1
  I  I17  1  0.666667  0.333333  0.123534  1
  I  I18  1  0.000000  0.000000  0.251443  1
  I  I19  1  0.000000  0.000000  0.584772  1
  I  I20  1  0.000000  0.000000  0.668145  1
  I  I21  1  0.666667  0.333333  0.623531  1
  I  I22  1  0.666667  0.333333  0.206885  1
  I  I23  1  0.666667  0.333333  0.873555  1
  I  I24  1  0.000000  0.000000  0.918100  1
  I  I25  1  0.000000  0.000000  0.834815  1
  I  I26  1  0.333333  0.666667  0.040223  1
  I  I27  1  0.000000  0.000000  0.501478  1
  I  I28  1  0.000000  0.000000  0.084783  1
  I  I29  1  0.666667  0.333333  0.956862  1
  I  I30  1  0.000000  0.000000  0.334812  1
  I  I31  1  0.666667  0.333333  0.290199  1
  I  I32  1  0.000000  0.000000  0.751446  1
  I  I33  1  0.666667  0.333333  0.540218  1
  I  I34  1  0.666667  0.333333  0.373555  1
  I  I35  1  0.000000  0.000000  0.001479  1
