# generated using pymatgen
data_Y2SiCO7
_symmetry_space_group_name_H-M   'P 1'
_cell_length_a   6.53068902
_cell_length_b   6.64996395
_cell_length_c   6.72525847
_cell_angle_alpha   95.53337040
_cell_angle_beta   116.43363692
_cell_angle_gamma   92.66453105
_symmetry_Int_Tables_number   1
_chemical_formula_structural   Y2SiCO7
_chemical_formula_sum   'Y4 Si2 C2 O14'
_cell_volume   259.00251459
_cell_formula_units_Z   2
loop_
 _symmetry_equiv_pos_site_id
 _symmetry_equiv_pos_as_xyz
  1  'x, y, z'
loop_
 _atom_site_type_symbol
 _atom_site_label
 _atom_site_symmetry_multiplicity
 _atom_site_fract_x
 _atom_site_fract_y
 _atom_site_fract_z
 _atom_site_occupancy
  Y  Y0  1  0.256908  0.667157  0.188972  1
  Y  Y1  1  0.250854  0.913202  0.701484  1
  Y  Y2  1  0.743092  0.332843  0.811028  1
  Y  Y3  1  0.749146  0.086798  0.298516  1
  Si  Si4  1  0.263485  0.157595  0.241724  1
  Si  Si5  1  0.736515  0.842405  0.758276  1
  C  C6  1  0.805742  0.589963  0.265857  1
  C  C7  1  0.194258  0.410037  0.734143  1
  O  O8  1  0.113623  0.034218  0.342076  1
  O  O9  1  0.342754  0.283508  0.750426  1
  O  O10  1  0.265233  0.596060  0.835184  1
  O  O11  1  0.023089  0.646815  0.377145  1
  O  O12  1  0.479153  0.751200  0.562562  1
  O  O13  1  0.667734  0.016799  0.910356  1
  O  O14  1  0.976911  0.353185  0.622855  1
  O  O15  1  0.332266  0.983201  0.089644  1
  O  O16  1  0.127237  0.331746  0.093065  1
  O  O17  1  0.886377  0.965782  0.657924  1
  O  O18  1  0.734767  0.403940  0.164816  1
  O  O19  1  0.872763  0.668254  0.906935  1
  O  O20  1  0.657246  0.716492  0.249574  1
  O  O21  1  0.520847  0.248800  0.437438  1
