# generated using pymatgen
data_Si6O13
_symmetry_space_group_name_H-M   'P 1'
_cell_length_a   13.92908220
_cell_length_b   13.92908259
_cell_length_c   8.62109632
_cell_angle_alpha   90.00000000
_cell_angle_beta   90.00000000
_cell_angle_gamma   119.99999907
_symmetry_Int_Tables_number   1
_chemical_formula_structural   Si6O13
_chemical_formula_sum   'Si24 O52'
_cell_volume   1448.56553470
_cell_formula_units_Z   4
loop_
 _symmetry_equiv_pos_site_id
 _symmetry_equiv_pos_as_xyz
  1  'x, y, z'
loop_
 _atom_site_type_symbol
 _atom_site_label
 _atom_site_symmetry_multiplicity
 _atom_site_fract_x
 _atom_site_fract_y
 _atom_site_fract_z
 _atom_site_occupancy
  O  O0  1  0.579130  0.158259  0.250000  1
  O  O1  1  0.579130  0.158259  0.750000  1
  O  O2  1  0.666515  0.122379  0.000000  1
  O  O3  1  0.544136  0.877621  0.500000  1
  O  O4  1  0.420870  0.579130  0.750000  1
  O  O5  1  0.420870  0.579130  0.250000  1
  O  O6  1  0.634682  0.000000  0.250000  1
  O  O7  1  0.634682  0.000000  0.750000  1
  O  O8  1  0.580495  0.790247  0.250000  1
  O  O9  1  0.790247  0.209753  0.750000  1
  O  O10  1  0.790247  0.209753  0.250000  1
  O  O11  1  0.580495  0.790247  0.750000  1
  O  O12  1  0.544136  0.666515  0.000000  1
  O  O13  1  0.877621  0.333485  0.500000  1
  O  O14  1  0.634682  0.634682  0.250000  1
  O  O15  1  0.000000  0.365318  0.250000  1
  O  O16  1  0.000000  0.365318  0.750000  1
  O  O17  1  0.634682  0.634682  0.750000  1
  O  O18  1  0.158259  0.579130  0.250000  1
  O  O19  1  0.158259  0.579130  0.750000  1
  O  O20  1  0.122379  0.455864  0.000000  1
  O  O21  1  0.666515  0.544136  0.500000  1
  O  O22  1  0.209753  0.419505  0.750000  1
  O  O23  1  0.000000  0.000000  0.571500  1
  O  O24  1  0.790247  0.580495  0.750000  1
  O  O25  1  0.000000  0.000000  0.928500  1
  O  O26  1  0.000000  0.000000  0.071500  1
  O  O27  1  0.209753  0.419505  0.250000  1
  O  O28  1  0.000000  0.000000  0.428500  1
  O  O29  1  0.790247  0.580495  0.250000  1
  O  O30  1  0.333485  0.455864  0.500000  1
  O  O31  1  0.877621  0.544136  0.000000  1
  O  O32  1  0.841741  0.420870  0.250000  1
  O  O33  1  0.841741  0.420870  0.750000  1
  O  O34  1  0.365318  0.365318  0.250000  1
  O  O35  1  1.000000  0.634682  0.250000  1
  O  O36  1  1.000000  0.634682  0.750000  1
  O  O37  1  0.365318  0.365318  0.750000  1
  O  O38  1  0.455864  0.333485  0.000000  1
  O  O39  1  0.122379  0.666515  0.500000  1
  O  O40  1  0.419505  0.209753  0.250000  1
  O  O41  1  0.209753  0.790247  0.750000  1
  O  O42  1  0.209753  0.790247  0.250000  1
  O  O43  1  0.419505  0.209753  0.750000  1
  O  O44  1  0.365318  0.000000  0.250000  1
  O  O45  1  0.365318  0.000000  0.750000  1
  O  O46  1  0.579130  0.420870  0.750000  1
  O  O47  1  0.579130  0.420870  0.250000  1
  O  O48  1  0.455864  0.122379  0.500000  1
  O  O49  1  0.333485  0.877621  0.000000  1
  O  O50  1  0.420870  0.841741  0.250000  1
  O  O51  1  0.420870  0.841741  0.750000  1
  Si  Si52  1  0.544688  0.877485  0.312610  1
  Si  Si53  1  0.544688  0.877485  0.687390  1
  Si  Si54  1  0.667203  0.122515  0.812610  1
  Si  Si55  1  0.667203  0.122515  0.187390  1
  Si  Si56  1  0.877485  0.332797  0.687390  1
  Si  Si57  1  0.544688  0.667203  0.812610  1
  Si  Si58  1  0.544688  0.667203  0.187390  1
  Si  Si59  1  0.877485  0.332797  0.312610  1
  Si  Si60  1  0.122515  0.455312  0.187390  1
  Si  Si61  1  0.122515  0.455312  0.812610  1
  Si  Si62  1  0.667203  0.544688  0.312610  1
  Si  Si63  1  0.667203  0.544688  0.687390  1
  Si  Si64  1  0.332797  0.455312  0.312610  1
  Si  Si65  1  0.332797  0.455312  0.687390  1
  Si  Si66  1  0.877485  0.544688  0.187390  1
  Si  Si67  1  0.877485  0.544688  0.812610  1
  Si  Si68  1  0.122515  0.667203  0.687390  1
  Si  Si69  1  0.455312  0.332797  0.812610  1
  Si  Si70  1  0.455312  0.332797  0.187390  1
  Si  Si71  1  0.122515  0.667203  0.312610  1
  Si  Si72  1  0.332797  0.877485  0.812610  1
  Si  Si73  1  0.332797  0.877485  0.187390  1
  Si  Si74  1  0.455312  0.122515  0.312610  1
  Si  Si75  1  0.455312  0.122515  0.687390  1
