# generated using pymatgen
data_KSb4F13
_symmetry_space_group_name_H-M   'P 1'
_cell_length_a   5.95398483
_cell_length_b   7.82736039
_cell_length_c   7.82736017
_cell_angle_alpha   81.68286404
_cell_angle_beta   67.64577385
_cell_angle_gamma   67.64578016
_symmetry_Int_Tables_number   1
_chemical_formula_structural   KSb4F13
_chemical_formula_sum   'K1 Sb4 F13'
_cell_volume   312.01908569
_cell_formula_units_Z   1
loop_
 _symmetry_equiv_pos_site_id
 _symmetry_equiv_pos_as_xyz
  1  'x, y, z'
loop_
 _atom_site_type_symbol
 _atom_site_label
 _atom_site_symmetry_multiplicity
 _atom_site_fract_x
 _atom_site_fract_y
 _atom_site_fract_z
 _atom_site_occupancy
  K  K0  1  0.500000  0.000000  0.000000  1
  Sb  Sb1  1  0.997593  0.271437  0.733376  1
  Sb  Sb2  1  0.269030  0.733376  0.728563  1
  Sb  Sb3  1  0.730970  0.266624  0.271437  1
  Sb  Sb4  1  0.002407  0.728563  0.266624  1
  F  F5  1  0.441802  0.688431  0.908548  1
  F  F6  1  0.869767  0.091452  0.688431  1
  F  F7  1  0.649650  0.908548  0.311569  1
  F  F8  1  0.038781  0.311569  0.091452  1
  F  F9  1  0.113468  0.310883  0.462180  1
  F  F10  1  0.575648  0.537820  0.310883  1
  F  F11  1  0.558198  0.311569  0.091452  1
  F  F12  1  0.424352  0.462180  0.689117  1
  F  F13  1  0.886532  0.689117  0.537820  1
  F  F14  1  0.130233  0.908548  0.311569  1
  F  F15  1  0.350350  0.091452  0.688431  1
  F  F16  1  0.000000  0.000000  0.000000  1
  F  F17  1  0.961219  0.688431  0.908548  1
