# generated using pymatgen
data_NaMg2H3(SO4)2
_symmetry_space_group_name_H-M   'P 1'
_cell_length_a   6.39511434
_cell_length_b   7.92725464
_cell_length_c   9.01817522
_cell_angle_alpha   97.58167187
_cell_angle_beta   110.69815388
_cell_angle_gamma   113.57000565
_symmetry_Int_Tables_number   1
_chemical_formula_structural   NaMg2H3(SO4)2
_chemical_formula_sum   'Na2 Mg4 H6 S4 O16'
_cell_volume   371.55174742
_cell_formula_units_Z   2
loop_
 _symmetry_equiv_pos_site_id
 _symmetry_equiv_pos_as_xyz
  1  'x, y, z'
loop_
 _atom_site_type_symbol
 _atom_site_label
 _atom_site_symmetry_multiplicity
 _atom_site_fract_x
 _atom_site_fract_y
 _atom_site_fract_z
 _atom_site_occupancy
  Mg  Mg0  1  0.000000  0.000000  0.500000  1
  Mg  Mg1  1  0.500000  0.000000  0.500000  1
  Mg  Mg2  1  0.820418  0.826984  0.812727  1
  Mg  Mg3  1  0.179582  0.173016  0.187273  1
  Na  Na4  1  0.459451  0.830528  0.093986  1
  Na  Na5  1  0.540549  0.169472  0.906014  1
  S  S6  1  0.933944  0.704445  0.162641  1
  S  S7  1  0.066056  0.295555  0.837359  1
  S  S8  1  0.770396  0.253393  0.292342  1
  S  S9  1  0.229604  0.746607  0.707658  1
  O  O10  1  0.819724  0.752707  0.277727  1
  O  O11  1  0.180276  0.247293  0.722273  1
  O  O12  1  0.789578  0.247605  0.721522  1
  O  O13  1  0.210422  0.752395  0.278478  1
  O  O14  1  0.971295  0.864109  0.076761  1
  O  O15  1  0.028705  0.135891  0.923239  1
  O  O16  1  0.728162  0.084534  0.372315  1
  O  O17  1  0.271838  0.915466  0.627685  1
  O  O18  1  0.502035  0.802714  0.832423  1
  O  O19  1  0.497966  0.197286  0.167577  1
  O  O20  1  0.128779  0.796428  0.828884  1
  O  O21  1  0.871221  0.203572  0.171116  1
  O  O22  1  0.714942  0.855145  0.573576  1
  O  O23  1  0.285058  0.144855  0.426424  1
  O  O24  1  0.615278  0.516111  0.714610  1
  O  O25  1  0.384722  0.483889  0.285390  1
  H  H26  1  0.613199  0.718527  0.504321  1
  H  H27  1  0.386801  0.281473  0.495679  1
  H  H28  1  0.708920  0.440417  0.726397  1
  H  H29  1  0.291080  0.559583  0.273603  1
  H  H30  1  0.459518  0.440577  0.727556  1
  H  H31  1  0.540482  0.559423  0.272444  1
