# generated using pymatgen
data_Ba7B4S13
_symmetry_space_group_name_H-M   'P 1'
_cell_length_a   10.28688641
_cell_length_b   10.29667096
_cell_length_c   13.18921924
_cell_angle_alpha   67.02408097
_cell_angle_beta   89.98055226
_cell_angle_gamma   89.95017322
_symmetry_Int_Tables_number   1
_chemical_formula_structural   Ba7B4S13
_chemical_formula_sum   'Ba14 B8 S26'
_cell_volume   1286.18434515
_cell_formula_units_Z   2
loop_
 _symmetry_equiv_pos_site_id
 _symmetry_equiv_pos_as_xyz
  1  'x, y, z'
loop_
 _atom_site_type_symbol
 _atom_site_label
 _atom_site_symmetry_multiplicity
 _atom_site_fract_x
 _atom_site_fract_y
 _atom_site_fract_z
 _atom_site_occupancy
  Ba  Ba0  1  0.750000  0.991553  0.016894  1
  Ba  Ba1  1  0.250000  0.008447  0.983106  1
  Ba  Ba2  1  0.144182  0.895215  0.650825  1
  Ba  Ba3  1  0.250000  0.502356  0.995289  1
  Ba  Ba4  1  0.855818  0.104785  0.349175  1
  Ba  Ba5  1  0.750000  0.497644  0.004711  1
  Ba  Ba6  1  0.470192  0.933969  0.343632  1
  Ba  Ba7  1  0.029808  0.722399  0.343632  1
  Ba  Ba8  1  0.750000  0.668605  0.662790  1
  Ba  Ba9  1  0.529808  0.066031  0.656368  1
  Ba  Ba10  1  0.250000  0.331395  0.337210  1
  Ba  Ba11  1  0.970192  0.277601  0.656368  1
  Ba  Ba12  1  0.644182  0.546040  0.349175  1
  Ba  Ba13  1  0.355818  0.453960  0.650825  1
  B  B14  1  0.849917  0.932167  0.775999  1
  B  B15  1  0.567595  0.283853  0.234299  1
  B  B16  1  0.932405  0.481849  0.234299  1
  B  B17  1  0.432405  0.716147  0.765701  1
  B  B18  1  0.650083  0.291833  0.775999  1
  B  B19  1  0.349917  0.708167  0.224000  1
  B  B20  1  0.067595  0.518151  0.765701  1
  B  B21  1  0.150083  0.067833  0.224000  1
  S  S22  1  0.848005  0.001296  0.622732  1
  S  S23  1  0.651995  0.375973  0.622732  1
  S  S24  1  0.707282  0.835179  0.846276  1
  S  S25  1  0.002055  0.625209  0.835098  1
  S  S26  1  0.151995  0.998704  0.377268  1
  S  S27  1  0.997945  0.374791  0.164902  1
  S  S28  1  0.207282  0.681456  0.153724  1
  S  S29  1  0.250000  0.204175  0.591650  1
  S  S30  1  0.516491  0.176473  0.848002  1
  S  S31  1  0.016491  0.024475  0.151998  1
  S  S32  1  0.352748  0.813063  0.838195  1
  S  S33  1  0.348005  0.624027  0.377268  1
  S  S34  1  0.502055  0.460307  0.164902  1
  S  S35  1  0.792718  0.318544  0.846276  1
  S  S36  1  0.292718  0.164821  0.153724  1
  S  S37  1  0.983509  0.975525  0.848002  1
  S  S38  1  0.147252  0.348742  0.838195  1
  S  S39  1  0.750000  0.795825  0.408349  1
  S  S40  1  0.647252  0.186937  0.161805  1
  S  S41  1  0.438772  0.792090  0.613087  1
  S  S42  1  0.061228  0.594823  0.613087  1
  S  S43  1  0.938772  0.405177  0.386913  1
  S  S44  1  0.483509  0.823527  0.151998  1
  S  S45  1  0.852748  0.651258  0.161805  1
  S  S46  1  0.561228  0.207910  0.386913  1
  S  S47  1  0.497945  0.539693  0.835098  1
