# generated using pymatgen
data_Sr(BrO3)2
_symmetry_space_group_name_H-M   'P 1'
_cell_length_a   7.53669140
_cell_length_b   7.04787361
_cell_length_c   7.04787361
_cell_angle_alpha   113.77420962
_cell_angle_beta   105.80331766
_cell_angle_gamma   105.80331766
_symmetry_Int_Tables_number   1
_chemical_formula_structural   Sr(BrO3)2
_chemical_formula_sum   'Sr2 Br4 O12'
_cell_volume   296.99118058
_cell_formula_units_Z   2
loop_
 _symmetry_equiv_pos_site_id
 _symmetry_equiv_pos_as_xyz
  1  'x, y, z'
loop_
 _atom_site_type_symbol
 _atom_site_label
 _atom_site_symmetry_multiplicity
 _atom_site_fract_x
 _atom_site_fract_y
 _atom_site_fract_z
 _atom_site_occupancy
  Sr  Sr0  1  0.009934  0.632966  0.386033  1
  Sr  Sr1  1  0.509935  0.386033  0.632967  1
  Br  Br2  1  0.972963  0.980178  0.098991  1
  Br  Br3  1  0.556711  0.787678  0.414569  1
  Br  Br4  1  0.056710  0.414568  0.787677  1
  Br  Br5  1  0.472964  0.098992  0.980178  1
  O  O6  1  0.739267  0.783181  0.022571  1
  O  O7  1  0.075815  0.607991  0.039837  1
  O  O8  1  0.602916  0.376867  0.051881  1
  O  O9  1  0.936742  0.209056  0.115639  1
  O  O10  1  0.436743  0.115640  0.209057  1
  O  O11  1  0.102917  0.051882  0.376868  1
  O  O12  1  0.370427  0.591678  0.417494  1
  O  O13  1  0.768922  0.773803  0.552187  1
  O  O14  1  0.870426  0.417493  0.591678  1
  O  O15  1  0.575814  0.039838  0.607992  1
  O  O16  1  0.268922  0.552188  0.773804  1
  O  O17  1  0.239266  0.022572  0.783182  1
