# generated using pymatgen
data_NaBe2BO3F2
_symmetry_space_group_name_H-M   'P 1'
_cell_length_a   7.64204388
_cell_length_b   7.78453734
_cell_length_c   7.78453672
_cell_angle_alpha   68.53467591
_cell_angle_beta   70.89166211
_cell_angle_gamma   70.89165844
_symmetry_Int_Tables_number   1
_chemical_formula_structural   NaBe2BO3F2
_chemical_formula_sum   'Na4 Be8 B4 O12 F8'
_cell_volume   395.72599866
_cell_formula_units_Z   4
loop_
 _symmetry_equiv_pos_site_id
 _symmetry_equiv_pos_as_xyz
  1  'x, y, z'
loop_
 _atom_site_type_symbol
 _atom_site_label
 _atom_site_symmetry_multiplicity
 _atom_site_fract_x
 _atom_site_fract_y
 _atom_site_fract_z
 _atom_site_occupancy
  Na  Na0  1  0.000000  0.184700  0.815300  1
  Na  Na1  1  0.500000  0.338479  0.661521  1
  Na  Na2  1  1.000000  0.596954  0.403046  1
  Na  Na3  1  0.500000  0.740013  0.259987  1
  Be  Be4  1  0.804438  0.351810  0.204602  1
  Be  Be5  1  0.801397  0.911213  0.707415  1
  Be  Be6  1  0.299597  0.642046  0.992179  1
  Be  Be7  1  0.696037  0.568142  0.862761  1
  Be  Be8  1  0.198603  0.292585  0.088787  1
  Be  Be9  1  0.303963  0.137239  0.431858  1
  Be  Be10  1  0.195562  0.795398  0.648190  1
  Be  Be11  1  0.700403  0.007821  0.357954  1
  B  B12  1  0.522288  0.305788  0.124263  1
  B  B13  1  0.985808  0.606402  0.938197  1
  B  B14  1  0.014191  0.061803  0.393598  1
  B  B15  1  0.477712  0.875737  0.694212  1
  O  O16  1  0.863163  0.975327  0.469891  1
  O  O17  1  0.508514  0.481147  0.987973  1
  O  O18  1  0.136837  0.530109  0.024673  1
  O  O19  1  0.164432  0.995965  0.480278  1
  O  O20  1  0.630632  0.800683  0.777921  1
  O  O21  1  0.491486  0.012027  0.518853  1
  O  O22  1  0.369368  0.222079  0.199317  1
  O  O23  1  0.315223  0.807468  0.783461  1
  O  O24  1  0.012408  0.217874  0.236279  1
  O  O25  1  0.835568  0.519722  0.004035  1
  O  O26  1  0.684777  0.216539  0.192532  1
  O  O27  1  0.987592  0.763721  0.782126  1
  F  F28  1  0.194304  0.300261  0.521630  1
  F  F29  1  0.805696  0.478370  0.699739  1
  F  F30  1  0.254231  0.225930  0.909926  1
  F  F31  1  0.690242  0.442565  0.366143  1
  F  F32  1  0.746391  0.841342  0.275291  1
  F  F33  1  0.253609  0.724709  0.158658  1
  F  F34  1  0.309758  0.633857  0.557435  1
  F  F35  1  0.745769  0.090074  0.774070  1
