# generated using pymatgen
data_Na3FeF6
_symmetry_space_group_name_H-M   'P 1'
_cell_length_a   5.57056557
_cell_length_b   5.81611545
_cell_length_c   8.07683925
_cell_angle_alpha   90.00000000
_cell_angle_beta   90.39809264
_cell_angle_gamma   90.00000000
_symmetry_Int_Tables_number   1
_chemical_formula_structural   Na3FeF6
_chemical_formula_sum   'Na6 Fe2 F12'
_cell_volume   261.67562231
_cell_formula_units_Z   2
loop_
 _symmetry_equiv_pos_site_id
 _symmetry_equiv_pos_as_xyz
  1  'x, y, z'
loop_
 _atom_site_type_symbol
 _atom_site_label
 _atom_site_symmetry_multiplicity
 _atom_site_fract_x
 _atom_site_fract_y
 _atom_site_fract_z
 _atom_site_occupancy
  Na  Na0  1  0.233309  0.929649  0.505662  1
  Na  Na1  1  0.766691  0.429649  0.494338  1
  Na  Na2  1  0.267055  0.045919  0.993694  1
  Na  Na3  1  0.732945  0.545919  0.006306  1
  Na  Na4  1  0.250165  0.487941  0.750276  1
  Na  Na5  1  0.749835  0.987941  0.249724  1
  Fe  Fe6  1  0.750535  0.987770  0.749816  1
  Fe  Fe7  1  0.249465  0.487770  0.250184  1
  F  F8  1  0.583365  0.267775  0.823375  1
  F  F9  1  0.416635  0.767775  0.176625  1
  F  F10  1  0.038095  0.164825  0.696907  1
  F  F11  1  0.961905  0.664825  0.303093  1
  F  F12  1  0.869983  0.928652  0.975925  1
  F  F13  1  0.130017  0.428652  0.024075  1
  F  F14  1  0.918152  0.708257  0.675966  1
  F  F15  1  0.081848  0.208257  0.324034  1
  F  F16  1  0.369432  0.546627  0.476179  1
  F  F17  1  0.630568  0.046627  0.523821  1
  F  F18  1  0.536747  0.310586  0.196740  1
  F  F19  1  0.463253  0.810586  0.803260  1
