# generated using pymatgen
data_H10C3IN
_symmetry_space_group_name_H-M   'P 1'
_cell_length_a   5.61962309
_cell_length_b   7.24876906
_cell_length_c   8.44286970
_cell_angle_alpha   90.00000000
_cell_angle_beta   90.00000000
_cell_angle_gamma   104.11623200
_symmetry_Int_Tables_number   1
_chemical_formula_structural   H10C3IN
_chemical_formula_sum   'H20 C6 I2 N2'
_cell_volume   333.53778787
_cell_formula_units_Z   2
loop_
 _symmetry_equiv_pos_site_id
 _symmetry_equiv_pos_as_xyz
  1  'x, y, z'
loop_
 _atom_site_type_symbol
 _atom_site_label
 _atom_site_symmetry_multiplicity
 _atom_site_fract_x
 _atom_site_fract_y
 _atom_site_fract_z
 _atom_site_occupancy
  H  H0  1  0.306354  0.872793  0.107390  1
  H  H1  1  0.173845  0.348009  0.643279  1
  H  H2  1  0.468701  0.217949  -0.000071  1
  H  H3  1  0.413001  0.510646  0.750000  1
  H  H4  1  0.826155  0.651991  0.143279  1
  H  H5  1  0.689031  0.911021  0.250000  1
  H  H6  1  0.531299  0.782051  1.000071  1
  H  H7  1  0.826155  0.651991  0.356721  1
  H  H8  1  0.717251  0.378842  0.899189  1
  H  H9  1  0.717251  0.378842  0.600811  1
  H  H10  1  0.693646  0.127207  0.892610  1
  H  H11  1  0.693646  0.127207  0.607390  1
  H  H12  1  0.586999  0.489354  0.250000  1
  H  H13  1  0.531299  0.782051  0.499929  1
  H  H14  1  0.310969  0.088979  0.750000  1
  H  H15  1  0.282749  0.621158  0.100811  1
  H  H16  1  0.468701  0.217949  0.500071  1
  H  H17  1  0.173845  0.348009  0.856721  1
  H  H18  1  0.306354  0.872793  0.392610  1
  H  H19  1  0.282749  0.621158  0.399189  1
  C  C20  1  0.590329  0.237398  0.603627  1
  C  C21  1  0.288354  0.368336  0.750000  1
  C  C22  1  0.409671  0.762602  0.103627  1
  C  C23  1  0.409671  0.762602  0.396373  1
  C  C24  1  0.711646  0.631664  0.250000  1
  C  C25  1  0.590329  0.237398  0.896373  1
  I  I26  1  0.964856  0.802549  0.750000  1
  I  I27  1  0.035144  0.197451  0.250000  1
  N  N28  1  0.437419  0.223581  0.750000  1
  N  N29  1  0.562581  0.776419  0.250000  1
