# generated using pymatgen
data_NaLi3SiO4
_symmetry_space_group_name_H-M   'P 1'
_cell_length_a   10.01527046
_cell_length_b   10.01527067
_cell_length_c   10.01527047
_cell_angle_alpha   100.70363232
_cell_angle_beta   114.02502077
_cell_angle_gamma   114.02502034
_symmetry_Int_Tables_number   1
_chemical_formula_structural   NaLi3SiO4
_chemical_formula_sum   'Na8 Li24 Si8 O32'
_cell_volume   760.05142311
_cell_formula_units_Z   8
loop_
 _symmetry_equiv_pos_site_id
 _symmetry_equiv_pos_as_xyz
  1  'x, y, z'
loop_
 _atom_site_type_symbol
 _atom_site_label
 _atom_site_symmetry_multiplicity
 _atom_site_fract_x
 _atom_site_fract_y
 _atom_site_fract_z
 _atom_site_occupancy
  Na  Na0  1  0.764069  0.183311  0.890170  1
  Na  Na1  1  0.735931  0.626101  0.419242  1
  Na  Na2  1  0.206859  0.080758  0.316689  1
  Na  Na3  1  0.235931  0.816689  0.109830  1
  Na  Na4  1  0.706859  0.390170  0.126101  1
  Na  Na5  1  0.793141  0.919242  0.683311  1
  Na  Na6  1  0.293141  0.609830  0.873899  1
  Na  Na7  1  0.264069  0.373899  0.580758  1
  Li  Li8  1  0.439968  0.473069  0.093404  1
  Li  Li9  1  0.071442  0.647700  0.535508  1
  Li  Li10  1  0.928558  0.352300  0.464492  1
  Li  Li11  1  0.617136  0.793920  0.179436  1
  Li  Li12  1  0.387808  0.923742  0.852300  1
  Li  Li13  1  0.939968  0.846564  0.966899  1
  Li  Li14  1  0.379665  0.406596  0.346564  1
  Li  Li15  1  0.120335  0.466899  0.026931  1
  Li  Li16  1  0.879665  0.533101  0.973069  1
  Li  Li17  1  0.114484  0.676784  0.293920  1
  Li  Li18  1  0.428558  0.964066  0.576258  1
  Li  Li19  1  0.060032  0.153436  0.033101  1
  Li  Li20  1  0.112192  0.964492  0.535934  1
  Li  Li21  1  0.620335  0.593404  0.653436  1
  Li  Li22  1  0.614484  0.320564  0.437699  1
  Li  Li23  1  0.882864  0.062301  0.176784  1
  Li  Li24  1  0.887808  0.035508  0.464066  1
  Li  Li25  1  0.560032  0.526931  0.906596  1
  Li  Li26  1  0.612192  0.076258  0.147700  1
  Li  Li27  1  0.571442  0.035934  0.423742  1
  Li  Li28  1  0.117136  0.937699  0.823216  1
  Li  Li29  1  0.885516  0.323216  0.706080  1
  Li  Li30  1  0.385516  0.679436  0.562301  1
  Li  Li31  1  0.382864  0.206080  0.820564  1
  Si  Si32  1  0.892700  0.766371  0.236614  1
  Si  Si33  1  0.607300  0.843914  0.873671  1
  Si  Si34  1  0.970243  0.626329  0.733629  1
  Si  Si35  1  0.470243  0.736614  0.343914  1
  Si  Si36  1  0.392700  0.156086  0.126329  1
  Si  Si37  1  0.107300  0.233629  0.763386  1
  Si  Si38  1  0.029757  0.373671  0.266371  1
  Si  Si39  1  0.529757  0.263386  0.656086  1
  O  O40  1  0.658575  0.893324  0.399128  1
  O  O41  1  0.436492  0.125600  0.985013  1
  O  O42  1  0.474613  0.349642  0.222394  1
  O  O43  1  0.859413  0.485013  0.548521  1
  O  O44  1  0.372752  0.624970  0.150358  1
  O  O45  1  0.063508  0.048521  0.689108  1
  O  O46  1  0.682648  0.632280  0.142729  1
  O  O47  1  0.127248  0.277606  0.252219  1
  O  O48  1  0.005803  0.265251  0.606676  1
  O  O49  1  0.525387  0.650358  0.777606  1
  O  O50  1  0.989552  0.449632  0.132280  1
  O  O51  1  0.489552  0.357271  0.539920  1
  O  O52  1  0.317352  0.367720  0.857271  1
  O  O53  1  0.182648  0.039920  0.050368  1
  O  O54  1  0.640587  0.189108  0.625600  1
  O  O55  1  0.025387  0.247781  0.875030  1
  O  O56  1  0.341425  0.106676  0.600873  1
  O  O57  1  0.140587  0.514987  0.451479  1
  O  O58  1  0.974613  0.752219  0.124970  1
  O  O59  1  0.994197  0.734749  0.393324  1
  O  O60  1  0.010448  0.550368  0.867720  1
  O  O61  1  0.872752  0.722394  0.747781  1
  O  O62  1  0.627248  0.375030  0.849642  1
  O  O63  1  0.158575  0.759447  0.765251  1
  O  O64  1  0.841425  0.240553  0.234749  1
  O  O65  1  0.494197  0.100873  0.259447  1
  O  O66  1  0.936492  0.951479  0.310892  1
  O  O67  1  0.505803  0.899127  0.740553  1
  O  O68  1  0.510448  0.642729  0.460080  1
  O  O69  1  0.563508  0.874400  0.014987  1
  O  O70  1  0.817352  0.960080  0.949632  1
  O  O71  1  0.359413  0.810892  0.374400  1
