# generated using pymatgen
data_SrFe2(PO4)2
_symmetry_space_group_name_H-M   'P 1'
_cell_length_a   6.96485373
_cell_length_b   9.52322236
_cell_length_c   10.69826632
_cell_angle_alpha   109.80923186
_cell_angle_beta   90.00000000
_cell_angle_gamma   90.00000000
_symmetry_Int_Tables_number   1
_chemical_formula_structural   SrFe2(PO4)2
_chemical_formula_sum   'Sr4 Fe8 P8 O32'
_cell_volume   667.60368061
_cell_formula_units_Z   4
loop_
 _symmetry_equiv_pos_site_id
 _symmetry_equiv_pos_as_xyz
  1  'x, y, z'
loop_
 _atom_site_type_symbol
 _atom_site_label
 _atom_site_symmetry_multiplicity
 _atom_site_fract_x
 _atom_site_fract_y
 _atom_site_fract_z
 _atom_site_occupancy
  Sr  Sr0  1  0.879768  0.694976  0.982459  1
  Sr  Sr1  1  0.379768  0.305024  0.517541  1
  Sr  Sr2  1  0.120232  0.305024  0.017541  1
  Sr  Sr3  1  0.620232  0.694976  0.482459  1
  Fe  Fe4  1  0.349161  0.920353  0.882223  1
  Fe  Fe5  1  0.849161  0.079647  0.617777  1
  Fe  Fe6  1  0.650839  0.079647  0.117777  1
  Fe  Fe7  1  0.150839  0.920353  0.382223  1
  Fe  Fe8  1  0.107227  0.712743  0.667238  1
  Fe  Fe9  1  0.607227  0.287257  0.832762  1
  Fe  Fe10  1  0.892773  0.287257  0.332762  1
  Fe  Fe11  1  0.392773  0.712743  0.167238  1
  P  P12  1  0.825635  0.964883  0.827480  1
  P  P13  1  0.325635  0.035117  0.672520  1
  P  P14  1  0.174365  0.035117  0.172520  1
  P  P15  1  0.674365  0.964883  0.327480  1
  P  P16  1  0.145633  0.577673  0.380433  1
  P  P17  1  0.645633  0.422327  0.119567  1
  P  P18  1  0.854367  0.422327  0.619567  1
  P  P19  1  0.354367  0.577673  0.880433  1
  O  O20  1  0.786818  0.893417  0.675928  1
  O  O21  1  0.286818  0.106583  0.824072  1
  O  O22  1  0.213182  0.106583  0.324072  1
  O  O23  1  0.713182  0.893417  0.175928  1
  O  O24  1  0.007416  0.888565  0.859155  1
  O  O25  1  0.507416  0.111435  0.640845  1
  O  O26  1  0.992584  0.111435  0.140845  1
  O  O27  1  0.492584  0.888565  0.359155  1
  O  O28  1  0.346505  0.864134  0.644255  1
  O  O29  1  0.846505  0.135866  0.855745  1
  O  O30  1  0.653495  0.135866  0.355745  1
  O  O31  1  0.153495  0.864134  0.144255  1
  O  O32  1  0.656255  0.938408  0.913820  1
  O  O33  1  0.156255  0.061592  0.586180  1
  O  O34  1  0.343745  0.061592  0.086180  1
  O  O35  1  0.843745  0.938408  0.413820  1
  O  O36  1  0.919814  0.568596  0.725987  1
  O  O37  1  0.419814  0.431404  0.774013  1
  O  O38  1  0.080186  0.431404  0.274013  1
  O  O39  1  0.580186  0.568596  0.225987  1
  O  O40  1  0.315083  0.550535  0.463139  1
  O  O41  1  0.815083  0.449465  0.036861  1
  O  O42  1  0.684917  0.449465  0.536861  1
  O  O43  1  0.184917  0.550535  0.963139  1
  O  O44  1  0.984544  0.654893  0.481840  1
  O  O45  1  0.484544  0.345107  0.018160  1
  O  O46  1  0.015456  0.345107  0.518160  1
  O  O47  1  0.515456  0.654893  0.981840  1
  O  O48  1  0.302882  0.693250  0.809522  1
  O  O49  1  0.802882  0.306750  0.690478  1
  O  O50  1  0.697118  0.306750  0.190478  1
  O  O51  1  0.197118  0.693250  0.309522  1
