# generated using pymatgen
data_ZnS
_symmetry_space_group_name_H-M   'P 1'
_cell_length_a   3.85249373
_cell_length_b   3.85249370
_cell_length_c   81.91609656
_cell_angle_alpha   90.00000000
_cell_angle_beta   90.00000000
_cell_angle_gamma   120.00000035
_symmetry_Int_Tables_number   1
_chemical_formula_structural   ZnS
_chemical_formula_sum   'Zn26 S26'
_cell_volume   1052.89183335
_cell_formula_units_Z   26
loop_
 _symmetry_equiv_pos_site_id
 _symmetry_equiv_pos_as_xyz
  1  'x, y, z'
loop_
 _atom_site_type_symbol
 _atom_site_label
 _atom_site_symmetry_multiplicity
 _atom_site_fract_x
 _atom_site_fract_y
 _atom_site_fract_z
 _atom_site_occupancy
  Zn  Zn0  1  0.666667  0.333333  0.692517  1
  Zn  Zn1  1  0.000000  0.000000  0.115231  1
  Zn  Zn2  1  0.666667  0.333333  0.461836  1
  Zn  Zn3  1  0.333333  0.666667  0.769246  1
  Zn  Zn4  1  0.333333  0.666667  0.654116  1
  Zn  Zn5  1  0.000000  0.000000  0.230682  1
  Zn  Zn6  1  0.666667  0.333333  0.961282  1
  Zn  Zn7  1  0.333333  0.666667  0.884473  1
  Zn  Zn8  1  0.333333  0.666667  0.038204  1
  Zn  Zn9  1  0.666667  0.333333  0.192212  1
  Zn  Zn10  1  0.000000  0.000000  0.807677  1
  Zn  Zn11  1  0.000000  0.000000  0.730845  1
  Zn  Zn12  1  0.666667  0.333333  0.076710  1
  Zn  Zn13  1  0.333333  0.666667  0.423264  1
  Zn  Zn14  1  0.666667  0.333333  0.846074  1
  Zn  Zn15  1  0.000000  0.000000  0.577281  1
  Zn  Zn16  1  0.333333  0.666667  0.538810  1
  Zn  Zn17  1  0.000000  0.000000  -0.000255  1
  Zn  Zn18  1  0.333333  0.666667  0.307598  1
  Zn  Zn19  1  0.333333  0.666667  0.153744  1
  Zn  Zn20  1  0.666667  0.333333  0.269153  1
  Zn  Zn21  1  0.000000  0.000000  0.922851  1
  Zn  Zn22  1  0.666667  0.333333  0.615675  1
  Zn  Zn23  1  0.000000  0.000000  0.500310  1
  Zn  Zn24  1  0.666667  0.333333  0.384667  1
  Zn  Zn25  1  0.000000  0.000000  0.346123  1
  S  S26  1  0.000000  0.000000  0.028554  1
  S  S27  1  0.000000  0.000000  0.759615  1
  S  S28  1  0.333333  0.666667  0.682943  1
  S  S29  1  0.333333  0.666667  0.336441  1
  S  S30  1  0.666667  0.333333  0.221018  1
  S  S31  1  0.333333  0.666667  0.798073  1
  S  S32  1  0.666667  0.333333  0.721277  1
  S  S33  1  0.000000  0.000000  0.606067  1
  S  S34  1  0.333333  0.666667  0.067044  1
  S  S35  1  0.333333  0.666667  0.913260  1
  S  S36  1  0.333333  0.666667  0.452162  1
  S  S37  1  0.666667  0.333333  0.105554  1
  S  S38  1  0.666667  0.333333  0.874877  1
  S  S39  1  0.666667  0.333333  0.297959  1
  S  S40  1  0.000000  0.000000  0.951636  1
  S  S41  1  0.666667  0.333333  0.490662  1
  S  S42  1  0.666667  0.333333  0.990123  1
  S  S43  1  0.333333  0.666667  0.182574  1
  S  S44  1  0.000000  0.000000  0.836464  1
  S  S45  1  0.000000  0.000000  0.259532  1
  S  S46  1  0.666667  0.333333  0.413524  1
  S  S47  1  0.000000  0.000000  0.144074  1
  S  S48  1  0.000000  0.000000  0.529126  1
  S  S49  1  0.333333  0.666667  0.567666  1
  S  S50  1  0.000000  0.000000  0.374982  1
  S  S51  1  0.666667  0.333333  0.644467  1
