# generated using pymatgen
data_Cs3Nd(PS4)2
_symmetry_space_group_name_H-M   'P 1'
_cell_length_a   7.04320393
_cell_length_b   15.69994392
_cell_length_c   15.84987916
_cell_angle_alpha   99.48106068
_cell_angle_beta   90.00000000
_cell_angle_gamma   90.00000000
_symmetry_Int_Tables_number   1
_chemical_formula_structural   Cs3Nd(PS4)2
_chemical_formula_sum   'Cs12 Nd4 P8 S32'
_cell_volume   1728.70549219
_cell_formula_units_Z   4
loop_
 _symmetry_equiv_pos_site_id
 _symmetry_equiv_pos_as_xyz
  1  'x, y, z'
loop_
 _atom_site_type_symbol
 _atom_site_label
 _atom_site_symmetry_multiplicity
 _atom_site_fract_x
 _atom_site_fract_y
 _atom_site_fract_z
 _atom_site_occupancy
  Cs  Cs0  1  0.757544  0.776387  0.121778  1
  Cs  Cs1  1  0.752392  0.952815  0.386842  1
  Cs  Cs2  1  0.744649  0.109183  0.025641  1
  Cs  Cs3  1  0.255351  0.890817  0.974359  1
  Cs  Cs4  1  0.244649  0.390817  0.474359  1
  Cs  Cs5  1  0.257544  0.723613  0.378222  1
  Cs  Cs6  1  0.742456  0.276387  0.621778  1
  Cs  Cs7  1  0.755351  0.609183  0.525641  1
  Cs  Cs8  1  0.747608  0.452815  0.886842  1
  Cs  Cs9  1  0.252392  0.547185  0.113158  1
  Cs  Cs10  1  0.247608  0.047185  0.613158  1
  Cs  Cs11  1  0.242456  0.223613  0.878222  1
  Nd  Nd12  1  0.231193  0.122760  0.270335  1
  Nd  Nd13  1  0.731193  0.377240  0.229665  1
  Nd  Nd14  1  0.768807  0.877240  0.729665  1
  Nd  Nd15  1  0.268807  0.622760  0.770335  1
  P  P16  1  0.254394  0.916987  0.223082  1
  P  P17  1  0.225899  0.782980  0.629814  1
  P  P18  1  0.245606  0.416987  0.723082  1
  P  P19  1  0.774101  0.217020  0.370186  1
  P  P20  1  0.725899  0.717020  0.870186  1
  P  P21  1  0.754394  0.583013  0.276918  1
  P  P22  1  0.745606  0.083013  0.776918  1
  P  P23  1  0.274101  0.282980  0.129814  1
  S  S24  1  0.260462  0.789628  0.174515  1
  S  S25  1  0.250663  0.651658  0.593541  1
  S  S26  1  0.032768  0.342786  0.096692  1
  S  S27  1  0.967232  0.657214  0.903308  1
  S  S28  1  0.014326  0.975842  0.183220  1
  S  S29  1  0.485777  0.982069  0.185508  1
  S  S30  1  0.504495  0.330860  0.072787  1
  S  S31  1  0.163672  0.803012  0.759080  1
  S  S32  1  0.750021  0.049784  0.645617  1
  S  S33  1  0.249979  0.950216  0.354383  1
  S  S34  1  0.004495  0.169140  0.427213  1
  S  S35  1  0.250021  0.450216  0.854383  1
  S  S36  1  0.749337  0.348342  0.406459  1
  S  S37  1  0.249337  0.151658  0.093541  1
  S  S38  1  0.995505  0.830860  0.572787  1
  S  S39  1  0.985777  0.517931  0.314492  1
  S  S40  1  0.239538  0.289628  0.674515  1
  S  S41  1  0.532768  0.157214  0.403308  1
  S  S42  1  0.750663  0.848342  0.906459  1
  S  S43  1  0.485674  0.475842  0.683220  1
  S  S44  1  0.749979  0.549784  0.145617  1
  S  S45  1  0.014223  0.482069  0.685508  1
  S  S46  1  0.467232  0.842786  0.596692  1
  S  S47  1  0.760462  0.710372  0.325485  1
  S  S48  1  0.514326  0.524158  0.316780  1
  S  S49  1  0.336328  0.303012  0.259080  1
  S  S50  1  0.836328  0.196988  0.240920  1
  S  S51  1  0.985674  0.024158  0.816780  1
  S  S52  1  0.739538  0.210372  0.825485  1
  S  S53  1  0.663672  0.696988  0.740920  1
  S  S54  1  0.495505  0.669140  0.927213  1
  S  S55  1  0.514223  0.017931  0.814492  1
