# generated using pymatgen
data_Mg7Al22O40
_symmetry_space_group_name_H-M   'P 1'
_cell_length_a   5.73201520
_cell_length_b   5.73788270
_cell_length_c   28.69275008
_cell_angle_alpha   60.00577079
_cell_angle_beta   59.83109193
_cell_angle_gamma   59.96110207
_symmetry_Int_Tables_number   1
_chemical_formula_structural   Mg7Al22O40
_chemical_formula_sum   'Mg7 Al22 O40'
_cell_volume   666.26974312
_cell_formula_units_Z   1
loop_
 _symmetry_equiv_pos_site_id
 _symmetry_equiv_pos_as_xyz
  1  'x, y, z'
loop_
 _atom_site_type_symbol
 _atom_site_label
 _atom_site_symmetry_multiplicity
 _atom_site_fract_x
 _atom_site_fract_y
 _atom_site_fract_z
 _atom_site_occupancy
  Al  Al0  1  0.122343  0.114452  0.029742  1
  Al  Al1  1  0.159358  0.118231  0.220834  1
  Al  Al2  1  0.458349  0.501008  0.007928  1
  Al  Al3  1  0.497487  0.499274  0.101329  1
  Al  Al4  1  0.543646  0.491741  0.194538  1
  Al  Al5  1  0.148846  0.124172  0.420564  1
  Al  Al6  1  0.497318  0.996719  0.101314  1
  Al  Al7  1  0.512089  0.504428  0.297609  1
  Al  Al8  1  0.511961  0.995401  0.297621  1
  Al  Al9  1  0.866409  0.886330  0.172234  1
  Al  Al10  1  0.513237  0.505347  0.395197  1
  Al  Al11  1  0.504076  0.504498  0.499387  1
  Al  Al12  1  0.496542  0.502779  0.599557  1
  Al  Al13  1  0.504055  0.994392  0.499392  1
  Al  Al14  1  0.496240  0.498512  0.700910  1
  Al  Al15  1  0.494299  0.499477  0.801385  1
  Al  Al16  1  0.496250  0.000776  0.700916  1
  Al  Al17  1  0.996354  0.498564  0.701321  1
  Al  Al18  1  0.489914  0.495283  0.902973  1
  Al  Al19  1  0.489932  -0.000077  0.902976  1
  Al  Al20  1  0.991009  0.495949  0.903419  1
  Al  Al21  1  0.850618  0.873633  0.980436  1
  Mg  Mg22  1  0.134358  0.129623  0.621276  1
  Mg  Mg23  1  0.011805  0.503927  0.296066  1
  Mg  Mg24  1  0.119596  0.122591  0.827064  1
  Mg  Mg25  1  0.870635  0.880689  0.373570  1
  Mg  Mg26  1  0.998670  0.504072  0.498625  1
  Mg  Mg27  1  0.862632  0.878330  0.576121  1
  Mg  Mg28  1  0.869058  0.873674  0.776754  1
  O  O29  1  0.280072  0.239050  0.048267  1
  O  O30  1  0.285690  0.244422  0.145087  1
  O  O31  1  0.280124  0.739530  0.048274  1
  O  O32  1  0.728552  0.260660  0.050019  1
  O  O33  1  0.289379  0.247525  0.247287  1
  O  O34  1  0.268243  0.745356  0.148217  1
  O  O35  1  0.714804  0.756723  0.054369  1
  O  O36  1  0.284598  0.251597  0.342443  1
  O  O37  1  0.289454  0.726562  0.247277  1
  O  O38  1  0.726983  0.266700  0.148941  1
  O  O39  1  0.726912  0.761686  0.148951  1
  O  O40  1  0.753564  0.253384  0.247912  1
  O  O41  1  0.279777  0.255007  0.445617  1
  O  O42  1  0.293521  0.745228  0.343192  1
  O  O43  1  0.730830  0.293838  0.344826  1
  O  O44  1  0.279752  0.737079  0.445618  1
  O  O45  1  0.289706  0.261565  0.537426  1
  O  O46  1  0.743495  0.755588  0.249051  1
  O  O47  1  0.751346  0.258339  0.446377  1
  O  O48  1  0.730763  0.751141  0.344832  1
  O  O49  1  0.254059  0.260161  0.655375  1
  O  O50  1  0.277771  0.741728  0.547745  1
  O  O51  1  0.258178  0.259648  0.744530  1
  O  O52  1  0.713476  0.287307  0.550522  1
  O  O53  1  0.720301  0.748962  0.456331  1
  O  O54  1  0.254037  0.708929  0.655381  1
  O  O55  1  0.713436  0.746530  0.550530  1
  O  O56  1  0.708972  0.259612  0.654366  1
  O  O57  1  0.252795  0.258134  0.857371  1
  O  O58  1  0.282189  0.731404  0.751033  1
  O  O59  1  0.252750  0.702283  0.857375  1
  O  O60  1  0.727585  0.286113  0.751004  1
  O  O61  1  0.729857  0.733009  0.660834  1
  O  O62  1  0.244384  0.253480  0.949734  1
  O  O63  1  0.697768  0.258442  0.857071  1
  O  O64  1  0.727569  0.731443  0.751008  1
  O  O65  1  0.255330  0.742563  0.951918  1
  O  O66  1  0.736876  0.271089  0.949748  1
  O  O67  1  0.721115  0.731066  0.863344  1
  O  O68  1  0.736903  0.743322  0.949744  1
