# generated using pymatgen
data_SbCl5
_symmetry_space_group_name_H-M   'P 1'
_cell_length_a   10.13838088
_cell_length_b   12.93487222
_cell_length_c   13.44428283
_cell_angle_alpha   90.00000000
_cell_angle_beta   109.17105811
_cell_angle_gamma   90.00000000
_symmetry_Int_Tables_number   1
_chemical_formula_structural   SbCl5
_chemical_formula_sum   'Sb8 Cl40'
_cell_volume   1665.28983210
_cell_formula_units_Z   8
loop_
 _symmetry_equiv_pos_site_id
 _symmetry_equiv_pos_as_xyz
  1  'x, y, z'
loop_
 _atom_site_type_symbol
 _atom_site_label
 _atom_site_symmetry_multiplicity
 _atom_site_fract_x
 _atom_site_fract_y
 _atom_site_fract_z
 _atom_site_occupancy
  Sb  Sb0  1  0.193936  0.127188  0.704544  1
  Sb  Sb1  1  0.383914  0.869184  0.189028  1
  Sb  Sb2  1  0.806064  0.627188  0.795456  1
  Sb  Sb3  1  0.616086  0.369184  0.310972  1
  Sb  Sb4  1  0.616086  0.130816  0.810972  1
  Sb  Sb5  1  0.193936  0.372812  0.204544  1
  Sb  Sb6  1  0.383914  0.630816  0.689028  1
  Sb  Sb7  1  0.806064  0.872812  0.295456  1
  Cl  Cl8  1  0.957040  0.990924  0.256241  1
  Cl  Cl9  1  0.598528  0.473946  0.163634  1
  Cl  Cl10  1  0.401472  0.526054  0.836366  1
  Cl  Cl11  1  0.780804  0.524807  0.932712  1
  Cl  Cl12  1  0.772904  0.482647  0.427575  1
  Cl  Cl13  1  0.230939  0.752931  0.228157  1
  Cl  Cl14  1  0.593837  0.265582  0.448815  1
  Cl  Cl15  1  0.963951  0.760197  0.411702  1
  Cl  Cl16  1  0.407424  0.477249  0.329869  1
  Cl  Cl17  1  0.592576  0.977249  0.170131  1
  Cl  Cl18  1  0.401472  0.973946  0.336366  1
  Cl  Cl19  1  0.219196  0.475193  0.067288  1
  Cl  Cl20  1  0.769061  0.247069  0.771843  1
  Cl  Cl21  1  0.230939  0.747069  0.728157  1
  Cl  Cl22  1  0.219196  0.024807  0.567288  1
  Cl  Cl23  1  0.963951  0.739803  0.911702  1
  Cl  Cl24  1  0.769061  0.252931  0.271843  1
  Cl  Cl25  1  0.211544  0.231254  0.852144  1
  Cl  Cl26  1  0.595601  0.763895  0.313232  1
  Cl  Cl27  1  0.042960  0.009076  0.743759  1
  Cl  Cl28  1  0.780804  0.975193  0.432712  1
  Cl  Cl29  1  0.788456  0.731254  0.647856  1
  Cl  Cl30  1  0.036049  0.260197  0.088298  1
  Cl  Cl31  1  0.042960  0.490924  0.243759  1
  Cl  Cl32  1  0.404399  0.263895  0.186768  1
  Cl  Cl33  1  0.772904  0.017353  0.927575  1
  Cl  Cl34  1  0.598528  0.026054  0.663634  1
  Cl  Cl35  1  0.406163  0.765582  0.051185  1
  Cl  Cl36  1  0.036049  0.239803  0.588298  1
  Cl  Cl37  1  0.595601  0.736105  0.813232  1
  Cl  Cl38  1  0.592576  0.522751  0.670131  1
  Cl  Cl39  1  0.227096  0.517353  0.572425  1
  Cl  Cl40  1  0.404399  0.236105  0.686768  1
  Cl  Cl41  1  0.407424  0.022751  0.829869  1
  Cl  Cl42  1  0.593837  0.234418  0.948815  1
  Cl  Cl43  1  0.957040  0.509076  0.756241  1
  Cl  Cl44  1  0.788456  0.768746  0.147856  1
  Cl  Cl45  1  0.211544  0.268746  0.352144  1
  Cl  Cl46  1  0.227096  0.982647  0.072425  1
  Cl  Cl47  1  0.406163  0.734418  0.551185  1
