# generated using pymatgen
data_Ca2Mg5Si8(O11F)2
_symmetry_space_group_name_H-M   'P 1'
_cell_length_a   5.32796318
_cell_length_b   9.93591980
_cell_length_c   10.37304346
_cell_angle_alpha   61.38447143
_cell_angle_beta   83.13018361
_cell_angle_gamma   75.53715245
_symmetry_Int_Tables_number   1
_chemical_formula_structural   Ca2Mg5Si8(O11F)2
_chemical_formula_sum   'Ca2 Mg5 Si8 O22 F2'
_cell_volume   466.77943398
_cell_formula_units_Z   1
loop_
 _symmetry_equiv_pos_site_id
 _symmetry_equiv_pos_as_xyz
  1  'x, y, z'
loop_
 _atom_site_type_symbol
 _atom_site_label
 _atom_site_symmetry_multiplicity
 _atom_site_fract_x
 _atom_site_fract_y
 _atom_site_fract_z
 _atom_site_occupancy
  Ca  Ca0  1  0.500000  0.277590  0.444821  1
  Ca  Ca1  1  0.500000  0.722410  0.555179  1
  Mg  Mg2  1  0.500000  0.088458  0.823085  1
  Mg  Mg3  1  0.000000  0.000000  0.000000  1
  Mg  Mg4  1  0.500000  0.911542  0.176915  1
  Mg  Mg5  1  0.000000  0.823266  0.353468  1
  Mg  Mg6  1  1.000000  0.176734  0.646532  1
  Si  Si7  1  0.704264  0.197861  0.167129  1
  Si  Si8  1  0.196732  0.459541  0.658533  1
  Si  Si9  1  0.295736  0.635011  0.167129  1
  Si  Si10  1  0.196732  0.118074  0.341467  1
  Si  Si11  1  0.295736  0.802139  0.832871  1
  Si  Si12  1  0.803268  0.540459  0.341467  1
  Si  Si13  1  0.803268  0.881926  0.658533  1
  Si  Si14  1  0.704264  0.364989  0.832871  1
  O  O15  1  0.098664  0.518873  0.269033  1
  O  O16  1  0.217611  0.802907  0.169749  1
  O  O17  1  0.585556  0.774888  0.761143  1
  O  O18  1  0.414444  0.225112  0.238857  1
  O  O19  1  0.275889  0.288733  0.660010  1
  O  O20  1  0.275889  0.948743  0.339990  1
  O  O21  1  0.707428  0.339975  1.000000  1
  O  O22  1  0.414444  0.463969  0.761143  1
  O  O23  1  0.782389  0.027344  0.169749  1
  O  O24  1  0.792265  0.882310  0.504123  1
  O  O25  1  0.782389  0.197093  0.830251  1
  O  O26  1  0.901336  0.481127  0.730967  1
  O  O27  1  0.207735  0.117690  0.495877  1
  O  O28  1  0.217611  0.972656  0.830251  1
  O  O29  1  0.724111  0.711267  0.339990  1
  O  O30  1  0.792265  0.386433  0.495877  1
  O  O31  1  0.724111  0.051257  0.660010  1
  O  O32  1  0.901336  0.212094  0.269033  1
  O  O33  1  0.292572  0.660025  0.000000  1
  O  O34  1  0.207735  0.613567  0.504123  1
  O  O35  1  0.098664  0.787906  0.730967  1
  O  O36  1  0.585556  0.536031  0.238857  1
  F  F37  1  0.711653  0.898828  0.000000  1
  F  F38  1  0.288347  0.101172  1.000000  1
