# generated using pymatgen
data_PNF2
_symmetry_space_group_name_H-M   'P 1'
_cell_length_a   5.21061405
_cell_length_b   7.54315572
_cell_length_c   14.19437062
_cell_angle_alpha   90.00000000
_cell_angle_beta   90.00000000
_cell_angle_gamma   109.04924394
_symmetry_Int_Tables_number   1
_chemical_formula_structural   PNF2
_chemical_formula_sum   'P8 N8 F16'
_cell_volume   527.35064516
_cell_formula_units_Z   8
loop_
 _symmetry_equiv_pos_site_id
 _symmetry_equiv_pos_as_xyz
  1  'x, y, z'
loop_
 _atom_site_type_symbol
 _atom_site_label
 _atom_site_symmetry_multiplicity
 _atom_site_fract_x
 _atom_site_fract_y
 _atom_site_fract_z
 _atom_site_occupancy
  P  P0  1  0.075878  0.689018  0.613219  1
  P  P1  1  0.687252  0.807233  0.922761  1
  P  P2  1  0.924122  0.310982  0.386781  1
  P  P3  1  0.075878  0.189018  0.886781  1
  P  P4  1  0.312748  0.692767  0.422761  1
  P  P5  1  0.312748  0.192767  0.077239  1
  P  P6  1  0.687252  0.307233  0.577239  1
  P  P7  1  0.924122  0.810982  0.113219  1
  N  N8  1  0.160741  0.499659  0.377376  1
  N  N9  1  0.839259  0.000341  0.877376  1
  N  N10  1  0.253171  0.251144  0.976754  1
  N  N11  1  0.160741  0.999659  0.122624  1
  N  N12  1  0.839259  0.500341  0.622624  1
  N  N13  1  0.746829  0.748856  0.023246  1
  N  N14  1  0.253171  0.751144  0.523246  1
  N  N15  1  0.746829  0.248856  0.476754  1
  F  F16  1  0.623973  0.720615  0.417611  1
  F  F17  1  0.623973  0.220615  0.082389  1
  F  F18  1  0.728519  0.294850  0.301576  1
  F  F19  1  0.271481  0.205150  0.801576  1
  F  F20  1  0.303729  0.349738  0.147273  1
  F  F21  1  0.728519  0.794850  0.198424  1
  F  F22  1  0.376027  0.279385  0.582389  1
  F  F23  1  0.961084  0.849407  0.638911  1
  F  F24  1  0.038916  0.150593  0.361089  1
  F  F25  1  0.696271  0.150262  0.647273  1
  F  F26  1  0.271481  0.705150  0.698424  1
  F  F27  1  0.961084  0.349407  0.861089  1
  F  F28  1  0.038916  0.650593  0.138911  1
  F  F29  1  0.303729  0.849738  0.352727  1
  F  F30  1  0.696271  0.650262  0.852727  1
  F  F31  1  0.376027  0.779385  0.917611  1
