# generated using pymatgen
data_CuH10C2(NO)8
_symmetry_space_group_name_H-M   'P 1'
_cell_length_a   7.00678134
_cell_length_b   7.80796668
_cell_length_c   10.62306222
_cell_angle_alpha   90.00000000
_cell_angle_beta   106.63801066
_cell_angle_gamma   90.00000000
_symmetry_Int_Tables_number   1
_chemical_formula_structural   CuH10C2(NO)8
_chemical_formula_sum   'Cu2 H20 C4 N16 O16'
_cell_volume   556.84197479
_cell_formula_units_Z   2
loop_
 _symmetry_equiv_pos_site_id
 _symmetry_equiv_pos_as_xyz
  1  'x, y, z'
loop_
 _atom_site_type_symbol
 _atom_site_label
 _atom_site_symmetry_multiplicity
 _atom_site_fract_x
 _atom_site_fract_y
 _atom_site_fract_z
 _atom_site_occupancy
  Cu  Cu0  1  0.000000  0.000000  0.000000  1
  Cu  Cu1  1  0.000000  0.500000  0.500000  1
  H  H2  1  0.670060  0.341696  0.718254  1
  H  H3  1  0.544045  0.768478  0.480909  1
  H  H4  1  0.436556  0.964455  0.680118  1
  H  H5  1  0.329940  0.658304  0.281746  1
  H  H6  1  0.563444  0.464455  0.819882  1
  H  H7  1  0.670060  0.158304  0.218254  1
  H  H8  1  0.889575  0.788083  0.586984  1
  H  H9  1  0.455955  0.268478  0.019091  1
  H  H10  1  0.889575  0.711917  0.086984  1
  H  H11  1  0.329940  0.841696  0.781746  1
  H  H12  1  0.544045  0.731522  0.980909  1
  H  H13  1  0.436556  0.535545  0.180118  1
  H  H14  1  0.180632  0.116578  0.842354  1
  H  H15  1  0.180632  0.383422  0.342354  1
  H  H16  1  0.563444  0.035545  0.319882  1
  H  H17  1  0.819368  0.883422  0.157646  1
  H  H18  1  0.455955  0.231522  0.519091  1
  H  H19  1  0.819368  0.616578  0.657646  1
  H  H20  1  0.110425  0.288083  0.913016  1
  H  H21  1  0.110425  0.211917  0.413016  1
  C  C22  1  0.619250  0.577883  0.364802  1
  C  C23  1  0.380750  0.077883  0.135198  1
  C  C24  1  0.619250  0.922117  0.864802  1
  C  C25  1  0.380750  0.422117  0.635198  1
  N  N26  1  0.145713  0.885688  0.392761  1
  N  N27  1  0.359122  0.170883  0.023935  1
  N  N28  1  0.830514  0.664855  0.569728  1
  N  N29  1  0.830514  0.835145  0.069728  1
  N  N30  1  0.169486  0.164855  0.930272  1
  N  N31  1  0.447437  0.589336  0.269017  1
  N  N32  1  0.447437  0.910664  0.769017  1
  N  N33  1  0.640878  0.829117  0.976065  1
  N  N34  1  0.145713  0.614312  0.892761  1
  N  N35  1  0.854287  0.385688  0.107239  1
  N  N36  1  0.640878  0.670883  0.476065  1
  N  N37  1  0.854287  0.114312  0.607239  1
  N  N38  1  0.169486  0.335145  0.430272  1
  N  N39  1  0.552563  0.410664  0.730983  1
  N  N40  1  0.359122  0.329117  0.523935  1
  N  N41  1  0.552563  0.089336  0.230983  1
  O  O42  1  0.880917  0.229980  0.143129  1
  O  O43  1  0.119083  0.770020  0.856871  1
  O  O44  1  -0.001050  0.011078  0.636744  1
  O  O45  1  1.001050  0.988922  0.363256  1
  O  O46  1  0.240575  0.979188  0.146425  1
  O  O47  1  0.759425  0.020812  0.853575  1
  O  O48  1  0.318416  0.563090  0.957171  1
  O  O49  1  0.681584  0.063090  0.542829  1
  O  O50  1  0.119083  0.729980  0.356871  1
  O  O51  1  0.681584  0.436910  0.042829  1
  O  O52  1  0.880917  0.270020  0.643129  1
  O  O53  1  1.001050  0.511078  0.863256  1
  O  O54  1  -0.001050  0.488922  0.136744  1
  O  O55  1  0.240575  0.520812  0.646425  1
  O  O56  1  0.318416  0.936910  0.457171  1
  O  O57  1  0.759425  0.479188  0.353575  1
