# generated using pymatgen
data_CsBC3NO2F9
_symmetry_space_group_name_H-M   'P 1'
_cell_length_a   6.53143980
_cell_length_b   7.91308254
_cell_length_c   9.90901533
_cell_angle_alpha   91.58531549
_cell_angle_beta   97.23224879
_cell_angle_gamma   91.72357955
_symmetry_Int_Tables_number   1
_chemical_formula_structural   CsBC3NO2F9
_chemical_formula_sum   'Cs2 B2 C6 N2 O4 F18'
_cell_volume   507.57585125
_cell_formula_units_Z   2
loop_
 _symmetry_equiv_pos_site_id
 _symmetry_equiv_pos_as_xyz
  1  'x, y, z'
loop_
 _atom_site_type_symbol
 _atom_site_label
 _atom_site_symmetry_multiplicity
 _atom_site_fract_x
 _atom_site_fract_y
 _atom_site_fract_z
 _atom_site_occupancy
  Cs  Cs0  1  0.990326  0.263915  0.804631  1
  Cs  Cs1  1  0.009674  0.736085  0.195369  1
  B  B2  1  0.617628  0.235868  0.255312  1
  B  B3  1  0.382372  0.764132  0.744688  1
  C  C4  1  0.254577  0.690289  0.600722  1
  C  C5  1  0.745423  0.309711  0.399278  1
  C  C6  1  0.569225  0.638835  0.800765  1
  C  C7  1  0.430775  0.361165  0.199235  1
  C  C8  1  0.475565  0.957039  0.728082  1
  C  C9  1  0.524435  0.042961  0.271918  1
  N  N10  1  0.220109  0.767886  0.853882  1
  N  N11  1  0.779891  0.232114  0.146118  1
  O  O12  1  0.140217  0.902660  0.883319  1
  O  O13  1  0.176008  0.632512  0.907169  1
  O  O14  1  0.823992  0.367488  0.092831  1
  O  O15  1  0.859783  0.097340  0.116681  1
  F  F16  1  0.084464  0.782493  0.556569  1
  F  F17  1  0.372699  0.687668  0.495646  1
  F  F18  1  0.635894  0.961538  0.650657  1
  F  F19  1  0.553776  0.036179  0.850875  1
  F  F20  1  0.627301  0.312332  0.504354  1
  F  F21  1  0.488441  0.529243  0.191872  1
  F  F22  1  0.511559  0.470757  0.808128  1
  F  F23  1  0.364106  0.038462  0.349343  1
  F  F24  1  0.341782  0.312549  0.069290  1
  F  F25  1  0.728181  0.638906  0.721972  1
  F  F26  1  0.271819  0.361094  0.278028  1
  F  F27  1  0.658218  0.687451  0.930710  1
  F  F28  1  0.820601  0.473594  0.391259  1
  F  F29  1  0.667084  0.934387  0.332683  1
  F  F30  1  0.446224  0.963821  0.149125  1
  F  F31  1  0.915536  0.217507  0.443431  1
  F  F32  1  0.332916  0.065613  0.667317  1
  F  F33  1  0.179399  0.526406  0.608741  1
