# generated using pymatgen
data_K2U(MoO5)2
_symmetry_space_group_name_H-M   'P 1'
_cell_length_a   12.47696919
_cell_length_b   13.26191585
_cell_length_c   13.72691167
_cell_angle_alpha   90.00000000
_cell_angle_beta   90.00000000
_cell_angle_gamma   94.74762909
_symmetry_Int_Tables_number   1
_chemical_formula_structural   K2U(MoO5)2
_chemical_formula_sum   'K16 U8 Mo16 O80'
_cell_volume   2263.57845713
_cell_formula_units_Z   8
loop_
 _symmetry_equiv_pos_site_id
 _symmetry_equiv_pos_as_xyz
  1  'x, y, z'
loop_
 _atom_site_type_symbol
 _atom_site_label
 _atom_site_symmetry_multiplicity
 _atom_site_fract_x
 _atom_site_fract_y
 _atom_site_fract_z
 _atom_site_occupancy
  K  K0  1  0.963742  0.191439  0.677294  1
  K  K1  1  0.728783  0.181585  0.956510  1
  K  K2  1  0.963742  0.691439  0.822706  1
  K  K3  1  0.760143  0.718350  0.130154  1
  K  K4  1  0.239857  0.781650  0.630154  1
  K  K5  1  0.239857  0.281650  0.869846  1
  K  K6  1  0.036258  0.308561  0.177294  1
  K  K7  1  0.461416  0.213798  0.158507  1
  K  K8  1  0.271217  0.818415  0.043490  1
  K  K9  1  0.728783  0.681585  0.543490  1
  K  K10  1  0.538584  0.786202  0.841493  1
  K  K11  1  0.538584  0.286202  0.658507  1
  K  K12  1  0.760143  0.218350  0.369846  1
  K  K13  1  0.036258  0.808561  0.322706  1
  K  K14  1  0.271217  0.318415  0.456510  1
  K  K15  1  0.461416  0.713798  0.341493  1
  U  U16  1  0.846090  0.031538  0.182686  1
  U  U17  1  0.153910  0.468462  0.682686  1
  U  U18  1  0.668389  0.511770  0.819428  1
  U  U19  1  0.668389  0.011770  0.680572  1
  U  U20  1  0.331611  0.488230  0.180572  1
  U  U21  1  0.153910  0.968462  0.817314  1
  U  U22  1  0.331611  0.988230  0.319428  1
  U  U23  1  0.846090  0.531538  0.317314  1
  Mo  Mo24  1  0.150314  0.064715  0.086160  1
  Mo  Mo25  1  0.849686  0.435285  0.586160  1
  Mo  Mo26  1  0.641731  0.449475  0.096262  1
  Mo  Mo27  1  0.444659  0.576726  0.624335  1
  Mo  Mo28  1  0.943943  0.899729  0.612181  1
  Mo  Mo29  1  0.555341  0.923274  0.124335  1
  Mo  Mo30  1  0.056057  0.100271  0.387819  1
  Mo  Mo31  1  0.555341  0.423274  0.375665  1
  Mo  Mo32  1  0.641731  0.949475  0.403738  1
  Mo  Mo33  1  0.943943  0.399729  0.887819  1
  Mo  Mo34  1  0.358269  0.050525  0.596262  1
  Mo  Mo35  1  0.358269  0.550525  0.903738  1
  Mo  Mo36  1  0.056057  0.600271  0.112181  1
  Mo  Mo37  1  0.849686  0.935285  0.913840  1
  Mo  Mo38  1  0.444659  0.076726  0.875665  1
  Mo  Mo39  1  0.150314  0.564715  0.413840  1
  O  O40  1  0.151537  0.506656  0.145753  1
  O  O41  1  0.535904  0.003814  0.804846  1
  O  O42  1  0.317041  0.473222  0.008218  1
  O  O43  1  0.199937  0.683679  0.459119  1
  O  O44  1  0.700994  0.647496  0.800479  1
  O  O45  1  0.315072  0.507005  0.596430  1
  O  O46  1  0.293879  0.988949  0.702374  1
  O  O47  1  0.968832  0.416851  0.657352  1
  O  O48  1  0.509220  0.620183  0.515412  1
  O  O49  1  0.177062  0.834389  0.829142  1
  O  O50  1  0.822938  0.665611  0.329142  1
  O  O51  1  0.676317  0.825363  0.419368  1
  O  O52  1  0.031168  0.083149  0.157352  1
  O  O53  1  0.125144  0.101653  0.805540  1
  O  O54  1  0.874856  0.398347  0.305540  1
  O  O55  1  0.848463  0.493344  0.854247  1
  O  O56  1  0.751350  0.485486  0.665118  1
  O  O57  1  0.199937  0.183679  0.040881  1
  O  O58  1  0.293879  0.488949  0.797626  1
  O  O59  1  0.581623  0.314204  0.308373  1
  O  O60  1  0.315072  0.007005  0.903570  1
  O  O61  1  0.044026  0.610583  0.985098  1
  O  O62  1  0.151537  0.006656  0.354247  1
  O  O63  1  0.635370  0.875811  0.665309  1
  O  O64  1  0.364630  0.624189  0.165309  1
  O  O65  1  0.874856  0.898347  0.194460  1
  O  O66  1  0.700994  0.147496  0.699521  1
  O  O67  1  0.317041  0.973222  0.491782  1
  O  O68  1  0.497829  0.443024  0.112721  1
  O  O69  1  0.706121  0.011051  0.297626  1
  O  O70  1  0.968832  0.916851  0.842648  1
  O  O71  1  0.921668  0.573279  0.166660  1
  O  O72  1  0.119499  0.474573  0.510848  1
  O  O73  1  0.880501  0.525427  0.489152  1
  O  O74  1  0.676317  0.325363  0.080632  1
  O  O75  1  0.078332  0.926721  0.666660  1
  O  O76  1  0.464096  0.496186  0.304846  1
  O  O77  1  0.848463  0.993344  0.645753  1
  O  O78  1  0.635370  0.375811  0.834691  1
  O  O79  1  0.464096  0.996186  0.195154  1
  O  O80  1  0.248650  0.514514  0.334882  1
  O  O81  1  0.800063  0.816321  0.959119  1
  O  O82  1  0.125144  0.601653  0.694460  1
  O  O83  1  0.535904  0.503814  0.695154  1
  O  O84  1  0.107520  0.220947  0.346769  1
  O  O85  1  0.684928  0.492995  0.403570  1
  O  O86  1  0.107520  0.720947  0.153231  1
  O  O87  1  0.248650  0.014514  0.165118  1
  O  O88  1  0.490780  0.379817  0.484588  1
  O  O89  1  0.880501  0.025427  0.010848  1
  O  O90  1  0.682959  0.526778  0.991782  1
  O  O91  1  0.031168  0.583149  0.342648  1
  O  O92  1  0.892480  0.779053  0.653231  1
  O  O93  1  0.800063  0.316321  0.540881  1
  O  O94  1  0.119499  0.974573  0.989152  1
  O  O95  1  0.682959  0.026778  0.508218  1
  O  O96  1  0.955974  0.389418  0.014902  1
  O  O97  1  0.751350  0.985486  0.834882  1
  O  O98  1  0.706121  0.511051  0.202374  1
  O  O99  1  0.502171  0.556976  0.887279  1
  O  O100  1  0.502171  0.056976  0.612721  1
  O  O101  1  0.299006  0.852504  0.300479  1
  O  O102  1  0.364630  0.124189  0.334691  1
  O  O103  1  0.497829  0.943024  0.387279  1
  O  O104  1  0.892480  0.279053  0.846769  1
  O  O105  1  0.684928  0.992995  0.096430  1
  O  O106  1  0.490780  0.879817  0.015412  1
  O  O107  1  0.418377  0.185796  0.808373  1
  O  O108  1  0.921668  0.073279  0.333340  1
  O  O109  1  0.323683  0.674637  0.919368  1
  O  O110  1  0.418377  0.685796  0.691627  1
  O  O111  1  0.177062  0.334389  0.670858  1
  O  O112  1  0.044026  0.110583  0.514902  1
  O  O113  1  0.299006  0.352504  0.199521  1
  O  O114  1  0.955974  0.889417  0.485098  1
  O  O115  1  0.078332  0.426721  0.833340  1
  O  O116  1  0.323683  0.174637  0.580632  1
  O  O117  1  0.581623  0.814204  0.191627  1
  O  O118  1  0.509220  0.120183  0.984588  1
  O  O119  1  0.822938  0.165611  0.170858  1
