# generated using pymatgen
data_Sr2ZnReO6
_symmetry_space_group_name_H-M   'P 1'
_cell_length_a   5.66416206
_cell_length_b   5.67199705
_cell_length_c   8.01065272
_cell_angle_alpha   89.97429680
_cell_angle_beta   90.00000000
_cell_angle_gamma   90.00000000
_symmetry_Int_Tables_number   1
_chemical_formula_structural   Sr2ZnReO6
_chemical_formula_sum   'Sr4 Zn2 Re2 O12'
_cell_volume   257.35909914
_cell_formula_units_Z   2
loop_
 _symmetry_equiv_pos_site_id
 _symmetry_equiv_pos_as_xyz
  1  'x, y, z'
loop_
 _atom_site_type_symbol
 _atom_site_label
 _atom_site_symmetry_multiplicity
 _atom_site_fract_x
 _atom_site_fract_y
 _atom_site_fract_z
 _atom_site_occupancy
  Sr  Sr0  1  0.482569  0.496500  0.750806  1
  Sr  Sr1  1  0.982569  0.003500  0.749194  1
  Sr  Sr2  1  0.517431  0.503500  0.249194  1
  Sr  Sr3  1  0.017431  0.996500  0.250806  1
  Zn  Zn4  1  0.500000  -0.000000  -0.000000  1
  Zn  Zn5  1  -0.000000  0.500000  0.500000  1
  Re  Re6  1  0.500000  -0.000000  0.500000  1
  Re  Re7  1  -0.000000  0.500000  -0.000000  1
  O  O8  1  0.764357  0.785368  0.474504  1
  O  O9  1  0.235643  0.214632  0.525496  1
  O  O10  1  0.264357  0.714632  0.025496  1
  O  O11  1  0.783941  0.763787  0.029139  1
  O  O12  1  0.001949  0.553696  0.760029  1
  O  O13  1  0.498051  0.053696  0.260029  1
  O  O14  1  0.716059  0.263787  0.529139  1
  O  O15  1  0.735643  0.285368  0.974504  1
  O  O16  1  0.998051  0.446304  0.239971  1
  O  O17  1  0.283941  0.736213  0.470861  1
  O  O18  1  0.216059  0.236213  0.970861  1
  O  O19  1  0.501949  0.946304  0.739971  1
