# generated using pymatgen
data_BaZn2(BO3)2
_symmetry_space_group_name_H-M   'P 1'
_cell_length_a   4.98611308
_cell_length_b   9.48278748
_cell_length_c   12.28349080
_cell_angle_alpha   90.00000000
_cell_angle_beta   90.00000000
_cell_angle_gamma   90.00000000
_symmetry_Int_Tables_number   1
_chemical_formula_structural   BaZn2(BO3)2
_chemical_formula_sum   'Ba4 Zn8 B8 O24'
_cell_volume   580.79109134
_cell_formula_units_Z   4
loop_
 _symmetry_equiv_pos_site_id
 _symmetry_equiv_pos_as_xyz
  1  'x, y, z'
loop_
 _atom_site_type_symbol
 _atom_site_label
 _atom_site_symmetry_multiplicity
 _atom_site_fract_x
 _atom_site_fract_y
 _atom_site_fract_z
 _atom_site_occupancy
  Ba  Ba0  1  0.969643  0.898592  0.271029  1
  Ba  Ba1  1  0.469643  0.601408  0.728971  1
  Ba  Ba2  1  0.530357  0.101408  0.771029  1
  Ba  Ba3  1  0.030357  0.398592  0.228971  1
  Zn  Zn4  1  0.546660  0.131803  0.104825  1
  Zn  Zn5  1  0.953340  0.868197  0.604825  1
  Zn  Zn6  1  0.053868  0.158220  0.468673  1
  Zn  Zn7  1  0.446132  0.841780  0.968673  1
  Zn  Zn8  1  0.453340  0.631803  0.395175  1
  Zn  Zn9  1  0.946132  0.658220  0.031327  1
  Zn  Zn10  1  0.046660  0.368197  0.895175  1
  Zn  Zn11  1  0.553868  0.341780  0.531327  1
  B  B12  1  0.558272  0.409991  0.006150  1
  B  B13  1  0.534575  0.166809  0.333844  1
  B  B14  1  0.965425  0.833191  0.833844  1
  B  B15  1  0.058272  0.090009  0.993850  1
  B  B16  1  0.465425  0.666809  0.166156  1
  B  B17  1  0.941728  0.590009  0.506150  1
  B  B18  1  0.441728  0.909991  0.493850  1
  B  B19  1  0.034575  0.333191  0.666156  1
  O  O20  1  0.382149  0.249320  0.407047  1
  O  O21  1  0.189158  0.668280  0.157709  1
  O  O22  1  0.094294  0.906077  0.752955  1
  O  O23  1  0.913770  0.063006  0.086625  1
  O  O24  1  0.038763  0.665151  0.593802  1
  O  O25  1  0.117851  0.750680  0.907047  1
  O  O26  1  0.405706  0.093923  0.252955  1
  O  O27  1  0.810842  0.168280  0.342291  1
  O  O28  1  0.310842  0.331720  0.657709  1
  O  O29  1  0.882149  0.250680  0.592953  1
  O  O30  1  0.413770  0.436994  0.913375  1
  O  O31  1  0.689158  0.831720  0.842291  1
  O  O32  1  0.538763  0.834849  0.406198  1
  O  O33  1  0.086230  0.563006  0.413375  1
  O  O34  1  0.672016  0.539666  0.512597  1
  O  O35  1  0.594294  0.593923  0.247045  1
  O  O36  1  0.172016  0.960334  0.487403  1
  O  O37  1  0.961237  0.165151  0.906198  1
  O  O38  1  0.586230  0.936994  0.586625  1
  O  O39  1  0.617851  0.749320  0.092953  1
  O  O40  1  0.827984  0.460334  0.012597  1
  O  O41  1  0.461237  0.334849  0.093802  1
  O  O42  1  0.327984  0.039666  0.987403  1
  O  O43  1  0.905706  0.406077  0.747045  1
