# generated using pymatgen
data_BH11C4NClF4
_symmetry_space_group_name_H-M   'P 1'
_cell_length_a   6.07505021
_cell_length_b   7.78134538
_cell_length_c   9.40047849
_cell_angle_alpha   90.00000000
_cell_angle_beta   102.78863414
_cell_angle_gamma   90.00000000
_symmetry_Int_Tables_number   1
_chemical_formula_structural   BH11C4NClF4
_chemical_formula_sum   'B2 H22 C8 N2 Cl2 F8'
_cell_volume   433.35641114
_cell_formula_units_Z   2
loop_
 _symmetry_equiv_pos_site_id
 _symmetry_equiv_pos_as_xyz
  1  'x, y, z'
loop_
 _atom_site_type_symbol
 _atom_site_label
 _atom_site_symmetry_multiplicity
 _atom_site_fract_x
 _atom_site_fract_y
 _atom_site_fract_z
 _atom_site_occupancy
  B  B0  1  0.062457  0.750000  0.762542  1
  B  B1  1  0.937543  0.250000  0.237458  1
  H  H2  1  0.749181  0.633792  0.412222  1
  H  H3  1  0.189504  0.365898  0.826537  1
  H  H4  1  0.304165  0.597905  0.077272  1
  H  H5  1  0.373994  0.250000  0.970767  1
  H  H6  1  0.749181  0.866208  0.412222  1
  H  H7  1  0.810496  0.865898  0.173463  1
  H  H8  1  0.250819  0.133792  0.587778  1
  H  H9  1  0.509804  0.521857  0.781587  1
  H  H10  1  0.810496  0.634102  0.173463  1
  H  H11  1  0.695835  0.402095  0.922728  1
  H  H12  1  0.695835  0.097905  0.922728  1
  H  H13  1  0.490196  0.021857  0.218413  1
  H  H14  1  0.253302  0.909952  0.258316  1
  H  H15  1  0.304165  0.902095  0.077272  1
  H  H16  1  0.189504  0.134102  0.826537  1
  H  H17  1  0.626006  0.750000  0.029233  1
  H  H18  1  0.509804  0.978143  0.781587  1
  H  H19  1  0.490196  0.478143  0.218413  1
  H  H20  1  0.746698  0.090048  0.741684  1
  H  H21  1  0.746698  0.409952  0.741684  1
  H  H22  1  0.253302  0.590048  0.258316  1
  H  H23  1  0.250819  0.366208  0.587778  1
  C  C24  1  0.645159  0.750000  0.391147  1
  C  C25  1  0.617511  0.091865  0.806223  1
  C  C26  1  0.382489  0.591865  0.193777  1
  C  C27  1  0.292174  0.250000  0.854778  1
  C  C28  1  0.707826  0.750000  0.145222  1
  C  C29  1  0.617511  0.408135  0.806223  1
  C  C30  1  0.354841  0.250000  0.608853  1
  C  C31  1  0.382489  0.908135  0.193777  1
  N  N32  1  0.525921  0.750000  0.231353  1
  N  N33  1  0.474079  0.250000  0.768647  1
  Cl  Cl34  1  0.453105  0.750000  0.506929  1
  Cl  Cl35  1  0.546895  0.250000  0.493071  1
  F  F36  1  0.918587  0.750000  0.861795  1
  F  F37  1  0.081413  0.250000  0.138205  1
  F  F38  1  0.292167  0.750000  0.843061  1
  F  F39  1  0.025388  0.600649  0.673716  1
  F  F40  1  0.025388  0.899351  0.673716  1
  F  F41  1  0.974612  0.399351  0.326284  1
  F  F42  1  0.707833  0.250000  0.156939  1
  F  F43  1  0.974612  0.100649  0.326284  1
