# generated using pymatgen
data_LiSi2BO6
_symmetry_space_group_name_H-M   'P 1'
_cell_length_a   5.09135622
_cell_length_b   13.26269341
_cell_length_c   13.48807448
_cell_angle_alpha   90.00000000
_cell_angle_beta   90.11282384
_cell_angle_gamma   90.00000000
_symmetry_Int_Tables_number   1
_chemical_formula_structural   LiSi2BO6
_chemical_formula_sum   'Li8 Si16 B8 O48'
_cell_volume   910.78176599
_cell_formula_units_Z   8
loop_
 _symmetry_equiv_pos_site_id
 _symmetry_equiv_pos_as_xyz
  1  'x, y, z'
loop_
 _atom_site_type_symbol
 _atom_site_label
 _atom_site_symmetry_multiplicity
 _atom_site_fract_x
 _atom_site_fract_y
 _atom_site_fract_z
 _atom_site_occupancy
  Li  Li0  1  0.602986  0.670372  0.538130  1
  Li  Li1  1  0.397014  0.170372  0.461870  1
  Li  Li2  1  0.649368  0.944435  0.709790  1
  Li  Li3  1  0.840228  0.438898  0.772494  1
  Li  Li4  1  0.910513  0.157399  0.972643  1
  Li  Li5  1  0.089487  0.657399  0.027357  1
  Li  Li6  1  0.159772  0.938898  0.227506  1
  Li  Li7  1  0.350632  0.444435  0.290210  1
  Si  Si8  1  0.173532  0.372620  0.976391  1
  Si  Si9  1  0.061875  0.142818  0.667220  1
  Si  Si10  1  0.427574  0.730610  0.227758  1
  Si  Si11  1  0.240686  0.877455  0.518850  1
  Si  Si12  1  1.000587  0.232402  0.269197  1
  Si  Si13  1  0.572426  0.230610  0.772242  1
  Si  Si14  1  0.733432  0.965524  0.417968  1
  Si  Si15  1  0.505082  0.642219  0.832186  1
  Si  Si16  1  0.317597  0.961781  0.917301  1
  Si  Si17  1  0.266568  0.465524  0.582032  1
  Si  Si18  1  0.826468  0.872620  0.023609  1
  Si  Si19  1  0.682403  0.461781  0.082699  1
  Si  Si20  1  0.759314  0.377455  0.481150  1
  Si  Si21  1  -0.000587  0.732402  0.730803  1
  Si  Si22  1  0.494918  0.142219  0.167814  1
  Si  Si23  1  0.938125  0.642818  0.332780  1
  B  B24  1  0.897703  0.168491  0.462910  1
  B  B25  1  0.339175  0.436734  0.787893  1
  B  B26  1  0.411183  0.167862  0.961930  1
  B  B27  1  0.102297  0.668491  0.537090  1
  B  B28  1  0.660825  0.936734  0.212107  1
  B  B29  1  0.149330  0.939705  0.713797  1
  B  B30  1  0.850670  0.439705  0.286203  1
  B  B31  1  0.588817  0.667862  0.038070  1
  O  O32  1  0.893614  0.384278  0.033645  1
  O  O33  1  0.146056  0.722569  0.285079  1
  O  O34  1  0.355356  0.170969  0.706202  1
  O  O35  1  0.713410  0.083659  0.449892  1
  O  O36  1  0.759911  0.577061  0.050077  1
  O  O37  1  0.286590  0.583659  0.550108  1
  O  O38  1  0.700303  0.203984  0.238286  1
  O  O39  1  0.719108  0.255580  0.476241  1
  O  O40  1  0.924036  0.681221  0.623607  1
  O  O41  1  0.853944  0.222569  0.714921  1
  O  O42  1  0.576620  0.159847  0.052207  1
  O  O43  1  0.607894  0.931676  0.957920  1
  O  O44  1  0.521686  0.350675  0.782873  1
  O  O45  1  0.937449  0.904724  0.490030  1
  O  O46  1  0.677116  0.428337  0.374660  1
  O  O47  1  0.220712  0.251800  0.965317  1
  O  O48  1  0.799532  0.687731  0.814117  1
  O  O49  1  0.520117  0.523617  0.800947  1
  O  O50  1  0.479883  0.023617  0.199053  1
  O  O51  1  0.665371  0.448244  0.202842  1
  O  O52  1  0.478314  0.850675  0.217127  1
  O  O53  1  0.075964  0.181221  0.376393  1
  O  O54  1  0.563162  0.420840  0.566698  1
  O  O55  1  0.200468  0.187731  0.185883  1
  O  O56  1  0.322884  0.928337  0.625340  1
  O  O57  1  0.240089  0.077061  0.949923  1
  O  O58  1  0.976685  0.029516  0.703578  1
  O  O59  1  0.857093  0.926714  0.132414  1
  O  O60  1  0.392106  0.431676  0.042080  1
  O  O61  1  0.779288  0.751800  0.034683  1
  O  O62  1  0.280892  0.755580  0.523759  1
  O  O63  1  0.920470  0.653607  0.453185  1
  O  O64  1  0.436838  0.920840  0.433302  1
  O  O65  1  0.062551  0.404724  0.509970  1
  O  O66  1  0.106386  0.884278  0.966355  1
  O  O67  1  0.644644  0.670969  0.293798  1
  O  O68  1  0.962485  0.854766  0.724654  1
  O  O69  1  0.142907  0.426714  0.867586  1
  O  O70  1  0.176681  0.448359  0.696860  1
  O  O71  1  0.334629  0.948244  0.797158  1
  O  O72  1  0.079530  0.153607  0.546815  1
  O  O73  1  0.605359  0.177501  0.881090  1
  O  O74  1  0.423380  0.659847  0.947793  1
  O  O75  1  0.299697  0.703984  0.761714  1
  O  O76  1  0.037515  0.354766  0.275346  1
  O  O77  1  0.394641  0.677501  0.118910  1
  O  O78  1  0.023315  0.529516  0.296422  1
  O  O79  1  0.823319  0.948359  0.303140  1
