# generated using pymatgen
data_BaCeC2O6F
_symmetry_space_group_name_H-M   'P 1'
_cell_length_a   7.33928566
_cell_length_b   7.33928569
_cell_length_c   18.65597110
_cell_angle_alpha   90.00000000
_cell_angle_beta   90.00000000
_cell_angle_gamma   119.99999987
_symmetry_Int_Tables_number   1
_chemical_formula_structural   BaCeC2O6F
_chemical_formula_sum   'Ba6 Ce6 C12 O36 F6'
_cell_volume   870.27413762
_cell_formula_units_Z   6
loop_
 _symmetry_equiv_pos_site_id
 _symmetry_equiv_pos_as_xyz
  1  'x, y, z'
loop_
 _atom_site_type_symbol
 _atom_site_label
 _atom_site_symmetry_multiplicity
 _atom_site_fract_x
 _atom_site_fract_y
 _atom_site_fract_z
 _atom_site_occupancy
  Ba  Ba0  1  0.666667  0.333333  0.552687  1
  Ba  Ba1  1  0.666667  0.333333  0.052687  1
  Ba  Ba2  1  0.000000  0.000000  0.000000  1
  Ba  Ba3  1  0.333333  0.666667  0.447313  1
  Ba  Ba4  1  0.333333  0.666667  0.947313  1
  Ba  Ba5  1  0.000000  0.000000  0.500000  1
  Ce  Ce6  1  0.000000  0.655560  0.750000  1
  Ce  Ce7  1  0.344440  0.344440  0.750000  1
  Ce  Ce8  1  1.000000  0.344440  0.250000  1
  Ce  Ce9  1  0.655560  0.000000  0.750000  1
  Ce  Ce10  1  0.344440  0.000000  0.250000  1
  Ce  Ce11  1  0.655560  0.655560  0.250000  1
  C  C12  1  0.141857  0.359358  0.617562  1
  C  C13  1  0.782500  0.141857  0.382438  1
  C  C14  1  0.217500  0.359358  0.117562  1
  C  C15  1  0.217500  0.858143  0.617562  1
  C  C16  1  0.858143  0.217500  0.882438  1
  C  C17  1  0.141857  0.782500  0.117562  1
  C  C18  1  0.640642  0.858143  0.117562  1
  C  C19  1  0.359358  0.141857  0.882438  1
  C  C20  1  0.858143  0.640642  0.382438  1
  C  C21  1  0.782500  0.640642  0.882438  1
  C  C22  1  0.359358  0.217500  0.382438  1
  C  C23  1  0.640642  0.782500  0.617562  1
  O  O24  1  0.076219  0.391647  0.557801  1
  O  O25  1  0.904519  0.587811  0.320597  1
  O  O26  1  0.904519  0.316708  0.820597  1
  O  O27  1  0.316708  0.412189  0.179403  1
  O  O28  1  0.923781  0.608353  0.442199  1
  O  O29  1  0.095481  0.683292  0.179403  1
  O  O30  1  0.076219  0.684572  0.057801  1
  O  O31  1  0.683292  0.095481  0.320597  1
  O  O32  1  0.316708  0.904519  0.679403  1
  O  O33  1  0.608353  0.923781  0.057801  1
  O  O34  1  0.587811  0.904519  0.179403  1
  O  O35  1  0.095481  0.412189  0.679403  1
  O  O36  1  0.412189  0.316708  0.320597  1
  O  O37  1  0.315428  0.391647  0.057801  1
  O  O38  1  0.391647  0.315428  0.442199  1
  O  O39  1  0.986978  0.254718  0.380208  1
  O  O40  1  0.267740  0.254718  0.880208  1
  O  O41  1  0.745282  0.732260  0.380208  1
  O  O42  1  0.684572  0.076219  0.442199  1
  O  O43  1  0.683292  0.587811  0.820597  1
  O  O44  1  0.254718  0.986978  0.119792  1
  O  O45  1  0.013022  0.745282  0.619792  1
  O  O46  1  0.923781  0.315428  0.942199  1
  O  O47  1  0.254718  0.267740  0.619792  1
  O  O48  1  0.684572  0.608353  0.942199  1
  O  O49  1  0.391647  0.076219  0.942199  1
  O  O50  1  0.745282  0.013022  0.880208  1
  O  O51  1  0.732260  0.745282  0.119792  1
  O  O52  1  0.608353  0.684572  0.557801  1
  O  O53  1  0.013022  0.267740  0.119792  1
  O  O54  1  0.587811  0.683292  0.679403  1
  O  O55  1  0.732260  0.986978  0.619792  1
  O  O56  1  0.986978  0.732260  0.880208  1
  O  O57  1  0.267740  0.013022  0.380208  1
  O  O58  1  0.315428  0.923781  0.557801  1
  O  O59  1  0.412189  0.095481  0.820597  1
  F  F60  1  0.333333  0.666667  0.797676  1
  F  F61  1  0.666667  0.333333  0.702324  1
  F  F62  1  0.333333  0.666667  0.297676  1
  F  F63  1  0.666667  0.333333  0.202324  1
  F  F64  1  0.000000  0.000000  0.250000  1
  F  F65  1  0.000000  0.000000  0.750000  1
