# generated using pymatgen
data_Pr10S14O
_symmetry_space_group_name_H-M   'P 1'
_cell_length_a   14.79030466
_cell_length_b   14.79030794
_cell_length_c   14.79030786
_cell_angle_alpha   93.71422626
_cell_angle_beta   117.87925977
_cell_angle_gamma   117.87925732
_symmetry_Int_Tables_number   1
_chemical_formula_structural   Pr10S14O
_chemical_formula_sum   'Pr40 S56 O4'
_cell_volume   2355.77294345
_cell_formula_units_Z   4
loop_
 _symmetry_equiv_pos_site_id
 _symmetry_equiv_pos_as_xyz
  1  'x, y, z'
loop_
 _atom_site_type_symbol
 _atom_site_label
 _atom_site_symmetry_multiplicity
 _atom_site_fract_x
 _atom_site_fract_y
 _atom_site_fract_z
 _atom_site_occupancy
  Pr  Pr0  1  0.250000  0.009741  0.490259  1
  Pr  Pr1  1  0.111267  0.425289  0.301394  1
  Pr  Pr2  1  0.519483  0.509741  0.259741  1
  Pr  Pr3  1  0.123894  0.925288  0.814021  1
  Pr  Pr4  1  0.655380  0.674596  0.574152  1
  Pr  Pr5  1  0.388733  0.198606  0.074711  1
  Pr  Pr6  1  0.888733  0.574711  0.698606  1
  Pr  Pr7  1  0.344620  0.325404  0.425848  1
  Pr  Pr8  1  0.899556  0.825404  0.480784  1
  Pr  Pr9  1  0.611267  0.801394  0.925289  1
  Pr  Pr10  1  0.250000  0.740258  0.759742  1
  Pr  Pr11  1  0.111267  0.185979  0.809873  1
  Pr  Pr12  1  0.899556  0.574152  0.418772  1
  Pr  Pr13  1  0.876106  0.301394  0.690127  1
  Pr  Pr14  1  0.623894  0.809873  0.198606  1
  Pr  Pr15  1  0.344620  0.519216  0.918772  1
  Pr  Pr16  1  0.123894  0.698606  0.309873  1
  Pr  Pr17  1  0.388733  0.690127  0.314021  1
  Pr  Pr18  1  0.100444  0.174596  0.519216  1
  Pr  Pr19  1  0.623894  0.314021  0.425288  1
  Pr  Pr20  1  0.655380  0.480784  0.081228  1
  Pr  Pr21  1  0.600444  0.019216  0.674596  1
  Pr  Pr22  1  0.750000  0.259742  0.240258  1
  Pr  Pr23  1  0.888733  0.814021  0.190127  1
  Pr  Pr24  1  0.480517  0.490259  0.740259  1
  Pr  Pr25  1  0.376106  0.685979  0.574712  1
  Pr  Pr26  1  0.155380  0.581228  0.980784  1
  Pr  Pr27  1  0.844620  0.925848  0.825404  1
  Pr  Pr28  1  0.600444  0.081228  0.925848  1
  Pr  Pr29  1  0.100444  0.425848  0.581228  1
  Pr  Pr30  1  0.399556  0.980784  0.325404  1
  Pr  Pr31  1  0.399556  0.918772  0.074152  1
  Pr  Pr32  1  0.019483  0.759741  0.009741  1
  Pr  Pr33  1  0.155380  0.074152  0.174596  1
  Pr  Pr34  1  0.980517  0.240259  0.990259  1
  Pr  Pr35  1  0.611267  0.309873  0.685979  1
  Pr  Pr36  1  0.750000  0.990259  0.509741  1
  Pr  Pr37  1  0.844620  0.418772  0.019216  1
  Pr  Pr38  1  0.876106  0.074712  0.185979  1
  Pr  Pr39  1  0.376106  0.190127  0.801394  1
  S  S40  1  0.641735  0.027695  0.120343  1
  S  S41  1  0.647550  0.397550  0.250000  1
  S  S42  1  0.891018  0.757710  0.790286  1
  S  S43  1  0.032577  0.790286  0.399268  1
  S  S44  1  0.084482  0.063918  0.334142  1
  S  S45  1  0.584482  0.834142  0.563918  1
  S  S46  1  0.915518  0.479436  0.249660  1
  S  S47  1  0.729776  0.665858  0.250340  1
  S  S48  1  0.858264  0.978607  0.385959  1
  S  S49  1  0.532577  0.133309  0.242290  1
  S  S50  1  0.407352  0.385959  0.027695  1
  S  S51  1  0.852450  0.102450  0.750000  1
  S  S52  1  0.584482  0.250340  0.020564  1
  S  S53  1  0.358264  0.885959  0.478607  1
  S  S54  1  0.108982  0.242290  0.209714  1
  S  S55  1  0.967423  0.257710  0.366691  1
  S  S56  1  0.229776  0.750340  0.165858  1
  S  S57  1  0.141735  0.620343  0.527695  1
  S  S58  1  0.858265  0.379657  0.472305  1
  S  S59  1  0.084482  0.520564  0.750340  1
  S  S60  1  0.391018  0.600732  0.133309  1
  S  S61  1  0.147550  0.897550  0.250000  1
  S  S62  1  0.415518  0.165858  0.436082  1
  S  S63  1  0.352450  0.250000  0.602450  1
  S  S64  1  0.915518  0.936082  0.665858  1
  S  S65  1  0.770224  0.020564  0.936082  1
  S  S66  1  0.229776  0.979436  0.063918  1
  S  S67  1  0.270224  0.334142  0.749660  1
  S  S68  1  0.147550  0.750000  0.897550  1
  S  S69  1  0.270224  0.436082  0.520564  1
  S  S70  1  0.092648  0.120343  0.978607  1
  S  S71  1  0.532577  0.899268  0.290286  1
  S  S72  1  0.967423  0.209714  0.600732  1
  S  S73  1  0.391018  0.290286  0.257710  1
  S  S74  1  0.032577  0.742290  0.633309  1
  S  S75  1  0.647550  0.750000  0.397550  1
  S  S76  1  0.592648  0.478607  0.620343  1
  S  S77  1  0.092648  0.472305  0.114041  1
  S  S78  1  0.770224  0.249660  0.834142  1
  S  S79  1  0.608982  0.399268  0.866691  1
  S  S80  1  0.907352  0.879657  0.021393  1
  S  S81  1  0.141736  0.021393  0.614041  1
  S  S82  1  0.592648  0.614041  0.972305  1
  S  S83  1  0.467423  0.100732  0.709714  1
  S  S84  1  0.729776  0.563918  0.479436  1
  S  S85  1  0.907352  0.527695  0.885959  1
  S  S86  1  0.641736  0.114041  0.521393  1
  S  S87  1  0.358265  0.972305  0.879657  1
  S  S88  1  0.852450  0.250000  0.102450  1
  S  S89  1  0.891018  0.633309  0.100732  1
  S  S90  1  0.467423  0.866691  0.757710  1
  S  S91  1  0.608982  0.709714  0.742290  1
  S  S92  1  0.352450  0.602450  0.750000  1
  S  S93  1  0.415518  0.749660  0.979436  1
  S  S94  1  0.108982  0.366691  0.899268  1
  S  S95  1  0.407352  0.521393  0.379657  1
  O  O96  1  0.750000  0.875000  0.125000  1
  O  O97  1  0.250000  0.125000  0.875000  1
  O  O98  1  0.750000  0.375000  0.625000  1
  O  O99  1  0.250000  0.625000  0.375000  1
