# generated using pymatgen
data_Cu3Se2(ClO3)2
_symmetry_space_group_name_H-M   'P 1'
_cell_length_a   5.50408811
_cell_length_b   5.50408799
_cell_length_c   7.81397635
_cell_angle_alpha   75.68870328
_cell_angle_beta   75.68870359
_cell_angle_gamma   69.16061699
_symmetry_Int_Tables_number   1
_chemical_formula_structural   Cu3Se2(ClO3)2
_chemical_formula_sum   'Cu3 Se2 Cl2 O6'
_cell_volume   211.03159896
_cell_formula_units_Z   1
loop_
 _symmetry_equiv_pos_site_id
 _symmetry_equiv_pos_as_xyz
  1  'x, y, z'
loop_
 _atom_site_type_symbol
 _atom_site_label
 _atom_site_symmetry_multiplicity
 _atom_site_fract_x
 _atom_site_fract_y
 _atom_site_fract_z
 _atom_site_occupancy
  Cu  Cu0  1  0.568724  0.568724  0.178161  1
  Cu  Cu1  1  0.000000  0.000000  0.000000  1
  Cu  Cu2  1  0.431276  0.431276  0.821839  1
  Se  Se3  1  0.167065  0.167065  0.260394  1
  Se  Se4  1  0.832935  0.832935  0.739606  1
  Cl  Cl5  1  0.292059  0.292059  0.631947  1
  Cl  Cl6  1  0.707941  0.707941  0.368053  1
  O  O7  1  0.731424  0.111933  0.850644  1
  O  O8  1  0.268576  0.888067  0.149356  1
  O  O9  1  0.353996  0.353996  0.130070  1
  O  O10  1  0.646004  0.646004  0.869930  1
  O  O11  1  0.888067  0.268576  0.149356  1
  O  O12  1  0.111933  0.731424  0.850644  1
