# generated using pymatgen
data_CeGeRh
_symmetry_space_group_name_H-M   'P 1'
_cell_length_a   4.41053554
_cell_length_b   7.62689726
_cell_length_c   7.05890334
_cell_angle_alpha   90.00000000
_cell_angle_beta   90.00000000
_cell_angle_gamma   90.00000000
_symmetry_Int_Tables_number   1
_chemical_formula_structural   CeGeRh
_chemical_formula_sum   'Ce4 Ge4 Rh4'
_cell_volume   237.45234184
_cell_formula_units_Z   4
loop_
 _symmetry_equiv_pos_site_id
 _symmetry_equiv_pos_as_xyz
  1  'x, y, z'
loop_
 _atom_site_type_symbol
 _atom_site_label
 _atom_site_symmetry_multiplicity
 _atom_site_fract_x
 _atom_site_fract_y
 _atom_site_fract_z
 _atom_site_occupancy
  Ce  Ce0  1  0.250000  0.301632  0.483813  1
  Ce  Ce1  1  0.250000  0.198368  0.983813  1
  Ce  Ce2  1  0.750000  0.698368  0.516187  1
  Ce  Ce3  1  0.750000  0.801632  0.016187  1
  Ge  Ge4  1  0.250000  0.919388  0.320745  1
  Ge  Ge5  1  0.250000  0.580612  0.820745  1
  Ge  Ge6  1  0.750000  0.080612  0.679255  1
  Ge  Ge7  1  0.750000  0.419388  0.179255  1
  Rh  Rh8  1  0.250000  0.906340  0.711215  1
  Rh  Rh9  1  0.250000  0.593660  0.211215  1
  Rh  Rh10  1  0.750000  0.093660  0.288785  1
  Rh  Rh11  1  0.750000  0.406340  0.788785  1
