# generated using pymatgen
data_SnH8(CO)4
_symmetry_space_group_name_H-M   'P 1'
_cell_length_a   6.12110938
_cell_length_b   9.39949232
_cell_length_c   12.98691693
_cell_angle_alpha   90.00000000
_cell_angle_beta   90.00000000
_cell_angle_gamma   90.00000000
_symmetry_Int_Tables_number   1
_chemical_formula_structural   SnH8(CO)4
_chemical_formula_sum   'Sn4 H32 C16 O16'
_cell_volume   747.20642927
_cell_formula_units_Z   4
loop_
 _symmetry_equiv_pos_site_id
 _symmetry_equiv_pos_as_xyz
  1  'x, y, z'
loop_
 _atom_site_type_symbol
 _atom_site_label
 _atom_site_symmetry_multiplicity
 _atom_site_fract_x
 _atom_site_fract_y
 _atom_site_fract_z
 _atom_site_occupancy
  Sn  Sn0  1  0.105915  0.250000  0.698939  1
  Sn  Sn1  1  0.605915  0.750000  0.801061  1
  Sn  Sn2  1  0.894085  0.750000  0.301061  1
  Sn  Sn3  1  0.394085  0.250000  0.198939  1
  H  H4  1  0.558554  0.653940  0.188290  1
  H  H5  1  0.504380  0.581482  0.578665  1
  H  H6  1  0.100772  0.845705  0.469643  1
  H  H7  1  0.100772  0.654295  0.469643  1
  H  H8  1  0.058554  0.153940  0.311710  1
  H  H9  1  0.995620  0.918518  0.078665  1
  H  H10  1  0.495620  0.081482  0.421335  1
  H  H11  1  0.504380  0.918518  0.578665  1
  H  H12  1  0.441446  0.346060  0.811710  1
  H  H13  1  0.789898  0.250000  0.110713  1
  H  H14  1  0.600772  0.345705  0.030357  1
  H  H15  1  0.558554  0.846060  0.188290  1
  H  H16  1  0.941446  0.846060  0.688290  1
  H  H17  1  0.441446  0.153940  0.811710  1
  H  H18  1  0.495620  0.418518  0.421335  1
  H  H19  1  0.058554  0.346060  0.311710  1
  H  H20  1  0.995620  0.581482  0.078665  1
  H  H21  1  0.004380  0.418518  0.921335  1
  H  H22  1  0.710102  0.250000  0.610713  1
  H  H23  1  0.738469  0.750000  0.104551  1
  H  H24  1  0.399228  0.654295  0.969643  1
  H  H25  1  0.289898  0.750000  0.389287  1
  H  H26  1  0.899228  0.345705  0.530357  1
  H  H27  1  0.238469  0.250000  0.395449  1
  H  H28  1  0.210102  0.750000  0.889287  1
  H  H29  1  0.261531  0.250000  0.895449  1
  H  H30  1  0.899228  0.154295  0.530357  1
  H  H31  1  0.399228  0.845705  0.969643  1
  H  H32  1  0.004380  0.081482  0.921335  1
  H  H33  1  0.761531  0.750000  0.604551  1
  H  H34  1  0.941446  0.653940  0.688290  1
  H  H35  1  0.600772  0.154295  0.030357  1
  C  C36  1  0.873801  0.250000  0.576873  1
  C  C37  1  0.342329  0.250000  0.820229  1
  C  C38  1  0.597022  0.474108  0.363103  1
  C  C39  1  0.373801  0.750000  0.923127  1
  C  C40  1  0.097022  0.974108  0.136897  1
  C  C41  1  0.597022  0.025892  0.363103  1
  C  C42  1  0.902978  0.474108  0.863103  1
  C  C43  1  0.902978  0.025892  0.863103  1
  C  C44  1  0.097022  0.525892  0.136897  1
  C  C45  1  0.626199  0.250000  0.076873  1
  C  C46  1  0.402978  0.525892  0.636897  1
  C  C47  1  0.126199  0.750000  0.423127  1
  C  C48  1  0.402978  0.974108  0.636897  1
  C  C49  1  0.842329  0.750000  0.679771  1
  C  C50  1  0.157671  0.250000  0.320229  1
  C  C51  1  0.657671  0.750000  0.179771  1
  O  O52  1  0.393859  0.924544  0.727805  1
  O  O53  1  0.197293  0.415849  0.105259  1
  O  O54  1  0.106141  0.924544  0.227805  1
  O  O55  1  0.197293  0.084151  0.105259  1
  O  O56  1  0.393859  0.575456  0.727805  1
  O  O57  1  0.893859  0.075456  0.772195  1
  O  O58  1  0.697293  0.915849  0.394741  1
  O  O59  1  0.802707  0.584151  0.894741  1
  O  O60  1  0.802707  0.915849  0.894741  1
  O  O61  1  0.697293  0.584151  0.394741  1
  O  O62  1  0.302707  0.415849  0.605259  1
  O  O63  1  0.606141  0.075456  0.272195  1
  O  O64  1  0.302707  0.084151  0.605259  1
  O  O65  1  0.893859  0.424544  0.772195  1
  O  O66  1  0.606141  0.424544  0.272195  1
  O  O67  1  0.106141  0.575456  0.227805  1
