# generated using pymatgen
data_MgAl6O10
_symmetry_space_group_name_H-M   'P 1'
_cell_length_a   5.69555441
_cell_length_b   5.72580467
_cell_length_c   28.55500146
_cell_angle_alpha   59.91466661
_cell_angle_beta   59.95889993
_cell_angle_gamma   59.82176159
_symmetry_Int_Tables_number   1
_chemical_formula_structural   MgAl6O10
_chemical_formula_sum   'Mg4 Al24 O40'
_cell_volume   656.95654370
_cell_formula_units_Z   4
loop_
 _symmetry_equiv_pos_site_id
 _symmetry_equiv_pos_as_xyz
  1  'x, y, z'
loop_
 _atom_site_type_symbol
 _atom_site_label
 _atom_site_symmetry_multiplicity
 _atom_site_fract_x
 _atom_site_fract_y
 _atom_site_fract_z
 _atom_site_occupancy
  Al  Al0  1  0.979807  0.996462  0.005469  1
  Al  Al1  1  0.260410  0.247133  0.049075  1
  Al  Al2  1  0.593322  0.627015  0.030541  1
  Al  Al3  1  0.625588  0.124320  0.125062  1
  Al  Al4  1  0.132932  0.624957  0.323424  1
  Al  Al5  1  0.625640  0.624755  0.125072  1
  Al  Al6  1  0.989788  0.009324  0.198349  1
  Al  Al7  1  0.646711  0.619080  0.223027  1
  Al  Al8  1  0.627696  0.129112  0.323630  1
  Al  Al9  1  0.121337  0.625281  0.525629  1
  Al  Al10  1  0.627736  0.625049  0.323623  1
  Al  Al11  1  0.626923  0.625704  0.424321  1
  Al  Al12  1  0.240972  0.240432  0.655649  1
  Al  Al13  1  0.625576  0.120898  0.525644  1
  Al  Al14  1  0.625566  0.625302  0.525642  1
  Al  Al15  1  0.105733  0.624888  0.728884  1
  Al  Al16  1  0.625265  0.625238  0.624858  1
  Al  Al17  1  0.623592  0.106388  0.728958  1
  Al  Al18  1  0.253993  0.252608  0.848144  1
  Al  Al19  1  0.623560  0.625211  0.728955  1
  Al  Al20  1  0.116614  0.630760  0.924360  1
  Al  Al21  1  0.629625  0.120757  0.924008  1
  Al  Al22  1  0.632294  0.633430  0.820143  1
  Al  Al23  1  0.629608  0.629567  0.924012  1
  Mg  Mg24  1  0.272361  0.258024  0.242313  1
  Mg  Mg25  1  0.250869  0.248474  0.450449  1
  Mg  Mg26  1  0.004520  0.005128  0.397031  1
  Mg  Mg27  1  -0.000576  0.001560  0.599489  1
  O  O28  1  0.415309  0.365765  0.069003  1
  O  O29  1  0.415328  0.873934  0.069009  1
  O  O30  1  0.420098  0.388309  0.160665  1
  O  O31  1  0.871387  0.386841  0.070988  1
  O  O32  1  0.387853  0.870792  0.174129  1
  O  O33  1  0.385779  0.385606  0.278901  1
  O  O34  1  0.845537  0.876417  0.080335  1
  O  O35  1  0.836461  0.387114  0.178578  1
  O  O36  1  0.391169  0.384299  0.368054  1
  O  O37  1  0.385774  0.834089  0.278895  1
  O  O38  1  0.836437  0.883648  0.178582  1
  O  O39  1  0.844551  0.381906  0.278321  1
  O  O40  1  0.384713  0.385279  0.480395  1
  O  O41  1  0.419759  0.859876  0.372097  1
  O  O42  1  0.872270  0.868096  0.278307  1
  O  O43  1  0.861451  0.418578  0.372341  1
  O  O44  1  0.384711  0.828083  0.480390  1
  O  O45  1  0.374501  0.373109  0.575876  1
  O  O46  1  0.861442  0.858194  0.372345  1
  O  O47  1  0.829263  0.383892  0.480587  1
  O  O48  1  0.415221  0.860883  0.572610  1
  O  O49  1  0.384284  0.384915  0.676633  1
  O  O50  1  0.862504  0.863155  0.482230  1
  O  O51  1  0.860889  0.415912  0.572717  1
  O  O52  1  0.384253  0.847684  0.676633  1
  O  O53  1  0.383526  0.383331  0.769948  1
  O  O54  1  0.860882  0.859624  0.572716  1
  O  O55  1  0.847570  0.384435  0.676718  1
  O  O56  1  0.381565  0.382471  0.876357  1
  O  O57  1  0.412004  0.864354  0.771851  1
  O  O58  1  0.863651  0.865112  0.681214  1
  O  O59  1  0.381549  0.854116  0.876361  1
  O  O60  1  0.863269  0.414246  0.771884  1
  O  O61  1  0.387595  0.389433  0.966706  1
  O  O62  1  0.853973  0.382437  0.876217  1
  O  O63  1  0.863268  0.862957  0.771889  1
  O  O64  1  0.383036  0.870824  0.975072  1
  O  O65  1  0.848233  0.854755  0.888440  1
  O  O66  1  0.873233  0.392069  0.972622  1
  O  O67  1  0.873240  0.871602  0.972623  1
