# generated using pymatgen
data_PuNi4
_symmetry_space_group_name_H-M   'P 1'
_cell_length_a   4.87742770
_cell_length_b   4.87282855
_cell_length_c   10.12971306
_cell_angle_alpha   85.37127806
_cell_angle_beta   80.72082064
_cell_angle_gamma   59.96877441
_symmetry_Int_Tables_number   1
_chemical_formula_structural   PuNi4
_chemical_formula_sum   'Pu3 Ni12'
_cell_volume   205.70388095
_cell_formula_units_Z   3
loop_
 _symmetry_equiv_pos_site_id
 _symmetry_equiv_pos_as_xyz
  1  'x, y, z'
loop_
 _atom_site_type_symbol
 _atom_site_label
 _atom_site_symmetry_multiplicity
 _atom_site_fract_x
 _atom_site_fract_y
 _atom_site_fract_z
 _atom_site_occupancy
  Pu  Pu0  1  0.126110  1.000000  0.643788  1
  Pu  Pu1  1  0.000000  0.000000  0.000000  1
  Pu  Pu2  1  0.873890  0.000000  0.356212  1
  Ni  Ni3  1  0.569054  0.498953  0.801207  1
  Ni  Ni4  1  0.068007  0.501047  0.801207  1
  Ni  Ni5  1  0.430946  0.501047  0.198793  1
  Ni  Ni6  1  0.430877  0.000000  0.201377  1
  Ni  Ni7  1  0.931993  0.498953  0.198793  1
  Ni  Ni8  1  0.665167  0.669666  1.000000  1
  Ni  Ni9  1  0.569123  1.000000  0.798623  1
  Ni  Ni10  1  0.194062  0.341322  0.405636  1
  Ni  Ni11  1  0.805938  0.658678  0.594364  1
  Ni  Ni12  1  0.464617  0.341322  0.594364  1
  Ni  Ni13  1  0.535383  0.658678  0.405636  1
  Ni  Ni14  1  0.334833  0.330334  0.000000  1
