# generated using pymatgen
data_K6InTe4Cl
_symmetry_space_group_name_H-M   'P 1'
_cell_length_a   11.49037954
_cell_length_b   11.49037976
_cell_length_c   8.14190218
_cell_angle_alpha   90.00000000
_cell_angle_beta   90.00000000
_cell_angle_gamma   119.99999938
_symmetry_Int_Tables_number   1
_chemical_formula_structural   K6InTe4Cl
_chemical_formula_sum   'K12 In2 Te8 Cl2'
_cell_volume   930.94767400
_cell_formula_units_Z   2
loop_
 _symmetry_equiv_pos_site_id
 _symmetry_equiv_pos_as_xyz
  1  'x, y, z'
loop_
 _atom_site_type_symbol
 _atom_site_label
 _atom_site_symmetry_multiplicity
 _atom_site_fract_x
 _atom_site_fract_y
 _atom_site_fract_z
 _atom_site_occupancy
  K  K0  1  0.124353  0.875647  0.518067  1
  K  K1  1  0.751293  0.875647  0.518067  1
  K  K2  1  0.957761  0.478881  0.319084  1
  K  K3  1  0.521119  0.478881  0.319084  1
  K  K4  1  0.875647  0.751293  0.018067  1
  K  K5  1  0.248707  0.124353  0.018067  1
  K  K6  1  0.521119  0.042239  0.319084  1
  K  K7  1  0.124353  0.248707  0.518067  1
  K  K8  1  0.875647  0.124353  0.018067  1
  K  K9  1  0.042239  0.521119  0.819084  1
  K  K10  1  0.478881  0.957761  0.819084  1
  K  K11  1  0.478881  0.521119  0.819084  1
  In  In12  1  0.666667  0.333333  0.705325  1
  In  In13  1  0.333333  0.666667  0.205325  1
  Te  Te14  1  0.397074  0.198537  0.597925  1
  Te  Te15  1  0.602926  0.801463  0.097925  1
  Te  Te16  1  0.666667  0.333333  0.053230  1
  Te  Te17  1  0.801463  0.602926  0.597925  1
  Te  Te18  1  0.198537  0.397074  0.097925  1
  Te  Te19  1  0.333333  0.666667  0.553230  1
  Te  Te20  1  0.198537  0.801463  0.097925  1
  Te  Te21  1  0.801463  0.198537  0.597925  1
  Cl  Cl22  1  0.000000  0.000000  0.276819  1
  Cl  Cl23  1  0.000000  0.000000  0.776819  1
