# generated using pymatgen
data_Cs(CO)2
_symmetry_space_group_name_H-M   'P 1'
_cell_length_a   4.84526965
_cell_length_b   6.78737982
_cell_length_c   6.78721784
_cell_angle_alpha   63.74636853
_cell_angle_beta   88.97499673
_cell_angle_gamma   88.97227276
_symmetry_Int_Tables_number   1
_chemical_formula_structural   Cs(CO)2
_chemical_formula_sum   'Cs2 C4 O4'
_cell_volume   200.13936145
_cell_formula_units_Z   2
loop_
 _symmetry_equiv_pos_site_id
 _symmetry_equiv_pos_as_xyz
  1  'x, y, z'
loop_
 _atom_site_type_symbol
 _atom_site_label
 _atom_site_symmetry_multiplicity
 _atom_site_fract_x
 _atom_site_fract_y
 _atom_site_fract_z
 _atom_site_occupancy
  O  O0  1  0.214626  0.877100  0.336062  1
  C  C1  1  0.098772  0.944905  0.151722  1
  Cs  Cs2  1  0.303417  0.343450  0.343453  1
  O  O3  1  0.214680  0.336121  0.877080  1
  C  C4  1  0.901276  0.055071  0.848348  1
  C  C5  1  0.901250  0.848333  0.055069  1
  O  O6  1  0.785337  0.663904  0.122912  1
  O  O7  1  0.785340  0.122920  0.663883  1
  Cs  Cs8  1  0.696581  0.656556  0.656542  1
  C  C9  1  0.098721  0.151639  0.944929  1
