# generated using pymatgen
data_SnH18C6Br3N
_symmetry_space_group_name_H-M   'P 1'
_cell_length_a   6.59160826
_cell_length_b   12.04673796
_cell_length_c   19.24545480
_cell_angle_alpha   90.00000000
_cell_angle_beta   90.00000000
_cell_angle_gamma   90.00000000
_symmetry_Int_Tables_number   1
_chemical_formula_structural   SnH18C6Br3N
_chemical_formula_sum   'Sn4 H72 C24 Br12 N4'
_cell_volume   1528.23109337
_cell_formula_units_Z   4
loop_
 _symmetry_equiv_pos_site_id
 _symmetry_equiv_pos_as_xyz
  1  'x, y, z'
loop_
 _atom_site_type_symbol
 _atom_site_label
 _atom_site_symmetry_multiplicity
 _atom_site_fract_x
 _atom_site_fract_y
 _atom_site_fract_z
 _atom_site_occupancy
  Sn  Sn0  1  0.581466  0.999520  0.750000  1
  Sn  Sn1  1  0.418534  0.499520  0.750000  1
  Sn  Sn2  1  0.581466  0.500480  0.250000  1
  Sn  Sn3  1  0.418534  0.000480  0.250000  1
  H  H4  1  0.667026  0.716970  0.250000  1
  H  H5  1  0.786788  0.738573  0.919794  1
  H  H6  1  0.773659  0.275045  0.920705  1
  H  H7  1  0.960046  0.116560  0.429111  1
  H  H8  1  0.783607  0.929437  0.203165  1
  H  H9  1  0.027525  0.128677  0.578946  1
  H  H10  1  0.027525  0.371323  0.078946  1
  H  H11  1  0.759736  0.371139  0.992216  1
  H  H12  1  0.771435  0.631540  0.515390  1
  H  H13  1  0.960046  0.383440  0.570889  1
  H  H14  1  0.972475  0.628677  0.921054  1
  H  H15  1  0.863613  0.645649  0.297056  1
  H  H16  1  0.759736  0.128861  0.007784  1
  H  H17  1  0.039954  0.616560  0.070889  1
  H  H18  1  0.240264  0.871139  0.992216  1
  H  H19  1  0.240264  0.871139  0.507784  1
  H  H20  1  0.773659  0.224955  0.079295  1
  H  H21  1  0.759736  0.128861  0.492216  1
  H  H22  1  0.226341  0.724955  0.079295  1
  H  H23  1  0.972475  0.628677  0.578946  1
  H  H24  1  0.960046  0.383440  0.929111  1
  H  H25  1  0.771435  0.631540  0.984610  1
  H  H26  1  0.136387  0.145649  0.297056  1
  H  H27  1  0.188039  0.557560  0.250000  1
  H  H28  1  0.039954  0.616560  0.429111  1
  H  H29  1  0.188039  0.942440  0.750000  1
  H  H30  1  0.863613  0.645649  0.202944  1
  H  H31  1  0.027525  0.371323  0.421054  1
  H  H32  1  0.786788  0.761427  0.080206  1
  H  H33  1  0.811961  0.442440  0.750000  1
  H  H34  1  0.786788  0.738573  0.580206  1
  H  H35  1  0.332973  0.216970  0.250000  1
  H  H36  1  0.783607  0.929437  0.296835  1
  H  H37  1  0.773659  0.224955  0.420705  1
  H  H38  1  0.783607  0.570563  0.703165  1
  H  H39  1  0.332973  0.283030  0.750000  1
  H  H40  1  0.136387  0.145649  0.202944  1
  H  H41  1  0.213212  0.238573  0.919794  1
  H  H42  1  0.216393  0.070563  0.703165  1
  H  H43  1  0.667026  0.783030  0.750000  1
  H  H44  1  0.213212  0.261427  0.419794  1
  H  H45  1  0.039954  0.883440  0.929111  1
  H  H46  1  0.136387  0.354351  0.702944  1
  H  H47  1  0.863613  0.854351  0.797056  1
  H  H48  1  0.972475  0.871323  0.078946  1
  H  H49  1  0.226341  0.775045  0.579295  1
  H  H50  1  0.228565  0.131540  0.515390  1
  H  H51  1  0.228565  0.131540  0.984610  1
  H  H52  1  0.226341  0.775045  0.920705  1
  H  H53  1  0.863613  0.854351  0.702944  1
  H  H54  1  0.136387  0.354351  0.797056  1
  H  H55  1  0.039954  0.883440  0.570889  1
  H  H56  1  0.759736  0.371139  0.507784  1
  H  H57  1  0.216393  0.429437  0.203165  1
  H  H58  1  0.216393  0.429437  0.296835  1
  H  H59  1  0.226341  0.724955  0.420705  1
  H  H60  1  0.811961  0.057560  0.250000  1
  H  H61  1  0.228565  0.368460  0.484610  1
  H  H62  1  0.216393  0.070563  0.796835  1
  H  H63  1  0.213212  0.238573  0.580206  1
  H  H64  1  0.786788  0.761427  0.419794  1
  H  H65  1  0.027525  0.128677  0.921054  1
  H  H66  1  0.960046  0.116560  0.070889  1
  H  H67  1  0.783607  0.570563  0.796835  1
  H  H68  1  0.771435  0.868460  0.484610  1
  H  H69  1  0.240264  0.628861  0.007784  1
  H  H70  1  0.228565  0.368460  0.015390  1
  H  H71  1  0.240264  0.628861  0.492216  1
  H  H72  1  0.771435  0.868460  0.015390  1
  H  H73  1  0.213212  0.261427  0.080206  1
  H  H74  1  0.972475  0.871323  0.421054  1
  H  H75  1  0.773659  0.275045  0.579295  1
  C  C76  1  0.770801  0.645772  0.250000  1
  C  C77  1  0.741067  0.975275  0.250000  1
  C  C78  1  0.138552  0.674418  0.042713  1
  C  C79  1  0.874252  0.681861  0.547235  1
  C  C80  1  0.874252  0.681861  0.952765  1
  C  C81  1  0.138552  0.825582  0.957287  1
  C  C82  1  0.125748  0.318139  0.452765  1
  C  C83  1  0.874252  0.818139  0.452765  1
  C  C84  1  0.874252  0.818139  0.047235  1
  C  C85  1  0.125748  0.318139  0.047235  1
  C  C86  1  0.125748  0.181861  0.547235  1
  C  C87  1  0.229199  0.354228  0.750000  1
  C  C88  1  0.741067  0.524725  0.750000  1
  C  C89  1  0.770801  0.854228  0.750000  1
  C  C90  1  0.861448  0.325582  0.957287  1
  C  C91  1  0.138552  0.825582  0.542713  1
  C  C92  1  0.861448  0.174418  0.457287  1
  C  C93  1  0.138552  0.674418  0.457287  1
  C  C94  1  0.258933  0.475275  0.250000  1
  C  C95  1  0.258933  0.024725  0.750000  1
  C  C96  1  0.861448  0.174418  0.042713  1
  C  C97  1  0.861448  0.325582  0.542713  1
  C  C98  1  0.229199  0.145772  0.250000  1
  C  C99  1  0.125748  0.181861  0.952765  1
  Br  Br100  1  0.592456  0.996520  0.895097  1
  Br  Br101  1  0.762806  0.311816  0.250000  1
  Br  Br102  1  0.592456  0.503480  0.104903  1
  Br  Br103  1  0.407544  0.003480  0.104903  1
  Br  Br104  1  0.592456  0.503480  0.395097  1
  Br  Br105  1  0.592456  0.996520  0.604903  1
  Br  Br106  1  0.762806  0.188184  0.750000  1
  Br  Br107  1  0.407544  0.003480  0.395097  1
  Br  Br108  1  0.407544  0.496520  0.604903  1
  Br  Br109  1  0.237194  0.688184  0.750000  1
  Br  Br110  1  0.407544  0.496520  0.895097  1
  Br  Br111  1  0.237194  0.811816  0.250000  1
  N  N112  1  0.993533  0.250000  0.000000  1
  N  N113  1  0.006467  0.750000  0.500000  1
  N  N114  1  0.006467  0.750000  0.000000  1
  N  N115  1  0.993533  0.250000  0.500000  1
