# generated using pymatgen
data_Sr2TmRuO6
_symmetry_space_group_name_H-M   'P 1'
_cell_length_a   5.81811744
_cell_length_b   5.79596901
_cell_length_c   8.20363647
_cell_angle_alpha   90.24481607
_cell_angle_beta   90.00000000
_cell_angle_gamma   90.00000000
_symmetry_Int_Tables_number   1
_chemical_formula_structural   Sr2TmRuO6
_chemical_formula_sum   'Sr4 Tm2 Ru2 O12'
_cell_volume   276.63745527
_cell_formula_units_Z   2
loop_
 _symmetry_equiv_pos_site_id
 _symmetry_equiv_pos_as_xyz
  1  'x, y, z'
loop_
 _atom_site_type_symbol
 _atom_site_label
 _atom_site_symmetry_multiplicity
 _atom_site_fract_x
 _atom_site_fract_y
 _atom_site_fract_z
 _atom_site_occupancy
  Sr  Sr0  1  0.970749  0.994265  0.750933  1
  Sr  Sr1  1  0.470749  0.505735  0.749067  1
  Sr  Sr2  1  0.029251  0.005735  0.249067  1
  Sr  Sr3  1  0.529251  0.494265  0.250933  1
  Tm  Tm4  1  0.000000  0.500000  0.000000  1
  Tm  Tm5  1  0.500000  0.000000  0.500000  1
  Ru  Ru6  1  0.000000  0.500000  0.500000  1
  Ru  Ru7  1  0.500000  0.000000  0.000000  1
  O  O8  1  0.704199  0.730397  0.964695  1
  O  O9  1  0.204199  0.769603  0.535305  1
  O  O10  1  0.295801  0.269603  0.035305  1
  O  O11  1  0.795801  0.230397  0.464695  1
  O  O12  1  0.228396  0.798121  0.964199  1
  O  O13  1  0.728396  0.701879  0.535801  1
  O  O14  1  0.771604  0.201879  0.035801  1
  O  O15  1  0.271604  0.298121  0.464199  1
  O  O16  1  0.514637  0.067547  0.763430  1
  O  O17  1  0.014637  0.432453  0.736570  1
  O  O18  1  0.485363  0.932453  0.236570  1
  O  O19  1  0.985363  0.567547  0.263430  1
