# generated using pymatgen
data_Cr4Si2Cl2O7
_symmetry_space_group_name_H-M   'P 1'
_cell_length_a   6.51011493
_cell_length_b   10.64636443
_cell_length_c   12.95809183
_cell_angle_alpha   90.00000000
_cell_angle_beta   90.00000000
_cell_angle_gamma   92.00048691
_symmetry_Int_Tables_number   1
_chemical_formula_structural   Cr4Si2Cl2O7
_chemical_formula_sum   'Cr16 Si8 Cl8 O28'
_cell_volume   897.56574036
_cell_formula_units_Z   4
loop_
 _symmetry_equiv_pos_site_id
 _symmetry_equiv_pos_as_xyz
  1  'x, y, z'
loop_
 _atom_site_type_symbol
 _atom_site_label
 _atom_site_symmetry_multiplicity
 _atom_site_fract_x
 _atom_site_fract_y
 _atom_site_fract_z
 _atom_site_occupancy
  Cr  Cr0  1  0.452204  0.921176  0.232871  1
  Cr  Cr1  1  0.851519  0.594992  0.113749  1
  Cr  Cr2  1  0.185650  0.408582  0.967908  1
  Cr  Cr3  1  0.819771  0.102960  0.128067  1
  Cr  Cr4  1  0.782311  0.613334  0.627218  1
  Cr  Cr5  1  0.441619  0.813285  0.542180  1
  Cr  Cr6  1  0.819771  0.602960  0.871933  1
  Cr  Cr7  1  0.785230  0.615852  0.362089  1
  Cr  Cr8  1  0.180364  0.421632  0.275939  1
  Cr  Cr9  1  0.785230  0.115852  0.637911  1
  Cr  Cr10  1  0.185650  0.908582  0.032092  1
  Cr  Cr11  1  0.452204  0.421176  0.767129  1
  Cr  Cr12  1  0.180364  0.921632  0.724061  1
  Cr  Cr13  1  0.441619  0.313285  0.457820  1
  Cr  Cr14  1  0.851519  0.094992  0.886251  1
  Cr  Cr15  1  0.782311  0.113334  0.372782  1
  Si  Si16  1  0.943201  0.355303  0.739364  1
  Si  Si17  1  0.943201  0.855303  0.260636  1
  Si  Si18  1  0.935413  0.872764  0.504488  1
  Si  Si19  1  0.678815  0.357017  0.001393  1
  Si  Si20  1  0.675948  0.364023  0.239136  1
  Si  Si21  1  0.675948  0.864023  0.760864  1
  Si  Si22  1  0.935413  0.372764  0.495512  1
  Si  Si23  1  0.678815  0.857017  0.998607  1
  Cl  Cl24  1  0.185233  0.233595  0.116602  1
  Cl  Cl25  1  0.245366  0.060180  0.875633  1
  Cl  Cl26  1  0.245366  0.560180  0.124367  1
  Cl  Cl27  1  0.427318  0.211093  0.627114  1
  Cl  Cl28  1  0.374348  0.547966  0.616630  1
  Cl  Cl29  1  0.374348  0.047966  0.383370  1
  Cl  Cl30  1  0.185233  0.733595  0.883398  1
  Cl  Cl31  1  0.427318  0.711093  0.372886  1
  O  O32  1  0.750576  0.712443  0.000961  1
  O  O33  1  0.844706  0.014787  0.506321  1
  O  O34  1  0.147275  0.890994  0.192869  1
  O  O35  1  0.869862  0.967681  0.737464  1
  O  O36  1  0.490164  0.890668  0.075370  1
  O  O37  1  0.827162  0.222271  0.771874  1
  O  O38  1  0.613883  0.396518  0.119347  1
  O  O39  1  0.139899  0.855346  0.574879  1
  O  O40  1  0.750929  0.771309  0.539165  1
  O  O41  1  0.775718  0.970655  0.252212  1
  O  O42  1  0.876605  0.961059  0.019033  1
  O  O43  1  0.844706  0.514787  0.493679  1
  O  O44  1  0.750929  0.271309  0.460835  1
  O  O45  1  0.748547  0.220214  0.244335  1
  O  O46  1  0.482193  0.393653  0.313568  1
  O  O47  1  0.775718  0.470655  0.747788  1
  O  O48  1  0.827162  0.722271  0.228126  1
  O  O49  1  0.869862  0.467681  0.262536  1
  O  O50  1  0.482193  0.893653  0.686432  1
  O  O51  1  0.490164  0.390668  0.924630  1
  O  O52  1  0.750576  0.212443  0.999039  1
  O  O53  1  0.876605  0.461059  0.980967  1
  O  O54  1  0.139899  0.355346  0.425121  1
  O  O55  1  0.147275  0.390994  0.807131  1
  O  O56  1  0.748547  0.720214  0.755665  1
  O  O57  1  0.990909  0.334728  0.615955  1
  O  O58  1  0.990909  0.834728  0.384045  1
  O  O59  1  0.613883  0.896518  0.880653  1
