# generated using pymatgen
data_NaFe2(MoO4)3
_symmetry_space_group_name_H-M   'P 1'
_cell_length_a   7.06488553
_cell_length_b   7.06994149
_cell_length_c   11.35350936
_cell_angle_alpha   80.01410201
_cell_angle_beta   84.09939180
_cell_angle_gamma   80.93412178
_symmetry_Int_Tables_number   1
_chemical_formula_structural   NaFe2(MoO4)3
_chemical_formula_sum   'Na2 Fe4 Mo6 O24'
_cell_volume   549.85731011
_cell_formula_units_Z   2
loop_
 _symmetry_equiv_pos_site_id
 _symmetry_equiv_pos_as_xyz
  1  'x, y, z'
loop_
 _atom_site_type_symbol
 _atom_site_label
 _atom_site_symmetry_multiplicity
 _atom_site_fract_x
 _atom_site_fract_y
 _atom_site_fract_z
 _atom_site_occupancy
  Na  Na0  1  0.145318  0.408315  0.173943  1
  Na  Na1  1  0.854682  0.591685  0.826057  1
  Fe  Fe2  1  0.813553  0.169271  0.509726  1
  Fe  Fe3  1  0.771590  0.778513  0.115708  1
  Fe  Fe4  1  0.228410  0.221487  0.884292  1
  Fe  Fe5  1  0.186447  0.830729  0.490274  1
  Mo  Mo6  1  0.273442  0.295272  0.547271  1
  Mo  Mo7  1  0.726558  0.704728  0.452729  1
  Mo  Mo8  1  0.295766  0.713981  0.811894  1
  Mo  Mo9  1  0.704234  0.286019  0.188106  1
  Mo  Mo10  1  0.241631  0.900656  0.146383  1
  Mo  Mo11  1  0.758369  0.099344  0.853617  1
  O  O12  1  0.207240  0.536171  0.472370  1
  O  O13  1  0.875796  0.867497  0.494763  1
  O  O14  1  0.484802  0.788413  0.494609  1
  O  O15  1  0.810926  0.851696  0.933124  1
  O  O16  1  0.541572  0.655295  0.772357  1
  O  O17  1  0.248027  0.291485  0.708377  1
  O  O18  1  0.163412  0.762473  0.681843  1
  O  O19  1  0.836588  0.237527  0.318157  1
  O  O20  1  0.458428  0.344705  0.227643  1
  O  O21  1  0.124204  0.132503  0.505237  1
  O  O22  1  0.516686  0.205291  0.891942  1
  O  O23  1  0.798524  0.494950  0.093630  1
  O  O24  1  0.792760  0.463829  0.527630  1
  O  O25  1  0.201476  0.505050  0.906370  1
  O  O26  1  0.751973  0.708515  0.291623  1
  O  O27  1  0.778988  0.080610  0.700216  1
  O  O28  1  0.256126  0.931341  0.883761  1
  O  O29  1  0.067585  0.747074  0.125657  1
  O  O30  1  0.932415  0.252926  0.874343  1
  O  O31  1  0.189074  0.148304  0.066876  1
  O  O32  1  0.743874  0.068659  0.116239  1
  O  O33  1  0.483314  0.794709  0.108058  1
  O  O34  1  0.515198  0.211587  0.505391  1
  O  O35  1  0.221012  0.919390  0.299784  1
