# generated using pymatgen
data_Bi7Mo2(AsO8)3
_symmetry_space_group_name_H-M   'P 1'
_cell_length_a   5.41014712
_cell_length_b   16.34811194
_cell_length_c   24.07784898
_cell_angle_alpha   90.00000000
_cell_angle_beta   90.00000000
_cell_angle_gamma   90.00000000
_symmetry_Int_Tables_number   1
_chemical_formula_structural   Bi7Mo2(AsO8)3
_chemical_formula_sum   'Bi28 Mo8 As12 O96'
_cell_volume   2129.58198432
_cell_formula_units_Z   4
loop_
 _symmetry_equiv_pos_site_id
 _symmetry_equiv_pos_as_xyz
  1  'x, y, z'
loop_
 _atom_site_type_symbol
 _atom_site_label
 _atom_site_symmetry_multiplicity
 _atom_site_fract_x
 _atom_site_fract_y
 _atom_site_fract_z
 _atom_site_occupancy
  Bi  Bi0  1  0.197499  0.324563  0.811276  1
  Bi  Bi1  1  0.695589  0.661329  0.940442  1
  Bi  Bi2  1  0.760673  0.177018  0.055989  1
  Bi  Bi3  1  0.739327  0.677018  0.555989  1
  Bi  Bi4  1  0.697499  0.324563  0.188724  1
  Bi  Bi5  1  0.304411  0.338671  0.059558  1
  Bi  Bi6  1  0.250000  0.500000  0.318728  1
  Bi  Bi7  1  0.750000  0.000000  0.181272  1
  Bi  Bi8  1  0.195589  0.838671  0.559558  1
  Bi  Bi9  1  0.239327  0.822982  0.944011  1
  Bi  Bi10  1  0.239327  0.677018  0.444011  1
  Bi  Bi11  1  0.195589  0.661329  0.059558  1
  Bi  Bi12  1  0.739327  0.822982  0.055989  1
  Bi  Bi13  1  0.260673  0.177018  0.944011  1
  Bi  Bi14  1  0.304411  0.161329  0.559558  1
  Bi  Bi15  1  0.802501  0.824563  0.688724  1
  Bi  Bi16  1  0.250000  0.000000  0.818728  1
  Bi  Bi17  1  0.302501  0.675437  0.811276  1
  Bi  Bi18  1  0.695589  0.838671  0.440442  1
  Bi  Bi19  1  0.260673  0.322982  0.444011  1
  Bi  Bi20  1  0.302501  0.824563  0.311276  1
  Bi  Bi21  1  0.760673  0.322982  0.555989  1
  Bi  Bi22  1  0.197499  0.175437  0.311276  1
  Bi  Bi23  1  0.802501  0.675437  0.188724  1
  Bi  Bi24  1  0.750000  0.500000  0.681272  1
  Bi  Bi25  1  0.697499  0.175437  0.688724  1
  Bi  Bi26  1  0.804411  0.338671  0.940442  1
  Bi  Bi27  1  0.804411  0.161329  0.440442  1
  Mo  Mo28  1  0.750000  0.500000  0.424219  1
  Mo  Mo29  1  0.250000  0.500000  0.177649  1
  Mo  Mo30  1  0.250000  0.000000  0.677649  1
  Mo  Mo31  1  0.750000  0.500000  0.822351  1
  Mo  Mo32  1  0.750000  0.000000  0.924219  1
  Mo  Mo33  1  0.750000  0.000000  0.322351  1
  Mo  Mo34  1  0.250000  0.500000  0.575781  1
  Mo  Mo35  1  0.250000  0.000000  0.075781  1
  As  As36  1  0.750000  0.000000  0.571085  1
  As  As37  1  0.250000  0.000000  0.428915  1
  As  As38  1  0.250000  0.500000  0.928915  1
  As  As39  1  0.251299  0.668546  0.672337  1
  As  As40  1  0.248701  0.331454  0.672337  1
  As  As41  1  0.751299  0.831454  0.827663  1
  As  As42  1  0.248701  0.168546  0.172337  1
  As  As43  1  0.751299  0.668546  0.327663  1
  As  As44  1  0.750000  0.500000  0.071085  1
  As  As45  1  0.251299  0.831454  0.172337  1
  As  As46  1  0.748701  0.168546  0.827663  1
  As  As47  1  0.748701  0.331454  0.327663  1
  O  O48  1  0.090535  0.226622  0.123855  1
  O  O49  1  0.537877  0.459194  0.772968  1
  O  O50  1  0.474137  0.449951  0.392237  1
  O  O51  1  0.403391  0.098787  0.653876  1
  O  O52  1  0.618901  0.074963  0.529516  1
  O  O53  1  0.451034  0.401669  0.643131  1
  O  O54  1  0.393219  0.725017  0.894335  1
  O  O55  1  0.909465  0.773378  0.876145  1
  O  O56  1  0.360327  0.077493  0.030016  1
  O  O57  1  0.455961  0.622949  0.717849  1
  O  O58  1  0.393219  0.774983  0.394335  1
  O  O59  1  0.403391  0.401213  0.153876  1
  O  O60  1  0.893219  0.774983  0.605665  1
  O  O61  1  0.582402  0.767285  0.783544  1
  O  O62  1  0.993103  0.752202  0.497176  1
  O  O63  1  0.951034  0.401669  0.356869  1
  O  O64  1  0.096609  0.901213  0.653876  1
  O  O65  1  0.955961  0.622949  0.282151  1
  O  O66  1  0.973876  0.450016  0.110378  1
  O  O67  1  0.451034  0.098331  0.143131  1
  O  O68  1  0.525863  0.949951  0.107763  1
  O  O69  1  0.881099  0.925037  0.529516  1
  O  O70  1  0.582402  0.732715  0.283544  1
  O  O71  1  0.473876  0.049984  0.389622  1
  O  O72  1  0.474137  0.050049  0.892237  1
  O  O73  1  0.951034  0.098331  0.856869  1
  O  O74  1  0.993103  0.747798  0.997176  1
  O  O75  1  0.006897  0.252202  0.002824  1
  O  O76  1  0.639673  0.577493  0.469984  1
  O  O77  1  0.590535  0.226622  0.876145  1
  O  O78  1  0.139673  0.577493  0.530016  1
  O  O79  1  0.381099  0.925037  0.470484  1
  O  O80  1  0.006897  0.247798  0.502824  1
  O  O81  1  0.974137  0.449951  0.607763  1
  O  O82  1  0.417598  0.232715  0.216456  1
  O  O83  1  0.537877  0.040806  0.272968  1
  O  O84  1  0.506897  0.252202  0.997176  1
  O  O85  1  0.525863  0.550049  0.607763  1
  O  O86  1  0.974137  0.050049  0.107763  1
  O  O87  1  0.548966  0.598331  0.356869  1
  O  O88  1  0.548966  0.901669  0.856869  1
  O  O89  1  0.909465  0.726622  0.376145  1
  O  O90  1  0.106781  0.225017  0.394335  1
  O  O91  1  0.973876  0.049984  0.610378  1
  O  O92  1  0.544039  0.122949  0.782151  1
  O  O93  1  0.118901  0.074963  0.470484  1
  O  O94  1  0.044039  0.122949  0.217849  1
  O  O95  1  0.955961  0.877051  0.782151  1
  O  O96  1  0.096609  0.598787  0.153876  1
  O  O97  1  0.048966  0.598331  0.643131  1
  O  O98  1  0.026124  0.950016  0.389622  1
  O  O99  1  0.044039  0.377051  0.717849  1
  O  O100  1  0.526124  0.549984  0.110378  1
  O  O101  1  0.139673  0.922507  0.030016  1
  O  O102  1  0.962123  0.540806  0.772968  1
  O  O103  1  0.409465  0.726622  0.623855  1
  O  O104  1  0.596609  0.598787  0.846124  1
  O  O105  1  0.473876  0.450016  0.889622  1
  O  O106  1  0.903391  0.098787  0.346124  1
  O  O107  1  0.082402  0.767285  0.216456  1
  O  O108  1  0.606781  0.225017  0.605665  1
  O  O109  1  0.903391  0.401213  0.846124  1
  O  O110  1  0.090535  0.273378  0.623855  1
  O  O111  1  0.590535  0.273378  0.376145  1
  O  O112  1  0.639673  0.922507  0.969984  1
  O  O113  1  0.526124  0.950016  0.610378  1
  O  O114  1  0.917598  0.232715  0.783544  1
  O  O115  1  0.409465  0.773378  0.123855  1
  O  O116  1  0.881099  0.574963  0.029516  1
  O  O117  1  0.106781  0.274983  0.894335  1
  O  O118  1  0.618901  0.425037  0.029516  1
  O  O119  1  0.417598  0.267285  0.716456  1
  O  O120  1  0.025863  0.949951  0.892237  1
  O  O121  1  0.893219  0.725017  0.105665  1
  O  O122  1  0.462123  0.959194  0.727032  1
  O  O123  1  0.360327  0.422507  0.530016  1
  O  O124  1  0.082402  0.732715  0.716456  1
  O  O125  1  0.606781  0.274983  0.105665  1
  O  O126  1  0.462123  0.540806  0.227032  1
  O  O127  1  0.506897  0.247798  0.497176  1
  O  O128  1  0.860327  0.077493  0.969984  1
  O  O129  1  0.037877  0.040806  0.727032  1
  O  O130  1  0.962123  0.959194  0.272968  1
  O  O131  1  0.917598  0.267285  0.283544  1
  O  O132  1  0.493103  0.752202  0.502824  1
  O  O133  1  0.493103  0.747798  0.002824  1
  O  O134  1  0.381099  0.574963  0.970484  1
  O  O135  1  0.025863  0.550049  0.392237  1
  O  O136  1  0.037877  0.459194  0.227032  1
  O  O137  1  0.860327  0.422507  0.469984  1
  O  O138  1  0.544039  0.377051  0.282151  1
  O  O139  1  0.048966  0.901669  0.143131  1
  O  O140  1  0.026124  0.549984  0.889622  1
  O  O141  1  0.118901  0.425037  0.970484  1
  O  O142  1  0.596609  0.901213  0.346124  1
  O  O143  1  0.455961  0.877051  0.217849  1
