# generated using pymatgen
data_NdH18C3S3(O2F)9
_symmetry_space_group_name_H-M   'P 1'
_cell_length_a   14.08254247
_cell_length_b   14.08254264
_cell_length_c   7.37334695
_cell_angle_alpha   90.00000000
_cell_angle_beta   90.00000000
_cell_angle_gamma   119.99999962
_symmetry_Int_Tables_number   1
_chemical_formula_structural   NdH18C3S3(O2F)9
_chemical_formula_sum   'Nd2 H36 C6 S6 O36 F18'
_cell_volume   1266.36076851
_cell_formula_units_Z   2
loop_
 _symmetry_equiv_pos_site_id
 _symmetry_equiv_pos_as_xyz
  1  'x, y, z'
loop_
 _atom_site_type_symbol
 _atom_site_label
 _atom_site_symmetry_multiplicity
 _atom_site_fract_x
 _atom_site_fract_y
 _atom_site_fract_z
 _atom_site_occupancy
  Nd  Nd0  1  0.333333  0.666667  0.750000  1
  Nd  Nd1  1  0.666667  0.333333  0.250000  1
  S  S2  1  0.679314  0.620138  0.750000  1
  S  S3  1  0.059176  0.679314  0.250000  1
  S  S4  1  0.620138  0.940824  0.250000  1
  S  S5  1  0.379862  0.059176  0.750000  1
  S  S6  1  0.940824  0.320686  0.750000  1
  S  S7  1  0.320686  0.379862  0.250000  1
  F  F8  1  0.719517  0.825019  0.750000  1
  F  F9  1  0.894498  0.719517  0.250000  1
  F  F10  1  0.825019  0.105502  0.250000  1
  F  F11  1  0.174981  0.894498  0.750000  1
  F  F12  1  0.105502  0.280483  0.750000  1
  F  F13  1  0.280483  0.174981  0.250000  1
  F  F14  1  0.841209  0.800798  0.601028  1
  F  F15  1  0.040410  0.841209  0.101028  1
  F  F16  1  0.800798  0.959590  0.101028  1
  F  F17  1  0.199202  0.040410  0.601028  1
  F  F18  1  0.959590  0.158791  0.601028  1
  F  F19  1  0.158791  0.199202  0.101028  1
  F  F20  1  0.158791  0.199202  0.398972  1
  F  F21  1  0.959590  0.158791  0.898972  1
  F  F22  1  0.199202  0.040410  0.898972  1
  F  F23  1  0.800798  0.959590  0.398972  1
  F  F24  1  0.040410  0.841209  0.398972  1
  F  F25  1  0.841209  0.800798  0.898972  1
  O  O26  1  0.337950  0.793011  0.508829  1
  O  O27  1  0.544939  0.337950  0.008829  1
  O  O28  1  0.793011  0.455061  0.008829  1
  O  O29  1  0.206989  0.544939  0.508829  1
  O  O30  1  0.455061  0.662050  0.508829  1
  O  O31  1  0.662050  0.206989  0.008829  1
  O  O32  1  0.662050  0.206989  0.491171  1
  O  O33  1  0.455061  0.662050  0.991171  1
  O  O34  1  0.206989  0.544939  0.991171  1
  O  O35  1  0.793011  0.455061  0.491171  1
  O  O36  1  0.544939  0.337950  0.491171  1
  O  O37  1  0.337950  0.793011  0.991171  1
  O  O38  1  0.143846  0.653704  0.750000  1
  O  O39  1  0.490142  0.143846  0.250000  1
  O  O40  1  0.653704  0.509858  0.250000  1
  O  O41  1  0.346296  0.490142  0.750000  1
  O  O42  1  0.509858  0.856154  0.750000  1
  O  O43  1  0.856154  0.346296  0.250000  1
  O  O44  1  0.616419  0.600773  0.582296  1
  O  O45  1  0.015647  0.616419  0.082296  1
  O  O46  1  0.600773  0.984353  0.082296  1
  O  O47  1  0.399227  0.015647  0.582296  1
  O  O48  1  0.984353  0.383581  0.582296  1
  O  O49  1  0.383581  0.399227  0.082296  1
  O  O50  1  0.383581  0.399227  0.417704  1
  O  O51  1  0.984353  0.383581  0.917704  1
  O  O52  1  0.399227  0.015647  0.917704  1
  O  O53  1  0.600773  0.984353  0.417704  1
  O  O54  1  0.015647  0.616419  0.417704  1
  O  O55  1  0.616419  0.600773  0.917704  1
  O  O56  1  0.750639  0.571895  0.750000  1
  O  O57  1  0.178744  0.750639  0.250000  1
  O  O58  1  0.571895  0.821256  0.250000  1
  O  O59  1  0.428105  0.178744  0.750000  1
  O  O60  1  0.821256  0.249361  0.750000  1
  O  O61  1  0.249361  0.428105  0.250000  1
  C  C62  1  0.776954  0.771443  0.750000  1
  C  C63  1  0.005511  0.776954  0.250000  1
  C  C64  1  0.771443  0.994489  0.250000  1
  C  C65  1  0.228557  0.005511  0.750000  1
  C  C66  1  0.994489  0.223046  0.750000  1
  C  C67  1  0.223046  0.228557  0.250000  1
  H  H68  1  0.364507  0.870743  0.536123  1
  H  H69  1  0.493764  0.364507  0.036123  1
  H  H70  1  0.870743  0.506236  0.036123  1
  H  H71  1  0.129257  0.493764  0.536123  1
  H  H72  1  0.506236  0.635493  0.536123  1
  H  H73  1  0.635493  0.129257  0.036123  1
  H  H74  1  0.635493  0.129257  0.463877  1
  H  H75  1  0.506236  0.635493  0.963877  1
  H  H76  1  0.129257  0.493764  0.963877  1
  H  H77  1  0.870743  0.506236  0.463877  1
  H  H78  1  0.493764  0.364507  0.463877  1
  H  H79  1  0.364507  0.870743  0.963877  1
  H  H80  1  0.276857  0.770253  0.422573  1
  H  H81  1  0.506604  0.276857  0.922573  1
  H  H82  1  0.770253  0.493396  0.922573  1
  H  H83  1  0.229747  0.506604  0.422573  1
  H  H84  1  0.493396  0.723143  0.422573  1
  H  H85  1  0.723143  0.229747  0.922573  1
  H  H86  1  0.723143  0.229747  0.577427  1
  H  H87  1  0.493396  0.723143  0.077427  1
  H  H88  1  0.229747  0.506604  0.077427  1
  H  H89  1  0.770253  0.493396  0.577427  1
  H  H90  1  0.506604  0.276857  0.577427  1
  H  H91  1  0.276857  0.770253  0.077427  1
  H  H92  1  0.099485  0.646074  0.642516  1
  H  H93  1  0.453412  0.099485  0.142516  1
  H  H94  1  0.646074  0.546588  0.142516  1
  H  H95  1  0.353926  0.453412  0.642516  1
  H  H96  1  0.546588  0.900515  0.642516  1
  H  H97  1  0.900515  0.353926  0.142516  1
  H  H98  1  0.900515  0.353926  0.357484  1
  H  H99  1  0.546588  0.900515  0.857484  1
  H  H100  1  0.353926  0.453412  0.857484  1
  H  H101  1  0.646074  0.546588  0.357484  1
  H  H102  1  0.453412  0.099485  0.357484  1
  H  H103  1  0.099485  0.646074  0.857484  1
