# generated using pymatgen
data_KMnF4
_symmetry_space_group_name_H-M   'P 1'
_cell_length_a   5.92189897
_cell_length_b   7.83080115
_cell_length_c   7.87228648
_cell_angle_alpha   90.00000000
_cell_angle_beta   90.73654425
_cell_angle_gamma   90.00000000
_symmetry_Int_Tables_number   1
_chemical_formula_structural   KMnF4
_chemical_formula_sum   'K4 Mn4 F16'
_cell_volume   365.03305620
_cell_formula_units_Z   4
loop_
 _symmetry_equiv_pos_site_id
 _symmetry_equiv_pos_as_xyz
  1  'x, y, z'
loop_
 _atom_site_type_symbol
 _atom_site_label
 _atom_site_symmetry_multiplicity
 _atom_site_fract_x
 _atom_site_fract_y
 _atom_site_fract_z
 _atom_site_occupancy
  F  F0  1  0.710863  0.076077  0.945769  1
  F  F1  1  0.289938  0.557871  0.934848  1
  F  F2  1  0.289938  0.942129  0.434848  1
  F  F3  1  0.710062  0.442129  0.065152  1
  F  F4  1  0.884263  0.769646  0.996589  1
  F  F5  1  0.115737  0.269646  0.503411  1
  F  F6  1  0.115737  0.230354  0.003411  1
  F  F7  1  0.884263  0.730354  0.496589  1
  F  F8  1  0.096157  0.980962  0.733126  1
  F  F9  1  0.710863  0.423923  0.445769  1
  F  F10  1  0.903843  0.019037  0.266874  1
  F  F11  1  0.096157  0.519038  0.233126  1
  F  F12  1  0.903843  0.480963  0.766874  1
  F  F13  1  0.289137  0.576077  0.554231  1
  F  F14  1  0.289137  0.923923  0.054231  1
  F  F15  1  0.710062  0.057871  0.565152  1
  K  K16  1  0.506975  0.693381  0.254621  1
  K  K17  1  0.493025  0.193381  0.245379  1
  K  K18  1  0.493025  0.306619  0.745379  1
  K  K19  1  0.506975  0.806619  0.754621  1
  Mn  Mn20  1  0.000000  0.000000  0.500000  1
  Mn  Mn21  1  0.000000  0.500000  0.000000  1
  Mn  Mn22  1  0.000000  0.500000  0.500000  1
  Mn  Mn23  1  0.000000  0.000000  0.000000  1
