# generated using pymatgen
data_Na2LuMoPO8
_symmetry_space_group_name_H-M   'P 1'
_cell_length_a   6.82351260
_cell_length_b   11.42466459
_cell_length_c   11.42466394
_cell_angle_alpha   63.69274870
_cell_angle_beta   72.62461557
_cell_angle_gamma   72.62461581
_symmetry_Int_Tables_number   1
_chemical_formula_structural   Na2LuMoPO8
_chemical_formula_sum   'Na8 Lu4 Mo4 P4 O32'
_cell_volume   747.42140292
_cell_formula_units_Z   4
loop_
 _symmetry_equiv_pos_site_id
 _symmetry_equiv_pos_as_xyz
  1  'x, y, z'
loop_
 _atom_site_type_symbol
 _atom_site_label
 _atom_site_symmetry_multiplicity
 _atom_site_fract_x
 _atom_site_fract_y
 _atom_site_fract_z
 _atom_site_occupancy
  Na  Na0  1  0.664480  0.903841  0.288722  1
  Na  Na1  1  0.142957  0.403841  0.788722  1
  Na  Na2  1  0.357043  0.711278  0.096159  1
  Na  Na3  1  0.164480  0.788722  0.403841  1
  Na  Na4  1  0.642957  0.288722  0.903841  1
  Na  Na5  1  0.857043  0.596159  0.211278  1
  Na  Na6  1  0.835520  0.211278  0.596159  1
  Na  Na7  1  0.335520  0.096159  0.711278  1
  Lu  Lu8  1  0.250000  0.178455  0.321545  1
  Lu  Lu9  1  0.750000  0.821545  0.678455  1
  Lu  Lu10  1  0.250000  0.678455  0.821545  1
  Lu  Lu11  1  0.750000  0.321545  0.178455  1
  Mo  Mo12  1  0.824306  0.925694  0.925694  1
  Mo  Mo13  1  0.675694  0.574306  0.574306  1
  Mo  Mo14  1  0.175694  0.074306  0.074306  1
  Mo  Mo15  1  0.324306  0.425694  0.425694  1
  P  P16  1  0.750000  0.068398  0.431602  1
  P  P17  1  0.250000  0.431602  0.068398  1
  P  P18  1  0.750000  0.568398  0.931602  1
  P  P19  1  0.250000  0.931602  0.568398  1
  O  O20  1  0.807053  0.423312  0.940963  1
  O  O21  1  0.772092  0.399051  0.641047  1
  O  O22  1  0.828671  0.923312  0.440964  1
  O  O23  1  0.565786  0.656438  0.857727  1
  O  O24  1  0.671329  0.059036  0.576688  1
  O  O25  1  0.920050  0.156438  0.357727  1
  O  O26  1  0.079950  0.843562  0.642273  1
  O  O27  1  0.727908  0.858953  0.100949  1
  O  O28  1  0.904547  0.155585  0.106898  1
  O  O29  1  0.832970  0.655585  0.606898  1
  O  O30  1  0.227908  0.600949  0.358953  1
  O  O31  1  0.434214  0.343562  0.142273  1
  O  O32  1  0.171329  0.076688  0.559037  1
  O  O33  1  0.332970  0.106898  0.155585  1
  O  O34  1  0.095453  0.844415  0.893102  1
  O  O35  1  0.420050  0.857727  0.656438  1
  O  O36  1  0.404547  0.606898  0.655585  1
  O  O37  1  0.692947  0.559037  0.076688  1
  O  O38  1  0.272092  0.141047  0.899051  1
  O  O39  1  0.187811  0.899051  0.141047  1
  O  O40  1  0.579950  0.142273  0.343562  1
  O  O41  1  0.328671  0.940963  0.423312  1
  O  O42  1  0.687811  0.641047  0.399051  1
  O  O43  1  0.934214  0.642273  0.843562  1
  O  O44  1  0.667030  0.893102  0.844415  1
  O  O45  1  0.307053  0.440964  0.923312  1
  O  O46  1  0.192947  0.576688  0.059036  1
  O  O47  1  0.812189  0.100949  0.858953  1
  O  O48  1  0.065786  0.357727  0.156438  1
  O  O49  1  0.167030  0.344415  0.393102  1
  O  O50  1  0.595453  0.393102  0.344415  1
  O  O51  1  0.312189  0.358953  0.600949  1
