# generated using pymatgen
data_Cr7(PO4)6
_symmetry_space_group_name_H-M   'P 1'
_cell_length_a   6.36349343
_cell_length_b   8.16204182
_cell_length_c   9.46135589
_cell_angle_alpha   106.87215238
_cell_angle_beta   108.52589861
_cell_angle_gamma   100.59752443
_symmetry_Int_Tables_number   1
_chemical_formula_structural   Cr7(PO4)6
_chemical_formula_sum   'Cr7 P6 O24'
_cell_volume   424.74405179
_cell_formula_units_Z   1
loop_
 _symmetry_equiv_pos_site_id
 _symmetry_equiv_pos_as_xyz
  1  'x, y, z'
loop_
 _atom_site_type_symbol
 _atom_site_label
 _atom_site_symmetry_multiplicity
 _atom_site_fract_x
 _atom_site_fract_y
 _atom_site_fract_z
 _atom_site_occupancy
  O  O0  1  0.271775  0.545979  0.734839  1
  O  O1  1  0.728225  0.454021  0.265161  1
  O  O2  1  0.746964  0.208321  0.035836  1
  O  O3  1  0.253036  0.791679  0.964163  1
  O  O4  1  0.556208  0.130517  0.219263  1
  O  O5  1  0.443792  0.869483  0.780737  1
  O  O6  1  0.772807  0.290046  0.563605  1
  O  O7  1  0.227193  0.709954  0.436394  1
  O  O8  1  0.124649  0.291274  0.418298  1
  O  O9  1  0.875352  0.708727  0.581702  1
  O  O10  1  0.072097  0.048337  0.155264  1
  O  O11  1  0.927903  0.951663  0.844735  1
  O  O12  1  0.204831  0.449099  0.205295  1
  O  O13  1  0.685264  0.957861  0.581376  1
  O  O14  1  0.314735  0.042138  0.418623  1
  O  O15  1  0.454731  0.758639  0.263424  1
  O  O16  1  0.545269  0.241361  0.736576  1
  O  O17  1  0.882833  0.971939  0.339266  1
  O  O18  1  0.795169  0.550900  0.794704  1
  O  O19  1  0.635232  0.750704  0.988617  1
  O  O20  1  0.364768  0.249297  0.011385  1
  O  O21  1  0.011074  0.682640  0.150728  1
  O  O22  1  0.988926  0.317361  0.849272  1
  O  O23  1  0.117167  0.028061  0.660735  1
  P  P24  1  0.095624  0.097149  0.334320  1
  P  P25  1  0.904376  0.902850  0.665681  1
  P  P26  1  0.773510  0.352877  0.736272  1
  P  P27  1  0.226490  0.647123  0.263727  1
  P  P28  1  0.604390  0.258278  0.135416  1
  P  P29  1  0.395610  0.741723  0.864586  1
  Cr  Cr30  1  0.283223  0.322352  0.795928  1
  Cr  Cr31  1  0.716777  0.677648  0.204071  1
  Cr  Cr32  1  0.619040  0.039712  0.390321  1
  Cr  Cr33  1  0.380959  0.960288  0.609680  1
  Cr  Cr34  1  0.999999  0.500000  0.500000  1
  Cr  Cr35  1  0.048019  0.213901  0.026158  1
  Cr  Cr36  1  0.951981  0.786099  0.973842  1
