# generated using pymatgen
data_SbO2
_symmetry_space_group_name_H-M   'P 1'
_cell_length_a   5.55933319
_cell_length_b   4.94181244
_cell_length_c   11.92525814
_cell_angle_alpha   89.99995693
_cell_angle_beta   90.00942508
_cell_angle_gamma   89.99997479
_symmetry_Int_Tables_number   1
_chemical_formula_structural   SbO2
_chemical_formula_sum   'Sb8 O16'
_cell_volume   327.62478185
_cell_formula_units_Z   8
loop_
 _symmetry_equiv_pos_site_id
 _symmetry_equiv_pos_as_xyz
  1  'x, y, z'
loop_
 _atom_site_type_symbol
 _atom_site_label
 _atom_site_symmetry_multiplicity
 _atom_site_fract_x
 _atom_site_fract_y
 _atom_site_fract_z
 _atom_site_occupancy
  Sb  Sb0  1  0.874050  0.000003  0.000009  1
  Sb  Sb1  1  0.125948  0.000003  0.499990  1
  Sb  Sb2  1  0.000012  0.462695  0.250000  1
  Sb  Sb3  1  0.500013  0.037255  0.250000  1
  Sb  Sb4  1  0.625948  0.500017  0.499982  1
  Sb  Sb5  1  0.999998  0.537252  0.750000  1
  Sb  Sb6  1  0.374050  0.500017  0.000017  1
  Sb  Sb7  1  0.499998  0.962680  0.749999  1
  O  O8  1  0.832711  0.832116  0.844923  1
  O  O9  1  0.332726  0.667840  0.844925  1
  O  O10  1  0.118482  0.253077  0.937830  1
  O  O11  1  0.881516  0.253077  0.562171  1
  O  O12  1  0.667342  0.332126  0.344930  1
  O  O13  1  0.381127  0.752622  0.437815  1
  O  O14  1  0.832666  0.167852  0.155074  1
  O  O15  1  0.618507  0.246967  0.937817  1
  O  O16  1  0.332661  0.332120  0.155070  1
  O  O17  1  0.167337  0.167847  0.344926  1
  O  O18  1  0.618867  0.752627  0.062185  1
  O  O19  1  0.381492  0.246965  0.562183  1
  O  O20  1  0.667270  0.667839  0.655076  1
  O  O21  1  0.118904  0.747442  0.062203  1
  O  O22  1  0.167286  0.832116  0.655078  1
  O  O23  1  0.881090  0.747446  0.437797  1
