# generated using pymatgen
data_Ta3SiNi2
_symmetry_space_group_name_H-M   'P 1'
_cell_length_a   7.90608767
_cell_length_b   7.90608786
_cell_length_c   7.90608825
_cell_angle_alpha   60.00000260
_cell_angle_beta   60.00000180
_cell_angle_gamma   60.00000442
_symmetry_Int_Tables_number   1
_chemical_formula_structural   Ta3SiNi2
_chemical_formula_sum   'Ta12 Si4 Ni8'
_cell_volume   349.43785521
_cell_formula_units_Z   4
loop_
 _symmetry_equiv_pos_site_id
 _symmetry_equiv_pos_as_xyz
  1  'x, y, z'
loop_
 _atom_site_type_symbol
 _atom_site_label
 _atom_site_symmetry_multiplicity
 _atom_site_fract_x
 _atom_site_fract_y
 _atom_site_fract_z
 _atom_site_occupancy
  Ni  Ni0  1  0.707650  0.707650  0.707650  1
  Ni  Ni1  1  0.292350  0.292350  0.622951  1
  Ni  Ni2  1  0.622951  0.292350  0.292350  1
  Ni  Ni3  1  0.292350  0.622951  0.292350  1
  Ni  Ni4  1  0.377049  0.707650  0.707650  1
  Ni  Ni5  1  0.707650  0.377049  0.707650  1
  Ni  Ni6  1  0.707650  0.707650  0.377049  1
  Ni  Ni7  1  0.292350  0.292350  0.292350  1
  Ta  Ta8  1  0.673024  0.076976  0.076976  1
  Ta  Ta9  1  0.923024  0.923024  0.326976  1
  Ta  Ta10  1  0.326976  0.326976  0.923024  1
  Ta  Ta11  1  0.923024  0.326976  0.326976  1
  Ta  Ta12  1  0.923024  0.326976  0.923024  1
  Ta  Ta13  1  0.326976  0.923024  0.326976  1
  Ta  Ta14  1  0.076976  0.673024  0.076976  1
  Ta  Ta15  1  0.076976  0.076976  0.673024  1
  Ta  Ta16  1  0.673024  0.673024  0.076976  1
  Ta  Ta17  1  0.673024  0.076976  0.673024  1
  Ta  Ta18  1  0.326976  0.923024  0.923024  1
  Ta  Ta19  1  0.076976  0.673024  0.673024  1
  Si  Si20  1  0.500000  0.500000  0.500000  1
  Si  Si21  1  0.500000  0.500000  0.000000  1
  Si  Si22  1  0.000000  0.500000  0.500000  1
  Si  Si23  1  0.500000  0.000000  0.500000  1
