# generated using pymatgen
data_Tl2Cd2(SO4)3
_symmetry_space_group_name_H-M   'P 1'
_cell_length_a   10.56239739
_cell_length_b   10.62047865
_cell_length_c   10.58947741
_cell_angle_alpha   90.00000000
_cell_angle_beta   89.93450009
_cell_angle_gamma   90.00000000
_symmetry_Int_Tables_number   1
_chemical_formula_structural   Tl2Cd2(SO4)3
_chemical_formula_sum   'Tl8 Cd8 S12 O48'
_cell_volume   1187.90261349
_cell_formula_units_Z   4
loop_
 _symmetry_equiv_pos_site_id
 _symmetry_equiv_pos_as_xyz
  1  'x, y, z'
loop_
 _atom_site_type_symbol
 _atom_site_label
 _atom_site_symmetry_multiplicity
 _atom_site_fract_x
 _atom_site_fract_y
 _atom_site_fract_z
 _atom_site_occupancy
  Tl  Tl0  1  0.820337  0.811854  0.563140  1
  Tl  Tl1  1  0.051531  0.046744  0.803744  1
  Tl  Tl2  1  0.677854  0.174274  0.063501  1
  Tl  Tl3  1  0.948469  0.546744  0.196256  1
  Tl  Tl4  1  0.447903  0.937064  0.303881  1
  Tl  Tl5  1  0.179663  0.311854  0.436860  1
  Tl  Tl6  1  0.552097  0.437064  0.696119  1
  Tl  Tl7  1  0.322146  0.674274  0.936499  1
  Cd  Cd8  1  0.089926  0.904317  0.165273  1
  Cd  Cd9  1  0.824380  0.157637  0.415184  1
  Cd  Cd10  1  0.410271  0.079687  0.665073  1
  Cd  Cd11  1  0.175620  0.657637  0.584816  1
  Cd  Cd12  1  0.676593  0.827404  0.915454  1
  Cd  Cd13  1  0.910074  0.404317  0.834727  1
  Cd  Cd14  1  0.589729  0.579687  0.334927  1
  Cd  Cd15  1  0.323407  0.327404  0.084546  1
  S  S16  1  0.510789  0.269882  0.377033  1
  S  S17  1  0.225038  0.367318  0.768026  1
  S  S18  1  0.010626  0.213877  0.122002  1
  S  S19  1  0.774962  0.867318  0.231974  1
  S  S20  1  0.275356  0.617086  0.268442  1
  S  S21  1  0.878723  0.478928  0.520446  1
  S  S22  1  0.489211  0.769882  0.622967  1
  S  S23  1  0.724644  0.117086  0.731558  1
  S  S24  1  0.121277  0.978928  0.479554  1
  S  S25  1  0.989374  0.713877  0.877998  1
  S  S26  1  0.378426  0.005521  0.979040  1
  S  S27  1  0.621574  0.505521  0.020960  1
  O  O28  1  0.514686  0.400902  0.430502  1
  O  O29  1  0.501212  0.937496  0.992032  1
  O  O30  1  0.184718  0.718420  0.235831  1
  O  O31  1  0.419339  0.263439  0.270544  1
  O  O32  1  0.532416  0.682395  0.522781  1
  O  O33  1  0.982408  0.583099  0.931735  1
  O  O34  1  0.000197  0.549189  0.506997  1
  O  O35  1  0.315890  0.265819  0.736219  1
  O  O36  1  0.328040  0.992752  0.847319  1
  O  O37  1  0.240413  0.408236  0.901910  1
  O  O38  1  0.828404  0.490612  0.652387  1
  O  O39  1  0.599013  0.640217  -0.010764  1
  O  O40  1  0.907574  0.820570  0.252742  1
  O  O41  1  0.286368  0.946914  0.067957  1
  O  O42  1  0.017592  0.083099  0.068265  1
  O  O43  1  0.260562  0.577974  0.402909  1
  O  O44  1  0.748323  0.976728  0.316286  1
  O  O45  1  0.096213  0.844620  0.511626  1
  O  O46  1  0.999803  0.049189  0.493003  1
  O  O47  1  0.467584  0.182395  0.477219  1
  O  O48  1  0.684110  0.765819  0.263781  1
  O  O49  1  0.082679  0.718330  0.772862  1
  O  O50  1  0.752106  0.006560  0.814038  1
  O  O51  1  0.862797  0.752214  0.828645  1
  O  O52  1  0.638731  0.233643  0.329328  1
  O  O53  1  0.917321  0.218330  0.227138  1
  O  O54  1  0.361269  0.733643  0.670672  1
  O  O55  1  0.400987  0.140217  1.010764  1
  O  O56  1  0.251677  0.476728  0.683714  1
  O  O57  1  0.713632  0.446914  0.932043  1
  O  O58  1  0.759587  0.908236  0.098090  1
  O  O59  1  0.739438  0.077974  0.597091  1
  O  O60  1  0.591972  0.163095  0.753775  1
  O  O61  1  0.408028  0.663095  0.246225  1
  O  O62  1  0.903787  0.344620  0.488374  1
  O  O63  1  0.214593  0.035688  0.568017  1
  O  O64  1  0.032478  0.800876  0.978489  1
  O  O65  1  0.671960  0.492752  0.152681  1
  O  O66  1  0.092425  0.320570  0.747258  1
  O  O67  1  0.247894  0.506560  0.185962  1
  O  O68  1  0.967522  0.300876  0.021511  1
  O  O69  1  0.785407  0.535688  0.431983  1
  O  O70  1  0.498788  0.437496  0.007968  1
  O  O71  1  0.137203  0.252214  0.171355  1
  O  O72  1  0.815282  0.218420  0.764169  1
  O  O73  1  0.485314  0.900902  0.569498  1
  O  O74  1  0.580661  0.763439  0.729456  1
  O  O75  1  0.171596  0.990612  0.347613  1
