# generated using pymatgen
data_K2CoSiO4
_symmetry_space_group_name_H-M   'P 1'
_cell_length_a   5.51048301
_cell_length_b   11.05457921
_cell_length_c   15.84159962
_cell_angle_alpha   90.00000000
_cell_angle_beta   90.00000000
_cell_angle_gamma   90.00000000
_symmetry_Int_Tables_number   1
_chemical_formula_structural   K2CoSiO4
_chemical_formula_sum   'K16 Co8 Si8 O32'
_cell_volume   965.00800593
_cell_formula_units_Z   8
loop_
 _symmetry_equiv_pos_site_id
 _symmetry_equiv_pos_as_xyz
  1  'x, y, z'
loop_
 _atom_site_type_symbol
 _atom_site_label
 _atom_site_symmetry_multiplicity
 _atom_site_fract_x
 _atom_site_fract_y
 _atom_site_fract_z
 _atom_site_occupancy
  O  O0  1  0.218929  0.511263  0.289243  1
  O  O1  1  0.781071  0.488737  0.789243  1
  O  O2  1  0.781071  0.011263  0.289243  1
  O  O3  1  0.218929  0.988737  0.789243  1
  O  O4  1  0.570025  0.349554  0.338092  1
  O  O5  1  0.429975  0.650446  0.838092  1
  O  O6  1  0.429975  0.849554  0.338092  1
  O  O7  1  0.570025  0.150446  0.838092  1
  O  O8  1  0.416542  0.081743  0.390663  1
  O  O9  1  0.583458  0.918257  0.890663  1
  O  O10  1  0.583458  0.581743  0.390663  1
  O  O11  1  0.416542  0.418257  0.890663  1
  O  O12  1  0.844199  0.202533  0.495390  1
  O  O13  1  0.155801  0.797467  0.995390  1
  O  O14  1  0.155801  0.702533  0.495390  1
  O  O15  1  0.704446  0.704675  0.020306  1
  O  O16  1  0.329419  0.475633  0.725449  1
  O  O17  1  0.670581  0.524367  0.225449  1
  O  O18  1  0.670581  0.975633  0.725449  1
  O  O19  1  0.329419  0.024367  0.225449  1
  O  O20  1  0.928303  0.675919  0.647440  1
  O  O21  1  0.071697  0.324081  0.147440  1
  O  O22  1  0.071697  0.175919  0.647440  1
  O  O23  1  0.928303  0.824081  0.147440  1
  O  O24  1  0.090062  0.894337  0.596942  1
  O  O25  1  0.909938  0.105663  0.096942  1
  O  O26  1  0.909938  0.394337  0.596942  1
  O  O27  1  0.090062  0.605663  0.096942  1
  O  O28  1  0.704446  0.795325  0.520306  1
  O  O29  1  0.295554  0.204675  0.020306  1
  O  O30  1  0.295554  0.295325  0.520306  1
  O  O31  1  0.844199  0.297467  0.995390  1
  Si  Si32  1  0.968928  0.764906  0.564762  1
  Si  Si33  1  0.031072  0.235094  0.064762  1
  Si  Si34  1  0.031072  0.264906  0.564762  1
  Si  Si35  1  0.968928  0.735094  0.064762  1
  Si  Si36  1  0.510183  0.491584  0.311069  1
  Si  Si37  1  0.489817  0.508416  0.811069  1
  Si  Si38  1  0.489817  0.991584  0.311069  1
  Si  Si39  1  0.510183  0.008416  0.811069  1
  K  K40  1  0.055620  0.234119  0.313699  1
  K  K41  1  0.495938  0.987350  0.061734  1
  K  K42  1  0.504062  0.012650  0.561734  1
  K  K43  1  0.504062  0.487350  0.061734  1
  K  K44  1  0.495938  0.512650  0.561734  1
  K  K45  1  0.450552  0.738180  0.182634  1
  K  K46  1  0.549448  0.261820  0.682634  1
  K  K47  1  0.549448  0.238180  0.182634  1
  K  K48  1  0.450552  0.761820  0.682634  1
  K  K49  1  0.944380  0.765881  0.813699  1
  K  K50  1  0.944380  0.734119  0.313699  1
  K  K51  1  0.055620  0.265881  0.813699  1
  K  K52  1  0.006504  0.012444  0.938653  1
  K  K53  1  0.993496  0.512444  0.938653  1
  K  K54  1  0.993496  0.987556  0.438653  1
  K  K55  1  0.006504  0.487556  0.438653  1
  Co  Co56  1  0.536585  0.240246  0.435864  1
  Co  Co57  1  0.991154  0.989926  0.188862  1
  Co  Co58  1  0.008846  0.010074  0.688862  1
  Co  Co59  1  0.008846  0.489926  0.188862  1
  Co  Co60  1  0.991154  0.510074  0.688862  1
  Co  Co61  1  0.536585  0.259754  0.935864  1
  Co  Co62  1  0.463415  0.740246  0.435864  1
  Co  Co63  1  0.463415  0.759754  0.935864  1
