# generated using pymatgen
data_Ti(AlCl4)2
_symmetry_space_group_name_H-M   'P 1'
_cell_length_a   6.05429468
_cell_length_b   7.83732701
_cell_length_c   14.22392092
_cell_angle_alpha   90.00000000
_cell_angle_beta   86.45507846
_cell_angle_gamma   90.00000000
_symmetry_Int_Tables_number   1
_chemical_formula_structural   Ti(AlCl4)2
_chemical_formula_sum   'Ti2 Al4 Cl16'
_cell_volume   673.62638554
_cell_formula_units_Z   2
loop_
 _symmetry_equiv_pos_site_id
 _symmetry_equiv_pos_as_xyz
  1  'x, y, z'
loop_
 _atom_site_type_symbol
 _atom_site_label
 _atom_site_symmetry_multiplicity
 _atom_site_fract_x
 _atom_site_fract_y
 _atom_site_fract_z
 _atom_site_occupancy
  Ti  Ti0  1  0.000000  0.000000  0.000000  1
  Ti  Ti1  1  0.000000  0.500000  0.500000  1
  Al  Al2  1  0.621740  0.749404  0.910895  1
  Al  Al3  1  0.378260  0.249404  0.589105  1
  Al  Al4  1  0.378260  0.250596  0.089105  1
  Al  Al5  1  0.621740  0.750596  0.410895  1
  Cl  Cl6  1  0.292506  0.027646  0.666234  1
  Cl  Cl7  1  0.253256  0.246561  0.947686  1
  Cl  Cl8  1  0.775864  0.517322  0.353434  1
  Cl  Cl9  1  0.740519  0.274223  0.579924  1
  Cl  Cl10  1  0.746744  0.753439  0.052314  1
  Cl  Cl11  1  0.707494  0.527646  0.833766  1
  Cl  Cl12  1  0.259481  0.774223  0.920076  1
  Cl  Cl13  1  0.292506  0.472354  0.166234  1
  Cl  Cl14  1  0.259481  0.725777  0.420076  1
  Cl  Cl15  1  0.253256  0.253439  0.447686  1
  Cl  Cl16  1  0.224136  0.482678  0.646566  1
  Cl  Cl17  1  0.740519  0.225777  0.079924  1
  Cl  Cl18  1  0.746744  0.746561  0.552314  1
  Cl  Cl19  1  0.224136  0.017322  0.146566  1
  Cl  Cl20  1  0.775864  0.982678  0.853434  1
  Cl  Cl21  1  0.707494  0.972354  0.333766  1
