# generated using pymatgen
data_K2PaF7
_symmetry_space_group_name_H-M   'P 1'
_cell_length_a   6.82819780
_cell_length_b   7.79424115
_cell_length_c   7.85565349
_cell_angle_alpha   63.70482543
_cell_angle_beta   64.23989617
_cell_angle_gamma   64.02184904
_symmetry_Int_Tables_number   1
_chemical_formula_structural   K2PaF7
_chemical_formula_sum   'K4 Pa2 F14'
_cell_volume   321.58975193
_cell_formula_units_Z   2
loop_
 _symmetry_equiv_pos_site_id
 _symmetry_equiv_pos_as_xyz
  1  'x, y, z'
loop_
 _atom_site_type_symbol
 _atom_site_label
 _atom_site_symmetry_multiplicity
 _atom_site_fract_x
 _atom_site_fract_y
 _atom_site_fract_z
 _atom_site_occupancy
  K  K0  1  0.665002  0.394575  0.256961  1
  K  K1  1  0.316538  0.105425  0.243039  1
  K  K2  1  0.334998  0.605425  0.743039  1
  K  K3  1  0.683462  0.894575  0.756961  1
  Pa  Pa4  1  0.975041  0.750000  0.250000  1
  Pa  Pa5  1  0.024959  0.250000  0.750000  1
  F  F6  1  0.059440  0.502369  0.145513  1
  F  F7  1  0.707323  0.997631  0.354487  1
  F  F8  1  0.940560  0.497631  0.854487  1
  F  F9  1  0.292677  0.002369  0.645513  1
  F  F10  1  0.791042  0.585977  0.566549  1
  F  F11  1  0.943568  0.914023  0.933451  1
  F  F12  1  0.208958  0.414023  0.433451  1
  F  F13  1  0.056432  0.085977  0.066549  1
  F  F14  1  0.333035  0.707341  0.069697  1
  F  F15  1  0.110073  0.792659  0.430303  1
  F  F16  1  0.666965  0.292659  0.930303  1
  F  F17  1  0.889927  0.207341  0.569697  1
  F  F18  1  0.650092  0.750000  0.250000  1
  F  F19  1  0.349908  0.250000  0.750000  1
