# generated using pymatgen
data_BaP2(XeF5)4
_symmetry_space_group_name_H-M   'P 1'
_cell_length_a   8.98508258
_cell_length_b   9.17375712
_cell_length_c   26.01878466
_cell_angle_alpha   96.39754369
_cell_angle_beta   93.90892011
_cell_angle_gamma   98.50279356
_symmetry_Int_Tables_number   1
_chemical_formula_structural   BaP2(XeF5)4
_chemical_formula_sum   'Ba4 P8 Xe16 F80'
_cell_volume   2100.03655617
_cell_formula_units_Z   4
loop_
 _symmetry_equiv_pos_site_id
 _symmetry_equiv_pos_as_xyz
  1  'x, y, z'
loop_
 _atom_site_type_symbol
 _atom_site_label
 _atom_site_symmetry_multiplicity
 _atom_site_fract_x
 _atom_site_fract_y
 _atom_site_fract_z
 _atom_site_occupancy
  Ba  Ba0  1  0.842727  0.721051  0.600900  1
  Ba  Ba1  1  0.157273  0.278949  0.399100  1
  Ba  Ba2  1  0.543457  0.771553  0.139134  1
  Ba  Ba3  1  0.456543  0.228447  0.860866  1
  P  P4  1  0.339702  0.014393  0.271236  1
  P  P5  1  0.720037  0.110567  0.955296  1
  P  P6  1  0.095985  0.562748  0.710398  1
  P  P7  1  0.687638  0.797229  0.455065  1
  P  P8  1  0.279963  0.889433  0.044704  1
  P  P9  1  0.904015  0.437252  0.289602  1
  P  P10  1  0.660298  0.985607  0.728764  1
  P  P11  1  0.312362  0.202771  0.544935  1
  Xe  Xe12  1  0.974822  0.368098  0.847008  1
  Xe  Xe13  1  0.173860  0.776619  0.423713  1
  Xe  Xe14  1  0.580030  0.457587  0.716575  1
  Xe  Xe15  1  0.213955  0.379779  0.000559  1
  Xe  Xe16  1  0.980206  0.106777  0.128800  1
  Xe  Xe17  1  0.826140  0.223381  0.576287  1
  Xe  Xe18  1  0.164934  0.038063  0.710340  1
  Xe  Xe19  1  0.835066  0.961937  0.289660  1
  Xe  Xe20  1  0.419970  0.542413  0.283425  1
  Xe  Xe21  1  0.320437  0.700523  0.573133  1
  Xe  Xe22  1  0.025178  0.631902  0.152992  1
  Xe  Xe23  1  0.786045  0.620221  0.999441  1
  Xe  Xe24  1  0.536124  0.270738  0.136588  1
  Xe  Xe25  1  0.019794  0.893223  0.871200  1
  Xe  Xe26  1  0.463876  0.729262  0.863412  1
  Xe  Xe27  1  0.679563  0.299477  0.426867  1
  F  F28  1  0.858535  0.708233  0.850980  1
  F  F29  1  0.049080  0.556689  0.279220  1
  F  F30  1  0.533842  0.076408  0.949869  1
  F  F31  1  0.009714  0.303679  0.284840  1
  F  F32  1  0.827821  0.934777  0.467719  1
  F  F33  1  0.761597  0.883754  0.692215  1
  F  F34  1  0.695458  0.501868  0.652361  1
  F  F35  1  0.035888  0.409375  0.044374  1
  F  F36  1  0.466158  0.923592  0.050131  1
  F  F37  1  0.811434  0.431952  0.553602  1
  F  F38  1  0.802727  0.026425  0.773241  1
  F  F39  1  0.041851  0.534570  0.646741  1
  F  F40  1  0.597690  0.839744  0.756143  1
  F  F41  1  0.238403  0.116246  0.307785  1
  F  F42  1  0.904286  0.296394  0.451826  1
  F  F43  1  0.389377  0.139518  0.493155  1
  F  F44  1  0.157304  0.984615  0.402330  1
  F  F45  1  0.950920  0.443311  0.720780  1
  F  F46  1  0.291258  0.717493  0.057817  1
  F  F47  1  0.891834  0.086795  0.361457  1
  F  F48  1  0.399097  0.351014  0.957762  1
  F  F49  1  0.803211  0.570003  0.296558  1
  F  F50  1  0.727804  0.940039  0.964777  1
  F  F51  1  0.457361  0.305519  0.401799  1
  F  F52  1  0.196789  0.429997  0.703442  1
  F  F53  1  0.558874  0.087040  0.765589  1
  F  F54  1  0.708742  0.282507  0.942183  1
  F  F55  1  0.287767  0.938334  0.108870  1
  F  F56  1  0.405329  0.107013  0.580964  1
  F  F57  1  0.618610  0.085062  0.159386  1
  F  F58  1  0.197273  0.973575  0.226759  1
  F  F59  1  0.207921  0.399351  0.866458  1
  F  F60  1  0.724811  0.131576  0.701883  1
  F  F61  1  0.096762  0.852986  0.042932  1
  F  F62  1  0.783249  0.842476  0.215986  1
  F  F63  1  0.712233  0.061666  0.891130  1
  F  F64  1  0.610623  0.860482  0.506845  1
  F  F65  1  0.231766  0.270144  0.594525  1
  F  F66  1  0.272196  0.059961  0.035223  1
  F  F67  1  0.108166  0.913205  0.638543  1
  F  F68  1  0.239387  0.682856  0.699152  1
  F  F69  1  0.854038  0.403687  0.227318  1
  F  F70  1  0.792079  0.600649  0.133542  1
  F  F71  1  0.188566  0.568048  0.446398  1
  F  F72  1  0.536977  0.588490  0.219316  1
  F  F73  1  0.541984  0.544156  0.887963  1
  F  F74  1  0.095714  0.703606  0.548174  1
  F  F75  1  0.275189  0.868424  0.298117  1
  F  F76  1  0.449596  0.343907  0.555629  1
  F  F77  1  0.723239  0.163632  0.016641  1
  F  F78  1  0.819799  0.913758  0.107626  1
  F  F79  1  0.381390  0.914938  0.840614  1
  F  F80  1  0.180201  0.086242  0.892374  1
  F  F81  1  0.600903  0.648986  0.042238  1
  F  F82  1  0.550404  0.656093  0.444371  1
  F  F83  1  0.141465  0.291767  0.149020  1
  F  F84  1  0.216751  0.157524  0.784014  1
  F  F85  1  0.458016  0.455844  0.112037  1
  F  F86  1  0.518919  0.945539  0.684619  1
  F  F87  1  0.481081  0.054461  0.315381  1
  F  F88  1  0.256794  0.654313  0.170406  1
  F  F89  1  0.594671  0.892987  0.419036  1
  F  F90  1  0.172179  0.065223  0.532281  1
  F  F91  1  0.958149  0.465430  0.353259  1
  F  F92  1  0.145962  0.596313  0.772682  1
  F  F93  1  0.441126  0.912960  0.234411  1
  F  F94  1  0.964112  0.590625  0.955626  1
  F  F95  1  0.463023  0.411510  0.780684  1
  F  F96  1  0.304542  0.498132  0.347639  1
  F  F97  1  0.842696  0.015385  0.597670  1
  F  F98  1  0.276761  0.836368  0.983359  1
  F  F99  1  0.216834  0.301916  0.506691  1
  F  F100  1  0.760613  0.317144  0.300848  1
  F  F101  1  0.768234  0.729856  0.405475  1
  F  F102  1  0.783166  0.698084  0.493309  1
  F  F103  1  0.402310  0.160256  0.243857  1
  F  F104  1  0.990286  0.696321  0.715160  1
  F  F105  1  0.903238  0.147014  0.957067  1
  F  F106  1  0.743206  0.345687  0.829594  1
  F  F107  1  0.542639  0.694481  0.598201  1
