# generated using pymatgen
data_BaFeF5
_symmetry_space_group_name_H-M   'P 1'
_cell_length_a   7.78148398
_cell_length_b   11.45790367
_cell_length_c   11.45790348
_cell_angle_alpha   83.37868458
_cell_angle_beta   70.14941845
_cell_angle_gamma   70.14941660
_symmetry_Int_Tables_number   1
_chemical_formula_structural   BaFeF5
_chemical_formula_sum   'Ba8 Fe8 F40'
_cell_volume   903.78573899
_cell_formula_units_Z   8
loop_
 _symmetry_equiv_pos_site_id
 _symmetry_equiv_pos_as_xyz
  1  'x, y, z'
loop_
 _atom_site_type_symbol
 _atom_site_label
 _atom_site_symmetry_multiplicity
 _atom_site_fract_x
 _atom_site_fract_y
 _atom_site_fract_z
 _atom_site_occupancy
  Ba  Ba0  1  0.227086  0.831760  0.727177  1
  Ba  Ba1  1  0.954263  0.272823  0.831760  1
  Ba  Ba2  1  0.058846  0.727177  0.168240  1
  Ba  Ba3  1  0.786022  0.168240  0.272823  1
  Ba  Ba4  1  0.576397  0.178339  0.685698  1
  Ba  Ba5  1  0.262095  0.314302  0.178339  1
  Ba  Ba6  1  0.754736  0.685698  0.821661  1
  Ba  Ba7  1  0.440434  0.821661  0.314302  1
  Fe  Fe8  1  0.263306  1.000000  1.000000  1
  Fe  Fe9  1  0.759411  0.000000  0.000000  1
  Fe  Fe10  1  0.013301  0.500000  0.500000  1
  Fe  Fe11  1  0.513301  0.500000  0.500000  1
  Fe  Fe12  1  0.189962  0.150324  0.483880  1
  Fe  Fe13  1  0.673841  0.516120  0.150324  1
  Fe  Fe14  1  0.340285  0.483880  0.849676  1
  Fe  Fe15  1  0.824165  0.849676  0.516120  1
  F  F16  1  0.011449  0.000000  0.000000  1
  F  F17  1  0.511502  0.000000  0.000000  1
  F  F18  1  0.295422  0.075331  0.836664  1
  F  F19  1  0.132085  0.163336  0.075331  1
  F  F20  1  0.370753  0.836664  0.924669  1
  F  F21  1  0.207417  0.924669  0.163336  1
  F  F22  1  0.818758  0.071522  0.834873  1
  F  F23  1  0.653631  0.165127  0.071522  1
  F  F24  1  0.890279  0.834873  0.928478  1
  F  F25  1  0.725153  0.928478  0.165127  1
  F  F26  1  0.263178  0.500000  0.500000  1
  F  F27  1  0.763178  0.500000  0.500000  1
  F  F28  1  0.130813  0.331026  0.435786  1
  F  F29  1  0.566599  0.564214  0.331026  1
  F  F30  1  0.461838  0.435786  0.668974  1
  F  F31  1  0.897624  0.668974  0.564214  1
  F  F32  1  0.620685  0.323719  0.457564  1
  F  F33  1  0.078250  0.542436  0.323719  1
  F  F34  1  0.944405  0.457564  0.676281  1
  F  F35  1  0.401969  0.676281  0.542436  1
  F  F36  1  0.432279  0.136677  0.347342  1
  F  F37  1  0.779621  0.652658  0.136677  1
  F  F38  1  0.568956  0.347342  0.863323  1
  F  F39  1  0.916298  0.863323  0.652658  1
  F  F40  1  0.087378  0.142797  0.351063  1
  F  F41  1  0.438441  0.648937  0.142797  1
  F  F42  1  0.230175  0.351063  0.857203  1
  F  F43  1  0.581237  0.857203  0.648937  1
  F  F44  1  0.280601  0.185947  0.610458  1
  F  F45  1  0.891060  0.389542  0.185947  1
  F  F46  1  0.466549  0.610458  0.814053  1
  F  F47  1  0.077007  0.814053  0.389542  1
  F  F48  1  0.937553  0.190335  0.612005  1
  F  F49  1  0.549558  0.387995  0.190335  1
  F  F50  1  0.127888  0.612005  0.809665  1
  F  F51  1  0.739893  0.809665  0.387995  1
  F  F52  1  0.260455  0.972861  0.514165  1
  F  F53  1  0.774620  0.485835  0.972861  1
  F  F54  1  0.233316  0.514165  0.027139  1
  F  F55  1  0.747481  0.027139  0.485835  1
