# generated using pymatgen
data_ZnCuAsHO5
_symmetry_space_group_name_H-M   'P 1'
_cell_length_a   6.01890375
_cell_length_b   8.66381229
_cell_length_c   8.78004516
_cell_angle_alpha   90.00000000
_cell_angle_beta   90.00000000
_cell_angle_gamma   90.00000000
_symmetry_Int_Tables_number   1
_chemical_formula_structural   ZnCuAsHO5
_chemical_formula_sum   'Zn4 Cu4 As4 H4 O20'
_cell_volume   457.84996198
_cell_formula_units_Z   4
loop_
 _symmetry_equiv_pos_site_id
 _symmetry_equiv_pos_as_xyz
  1  'x, y, z'
loop_
 _atom_site_type_symbol
 _atom_site_label
 _atom_site_symmetry_multiplicity
 _atom_site_fract_x
 _atom_site_fract_y
 _atom_site_fract_z
 _atom_site_occupancy
  Zn  Zn0  1  0.500000  0.861908  0.373892  1
  Zn  Zn1  1  0.500000  0.138092  0.626108  1
  Zn  Zn2  1  0.000000  0.638092  0.873892  1
  Zn  Zn3  1  0.000000  0.361908  0.126108  1
  Cu  Cu4  1  0.249037  0.500000  0.500000  1
  Cu  Cu5  1  0.250963  0.000000  0.000000  1
  Cu  Cu6  1  0.750963  0.500000  0.500000  1
  Cu  Cu7  1  0.749037  0.000000  -0.000000  1
  As  As8  1  0.500000  0.235114  0.247957  1
  As  As9  1  0.000000  0.735114  0.252043  1
  As  As10  1  0.500000  0.764886  0.752043  1
  As  As11  1  0.000000  0.264886  0.747957  1
  H  H12  1  0.000000  0.067714  0.196462  1
  H  H13  1  0.500000  0.567714  0.303538  1
  H  H14  1  0.500000  0.432286  0.696462  1
  H  H15  1  0.000000  0.932286  0.803538  1
  O  O16  1  0.728027  0.647411  0.741119  1
  O  O17  1  0.771973  0.852589  0.241119  1
  O  O18  1  0.728027  0.352589  0.258881  1
  O  O19  1  0.500000  0.382598  0.595809  1
  O  O20  1  0.500000  0.617402  0.404191  1
  O  O21  1  0.771973  0.147411  0.758881  1
  O  O22  1  0.000000  0.396451  0.896075  1
  O  O23  1  0.000000  0.603549  0.103925  1
  O  O24  1  0.000000  0.882598  0.904191  1
  O  O25  1  0.000000  0.117402  0.095809  1
  O  O26  1  0.000000  0.628380  0.421949  1
  O  O27  1  0.228027  0.147411  0.758881  1
  O  O28  1  0.500000  0.896451  0.603925  1
  O  O29  1  0.500000  0.103549  0.396075  1
  O  O30  1  0.500000  0.128380  0.078051  1
  O  O31  1  0.271973  0.352589  0.258881  1
  O  O32  1  0.228027  0.852589  0.241119  1
  O  O33  1  0.000000  0.371620  0.578051  1
  O  O34  1  0.271973  0.647411  0.741119  1
  O  O35  1  0.500000  0.871620  0.921949  1
