# generated using pymatgen
data_Li4Ca3(SiN3)2
_symmetry_space_group_name_H-M   'P 1'
_cell_length_a   5.69046509
_cell_length_b   5.69046559
_cell_length_c   6.00784398
_cell_angle_alpha   90.24868604
_cell_angle_beta   90.24868615
_cell_angle_gamma   118.43292465
_symmetry_Int_Tables_number   1
_chemical_formula_structural   Li4Ca3(SiN3)2
_chemical_formula_sum   'Li4 Ca3 Si2 N6'
_cell_volume   171.06956960
_cell_formula_units_Z   1
loop_
 _symmetry_equiv_pos_site_id
 _symmetry_equiv_pos_as_xyz
  1  'x, y, z'
loop_
 _atom_site_type_symbol
 _atom_site_label
 _atom_site_symmetry_multiplicity
 _atom_site_fract_x
 _atom_site_fract_y
 _atom_site_fract_z
 _atom_site_occupancy
  Li  Li0  1  0.036055  0.685510  0.126301  1
  Li  Li1  1  0.685510  0.036055  0.126301  1
  Li  Li2  1  0.963945  0.314490  0.873699  1
  Li  Li3  1  0.314490  0.963945  0.873699  1
  Ca  Ca4  1  0.315067  0.684933  0.500000  1
  Ca  Ca5  1  0.684933  0.315067  0.500000  1
  Ca  Ca6  1  0.500000  0.500000  0.000000  1
  Si  Si7  1  0.881239  0.881239  0.668895  1
  Si  Si8  1  0.118761  0.118761  0.331105  1
  N  N9  1  0.364519  0.066554  0.209805  1
  N  N10  1  0.807622  0.807622  0.367467  1
  N  N11  1  0.192378  0.192378  0.632533  1
  N  N12  1  0.635481  0.933446  0.790195  1
  N  N13  1  0.933446  0.635481  0.790195  1
  N  N14  1  0.066554  0.364519  0.209805  1
