# generated using pymatgen
data_K2Ag(AsSe2)3
_symmetry_space_group_name_H-M   'P 1'
_cell_length_a   7.78588000
_cell_length_b   12.93318289
_cell_length_c   14.70309027
_cell_angle_alpha   97.64312041
_cell_angle_beta   90.00000000
_cell_angle_gamma   90.00000000
_symmetry_Int_Tables_number   1
_chemical_formula_structural   K2Ag(AsSe2)3
_chemical_formula_sum   'K8 Ag4 As12 Se24'
_cell_volume   1467.39189233
_cell_formula_units_Z   4
loop_
 _symmetry_equiv_pos_site_id
 _symmetry_equiv_pos_as_xyz
  1  'x, y, z'
loop_
 _atom_site_type_symbol
 _atom_site_label
 _atom_site_symmetry_multiplicity
 _atom_site_fract_x
 _atom_site_fract_y
 _atom_site_fract_z
 _atom_site_occupancy
  K  K0  1  0.110428  0.653140  0.242757  1
  K  K1  1  0.610428  0.846860  0.257243  1
  K  K2  1  0.889572  0.346860  0.757243  1
  K  K3  1  0.389572  0.153140  0.742757  1
  K  K4  1  0.628580  0.828025  0.613635  1
  K  K5  1  0.128580  0.671975  0.886365  1
  K  K6  1  0.371420  0.171975  0.386365  1
  K  K7  1  0.871420  0.328025  0.113635  1
  Ag  Ag8  1  0.007127  0.900181  0.427809  1
  Ag  Ag9  1  0.507127  0.599819  0.072191  1
  Ag  Ag10  1  0.992873  0.099819  0.572191  1
  Ag  Ag11  1  0.492873  0.400181  0.927809  1
  As  As12  1  0.911188  0.124410  0.344690  1
  As  As13  1  0.411188  0.375590  0.155310  1
  As  As14  1  0.088812  0.875590  0.655310  1
  As  As15  1  0.588812  0.624410  0.844690  1
  As  As16  1  0.055696  0.964264  0.135128  1
  As  As17  1  0.555696  0.535736  0.364872  1
  As  As18  1  0.944304  0.035736  0.864872  1
  As  As19  1  0.444304  0.464264  0.635128  1
  As  As20  1  0.672868  0.877389  0.994326  1
  As  As21  1  0.172868  0.622611  0.505674  1
  As  As22  1  0.327132  0.122611  0.005674  1
  As  As23  1  0.827132  0.377389  0.494326  1
  Se  Se24  1  0.757661  0.289923  0.338651  1
  Se  Se25  1  0.257661  0.210077  0.161349  1
  Se  Se26  1  0.242339  0.710077  0.661349  1
  Se  Se27  1  0.742339  0.789923  0.838651  1
  Se  Se28  1  0.267395  0.965975  0.557934  1
  Se  Se29  1  0.767395  0.534025  0.942066  1
  Se  Se30  1  0.732605  0.034025  0.442066  1
  Se  Se31  1  0.232605  0.465975  0.057934  1
  Se  Se32  1  0.796431  0.069822  0.189926  1
  Se  Se33  1  0.296431  0.430178  0.310074  1
  Se  Se34  1  0.203569  0.930178  0.810074  1
  Se  Se35  1  0.703569  0.569822  0.689926  1
  Se  Se36  1  0.183227  0.922902  0.272601  1
  Se  Se37  1  0.683227  0.577098  0.227399  1
  Se  Se38  1  0.816773  0.077098  0.727399  1
  Se  Se39  1  0.316773  0.422902  0.772601  1
  Se  Se40  1  0.903806  0.799014  0.081342  1
  Se  Se41  1  0.403806  0.700986  0.418658  1
  Se  Se42  1  0.096194  0.200986  0.918658  1
  Se  Se43  1  0.596194  0.299014  0.581342  1
  Se  Se44  1  0.925657  0.708794  0.460523  1
  Se  Se45  1  0.425657  0.791206  0.039477  1
  Se  Se46  1  0.074343  0.291206  0.539477  1
  Se  Se47  1  0.574343  0.208794  0.960523  1
