# generated using pymatgen
data_In3Au7
_symmetry_space_group_name_H-M   'P 1'
_cell_length_a   12.49205094
_cell_length_b   12.49205066
_cell_length_c   8.78181735
_cell_angle_alpha   90.00000000
_cell_angle_beta   90.00000000
_cell_angle_gamma   120.00000073
_symmetry_Int_Tables_number   1
_chemical_formula_structural   In3Au7
_chemical_formula_sum   'In18 Au42'
_cell_volume   1186.81359366
_cell_formula_units_Z   6
loop_
 _symmetry_equiv_pos_site_id
 _symmetry_equiv_pos_as_xyz
  1  'x, y, z'
loop_
 _atom_site_type_symbol
 _atom_site_label
 _atom_site_symmetry_multiplicity
 _atom_site_fract_x
 _atom_site_fract_y
 _atom_site_fract_z
 _atom_site_occupancy
  In  In0  1  0.693836  0.167471  0.459920  1
  In  In1  1  0.526364  0.693836  0.540080  1
  In  In2  1  0.140707  0.641437  0.042154  1
  In  In3  1  0.499270  0.140707  0.957846  1
  In  In4  1  0.832529  0.526364  0.459920  1
  In  In5  1  0.834942  0.813084  0.752080  1
  In  In6  1  0.021858  0.834942  0.247920  1
  In  In7  1  0.358563  0.499270  0.042154  1
  In  In8  1  0.813084  0.978142  0.247920  1
  In  In9  1  0.641437  0.500730  0.957846  1
  In  In10  1  0.165058  0.186916  0.247920  1
  In  In11  1  0.186916  0.021858  0.752080  1
  In  In12  1  0.167471  0.473636  0.540080  1
  In  In13  1  0.306164  0.832529  0.540080  1
  In  In14  1  0.859294  0.358563  0.957846  1
  In  In15  1  0.978142  0.165058  0.752080  1
  In  In16  1  0.500730  0.859294  0.042154  1
  In  In17  1  0.473636  0.306164  0.459920  1
  Au  Au18  1  0.220446  0.231938  0.574306  1
  Au  Au19  1  0.988508  0.220446  0.425694  1
  Au  Au20  1  0.357622  0.444287  0.369142  1
  Au  Au21  1  0.231938  0.011492  0.425694  1
  Au  Au22  1  0.528695  0.891703  0.706674  1
  Au  Au23  1  0.793947  0.755973  0.082818  1
  Au  Au24  1  0.892490  0.578515  0.126857  1
  Au  Au25  1  0.333333  0.666667  0.316413  1
  Au  Au26  1  0.333333  0.666667  0.827938  1
  Au  Au27  1  0.913335  0.357622  0.630858  1
  Au  Au28  1  0.861151  0.563544  0.791399  1
  Au  Au29  1  0.444287  0.086665  0.630858  1
  Au  Au30  1  0.297607  0.861151  0.208601  1
  Au  Au31  1  0.421485  0.313975  0.126857  1
  Au  Au32  1  0.107510  0.421485  0.873143  1
  Au  Au33  1  0.779554  0.768062  0.425694  1
  Au  Au34  1  0.686025  0.107510  0.126857  1
  Au  Au35  1  0.962025  0.206053  0.082818  1
  Au  Au36  1  0.138849  0.436456  0.208601  1
  Au  Au37  1  0.086665  0.642378  0.369142  1
  Au  Au38  1  0.555713  0.913335  0.369142  1
  Au  Au39  1  0.636992  0.528695  0.293326  1
  Au  Au40  1  0.702393  0.138849  0.791399  1
  Au  Au41  1  0.108297  0.636992  0.706674  1
  Au  Au42  1  0.037975  0.793947  0.917182  1
  Au  Au43  1  0.666667  0.333333  0.172062  1
  Au  Au44  1  0.755973  0.962025  0.917182  1
  Au  Au45  1  0.011492  0.779554  0.574306  1
  Au  Au46  1  0.768062  0.988508  0.574306  1
  Au  Au47  1  0.666667  0.333333  0.683587  1
  Au  Au48  1  0.471305  0.108297  0.293326  1
  Au  Au49  1  0.000000  0.000000  0.000000  1
  Au  Au50  1  0.313975  0.892490  0.873143  1
  Au  Au51  1  0.578515  0.686025  0.873143  1
  Au  Au52  1  0.891703  0.363008  0.293326  1
  Au  Au53  1  0.642378  0.555713  0.630858  1
  Au  Au54  1  0.363008  0.471305  0.706674  1
  Au  Au55  1  0.436456  0.297607  0.791399  1
  Au  Au56  1  0.563544  0.702393  0.208601  1
  Au  Au57  1  0.206053  0.244027  0.917182  1
  Au  Au58  1  0.244027  0.037975  0.082818  1
  Au  Au59  1  0.000000  0.000000  0.500000  1
