# generated using pymatgen
data_NaY(SiO3)2
_symmetry_space_group_name_H-M   'P 1'
_cell_length_a   5.48070996
_cell_length_b   7.69404618
_cell_length_c   13.85888395
_cell_angle_alpha   90.00000000
_cell_angle_beta   90.00000000
_cell_angle_gamma   109.97240695
_symmetry_Int_Tables_number   1
_chemical_formula_structural   NaY(SiO3)2
_chemical_formula_sum   'Na4 Y4 Si8 O24'
_cell_volume   549.26477867
_cell_formula_units_Z   4
loop_
 _symmetry_equiv_pos_site_id
 _symmetry_equiv_pos_as_xyz
  1  'x, y, z'
loop_
 _atom_site_type_symbol
 _atom_site_label
 _atom_site_symmetry_multiplicity
 _atom_site_fract_x
 _atom_site_fract_y
 _atom_site_fract_z
 _atom_site_occupancy
  Na  Na0  1  0.136919  0.546262  0.230987  1
  Na  Na1  1  0.863081  0.953738  0.730987  1
  Na  Na2  1  0.863081  0.453738  0.769013  1
  Na  Na3  1  0.136919  0.046262  0.269013  1
  Y  Y4  1  0.016860  0.752146  0.994327  1
  Y  Y5  1  0.983140  0.247854  0.005673  1
  Y  Y6  1  0.983140  0.747854  0.494327  1
  Y  Y7  1  0.016860  0.252146  0.505673  1
  Si  Si8  1  0.428518  0.144216  0.639613  1
  Si  Si9  1  0.581722  0.932989  0.137780  1
  Si  Si10  1  0.581722  0.432989  0.362220  1
  Si  Si11  1  0.418278  0.067011  0.862220  1
  Si  Si12  1  0.418278  0.567011  0.637780  1
  Si  Si13  1  0.428518  0.644216  0.860387  1
  Si  Si14  1  0.571482  0.855784  0.360387  1
  Si  Si15  1  0.571482  0.355784  0.139613  1
  O  O16  1  0.316297  0.579935  0.749481  1
  O  O17  1  0.381181  0.844623  0.878275  1
  O  O18  1  0.267444  0.329130  0.133956  1
  O  O19  1  0.316297  0.079935  0.750519  1
  O  O20  1  0.284307  0.303877  0.375259  1
  O  O21  1  0.732556  0.670870  0.866044  1
  O  O22  1  0.799943  0.418004  0.437128  1
  O  O23  1  0.211875  0.016459  0.565612  1
  O  O24  1  0.715693  0.696123  0.624741  1
  O  O25  1  0.267444  0.829130  0.366044  1
  O  O26  1  0.618819  0.155377  0.121725  1
  O  O27  1  0.788125  0.983541  0.434388  1
  O  O28  1  0.200057  0.081996  0.937128  1
  O  O29  1  0.683703  0.920065  0.249481  1
  O  O30  1  0.284307  0.803877  0.124741  1
  O  O31  1  0.211875  0.516459  0.934388  1
  O  O32  1  0.200057  0.581996  0.562872  1
  O  O33  1  0.618819  0.655377  0.378275  1
  O  O34  1  0.683703  0.420065  0.250519  1
  O  O35  1  0.715693  0.196123  0.875259  1
  O  O36  1  0.381181  0.344623  0.621725  1
  O  O37  1  0.732556  0.170870  0.633956  1
  O  O38  1  0.788125  0.483541  0.065612  1
  O  O39  1  0.799943  0.918004  0.062872  1
