# generated using pymatgen
data_Dy5C2Br9
_symmetry_space_group_name_H-M   'P 1'
_cell_length_a   10.17736523
_cell_length_b   11.90985469
_cell_length_c   16.59680133
_cell_angle_alpha   90.00000000
_cell_angle_beta   90.00000000
_cell_angle_gamma   105.01268382
_symmetry_Int_Tables_number   1
_chemical_formula_structural   Dy5C2Br9
_chemical_formula_sum   'Dy20 C8 Br36'
_cell_volume   1943.05110723
_cell_formula_units_Z   4
loop_
 _symmetry_equiv_pos_site_id
 _symmetry_equiv_pos_as_xyz
  1  'x, y, z'
loop_
 _atom_site_type_symbol
 _atom_site_label
 _atom_site_symmetry_multiplicity
 _atom_site_fract_x
 _atom_site_fract_y
 _atom_site_fract_z
 _atom_site_occupancy
  Dy  Dy0  1  0.373545  0.034290  0.460205  1
  Dy  Dy1  1  0.454556  0.311862  0.557829  1
  Dy  Dy2  1  0.841758  0.555790  0.814761  1
  Dy  Dy3  1  0.754597  0.262303  0.444942  1
  Dy  Dy4  1  0.792257  0.279115  0.161689  1
  Dy  Dy5  1  0.341758  0.055790  0.685239  1
  Dy  Dy6  1  0.873545  0.534290  0.039795  1
  Dy  Dy7  1  0.254597  0.762303  0.055058  1
  Dy  Dy8  1  0.292257  0.779115  0.338311  1
  Dy  Dy9  1  0.954556  0.811862  0.942171  1
  Dy  Dy10  1  0.245403  0.737697  0.555058  1
  Dy  Dy11  1  0.626455  0.965710  0.539795  1
  Dy  Dy12  1  0.126455  0.465710  0.960205  1
  Dy  Dy13  1  0.045444  0.188138  0.057829  1
  Dy  Dy14  1  0.158242  0.444210  0.185239  1
  Dy  Dy15  1  0.545444  0.688138  0.442171  1
  Dy  Dy16  1  0.207743  0.720885  0.838311  1
  Dy  Dy17  1  0.707743  0.220885  0.661689  1
  Dy  Dy18  1  0.658242  0.944210  0.314761  1
  Dy  Dy19  1  0.745403  0.237697  0.944942  1
  C  C20  1  0.096077  0.669040  0.969583  1
  C  C21  1  0.596077  0.169040  0.530417  1
  C  C22  1  0.903923  0.330960  0.030417  1
  C  C23  1  0.403923  0.830960  0.469583  1
  C  C24  1  0.008684  0.380250  0.087853  1
  C  C25  1  0.491316  0.119750  0.587853  1
  C  C26  1  0.508684  0.880250  0.412147  1
  C  C27  1  0.991316  0.619750  0.912147  1
  Br  Br28  1  0.643872  0.441864  0.932049  1
  Br  Br29  1  0.543096  0.141925  0.806135  1
  Br  Br30  1  0.747929  0.752472  0.821863  1
  Br  Br31  1  0.565286  0.154805  0.068143  1
  Br  Br32  1  0.065286  0.654805  0.431857  1
  Br  Br33  1  0.856128  0.058136  0.432049  1
  Br  Br34  1  0.811826  0.032122  0.672403  1
  Br  Br35  1  0.865460  0.063040  0.182267  1
  Br  Br36  1  0.907584  0.329728  0.801196  1
  Br  Br37  1  0.228234  0.264812  0.936847  1
  Br  Br38  1  0.859736  0.041759  0.942821  1
  Br  Br39  1  0.640264  0.458241  0.442821  1
  Br  Br40  1  0.634540  0.436960  0.682267  1
  Br  Br41  1  0.592416  0.170272  0.301196  1
  Br  Br42  1  0.252071  0.247528  0.178137  1
  Br  Br43  1  0.311826  0.532122  0.827597  1
  Br  Br44  1  0.752071  0.747528  0.321863  1
  Br  Br45  1  0.688174  0.467878  0.172403  1
  Br  Br46  1  0.356128  0.558136  0.067951  1
  Br  Br47  1  0.271766  0.235188  0.436847  1
  Br  Br48  1  0.434714  0.845195  0.931857  1
  Br  Br49  1  0.043096  0.641925  0.693865  1
  Br  Br50  1  0.407584  0.829728  0.698804  1
  Br  Br51  1  0.092416  0.670272  0.198804  1
  Br  Br52  1  0.143872  0.941864  0.567951  1
  Br  Br53  1  0.771766  0.735188  0.063153  1
  Br  Br54  1  0.728234  0.764812  0.563153  1
  Br  Br55  1  0.456904  0.858075  0.193865  1
  Br  Br56  1  0.247929  0.252472  0.678137  1
  Br  Br57  1  0.359736  0.541759  0.557179  1
  Br  Br58  1  0.134540  0.936960  0.817733  1
  Br  Br59  1  0.365460  0.563040  0.317733  1
  Br  Br60  1  0.956904  0.358075  0.306135  1
  Br  Br61  1  0.140264  0.958241  0.057179  1
  Br  Br62  1  0.188174  0.967878  0.327597  1
  Br  Br63  1  0.934714  0.345195  0.568143  1
