# generated using pymatgen
data_Ti4Tl2O9
_symmetry_space_group_name_H-M   'P 1'
_cell_length_a   3.79952702
_cell_length_b   9.89647928
_cell_length_c   12.21476173
_cell_angle_alpha   106.44432928
_cell_angle_beta   90.00000000
_cell_angle_gamma   101.06739823
_symmetry_Int_Tables_number   1
_chemical_formula_structural   Ti4Tl2O9
_chemical_formula_sum   'Ti8 Tl4 O18'
_cell_volume   431.59754947
_cell_formula_units_Z   2
loop_
 _symmetry_equiv_pos_site_id
 _symmetry_equiv_pos_as_xyz
  1  'x, y, z'
loop_
 _atom_site_type_symbol
 _atom_site_label
 _atom_site_symmetry_multiplicity
 _atom_site_fract_x
 _atom_site_fract_y
 _atom_site_fract_z
 _atom_site_occupancy
  Tl  Tl0  1  0.583159  0.166318  0.088644  1
  Tl  Tl1  1  0.416841  0.833682  0.911356  1
  Tl  Tl2  1  0.512559  0.025117  0.326074  1
  Tl  Tl3  1  0.487441  0.974883  0.673926  1
  Ti  Ti4  1  0.245871  0.491742  0.167292  1
  Ti  Ti5  1  0.754129  0.508258  0.832708  1
  Ti  Ti6  1  0.835229  0.670459  0.376330  1
  Ti  Ti7  1  0.164771  0.329541  0.623670  1
  Ti  Ti8  1  0.871830  0.743660  0.137053  1
  Ti  Ti9  1  0.128170  0.256340  0.862947  1
  Ti  Ti10  1  0.204172  0.408343  0.397385  1
  Ti  Ti11  1  0.795828  0.591657  0.602615  1
  O  O12  1  0.767526  0.535051  0.200957  1
  O  O13  1  0.232474  0.464949  0.799043  1
  O  O14  1  0.306024  0.612047  0.358659  1
  O  O15  1  0.693976  0.387952  0.641341  1
  O  O16  1  0.344605  0.689211  0.143521  1
  O  O17  1  0.655395  0.310789  0.856479  1
  O  O18  1  0.731194  0.462388  0.422155  1
  O  O19  1  0.268806  0.537612  0.577845  1
  O  O20  1  0.910231  0.820463  0.318235  1
  O  O21  1  0.089769  0.179537  0.681765  1
  O  O22  1  0.958119  0.916238  0.123046  1
  O  O23  1  0.041881  0.083762  0.876954  1
  O  O24  1  0.127691  0.255381  0.462602  1
  O  O25  1  0.872309  0.744619  0.537398  1
  O  O26  1  0.166085  0.332170  0.243300  1
  O  O27  1  0.833915  0.667830  0.756700  1
  O  O28  1  0.184697  0.369395  0.027884  1
  O  O29  1  0.815303  0.630605  0.972116  1
