# generated using pymatgen
data_Ta4Co2PdSe12
_symmetry_space_group_name_H-M   'P 1'
_cell_length_a   3.44049449
_cell_length_b   7.21617353
_cell_length_c   18.37682502
_cell_angle_alpha   87.83000034
_cell_angle_beta   84.62869856
_cell_angle_gamma   76.20859757
_symmetry_Int_Tables_number   1
_chemical_formula_structural   Ta4Co2PdSe12
_chemical_formula_sum   'Ta4 Co2 Pd1 Se12'
_cell_volume   441.08901420
_cell_formula_units_Z   1
loop_
 _symmetry_equiv_pos_site_id
 _symmetry_equiv_pos_as_xyz
  1  'x, y, z'
loop_
 _atom_site_type_symbol
 _atom_site_label
 _atom_site_symmetry_multiplicity
 _atom_site_fract_x
 _atom_site_fract_y
 _atom_site_fract_z
 _atom_site_occupancy
  Co  Co0  1  0.229402  0.825421  0.715775  1
  Co  Co1  1  0.770598  0.174579  0.284225  1
  Ta  Ta2  1  0.624124  0.902629  0.849124  1
  Ta  Ta3  1  0.375876  0.097371  0.150876  1
  Ta  Ta4  1  0.746231  0.913598  0.593940  1
  Ta  Ta5  1  0.253769  0.086402  0.406060  1
  Pd  Pd6  1  0.000000  0.000000  0.000000  1
  Se  Se7  1  0.974387  0.170644  0.880583  1
  Se  Se8  1  0.025613  0.829356  0.119417  1
  Se  Se9  1  0.625384  0.354968  0.394263  1
  Se  Se10  1  0.374616  0.645032  0.605737  1
  Se  Se11  1  0.137263  0.175111  0.550363  1
  Se  Se12  1  0.862737  0.824889  0.449637  1
  Se  Se13  1  0.806833  0.622458  0.763876  1
  Se  Se14  1  0.193167  0.377542  0.236124  1
  Se  Se15  1  0.184736  0.704135  0.926392  1
  Se  Se16  1  0.815264  0.295865  0.073608  1
  Se  Se17  1  0.606072  0.068979  0.718878  1
  Se  Se18  1  0.393928  0.931021  0.281122  1
