# generated using pymatgen
data_SmTl(WO4)2
_symmetry_space_group_name_H-M   'P 1'
_cell_length_a   7.72132044
_cell_length_b   7.72132088
_cell_length_c   7.53823999
_cell_angle_alpha   62.57812470
_cell_angle_beta   62.57812312
_cell_angle_gamma   89.01196234
_symmetry_Int_Tables_number   1
_chemical_formula_structural   SmTl(WO4)2
_chemical_formula_sum   'Sm2 Tl2 W4 O16'
_cell_volume   343.10131706
_cell_formula_units_Z   2
loop_
 _symmetry_equiv_pos_site_id
 _symmetry_equiv_pos_as_xyz
  1  'x, y, z'
loop_
 _atom_site_type_symbol
 _atom_site_label
 _atom_site_symmetry_multiplicity
 _atom_site_fract_x
 _atom_site_fract_y
 _atom_site_fract_z
 _atom_site_occupancy
  O  O0  1  0.622023  0.933245  0.628878  1
  O  O1  1  0.066754  0.377977  0.871122  1
  O  O2  1  0.377976  0.066753  0.371123  1
  O  O3  1  0.933246  0.622023  0.128878  1
  O  O4  1  0.782253  0.951984  0.188522  1
  O  O5  1  0.048016  0.217747  0.311477  1
  O  O6  1  0.217747  0.048016  0.811478  1
  O  O7  1  0.951985  0.782252  0.688523  1
  O  O8  1  0.412748  0.628779  0.529543  1
  O  O9  1  0.371220  0.587252  0.970457  1
  O  O10  1  0.587251  0.371220  0.470458  1
  O  O11  1  0.628780  0.412749  0.029542  1
  O  O12  1  0.752122  0.622172  0.557700  1
  O  O13  1  0.247878  0.377828  0.442300  1
  O  O14  1  0.377828  0.247878  0.942300  1
  O  O15  1  0.622172  0.752123  0.057700  1
  Sm  Sm16  1  0.775395  0.224606  0.250000  1
  Sm  Sm17  1  0.224606  0.775394  0.750000  1
  W  W18  1  0.689348  0.698908  0.780282  1
  W  W19  1  0.301093  0.310652  0.719717  1
  W  W20  1  0.310651  0.301093  0.219718  1
  W  W21  1  0.698908  0.689348  0.280282  1
  Tl  Tl22  1  0.790583  0.209418  0.749999  1
  Tl  Tl23  1  0.209417  0.790583  0.250000  1
