# generated using pymatgen
data_Mn3Nb2ZnO9
_symmetry_space_group_name_H-M   'P 1'
_cell_length_a   5.36379634
_cell_length_b   5.36379597
_cell_length_c   14.53734758
_cell_angle_alpha   90.00000000
_cell_angle_beta   90.00000000
_cell_angle_gamma   120.00000230
_symmetry_Int_Tables_number   1
_chemical_formula_structural   Mn3Nb2ZnO9
_chemical_formula_sum   'Mn6 Nb4 Zn2 O18'
_cell_volume   362.20990711
_cell_formula_units_Z   2
loop_
 _symmetry_equiv_pos_site_id
 _symmetry_equiv_pos_as_xyz
  1  'x, y, z'
loop_
 _atom_site_type_symbol
 _atom_site_label
 _atom_site_symmetry_multiplicity
 _atom_site_fract_x
 _atom_site_fract_y
 _atom_site_fract_z
 _atom_site_occupancy
  Mn  Mn0  1  0.666667  0.333333  0.698052  1
  Mn  Mn1  1  0.666667  0.333333  0.981283  1
  Mn  Mn2  1  0.666667  0.333333  0.481283  1
  Mn  Mn3  1  0.333333  0.666667  0.513710  1
  Mn  Mn4  1  0.333333  0.666667  0.013710  1
  Mn  Mn5  1  0.666667  0.333333  0.198052  1
  Nb  Nb6  1  0.000000  0.000000  0.857749  1
  Nb  Nb7  1  0.000000  0.000000  0.141089  1
  Nb  Nb8  1  0.000000  0.000000  0.641089  1
  Nb  Nb9  1  0.000000  0.000000  0.357749  1
  Zn  Zn10  1  0.333333  0.666667  0.795012  1
  Zn  Zn11  1  0.333333  0.666667  0.295012  1
  O  O12  1  0.336903  0.309155  0.084871  1
  O  O13  1  0.663182  0.689400  0.913637  1
  O  O14  1  0.011129  0.287449  0.249627  1
  O  O15  1  0.276320  0.988871  0.249627  1
  O  O16  1  0.972252  0.663097  0.084871  1
  O  O17  1  0.690845  0.663097  0.584871  1
  O  O18  1  0.712551  0.988871  0.749627  1
  O  O19  1  0.026218  0.336818  0.913637  1
  O  O20  1  0.026218  0.689400  0.413637  1
  O  O21  1  0.336903  0.027748  0.584871  1
  O  O22  1  0.276320  0.287449  0.749627  1
  O  O23  1  0.972252  0.309155  0.584871  1
  O  O24  1  0.712551  0.723680  0.249627  1
  O  O25  1  0.310600  0.973782  0.913637  1
  O  O26  1  0.690845  0.027748  0.084871  1
  O  O27  1  0.663182  0.973782  0.413637  1
  O  O28  1  0.310600  0.336818  0.413637  1
  O  O29  1  0.011129  0.723680  0.749627  1
