# generated using pymatgen
data_TeWNCl4F5
_symmetry_space_group_name_H-M   'P 1'
_cell_length_a   6.37163688
_cell_length_b   6.39386578
_cell_length_c   14.30712261
_cell_angle_alpha   83.90933853
_cell_angle_beta   86.65673004
_cell_angle_gamma   80.90317755
_symmetry_Int_Tables_number   1
_chemical_formula_structural   TeWNCl4F5
_chemical_formula_sum   'Te2 W2 N2 Cl8 F10'
_cell_volume   571.77132092
_cell_formula_units_Z   2
loop_
 _symmetry_equiv_pos_site_id
 _symmetry_equiv_pos_as_xyz
  1  'x, y, z'
loop_
 _atom_site_type_symbol
 _atom_site_label
 _atom_site_symmetry_multiplicity
 _atom_site_fract_x
 _atom_site_fract_y
 _atom_site_fract_z
 _atom_site_occupancy
  Te  Te0  1  0.256462  0.203713  0.628047  1
  Te  Te1  1  0.743538  0.796287  0.371953  1
  W  W2  1  0.034930  0.976838  0.856839  1
  W  W3  1  0.965070  0.023162  0.143161  1
  N  N4  1  0.151287  0.102060  0.754856  1
  N  N5  1  0.848713  0.897940  0.245144  1
  Cl  Cl6  1  0.706157  0.192722  0.858552  1
  Cl  Cl7  1  0.326915  0.729209  0.902119  1
  Cl  Cl8  1  0.887286  0.718500  0.796156  1
  Cl  Cl9  1  0.136504  0.195895  0.971147  1
  Cl  Cl10  1  0.293843  0.807278  0.141448  1
  Cl  Cl11  1  0.673085  0.270791  0.097881  1
  Cl  Cl12  1  0.863496  0.804105  0.028853  1
  Cl  Cl13  1  0.112714  0.281500  0.203844  1
  F  F14  1  0.992066  0.371372  0.604526  1
  F  F15  1  0.524619  0.040019  0.647685  1
  F  F16  1  0.644349  0.700545  0.491673  1
  F  F17  1  0.355651  0.299455  0.508327  1
  F  F18  1  0.349627  0.433826  0.675839  1
  F  F19  1  0.475381  0.959981  0.352315  1
  F  F20  1  0.166930  0.975871  0.577008  1
  F  F21  1  0.650373  0.566174  0.324161  1
  F  F22  1  0.007934  0.628628  0.395474  1
  F  F23  1  0.833070  0.024129  0.422992  1
