# generated using pymatgen
data_Cu3Se2(ClO3)2
_symmetry_space_group_name_H-M   'P 1'
_cell_length_a   6.17100781
_cell_length_b   8.05440633
_cell_length_c   8.67900849
_cell_angle_alpha   91.08256128
_cell_angle_beta   94.85878241
_cell_angle_gamma   91.84454225
_symmetry_Int_Tables_number   1
_chemical_formula_structural   Cu3Se2(ClO3)2
_chemical_formula_sum   'Cu6 Se4 Cl4 O12'
_cell_volume   429.50560853
_cell_formula_units_Z   2
loop_
 _symmetry_equiv_pos_site_id
 _symmetry_equiv_pos_as_xyz
  1  'x, y, z'
loop_
 _atom_site_type_symbol
 _atom_site_label
 _atom_site_symmetry_multiplicity
 _atom_site_fract_x
 _atom_site_fract_y
 _atom_site_fract_z
 _atom_site_occupancy
  Cu  Cu0  1  0.605697  0.822138  0.924829  1
  Cu  Cu1  1  0.902269  0.597126  0.128802  1
  Cu  Cu2  1  0.394303  0.177862  0.075171  1
  Cu  Cu3  1  0.694924  0.402907  0.431932  1
  Cu  Cu4  1  0.097731  0.402874  0.871198  1
  Cu  Cu5  1  0.305076  0.597093  0.568068  1
  Se  Se6  1  0.100875  0.818386  0.821174  1
  Se  Se7  1  0.899125  0.181614  0.178826  1
  Se  Se8  1  0.380905  0.697556  0.224217  1
  Se  Se9  1  0.619095  0.302444  0.775783  1
  Cl  Cl10  1  0.965710  0.272565  0.566585  1
  Cl  Cl11  1  0.034290  0.727435  0.433415  1
  Cl  Cl12  1  0.587473  0.875405  0.675216  1
  Cl  Cl13  1  0.412527  0.124595  0.324784  1
  O  O14  1  0.313370  0.882833  0.955641  1
  O  O15  1  0.528485  0.428146  0.617292  1
  O  O16  1  0.208265  0.555641  0.119967  1
  O  O17  1  0.686630  0.117167  0.044359  1
  O  O18  1  0.822169  0.383958  0.231522  1
  O  O19  1  0.086095  0.221792  0.040202  1
  O  O20  1  0.471515  0.571854  0.382708  1
  O  O21  1  0.615477  0.690742  0.118595  1
  O  O22  1  0.791735  0.444359  0.880033  1
  O  O23  1  0.177831  0.616042  0.768478  1
  O  O24  1  0.384523  0.309258  0.881405  1
  O  O25  1  0.913905  0.778208  0.959798  1
