# generated using pymatgen
data_Li5GeN3
_symmetry_space_group_name_H-M   'P 1'
_cell_length_a   8.37236180
_cell_length_b   8.31065815
_cell_length_c   25.13708613
_cell_angle_alpha   109.32768880
_cell_angle_beta   109.61277547
_cell_angle_gamma   109.22785748
_symmetry_Int_Tables_number   1
_chemical_formula_structural   Li5GeN3
_chemical_formula_sum   'Li80 Ge16 N48'
_cell_volume   1350.45624426
_cell_formula_units_Z   16
loop_
 _symmetry_equiv_pos_site_id
 _symmetry_equiv_pos_as_xyz
  1  'x, y, z'
loop_
 _atom_site_type_symbol
 _atom_site_label
 _atom_site_symmetry_multiplicity
 _atom_site_fract_x
 _atom_site_fract_y
 _atom_site_fract_z
 _atom_site_occupancy
  Ge  Ge0  1  0.500528  0.010635  0.913286  1
  Ge  Ge1  1  0.508784  0.005611  0.756398  1
  Ge  Ge2  1  0.265151  0.498944  0.670169  1
  Ge  Ge3  1  0.497197  0.011550  0.578360  1
  Ge  Ge4  1  0.762867  0.767418  0.919432  1
  Ge  Ge5  1  0.233322  0.234645  0.414143  1
  Ge  Ge6  1  0.490060  0.987991  0.417690  1
  Ge  Ge7  1  0.734785  0.511128  0.666111  1
  Ge  Ge8  1  0.502688  0.012240  0.244492  1
  Ge  Ge9  1  0.761091  0.775386  0.586255  1
  Ge  Ge10  1  0.006781  0.261974  0.837092  1
  Ge  Ge11  1  0.502369  0.007989  0.085864  1
  Ge  Ge12  1  0.740360  0.513307  0.333517  1
  Ge  Ge13  1  0.763201  0.773857  0.254075  1
  Ge  Ge14  1  0.741423  0.512231  0.000156  1
  Ge  Ge15  1  0.003394  0.259233  0.170787  1
  Li  Li16  1  0.044664  0.534823  0.932620  1
  Li  Li17  1  0.030130  0.008350  0.915010  1
  Li  Li18  1  0.263036  0.743692  0.919366  1
  Li  Li19  1  0.252913  0.502025  0.824957  1
  Li  Li20  1  0.231432  0.739749  0.754552  1
  Li  Li21  1  0.271244  0.253581  0.919601  1
  Li  Li22  1  0.995937  0.235609  0.661415  1
  Li  Li23  1  0.225463  0.222386  0.743716  1
  Li  Li24  1  0.463453  0.502869  0.912975  1
  Li  Li25  1  0.495702  0.736685  0.823122  1
  Li  Li26  1  0.035441  0.014391  0.583311  1
  Li  Li27  1  0.246916  0.740023  0.578904  1
  Li  Li28  1  0.205997  0.987027  0.825761  1
  Li  Li29  1  0.765991  0.998182  0.846129  1
  Li  Li30  1  0.220391  0.493540  0.493465  1
  Li  Li31  1  0.212800  0.688723  0.407552  1
  Li  Li32  1  0.252792  0.234612  0.571350  1
  Li  Li33  1  0.469897  0.258110  0.836415  1
  Li  Li34  1  0.513265  0.477779  0.762230  1
  Li  Li35  1  0.530669  0.767328  0.667751  1
  Li  Li36  1  0.242250  0.982751  0.661341  1
  Li  Li37  1  0.988920  0.251775  0.321575  1
  Li  Li38  1  0.030897  0.535378  0.261751  1
  Li  Li39  1  0.458528  0.500567  0.572926  1
  Li  Li40  1  0.487303  0.729243  0.489730  1
  Li  Li41  1  0.011987  0.487991  0.081492  1
  Li  Li42  1  0.470309  0.241288  0.666950  1
  Li  Li43  1  0.030120  0.012745  0.245832  1
  Li  Li44  1  0.262514  0.733543  0.247946  1
  Li  Li45  1  0.747549  0.755884  0.762455  1
  Li  Li46  1  0.767142  0.272190  0.910300  1
  Li  Li47  1  0.763619  0.481321  0.840060  1
  Li  Li48  1  0.215473  0.969693  0.483829  1
  Li  Li49  1  0.268524  0.489838  0.331512  1
  Li  Li50  1  0.773434  0.013358  0.510781  1
  Li  Li51  1  0.742183  0.271471  0.749108  1
  Li  Li52  1  0.974322  0.974603  0.742911  1
  Li  Li53  1  0.240127  0.485919  0.154925  1
  Li  Li54  1  0.234451  0.719095  0.079931  1
  Li  Li55  1  0.273346  0.244497  0.249881  1
  Li  Li56  1  0.520001  0.754737  0.336487  1
  Li  Li57  1  0.014901  0.258651  0.993507  1
  Li  Li58  1  0.497577  0.259026  0.508091  1
  Li  Li59  1  0.239897  0.972014  0.321653  1
  Li  Li60  1  0.511076  0.495344  0.417961  1
  Li  Li61  1  0.998622  0.722423  0.833749  1
  Li  Li62  1  0.219854  0.230666  0.076002  1
  Li  Li63  1  -0.000634  0.483399  0.747117  1
  Li  Li64  1  0.021324  0.756770  0.671236  1
  Li  Li65  1  0.489452  0.241355  0.335928  1
  Li  Li66  1  0.461737  0.500798  0.244779  1
  Li  Li67  1  0.484849  0.725922  0.154701  1
  Li  Li68  1  0.767038  0.037738  0.676852  1
  Li  Li69  1  0.740941  0.755697  0.426737  1
  Li  Li70  1  0.781938  0.278501  0.581745  1
  Li  Li71  1  0.757660  0.500794  0.502504  1
  Li  Li72  1  0.208320  0.973842  0.154995  1
  Li  Li73  1  0.284937  0.509964  0.006661  1
  Li  Li74  1  0.756398  0.996414  0.177166  1
  Li  Li75  1  0.957806  0.980217  0.416277  1
  Li  Li76  1  0.018055  0.512260  0.580933  1
  Li  Li77  1  0.755059  0.268395  0.427338  1
  Li  Li78  1  0.460747  0.255466  0.165761  1
  Li  Li79  1  0.245392  0.994663  0.996010  1
  Li  Li80  1  0.529342  0.760540  0.005514  1
  Li  Li81  1  0.490964  0.475538  0.087385  1
  Li  Li82  1  0.997870  0.733500  0.498265  1
  Li  Li83  1  0.999365  0.260558  0.500994  1
  Li  Li84  1  0.984167  0.478916  0.416547  1
  Li  Li85  1  0.032195  0.780196  0.344962  1
  Li  Li86  1  0.485521  0.247324  0.003581  1
  Li  Li87  1  0.764340  0.044677  0.345161  1
  Li  Li88  1  0.747382  0.750084  0.095111  1
  Li  Li89  1  0.759577  0.274023  0.239643  1
  Li  Li90  1  0.751617  0.484419  0.169574  1
  Li  Li91  1  0.751049  0.275586  0.083953  1
  Li  Li92  1  0.972449  0.975838  0.077180  1
  Li  Li93  1  0.001886  0.721624  0.166374  1
  Li  Li94  1  0.777500  0.043324  0.009165  1
  Li  Li95  1  0.036152  0.777030  0.009979  1
  N  N96  1  0.009672  0.256230  0.910727  1
  N  N97  1  0.272604  0.989882  0.912163  1
  N  N98  1  0.213125  0.239637  0.827452  1
  N  N99  1  0.494132  0.999250  0.831809  1
  N  N100  1  0.984379  0.983555  0.661529  1
  N  N101  1  0.043853  0.285815  0.592822  1
  N  N102  1  0.254980  0.490346  0.742132  1
  N  N103  1  0.525509  0.784474  0.915636  1
  N  N104  1  0.288310  0.755348  0.678119  1
  N  N105  1  0.273207  0.996939  0.579122  1
  N  N106  1  0.231043  0.233815  0.488038  1
  N  N107  1  0.487707  0.214897  0.750430  1
  N  N108  1  0.728051  0.252223  0.987042  1
  N  N109  1  0.738453  0.523819  0.922098  1
  N  N110  1  0.508194  0.005860  0.502514  1
  N  N111  1  0.999223  0.004774  0.333108  1
  N  N112  1  0.500222  0.503321  0.665432  1
  N  N113  1  0.246345  0.460713  0.411818  1
  N  N114  1  0.008405  0.257613  0.245624  1
  N  N115  1  0.754648  0.737403  0.841244  1
  N  N116  1  0.273893  0.764294  0.343768  1
  N  N117  1  0.276661  0.987650  0.246454  1
  N  N118  1  0.529765  0.794052  0.586658  1
  N  N119  1  0.211189  0.235513  0.162396  1
  N  N120  1  0.745539  0.016717  0.758157  1
  N  N121  1  0.724595  0.259518  0.656303  1
  N  N122  1  0.470838  0.219610  0.417041  1
  N  N123  1  0.734270  0.526909  0.590460  1
  N  N124  1  0.962179  0.715462  0.741779  1
  N  N125  1  0.003853  0.481306  0.832653  1
  N  N126  1  0.498008  0.006748  0.166648  1
  N  N127  1  0.982947  0.984087  0.992654  1
  N  N128  1  0.516748  0.500008  0.334366  1
  N  N129  1  0.540362  0.797320  0.255038  1
  N  N130  1  0.248362  0.486057  0.079142  1
  N  N131  1  0.290280  0.778026  0.010839  1
  N  N132  1  0.754894  0.753690  0.509851  1
  N  N133  1  0.724994  0.008610  0.423015  1
  N  N134  1  0.498051  0.229940  0.086382  1
  N  N135  1  0.969702  0.720005  0.409046  1
  N  N136  1  0.745678  0.538384  0.258633  1
  N  N137  1  0.730834  0.257834  0.320410  1
  N  N138  1  0.996968  0.500456  0.501098  1
  N  N139  1  0.519016  0.502552  0.000450  1
  N  N140  1  0.766137  0.752576  0.179410  1
  N  N141  1  0.748505  0.020803  0.092833  1
  N  N142  1  0.969947  0.717371  0.075479  1
  N  N143  1  0.004268  0.483583  0.169333  1
