# generated using pymatgen
data_Mn2O3
_symmetry_space_group_name_H-M   'P 1'
_cell_length_a   8.32715216
_cell_length_b   8.32715287
_cell_length_c   8.32715250
_cell_angle_alpha   109.47121715
_cell_angle_beta   109.47121884
_cell_angle_gamma   109.47122436
_symmetry_Int_Tables_number   1
_chemical_formula_structural   Mn2O3
_chemical_formula_sum   'Mn16 O24'
_cell_volume   444.49581250
_cell_formula_units_Z   8
loop_
 _symmetry_equiv_pos_site_id
 _symmetry_equiv_pos_as_xyz
  1  'x, y, z'
loop_
 _atom_site_type_symbol
 _atom_site_label
 _atom_site_symmetry_multiplicity
 _atom_site_fract_x
 _atom_site_fract_y
 _atom_site_fract_z
 _atom_site_occupancy
  Mn  Mn0  1  0.500000  0.500000  0.500000  1
  Mn  Mn1  1  0.000000  0.000000  0.500000  1
  Mn  Mn2  1  0.500000  0.000000  0.000000  1
  Mn  Mn3  1  0.000000  0.500000  0.000000  1
  Mn  Mn4  1  0.464664  0.250000  0.714664  1
  Mn  Mn5  1  0.750000  0.785336  0.035336  1
  Mn  Mn6  1  0.714664  0.464664  0.250000  1
  Mn  Mn7  1  0.785336  0.035336  0.750000  1
  Mn  Mn8  1  0.250000  0.714664  0.464664  1
  Mn  Mn9  1  0.035336  0.750000  0.785336  1
  Mn  Mn10  1  0.535336  0.750000  0.285336  1
  Mn  Mn11  1  0.250000  0.214664  0.964664  1
  Mn  Mn12  1  0.285336  0.535336  0.750000  1
  Mn  Mn13  1  0.214664  0.964664  0.250000  1
  Mn  Mn14  1  0.750000  0.285336  0.535336  1
  Mn  Mn15  1  0.964664  0.250000  0.214664  1
  O  O16  1  0.441188  0.225496  0.455635  1
  O  O17  1  0.985553  0.044365  0.269861  1
  O  O18  1  0.715692  0.230139  0.274504  1
  O  O19  1  0.514447  0.784308  0.058812  1
  O  O20  1  0.044365  0.269861  0.985553  1
  O  O21  1  0.274504  0.715692  0.230139  1
  O  O22  1  0.784308  0.058812  0.514447  1
  O  O23  1  0.455635  0.441188  0.225496  1
  O  O24  1  0.225496  0.455635  0.441188  1
  O  O25  1  0.269861  0.985553  0.044365  1
  O  O26  1  0.230139  0.274504  0.715692  1
  O  O27  1  0.058812  0.514447  0.784308  1
  O  O28  1  0.558812  0.774504  0.544365  1
  O  O29  1  0.014447  0.955635  0.730139  1
  O  O30  1  0.284308  0.769861  0.725496  1
  O  O31  1  0.485553  0.215692  0.941188  1
  O  O32  1  0.955635  0.730139  0.014447  1
  O  O33  1  0.725496  0.284308  0.769861  1
  O  O34  1  0.215692  0.941188  0.485553  1
  O  O35  1  0.544365  0.558812  0.774504  1
  O  O36  1  0.774504  0.544365  0.558812  1
  O  O37  1  0.730139  0.014447  0.955635  1
  O  O38  1  0.769861  0.725496  0.284308  1
  O  O39  1  0.941188  0.485553  0.215692  1
