# generated using pymatgen
data_CrH9(CN2)3
_symmetry_space_group_name_H-M   'P 1'
_cell_length_a   7.52408732
_cell_length_b   7.52408704
_cell_length_c   7.52408742
_cell_angle_alpha   97.56832280
_cell_angle_beta   97.56832251
_cell_angle_gamma   97.56831704
_symmetry_Int_Tables_number   1
_chemical_formula_structural   CrH9(CN2)3
_chemical_formula_sum   'Cr2 H18 C6 N12'
_cell_volume   413.72039580
_cell_formula_units_Z   2
loop_
 _symmetry_equiv_pos_site_id
 _symmetry_equiv_pos_as_xyz
  1  'x, y, z'
loop_
 _atom_site_type_symbol
 _atom_site_label
 _atom_site_symmetry_multiplicity
 _atom_site_fract_x
 _atom_site_fract_y
 _atom_site_fract_z
 _atom_site_occupancy
  Cr  Cr0  1  0.000000  0.000000  0.000000  1
  Cr  Cr1  1  0.500000  0.500000  0.500000  1
  C  C2  1  0.239745  0.130518  0.949416  1
  C  C3  1  0.949416  0.239745  0.130518  1
  C  C4  1  0.130518  0.949416  0.239745  1
  C  C5  1  0.760255  0.869482  0.050584  1
  C  C6  1  0.050584  0.760255  0.869482  1
  C  C7  1  0.869482  0.050584  0.760255  1
  N  N8  1  0.376493  0.211424  0.923786  1
  N  N9  1  0.923786  0.376493  0.211424  1
  N  N10  1  0.211424  0.923786  0.376493  1
  N  N11  1  0.623507  0.788576  0.076214  1
  N  N12  1  0.076214  0.623507  0.788576  1
  N  N13  1  0.788576  0.076214  0.623507  1
  N  N14  1  0.553952  0.254034  0.365035  1
  N  N15  1  0.365035  0.553952  0.254034  1
  N  N16  1  0.254034  0.365035  0.553952  1
  N  N17  1  0.446048  0.745966  0.634965  1
  N  N18  1  0.634965  0.446048  0.745966  1
  N  N19  1  0.745966  0.634965  0.446048  1
  H  H20  1  0.268172  0.245684  0.602469  1
  H  H21  1  0.602469  0.268172  0.245684  1
  H  H22  1  0.245684  0.602469  0.268172  1
  H  H23  1  0.731828  0.754316  0.397531  1
  H  H24  1  0.397531  0.731828  0.754316  1
  H  H25  1  0.754316  0.397531  0.731828  1
  H  H26  1  0.440445  0.156965  0.332549  1
  H  H27  1  0.332549  0.440445  0.156965  1
  H  H28  1  0.156965  0.332549  0.440445  1
  H  H29  1  0.559555  0.843035  0.667451  1
  H  H30  1  0.667451  0.559555  0.843035  1
  H  H31  1  0.843035  0.667451  0.559555  1
  H  H32  1  0.648672  0.196320  0.442576  1
  H  H33  1  0.442576  0.648672  0.196320  1
  H  H34  1  0.196320  0.442576  0.648672  1
  H  H35  1  0.351328  0.803680  0.557424  1
  H  H36  1  0.557424  0.351328  0.803680  1
  H  H37  1  0.803680  0.557424  0.351328  1
