# generated using pymatgen
data_RbVOF3
_symmetry_space_group_name_H-M   'P 1'
_cell_length_a   3.95725585
_cell_length_b   8.78780129
_cell_length_c   11.82595725
_cell_angle_alpha   90.00000000
_cell_angle_beta   90.00000000
_cell_angle_gamma   90.00000000
_symmetry_Int_Tables_number   1
_chemical_formula_structural   RbVOF3
_chemical_formula_sum   'Rb4 V4 O4 F12'
_cell_volume   411.25449952
_cell_formula_units_Z   4
loop_
 _symmetry_equiv_pos_site_id
 _symmetry_equiv_pos_as_xyz
  1  'x, y, z'
loop_
 _atom_site_type_symbol
 _atom_site_label
 _atom_site_symmetry_multiplicity
 _atom_site_fract_x
 _atom_site_fract_y
 _atom_site_fract_z
 _atom_site_occupancy
  Rb  Rb0  1  0.500000  0.008847  0.782084  1
  Rb  Rb1  1  0.500000  0.991153  0.217916  1
  Rb  Rb2  1  0.500000  0.491153  0.282084  1
  Rb  Rb3  1  0.500000  0.508847  0.717916  1
  V  V4  1  0.000000  0.308229  0.016972  1
  V  V5  1  0.000000  0.808229  0.483028  1
  V  V6  1  0.000000  0.191771  0.516972  1
  V  V7  1  0.000000  0.691771  0.983028  1
  O  O8  1  0.000000  0.157038  0.935173  1
  O  O9  1  0.000000  0.842962  0.064827  1
  O  O10  1  0.000000  0.657038  0.564827  1
  O  O11  1  0.000000  0.342962  0.435173  1
  F  F12  1  0.000000  0.266826  0.668824  1
  F  F13  1  0.000000  0.233174  0.168824  1
  F  F14  1  0.500000  0.833070  0.466717  1
  F  F15  1  0.000000  0.733174  0.331176  1
  F  F16  1  0.000000  0.030846  0.397315  1
  F  F17  1  0.500000  0.166930  0.533283  1
  F  F18  1  0.500000  0.666930  0.966717  1
  F  F19  1  0.000000  0.766826  0.831176  1
  F  F20  1  0.000000  0.469154  0.897315  1
  F  F21  1  0.000000  0.530846  0.102685  1
  F  F22  1  0.000000  0.969154  0.602685  1
  F  F23  1  0.500000  0.333070  0.033283  1
