# generated using pymatgen
data_Sm26Ga6Co11
_symmetry_space_group_name_H-M   'P 1'
_cell_length_a   11.67061390
_cell_length_b   11.67061390
_cell_length_c   15.25585886
_cell_angle_alpha   90.00000000
_cell_angle_beta   90.00000000
_cell_angle_gamma   90.00000000
_symmetry_Int_Tables_number   1
_chemical_formula_structural   Sm26Ga6Co11
_chemical_formula_sum   'Sm52 Ga12 Co22'
_cell_volume   2077.89723489
_cell_formula_units_Z   2
loop_
 _symmetry_equiv_pos_site_id
 _symmetry_equiv_pos_as_xyz
  1  'x, y, z'
loop_
 _atom_site_type_symbol
 _atom_site_label
 _atom_site_symmetry_multiplicity
 _atom_site_fract_x
 _atom_site_fract_y
 _atom_site_fract_z
 _atom_site_occupancy
  Sm  Sm0  1  0.920398  0.795051  0.311014  1
  Sm  Sm1  1  0.204949  0.920398  0.311014  1
  Sm  Sm2  1  0.657568  0.157568  0.000000  1
  Sm  Sm3  1  0.927440  0.201016  0.884946  1
  Sm  Sm4  1  0.342432  0.842432  0.000000  1
  Sm  Sm5  1  0.572560  0.701016  0.884946  1
  Sm  Sm6  1  0.579602  0.295051  0.688986  1
  Sm  Sm7  1  0.427440  0.298984  0.884946  1
  Sm  Sm8  1  0.296299  0.583591  0.500000  1
  Sm  Sm9  1  0.416409  0.296299  0.500000  1
  Sm  Sm10  1  0.204949  0.920398  0.688986  1
  Sm  Sm11  1  0.583591  0.703701  0.500000  1
  Sm  Sm12  1  0.500000  0.000000  0.156866  1
  Sm  Sm13  1  0.420398  0.704949  0.311014  1
  Sm  Sm14  1  0.500000  0.000000  0.843134  1
  Sm  Sm15  1  0.000000  0.500000  0.383888  1
  Sm  Sm16  1  0.083591  0.796299  0.500000  1
  Sm  Sm17  1  0.795051  0.079602  0.311014  1
  Sm  Sm18  1  0.295051  0.420398  0.688986  1
  Sm  Sm19  1  0.842432  0.657568  0.000000  1
  Sm  Sm20  1  0.079602  0.204949  0.688986  1
  Sm  Sm21  1  0.000000  0.500000  0.156866  1
  Sm  Sm22  1  0.701016  0.427440  0.115054  1
  Sm  Sm23  1  0.000000  0.500000  0.616112  1
  Sm  Sm24  1  0.072560  0.798984  0.115054  1
  Sm  Sm25  1  0.916409  0.203701  0.500000  1
  Sm  Sm26  1  0.704949  0.579602  0.311014  1
  Sm  Sm27  1  0.427440  0.298984  0.115054  1
  Sm  Sm28  1  0.201016  0.072560  0.115054  1
  Sm  Sm29  1  0.704949  0.579602  0.688986  1
  Sm  Sm30  1  0.927440  0.201016  0.115054  1
  Sm  Sm31  1  0.796299  0.916409  0.500000  1
  Sm  Sm32  1  0.579602  0.295051  0.311014  1
  Sm  Sm33  1  0.201016  0.072560  0.884946  1
  Sm  Sm34  1  0.703701  0.416409  0.500000  1
  Sm  Sm35  1  0.072560  0.798984  0.884946  1
  Sm  Sm36  1  0.000000  0.500000  0.843134  1
  Sm  Sm37  1  0.798984  0.927440  0.884946  1
  Sm  Sm38  1  0.572560  0.701016  0.115054  1
  Sm  Sm39  1  0.500000  0.000000  0.383888  1
  Sm  Sm40  1  0.298984  0.572560  0.115054  1
  Sm  Sm41  1  0.079602  0.204949  0.311014  1
  Sm  Sm42  1  0.295051  0.420398  0.311014  1
  Sm  Sm43  1  0.795051  0.079602  0.688986  1
  Sm  Sm44  1  0.920398  0.795051  0.688986  1
  Sm  Sm45  1  0.701016  0.427440  0.884946  1
  Sm  Sm46  1  0.157568  0.342432  0.000000  1
  Sm  Sm47  1  0.203701  0.083591  0.500000  1
  Sm  Sm48  1  0.500000  0.000000  0.616112  1
  Sm  Sm49  1  0.420398  0.704949  0.688986  1
  Sm  Sm50  1  0.298984  0.572560  0.884946  1
  Sm  Sm51  1  0.798984  0.927440  0.115054  1
  Ga  Ga52  1  0.837564  0.337564  0.290636  1
  Ga  Ga53  1  0.151636  0.348364  0.500000  1
  Ga  Ga54  1  0.337564  0.162436  0.290636  1
  Ga  Ga55  1  0.162436  0.662436  0.290636  1
  Ga  Ga56  1  0.162436  0.662436  0.709364  1
  Ga  Ga57  1  0.337564  0.162436  0.709364  1
  Ga  Ga58  1  0.348364  0.848364  0.500000  1
  Ga  Ga59  1  0.651636  0.151636  0.500000  1
  Ga  Ga60  1  0.662436  0.837564  0.709364  1
  Ga  Ga61  1  0.662436  0.837564  0.290636  1
  Ga  Ga62  1  0.848364  0.651636  0.500000  1
  Ga  Ga63  1  0.837564  0.337564  0.709364  1
  Co  Co64  1  0.094437  0.594437  0.000000  1
  Co  Co65  1  0.806277  0.693723  0.179341  1
  Co  Co66  1  0.594437  0.905563  0.000000  1
  Co  Co67  1  0.500000  0.500000  0.589557  1
  Co  Co68  1  0.500000  0.500000  0.225769  1
  Co  Co69  1  0.000000  0.000000  0.589557  1
  Co  Co70  1  0.000000  0.000000  0.410443  1
  Co  Co71  1  0.000000  0.000000  0.225769  1
  Co  Co72  1  0.500000  0.500000  0.410443  1
  Co  Co73  1  0.500000  0.500000  0.774231  1
  Co  Co74  1  0.693723  0.193723  0.820659  1
  Co  Co75  1  0.693723  0.193723  0.179341  1
  Co  Co76  1  0.405563  0.094437  0.000000  1
  Co  Co77  1  0.000000  0.000000  0.000000  1
  Co  Co78  1  0.193723  0.306277  0.820659  1
  Co  Co79  1  0.000000  0.000000  0.774231  1
  Co  Co80  1  0.905563  0.405563  0.000000  1
  Co  Co81  1  0.193723  0.306277  0.179341  1
  Co  Co82  1  0.500000  0.500000  0.000000  1
  Co  Co83  1  0.306277  0.806277  0.820659  1
  Co  Co84  1  0.806277  0.693723  0.820659  1
  Co  Co85  1  0.306277  0.806277  0.179341  1
