# generated using pymatgen
data_AsSXe2(OF3)3
_symmetry_space_group_name_H-M   'P 1'
_cell_length_a   9.04619595
_cell_length_b   11.46513315
_cell_length_c   11.96210991
_cell_angle_alpha   91.32220581
_cell_angle_beta   90.00000000
_cell_angle_gamma   90.00000000
_symmetry_Int_Tables_number   1
_chemical_formula_structural   AsSXe2(OF3)3
_chemical_formula_sum   'As4 S4 Xe8 O12 F36'
_cell_volume   1240.32995356
_cell_formula_units_Z   4
loop_
 _symmetry_equiv_pos_site_id
 _symmetry_equiv_pos_as_xyz
  1  'x, y, z'
loop_
 _atom_site_type_symbol
 _atom_site_label
 _atom_site_symmetry_multiplicity
 _atom_site_fract_x
 _atom_site_fract_y
 _atom_site_fract_z
 _atom_site_occupancy
  As  As0  1  0.811668  0.692958  0.437688  1
  As  As1  1  0.688332  0.192958  0.937688  1
  As  As2  1  0.188332  0.307042  0.562312  1
  As  As3  1  0.311668  0.807042  0.062312  1
  S  S4  1  0.093369  0.907333  0.731485  1
  S  S5  1  0.906631  0.092667  0.268515  1
  S  S6  1  0.593369  0.592667  0.768515  1
  S  S7  1  0.406631  0.407333  0.231485  1
  Xe  Xe8  1  0.582085  0.877777  0.707788  1
  Xe  Xe9  1  0.917915  0.377777  0.207788  1
  Xe  Xe10  1  0.175904  0.147054  0.886815  1
  Xe  Xe11  1  0.082085  0.622223  0.792212  1
  Xe  Xe12  1  0.824096  0.852946  0.113185  1
  Xe  Xe13  1  0.417915  0.122223  0.292212  1
  Xe  Xe14  1  0.324096  0.647054  0.386815  1
  Xe  Xe15  1  0.675904  0.352946  0.613185  1
  O  O16  1  0.543531  0.411075  0.289854  1
  O  O17  1  0.211568  0.992248  0.766017  1
  O  O18  1  0.330225  0.292368  0.217138  1
  O  O19  1  0.788432  0.007752  0.233983  1
  O  O20  1  0.456469  0.588925  0.710146  1
  O  O21  1  0.043531  0.088925  0.210146  1
  O  O22  1  0.169775  0.792368  0.717138  1
  O  O23  1  0.669775  0.707632  0.782862  1
  O  O24  1  0.830225  0.207632  0.282862  1
  O  O25  1  0.711568  0.507752  0.733983  1
  O  O26  1  0.288432  0.492248  0.266017  1
  O  O27  1  0.956469  0.911075  0.789854  1
  F  F28  1  0.563876  0.558601  0.892820  1
  F  F29  1  0.341090  0.784088  0.494732  1
  F  F30  1  0.383889  0.950524  0.075386  1
  F  F31  1  0.736984  0.835188  0.452491  1
  F  F32  1  0.236984  0.664812  0.047509  1
  F  F33  1  0.116111  0.450524  0.575386  1
  F  F34  1  0.656022  0.637380  0.512385  1
  F  F35  1  0.965698  0.748848  0.364555  1
  F  F36  1  0.465698  0.751152  0.135445  1
  F  F37  1  0.763016  0.335188  0.952491  1
  F  F38  1  0.093219  0.287656  0.432843  1
  F  F39  1  0.406781  0.787656  0.932843  1
  F  F40  1  0.616111  0.049476  0.924614  1
  F  F41  1  0.843978  0.137380  0.012385  1
  F  F42  1  0.883889  0.549476  0.424614  1
  F  F43  1  0.034302  0.251152  0.635445  1
  F  F44  1  0.158910  0.284088  0.994732  1
  F  F45  1  0.714252  0.671291  0.310082  1
  F  F46  1  0.785748  0.171291  0.810082  1
  F  F47  1  0.936124  0.058601  0.392820  1
  F  F48  1  0.485132  0.969992  0.354138  1
  F  F49  1  0.214252  0.828709  0.189918  1
  F  F50  1  0.343978  0.362620  0.487615  1
  F  F51  1  0.514868  0.030008  0.645862  1
  F  F52  1  0.658910  0.215912  0.505268  1
  F  F53  1  0.534302  0.248848  0.864555  1
  F  F54  1  0.906781  0.712344  0.567157  1
  F  F55  1  0.841090  0.715912  0.005268  1
  F  F56  1  0.985132  0.530008  0.145862  1
  F  F57  1  0.263016  0.164812  0.547509  1
  F  F58  1  0.063876  0.941399  0.607180  1
  F  F59  1  0.436124  0.441399  0.107180  1
  F  F60  1  0.014868  0.469992  0.854138  1
  F  F61  1  0.285748  0.328709  0.689918  1
  F  F62  1  0.156022  0.862620  0.987615  1
  F  F63  1  0.593219  0.212344  0.067157  1
