# generated using pymatgen
data_AgC4OF9
_symmetry_space_group_name_H-M   'P 1'
_cell_length_a   6.98779549
_cell_length_b   10.39860141
_cell_length_c   11.02402806
_cell_angle_alpha   84.86869224
_cell_angle_beta   89.35829930
_cell_angle_gamma   88.03629592
_symmetry_Int_Tables_number   1
_chemical_formula_structural   AgC4OF9
_chemical_formula_sum   'Ag4 C16 O4 F36'
_cell_volume   797.33678901
_cell_formula_units_Z   4
loop_
 _symmetry_equiv_pos_site_id
 _symmetry_equiv_pos_as_xyz
  1  'x, y, z'
loop_
 _atom_site_type_symbol
 _atom_site_label
 _atom_site_symmetry_multiplicity
 _atom_site_fract_x
 _atom_site_fract_y
 _atom_site_fract_z
 _atom_site_occupancy
  Ag  Ag0  1  0.798515  0.908786  0.582961  1
  Ag  Ag1  1  0.201485  0.091214  0.417039  1
  Ag  Ag2  1  0.689032  0.029963  0.323608  1
  Ag  Ag3  1  0.310968  0.970037  0.676392  1
  C  C4  1  0.545576  0.357158  0.231396  1
  C  C5  1  0.454424  0.642842  0.768604  1
  C  C6  1  0.931496  0.166089  0.797672  1
  C  C7  1  0.838600  0.272045  0.586351  1
  C  C8  1  0.790692  0.702741  0.829865  1
  C  C9  1  0.422370  0.244594  0.189343  1
  C  C10  1  0.577630  0.755406  0.810657  1
  C  C11  1  0.820935  0.707200  0.334125  1
  C  C12  1  0.179065  0.292800  0.665875  1
  C  C13  1  0.498239  0.796650  0.936802  1
  C  C14  1  0.994213  0.800805  0.337437  1
  C  C15  1  0.005787  0.199195  0.662563  1
  C  C16  1  0.161400  0.727955  0.413649  1
  C  C17  1  0.068504  0.833911  0.202328  1
  C  C18  1  0.209308  0.297259  0.170135  1
  C  C19  1  0.501761  0.203350  0.063198  1
  O  O20  1  0.058091  0.086822  0.609720  1
  O  O21  1  0.427420  0.139835  0.275319  1
  O  O22  1  0.572580  0.860165  0.724681  1
  O  O23  1  0.941909  0.913178  0.390280  1
  F  F24  1  0.295966  0.813211  0.441579  1
  F  F25  1  0.747545  0.364986  0.645142  1
  F  F26  1  0.377822  0.125406  0.014055  1
  F  F27  1  0.185363  0.379165  0.068779  1
  F  F28  1  0.466921  0.694828  0.019026  1
  F  F29  1  0.814637  0.620835  0.931221  1
  F  F30  1  0.148799  0.360417  0.267365  1
  F  F31  1  0.753085  0.117710  0.797298  1
  F  F32  1  0.622178  0.874594  0.985945  1
  F  F33  1  0.875543  0.586484  0.309292  1
  F  F34  1  0.671255  0.134982  0.078653  1
  F  F35  1  0.047293  0.074322  0.857111  1
  F  F36  1  0.909568  0.802744  0.837455  1
  F  F37  1  0.264017  0.674434  0.777629  1
  F  F38  1  0.308004  0.244836  0.751516  1
  F  F39  1  0.735983  0.325566  0.222371  1
  F  F40  1  0.906665  0.326723  0.478712  1
  F  F41  1  0.513438  0.471755  0.165244  1
  F  F42  1  0.725931  0.697651  0.442838  1
  F  F43  1  0.491037  0.625415  0.650054  1
  F  F44  1  0.533079  0.305172  0.980974  1
  F  F45  1  0.328745  0.865018  0.921347  1
  F  F46  1  0.075967  0.729757  0.136920  1
  F  F47  1  0.508963  0.374585  0.349946  1
  F  F48  1  0.851201  0.639583  0.732635  1
  F  F49  1  0.486562  0.528245  0.834756  1
  F  F50  1  0.090432  0.197256  0.162545  1
  F  F51  1  0.252455  0.635014  0.354858  1
  F  F52  1  0.952707  0.925678  0.142889  1
  F  F53  1  0.124457  0.413516  0.690708  1
  F  F54  1  0.691996  0.755164  0.248484  1
  F  F55  1  0.704034  0.186789  0.558421  1
  F  F56  1  0.274069  0.302349  0.557162  1
  F  F57  1  0.246915  0.882290  0.202702  1
  F  F58  1  0.924033  0.270243  0.863080  1
  F  F59  1  0.093335  0.673277  0.521288  1
