# generated using pymatgen
data_RbLi7(SiO4)2
_symmetry_space_group_name_H-M   'P 1'
_cell_length_a   6.43610774
_cell_length_b   7.85947504
_cell_length_c   8.54037787
_cell_angle_alpha   90.49883476
_cell_angle_beta   112.13588933
_cell_angle_gamma   89.99999877
_symmetry_Int_Tables_number   1
_chemical_formula_structural   RbLi7(SiO4)2
_chemical_formula_sum   'Rb2 Li14 Si4 O16'
_cell_volume   400.15019183
_cell_formula_units_Z   2
loop_
 _symmetry_equiv_pos_site_id
 _symmetry_equiv_pos_as_xyz
  1  'x, y, z'
loop_
 _atom_site_type_symbol
 _atom_site_label
 _atom_site_symmetry_multiplicity
 _atom_site_fract_x
 _atom_site_fract_y
 _atom_site_fract_z
 _atom_site_occupancy
  Rb  Rb0  1  0.755362  0.530492  0.510724  1
  Rb  Rb1  1  0.244638  0.469508  0.489276  1
  Li  Li2  1  0.320843  0.631452  0.133943  1
  Li  Li3  1  0.186900  0.368548  0.866057  1
  Li  Li4  1  0.813100  0.631452  0.133943  1
  Li  Li5  1  0.068553  0.287121  0.137107  1
  Li  Li6  1  0.926694  0.129553  0.369675  1
  Li  Li7  1  0.679157  0.368548  0.866057  1
  Li  Li8  1  0.931447  0.712879  0.862893  1
  Li  Li9  1  0.500000  0.000000  0.000000  1
  Li  Li10  1  0.442981  0.129553  0.369675  1
  Li  Li11  1  0.357207  0.136757  0.714414  1
  Li  Li12  1  0.557019  0.870447  0.630325  1
  Li  Li13  1  0.073306  0.870447  0.630325  1
  Li  Li14  1  0.642793  0.863243  0.285586  1
  Li  Li15  1  0.000000  0.000000  0.000000  1
  Si  Si16  1  0.570774  0.292452  0.141549  1
  Si  Si17  1  0.429226  0.707548  0.858451  1
  Si  Si18  1  0.146556  0.859497  0.293111  1
  Si  Si19  1  0.853444  0.140503  0.706889  1
  O  O20  1  0.128271  0.067099  0.256542  1
  O  O21  1  0.617600  0.606856  0.802967  1
  O  O22  1  0.052396  0.763655  0.104792  1
  O  O23  1  0.532023  0.749157  0.064047  1
  O  O24  1  0.020162  0.194515  0.607587  1
  O  O25  1  0.384216  0.897551  0.768431  1
  O  O26  1  0.947604  0.236345  0.895208  1
  O  O27  1  0.871729  0.932901  0.743458  1
  O  O28  1  0.412575  0.805485  0.392413  1
  O  O29  1  0.814633  0.393144  0.197033  1
  O  O30  1  0.615784  0.102449  0.231569  1
  O  O31  1  0.382400  0.393144  0.197033  1
  O  O32  1  0.185367  0.606856  0.802967  1
  O  O33  1  0.979838  0.805485  0.392413  1
  O  O34  1  0.587425  0.194515  0.607587  1
  O  O35  1  0.467977  0.250843  0.935953  1
