# generated using pymatgen
data_Sm2Ti3(BiO6)2
_symmetry_space_group_name_H-M   'P 1'
_cell_length_a   3.82300917
_cell_length_b   3.82300882
_cell_length_c   16.76930685
_cell_angle_alpha   96.54435773
_cell_angle_beta   96.54433636
_cell_angle_gamma   90.00418269
_symmetry_Int_Tables_number   1
_chemical_formula_structural   Sm2Ti3(BiO6)2
_chemical_formula_sum   'Sm2 Ti3 Bi2 O12'
_cell_volume   241.88526518
_cell_formula_units_Z   1
loop_
 _symmetry_equiv_pos_site_id
 _symmetry_equiv_pos_as_xyz
  1  'x, y, z'
loop_
 _atom_site_type_symbol
 _atom_site_label
 _atom_site_symmetry_multiplicity
 _atom_site_fract_x
 _atom_site_fract_y
 _atom_site_fract_z
 _atom_site_occupancy
  Sm  Sm0  1  0.065824  0.065824  0.131780  1
  Sm  Sm1  1  0.934176  0.934176  0.868220  1
  Ti  Ti2  1  0.373093  0.373093  0.746114  1
  Ti  Ti3  1  0.500000  0.500000  0.000000  1
  Ti  Ti4  1  0.626907  0.626907  0.253886  1
  Bi  Bi5  1  0.211110  0.211110  0.422064  1
  Bi  Bi6  1  0.788890  0.788890  0.577936  1
  O  O7  1  0.681127  0.681127  0.362432  1
  O  O8  1  0.113528  0.613501  0.227117  1
  O  O9  1  0.249989  0.750011  0.500000  1
  O  O10  1  0.750011  0.249989  0.500000  1
  O  O11  1  0.000000  0.500000  0.000000  1
  O  O12  1  0.613502  0.113527  0.227117  1
  O  O13  1  0.886472  0.386499  0.772883  1
  O  O14  1  0.386499  0.886473  0.772883  1
  O  O15  1  0.318873  0.318873  0.637568  1
  O  O16  1  0.558792  0.558791  0.117400  1
  O  O17  1  0.441208  0.441209  0.882600  1
  O  O18  1  0.500000  0.000000  0.000000  1
