# generated using pymatgen
data_MnP4O11
_symmetry_space_group_name_H-M   'P 1'
_cell_length_a   5.57926182
_cell_length_b   7.63704062
_cell_length_c   22.73097301
_cell_angle_alpha   90.00000000
_cell_angle_beta   90.00000000
_cell_angle_gamma   109.77220051
_symmetry_Int_Tables_number   1
_chemical_formula_structural   MnP4O11
_chemical_formula_sum   'Mn4 P16 O44'
_cell_volume   911.44457807
_cell_formula_units_Z   4
loop_
 _symmetry_equiv_pos_site_id
 _symmetry_equiv_pos_as_xyz
  1  'x, y, z'
loop_
 _atom_site_type_symbol
 _atom_site_label
 _atom_site_symmetry_multiplicity
 _atom_site_fract_x
 _atom_site_fract_y
 _atom_site_fract_z
 _atom_site_occupancy
  Mn  Mn0  1  0.996030  0.628156  0.613383  1
  Mn  Mn1  1  0.003970  0.871844  0.113382  1
  Mn  Mn2  1  0.003970  0.371844  0.386618  1
  Mn  Mn3  1  0.996030  0.128156  0.886617  1
  P  P4  1  0.592484  0.792428  0.533915  1
  P  P5  1  0.407516  0.707572  0.033915  1
  P  P6  1  0.407516  0.207572  0.466085  1
  P  P7  1  0.592484  0.292428  0.966085  1
  P  P8  1  0.315414  0.819317  0.427698  1
  P  P9  1  0.684586  0.680683  0.927698  1
  P  P10  1  0.684586  0.180683  0.572302  1
  P  P11  1  0.315414  0.319317  0.072302  1
  P  P12  1  0.667351  0.945204  0.320917  1
  P  P13  1  0.332649  0.554796  0.820917  1
  P  P14  1  0.332649  0.054796  0.679083  1
  P  P15  1  0.667351  0.445204  0.179083  1
  P  P16  1  0.596705  0.035677  0.196274  1
  P  P17  1  0.403295  0.464323  0.696274  1
  P  P18  1  0.403295  0.964323  0.803726  1
  P  P19  1  0.596705  0.535677  0.303726  1
  O  O20  1  0.770986  0.689270  0.543415  1
  O  O21  1  0.229014  0.810730  0.043415  1
  O  O22  1  0.229014  0.310730  0.456585  1
  O  O23  1  0.770986  0.189270  0.956585  1
  O  O24  1  0.339343  0.746815  0.562517  1
  O  O25  1  0.660657  0.753185  0.062517  1
  O  O26  1  0.660657  0.253185  0.437483  1
  O  O27  1  0.339343  0.246815  0.937483  1
  O  O28  1  0.243553  0.986169  0.453636  1
  O  O29  1  0.756447  0.513831  0.953636  1
  O  O30  1  0.756447  0.013831  0.546364  1
  O  O31  1  0.243553  0.486169  0.046364  1
  O  O32  1  0.555786  0.804881  0.462031  1
  O  O33  1  0.444214  0.695119  0.962031  1
  O  O34  1  0.444214  0.195119  0.537969  1
  O  O35  1  0.555786  0.304881  0.037969  1
  O  O36  1  0.089421  0.650396  0.424914  1
  O  O37  1  0.910579  0.849604  0.924914  1
  O  O38  1  0.910579  0.349604  0.575086  1
  O  O39  1  0.089421  0.150396  0.075086  1
  O  O40  1  0.427884  0.885740  0.363925  1
  O  O41  1  0.572116  0.614260  0.863925  1
  O  O42  1  0.572116  0.114260  0.636075  1
  O  O43  1  0.427884  0.385740  0.136075  1
  O  O44  1  0.896136  0.090691  0.343761  1
  O  O45  1  0.103864  0.409309  0.843761  1
  O  O46  1  0.103864  0.909309  0.656239  1
  O  O47  1  0.896136  0.590691  0.156239  1
  O  O48  1  0.531654  0.001818  0.266704  1
  O  O49  1  0.468346  0.498182  0.766704  1
  O  O50  1  0.468346  0.998182  0.733296  1
  O  O51  1  0.531654  0.501818  0.233296  1
  O  O52  1  0.727350  0.764273  0.304594  1
  O  O53  1  0.272650  0.735727  0.804594  1
  O  O54  1  0.272650  0.235727  0.695406  1
  O  O55  1  0.727350  0.264273  0.195406  1
  O  O56  1  0.801669  0.959080  0.182321  1
  O  O57  1  0.198331  0.540920  0.682321  1
  O  O58  1  0.198331  0.040920  0.817679  1
  O  O59  1  0.801669  0.459080  0.317679  1
  O  O60  1  0.349617  0.982456  0.165005  1
  O  O61  1  0.650383  0.517544  0.665005  1
  O  O62  1  0.650383  0.017544  0.834995  1
  O  O63  1  0.349617  0.482456  0.334995  1
