# generated using pymatgen
data_Rb2(ReSe2)3
_symmetry_space_group_name_H-M   'P 1'
_cell_length_a   10.31498218
_cell_length_b   10.35244447
_cell_length_c   12.68490278
_cell_angle_alpha   91.01317056
_cell_angle_beta   90.00000000
_cell_angle_gamma   119.88036673
_symmetry_Int_Tables_number   1
_chemical_formula_structural   Rb2(ReSe2)3
_chemical_formula_sum   'Rb8 Re12 Se24'
_cell_volume   1174.25149693
_cell_formula_units_Z   4
loop_
 _symmetry_equiv_pos_site_id
 _symmetry_equiv_pos_as_xyz
  1  'x, y, z'
loop_
 _atom_site_type_symbol
 _atom_site_label
 _atom_site_symmetry_multiplicity
 _atom_site_fract_x
 _atom_site_fract_y
 _atom_site_fract_z
 _atom_site_occupancy
  Re  Re0  1  0.003060  0.321595  0.477296  1
  Re  Re1  1  0.681465  0.678405  0.022704  1
  Re  Re2  1  0.996940  0.678405  0.522704  1
  Re  Re3  1  0.318535  0.321595  0.977296  1
  Re  Re4  1  0.114023  0.579149  0.376387  1
  Re  Re5  1  0.534874  0.420851  0.123613  1
  Re  Re6  1  0.885977  0.420851  0.623613  1
  Re  Re7  1  0.465126  0.579149  0.876387  1
  Re  Re8  1  0.822110  0.422602  0.418105  1
  Re  Re9  1  0.399508  0.577398  0.081895  1
  Re  Re10  1  0.177890  0.577398  0.581895  1
  Re  Re11  1  0.600492  0.422602  0.918105  1
  Rb  Rb12  1  0.613311  0.000000  0.250000  1
  Rb  Rb13  1  0.386689  0.000000  0.750000  1
  Rb  Rb14  1  0.217479  0.000000  0.250000  1
  Rb  Rb15  1  0.782521  0.000000  0.750000  1
  Rb  Rb16  1  0.134539  0.774360  0.980757  1
  Rb  Rb17  1  0.360180  0.225640  0.519243  1
  Rb  Rb18  1  0.865461  0.225640  0.019243  1
  Rb  Rb19  1  0.639820  0.774360  0.480757  1
  Se  Se20  1  0.068137  0.329561  0.671049  1
  Se  Se21  1  0.738577  0.670439  0.828951  1
  Se  Se22  1  0.931863  0.670439  0.328951  1
  Se  Se23  1  0.261423  0.329561  0.171049  1
  Se  Se24  1  0.800401  0.519308  0.064278  1
  Se  Se25  1  0.281093  0.480692  0.435722  1
  Se  Se26  1  0.199599  0.480692  0.935722  1
  Se  Se27  1  0.718907  0.519308  0.564278  1
  Se  Se28  1  0.053942  0.667118  0.716330  1
  Se  Se29  1  0.386824  0.332882  0.783670  1
  Se  Se30  1  0.946058  0.332882  0.283670  1
  Se  Se31  1  0.613176  0.667118  0.216330  1
  Se  Se32  1  0.278748  0.821992  0.481028  1
  Se  Se33  1  0.456756  0.178008  0.018972  1
  Se  Se34  1  0.721252  0.178008  0.518972  1
  Se  Se35  1  0.543244  0.821992  0.981028  1
  Se  Se36  1  0.074324  0.069934  0.922700  1
  Se  Se37  1  0.004390  0.930066  0.577300  1
  Se  Se38  1  0.925676  0.930066  0.077300  1
  Se  Se39  1  0.995610  0.069934  0.422700  1
  Se  Se40  1  0.267520  0.695355  0.199894  1
  Se  Se41  1  0.572165  0.304645  0.300106  1
  Se  Se42  1  0.732480  0.304645  0.800106  1
  Se  Se43  1  0.427835  0.695355  0.699894  1
