# generated using pymatgen
data_SiO2
_symmetry_space_group_name_H-M   'P 1'
_cell_length_a   9.59877839
_cell_length_b   9.59877794
_cell_length_c   9.59877777
_cell_angle_alpha   117.33407463
_cell_angle_beta   117.33407321
_cell_angle_gamma   117.33406856
_symmetry_Int_Tables_number   1
_chemical_formula_structural   SiO2
_chemical_formula_sum   'Si6 O12'
_cell_volume   368.73869807
_cell_formula_units_Z   6
loop_
 _symmetry_equiv_pos_site_id
 _symmetry_equiv_pos_as_xyz
  1  'x, y, z'
loop_
 _atom_site_type_symbol
 _atom_site_label
 _atom_site_symmetry_multiplicity
 _atom_site_fract_x
 _atom_site_fract_y
 _atom_site_fract_z
 _atom_site_occupancy
  Si  Si0  1  0.817390  0.682610  0.250000  1
  Si  Si1  1  0.182610  0.317390  0.750000  1
  Si  Si2  1  0.250000  0.817390  0.682610  1
  Si  Si3  1  0.750000  0.182610  0.317390  1
  Si  Si4  1  0.682610  0.250000  0.817390  1
  Si  Si5  1  0.317390  0.750000  0.182610  1
  O  O6  1  0.000000  0.500000  0.500000  1
  O  O7  1  0.989898  0.250000  0.510102  1
  O  O8  1  0.010102  0.750000  0.489898  1
  O  O9  1  0.489898  0.010102  0.750000  1
  O  O10  1  0.500000  0.000000  0.500000  1
  O  O11  1  0.250000  0.510102  0.989898  1
  O  O12  1  0.500000  0.000000  0.000000  1
  O  O13  1  0.510102  0.989898  0.250000  1
  O  O14  1  0.750000  0.489898  0.010102  1
  O  O15  1  0.000000  0.000000  0.500000  1
  O  O16  1  0.000000  0.500000  0.000000  1
  O  O17  1  0.500000  0.500000  0.000000  1
