# generated using pymatgen
data_Rb2Tb10C4Br19
_symmetry_space_group_name_H-M   'P 1'
_cell_length_a   12.86933998
_cell_length_b   14.58477788
_cell_length_c   23.44345142
_cell_angle_alpha   90.00000000
_cell_angle_beta   90.00000000
_cell_angle_gamma   90.00000000
_symmetry_Int_Tables_number   1
_chemical_formula_structural   Rb2Tb10C4Br19
_chemical_formula_sum   'Rb8 Tb40 C16 Br76'
_cell_volume   4400.25296059
_cell_formula_units_Z   4
loop_
 _symmetry_equiv_pos_site_id
 _symmetry_equiv_pos_as_xyz
  1  'x, y, z'
loop_
 _atom_site_type_symbol
 _atom_site_label
 _atom_site_symmetry_multiplicity
 _atom_site_fract_x
 _atom_site_fract_y
 _atom_site_fract_z
 _atom_site_occupancy
  Tb  Tb0  1  0.116385  0.312416  0.978916  1
  Tb  Tb1  1  0.371986  0.586299  0.764652  1
  Tb  Tb2  1  0.100778  0.312619  0.826608  1
  Tb  Tb3  1  0.388188  0.316842  0.172409  1
  Tb  Tb4  1  0.888188  0.683158  0.327591  1
  Tb  Tb5  1  0.388188  0.816842  0.827591  1
  Tb  Tb6  1  0.631294  0.914683  0.587836  1
  Tb  Tb7  1  0.611812  0.183158  0.172409  1
  Tb  Tb8  1  0.111812  0.816842  0.327591  1
  Tb  Tb9  1  0.128014  0.586299  0.264652  1
  Tb  Tb10  1  0.371986  0.086299  0.235348  1
  Tb  Tb11  1  0.868706  0.414683  0.912164  1
  Tb  Tb12  1  0.131294  0.585317  0.087836  1
  Tb  Tb13  1  0.399222  0.312619  0.326608  1
  Tb  Tb14  1  0.888188  0.183158  0.672409  1
  Tb  Tb15  1  0.883615  0.687584  0.021084  1
  Tb  Tb16  1  0.100778  0.812619  0.173392  1
  Tb  Tb17  1  0.600778  0.687381  0.673392  1
  Tb  Tb18  1  0.899222  0.187381  0.826608  1
  Tb  Tb19  1  0.128014  0.086299  0.735348  1
  Tb  Tb20  1  0.368706  0.585317  0.587836  1
  Tb  Tb21  1  0.111812  0.316842  0.672409  1
  Tb  Tb22  1  0.116385  0.812416  0.021084  1
  Tb  Tb23  1  0.383615  0.312416  0.478916  1
  Tb  Tb24  1  0.883615  0.187584  0.978916  1
  Tb  Tb25  1  0.871986  0.413701  0.735348  1
  Tb  Tb26  1  0.616385  0.187584  0.478916  1
  Tb  Tb27  1  0.368706  0.085317  0.412164  1
  Tb  Tb28  1  0.600778  0.187381  0.326608  1
  Tb  Tb29  1  0.399222  0.812619  0.673392  1
  Tb  Tb30  1  0.631294  0.414683  0.412164  1
  Tb  Tb31  1  0.131294  0.085317  0.912164  1
  Tb  Tb32  1  0.871986  0.913701  0.264652  1
  Tb  Tb33  1  0.611812  0.683158  0.827591  1
  Tb  Tb34  1  0.899222  0.687381  0.173392  1
  Tb  Tb35  1  0.628014  0.413701  0.235348  1
  Tb  Tb36  1  0.616385  0.687584  0.521084  1
  Tb  Tb37  1  0.868706  0.914683  0.087836  1
  Tb  Tb38  1  0.383615  0.812416  0.521084  1
  Tb  Tb39  1  0.628014  0.913701  0.764652  1
  Rb  Rb40  1  0.000000  0.750000  0.770872  1
  Rb  Rb41  1  0.000000  0.250000  0.229128  1
  Rb  Rb42  1  0.000000  0.500000  0.500000  1
  Rb  Rb43  1  0.500000  0.500000  0.000000  1
  Rb  Rb44  1  0.500000  0.250000  0.729128  1
  Rb  Rb45  1  0.500000  0.000000  0.000000  1
  Rb  Rb46  1  0.500000  0.750000  0.270872  1
  Rb  Rb47  1  0.000000  0.000000  0.500000  1
  C  C48  1  0.968914  0.790426  0.257346  1
  C  C49  1  0.031086  0.209574  0.742654  1
  C  C50  1  0.969074  0.290855  0.909075  1
  C  C51  1  0.531086  0.790426  0.757346  1
  C  C52  1  0.030926  0.709145  0.090925  1
  C  C53  1  0.031086  0.709574  0.257346  1
  C  C54  1  0.030926  0.209145  0.909075  1
  C  C55  1  0.530926  0.290855  0.409075  1
  C  C56  1  0.530926  0.790855  0.590925  1
  C  C57  1  0.969074  0.790855  0.090925  1
  C  C58  1  0.469074  0.709145  0.590925  1
  C  C59  1  0.468914  0.209574  0.242654  1
  C  C60  1  0.968914  0.290426  0.742654  1
  C  C61  1  0.531086  0.290426  0.242654  1
  C  C62  1  0.468914  0.709574  0.757346  1
  C  C63  1  0.469074  0.209145  0.409075  1
  Br  Br64  1  0.743463  0.601717  0.251037  1
  Br  Br65  1  0.263571  0.171233  0.658494  1
  Br  Br66  1  0.763608  0.834890  0.507782  1
  Br  Br67  1  0.756537  0.601717  0.751037  1
  Br  Br68  1  0.264454  0.658937  0.175051  1
  Br  Br69  1  0.263571  0.671233  0.341506  1
  Br  Br70  1  0.763571  0.328767  0.158494  1
  Br  Br71  1  0.507940  0.506021  0.845210  1
  Br  Br72  1  0.748188  0.594502  0.926593  1
  Br  Br73  1  0.736392  0.334890  0.992218  1
  Br  Br74  1  0.254355  0.404306  0.404139  1
  Br  Br75  1  0.251812  0.405498  0.073407  1
  Br  Br76  1  0.492060  0.493979  0.154790  1
  Br  Br77  1  0.736392  0.834890  0.007782  1
  Br  Br78  1  0.764454  0.341063  0.324949  1
  Br  Br79  1  0.992060  0.506021  0.345210  1
  Br  Br80  1  0.756537  0.101717  0.248963  1
  Br  Br81  1  0.492060  0.993979  0.845210  1
  Br  Br82  1  0.507940  0.006021  0.154790  1
  Br  Br83  1  0.735546  0.841063  0.175051  1
  Br  Br84  1  0.236392  0.665110  0.507782  1
  Br  Br85  1  0.000000  0.750000  0.926444  1
  Br  Br86  1  0.754355  0.595694  0.095861  1
  Br  Br87  1  0.236429  0.671233  0.841506  1
  Br  Br88  1  0.007940  0.993979  0.345210  1
  Br  Br89  1  0.500000  0.250000  0.573556  1
  Br  Br90  1  0.256537  0.898283  0.251037  1
  Br  Br91  1  0.754355  0.095694  0.904139  1
  Br  Br92  1  0.745645  0.595694  0.595861  1
  Br  Br93  1  0.000000  0.250000  0.073556  1
  Br  Br94  1  0.503868  0.502392  0.325167  1
  Br  Br95  1  0.736429  0.328767  0.658494  1
  Br  Br96  1  0.000000  0.750000  0.423131  1
  Br  Br97  1  0.264454  0.158937  0.824949  1
  Br  Br98  1  0.992060  0.006021  0.654790  1
  Br  Br99  1  0.743463  0.101717  0.748963  1
  Br  Br100  1  0.245645  0.404306  0.904139  1
  Br  Br101  1  0.500000  0.500000  0.500000  1
  Br  Br102  1  0.243463  0.898283  0.751037  1
  Br  Br103  1  0.236429  0.171233  0.158494  1
  Br  Br104  1  0.496132  0.497608  0.674833  1
  Br  Br105  1  0.248188  0.405498  0.573407  1
  Br  Br106  1  0.764454  0.841063  0.675051  1
  Br  Br107  1  0.751812  0.094502  0.573407  1
  Br  Br108  1  0.763571  0.828767  0.841506  1
  Br  Br109  1  0.003867  0.497608  0.174833  1
  Br  Br110  1  0.251812  0.905498  0.926593  1
  Br  Br111  1  0.235546  0.658937  0.675051  1
  Br  Br112  1  0.245645  0.904306  0.095861  1
  Br  Br113  1  0.236392  0.165110  0.492218  1
  Br  Br114  1  0.500000  0.250000  0.076869  1
  Br  Br115  1  0.000000  0.250000  0.576869  1
  Br  Br116  1  0.996132  0.502392  0.825167  1
  Br  Br117  1  0.256537  0.398283  0.748963  1
  Br  Br118  1  0.751812  0.594502  0.426593  1
  Br  Br119  1  0.000000  0.500000  0.000000  1
  Br  Br120  1  0.500000  0.750000  0.426444  1
  Br  Br121  1  0.000000  0.000000  0.000000  1
  Br  Br122  1  0.503868  0.002392  0.674833  1
  Br  Br123  1  0.248188  0.905498  0.426593  1
  Br  Br124  1  0.496132  0.997608  0.325167  1
  Br  Br125  1  0.263608  0.665110  0.007782  1
  Br  Br126  1  0.745645  0.095694  0.404139  1
  Br  Br127  1  0.748188  0.094502  0.073407  1
  Br  Br128  1  0.500000  0.750000  0.923131  1
  Br  Br129  1  0.735546  0.341063  0.824949  1
  Br  Br130  1  0.254355  0.904306  0.595861  1
  Br  Br131  1  0.007940  0.493979  0.654790  1
  Br  Br132  1  0.243463  0.398283  0.248963  1
  Br  Br133  1  0.500000  0.000000  0.500000  1
  Br  Br134  1  0.996132  0.002392  0.174833  1
  Br  Br135  1  0.736429  0.828767  0.341506  1
  Br  Br136  1  0.263608  0.165110  0.992218  1
  Br  Br137  1  0.763608  0.334890  0.492218  1
  Br  Br138  1  0.235546  0.158937  0.324949  1
  Br  Br139  1  0.003867  0.997608  0.825167  1
