# generated using pymatgen
data_BaGaF5
_symmetry_space_group_name_H-M   'P 1'
_cell_length_a   5.09273783
_cell_length_b   5.76035909
_cell_length_c   14.18373293
_cell_angle_alpha   90.00000000
_cell_angle_beta   90.00000000
_cell_angle_gamma   90.00000000
_symmetry_Int_Tables_number   1
_chemical_formula_structural   BaGaF5
_chemical_formula_sum   'Ba4 Ga4 F20'
_cell_volume   416.09397012
_cell_formula_units_Z   4
loop_
 _symmetry_equiv_pos_site_id
 _symmetry_equiv_pos_as_xyz
  1  'x, y, z'
loop_
 _atom_site_type_symbol
 _atom_site_label
 _atom_site_symmetry_multiplicity
 _atom_site_fract_x
 _atom_site_fract_y
 _atom_site_fract_z
 _atom_site_occupancy
  Ba  Ba0  1  0.979115  0.907810  0.907327  1
  Ba  Ba1  1  0.479115  0.092190  0.592673  1
  Ba  Ba2  1  0.520885  0.407810  0.092673  1
  Ba  Ba3  1  0.020885  0.592190  0.407327  1
  Ga  Ga4  1  0.565069  0.396004  0.835683  1
  Ga  Ga5  1  0.065069  0.603996  0.664317  1
  Ga  Ga6  1  0.934931  0.896004  0.164317  1
  Ga  Ga7  1  0.434931  0.103996  0.335683  1
  F  F8  1  0.202405  0.858419  0.731300  1
  F  F9  1  0.702405  0.141581  0.768700  1
  F  F10  1  0.297595  0.358419  0.268700  1
  F  F11  1  0.797595  0.641581  0.231300  1
  F  F12  1  0.896395  0.811100  0.577974  1
  F  F13  1  0.396395  0.188900  0.922026  1
  F  F14  1  0.603605  0.311100  0.422026  1
  F  F15  1  0.103605  0.688900  0.077974  1
  F  F16  1  0.441254  0.658000  0.902137  1
  F  F17  1  0.941254  0.342000  0.597863  1
  F  F18  1  0.058746  0.158000  0.097863  1
  F  F19  1  0.558746  0.842000  0.402137  1
  F  F20  1  0.855735  0.398185  0.922253  1
  F  F21  1  0.355735  0.601815  0.577747  1
  F  F22  1  0.644265  0.898185  0.077747  1
  F  F23  1  0.144265  0.101815  0.422253  1
  F  F24  1  0.768383  0.609298  0.752711  1
  F  F25  1  0.268383  0.390702  0.747289  1
  F  F26  1  0.731617  0.109298  0.247289  1
  F  F27  1  0.231617  0.890702  0.252711  1
