# generated using pymatgen
data_Bi6PtBr10
_symmetry_space_group_name_H-M   'P 1'
_cell_length_a   10.71303799
_cell_length_b   17.64165218
_cell_length_c   27.59123781
_cell_angle_alpha   90.00000000
_cell_angle_beta   90.00000000
_cell_angle_gamma   90.00000000
_symmetry_Int_Tables_number   1
_chemical_formula_structural   Bi6PtBr10
_chemical_formula_sum   'Bi48 Pt8 Br80'
_cell_volume   5214.62502815
_cell_formula_units_Z   8
loop_
 _symmetry_equiv_pos_site_id
 _symmetry_equiv_pos_as_xyz
  1  'x, y, z'
loop_
 _atom_site_type_symbol
 _atom_site_label
 _atom_site_symmetry_multiplicity
 _atom_site_fract_x
 _atom_site_fract_y
 _atom_site_fract_z
 _atom_site_occupancy
  Bi  Bi0  1  0.325986  0.440908  0.437246  1
  Bi  Bi1  1  0.110205  0.335308  0.750000  1
  Bi  Bi2  1  0.799872  0.085202  0.750000  1
  Bi  Bi3  1  0.674014  0.559092  0.562754  1
  Bi  Bi4  1  0.613860  0.354614  0.180973  1
  Bi  Bi5  1  0.386140  0.645386  0.819027  1
  Bi  Bi6  1  0.126069  0.928836  0.925147  1
  Bi  Bi7  1  0.200128  0.914798  0.250000  1
  Bi  Bi8  1  0.153578  0.124980  0.509853  1
  Bi  Bi9  1  0.700128  0.585202  0.750000  1
  Bi  Bi10  1  0.174014  0.940908  0.062754  1
  Bi  Bi11  1  0.325986  0.440908  0.062754  1
  Bi  Bi12  1  0.187597  0.724412  0.319424  1
  Bi  Bi13  1  0.187597  0.724412  0.180576  1
  Bi  Bi14  1  0.825986  0.059092  0.937246  1
  Bi  Bi15  1  0.153578  0.124980  0.990147  1
  Bi  Bi16  1  0.126069  0.928836  0.574853  1
  Bi  Bi17  1  0.386140  0.645386  0.680973  1
  Bi  Bi18  1  0.674014  0.559092  0.937246  1
  Bi  Bi19  1  0.825986  0.059092  0.562754  1
  Bi  Bi20  1  0.653578  0.375020  0.490147  1
  Bi  Bi21  1  0.846422  0.875020  0.009853  1
  Bi  Bi22  1  0.886140  0.854614  0.180973  1
  Bi  Bi23  1  0.889795  0.664692  0.250000  1
  Bi  Bi24  1  0.873931  0.071164  0.074853  1
  Bi  Bi25  1  0.389795  0.835308  0.750000  1
  Bi  Bi26  1  0.687597  0.775588  0.819424  1
  Bi  Bi27  1  0.373931  0.428836  0.574853  1
  Bi  Bi28  1  0.812403  0.275588  0.680576  1
  Bi  Bi29  1  0.174014  0.940908  0.437246  1
  Bi  Bi30  1  0.312403  0.224412  0.319424  1
  Bi  Bi31  1  0.113860  0.145386  0.680973  1
  Bi  Bi32  1  0.653578  0.375020  0.009853  1
  Bi  Bi33  1  0.873931  0.071164  0.425147  1
  Bi  Bi34  1  0.846422  0.875020  0.490147  1
  Bi  Bi35  1  0.346422  0.624980  0.990147  1
  Bi  Bi36  1  0.886140  0.854614  0.319027  1
  Bi  Bi37  1  0.613860  0.354614  0.319027  1
  Bi  Bi38  1  0.346422  0.624980  0.509853  1
  Bi  Bi39  1  0.610205  0.164692  0.250000  1
  Bi  Bi40  1  0.312403  0.224412  0.180576  1
  Bi  Bi41  1  0.299872  0.414798  0.250000  1
  Bi  Bi42  1  0.626069  0.571164  0.074853  1
  Bi  Bi43  1  0.113860  0.145386  0.819027  1
  Bi  Bi44  1  0.626069  0.571164  0.425147  1
  Bi  Bi45  1  0.812403  0.275588  0.819424  1
  Bi  Bi46  1  0.373931  0.428836  0.925147  1
  Bi  Bi47  1  0.687597  0.775588  0.680576  1
  Pt  Pt48  1  0.458016  0.292479  0.250000  1
  Pt  Pt49  1  0.041984  0.792479  0.250000  1
  Pt  Pt50  1  0.500000  0.500000  0.500000  1
  Pt  Pt51  1  0.500000  0.500000  0.000000  1
  Pt  Pt52  1  0.000000  0.000000  0.000000  1
  Pt  Pt53  1  0.958016  0.207521  0.750000  1
  Pt  Pt54  1  0.541984  0.707521  0.750000  1
  Pt  Pt55  1  0.000000  0.000000  0.500000  1
  Br  Br56  1  0.778938  0.229045  0.174448  1
  Br  Br57  1  0.964530  0.795425  0.929110  1
  Br  Br58  1  0.469150  0.295180  0.090515  1
  Br  Br59  1  0.358125  0.860620  0.176706  1
  Br  Br60  1  0.464530  0.704575  0.429110  1
  Br  Br61  1  0.300591  0.055625  0.588259  1
  Br  Br62  1  0.960678  0.411699  0.822798  1
  Br  Br63  1  0.460678  0.088301  0.322798  1
  Br  Br64  1  0.221062  0.770955  0.825552  1
  Br  Br65  1  0.303170  0.856035  0.512006  1
  Br  Br66  1  0.840079  0.429434  0.554145  1
  Br  Br67  1  0.659921  0.929434  0.554145  1
  Br  Br68  1  0.340079  0.070566  0.054145  1
  Br  Br69  1  0.452223  0.498859  0.156709  1
  Br  Br70  1  0.858125  0.639380  0.823294  1
  Br  Br71  1  0.969150  0.204820  0.909485  1
  Br  Br72  1  0.452223  0.498859  0.343291  1
  Br  Br73  1  0.199409  0.555625  0.588259  1
  Br  Br74  1  0.030850  0.795180  0.090515  1
  Br  Br75  1  0.460678  0.088301  0.177202  1
  Br  Br76  1  0.196830  0.356035  0.512006  1
  Br  Br77  1  0.196830  0.356035  0.987994  1
  Br  Br78  1  0.199409  0.555625  0.911741  1
  Br  Br79  1  0.969150  0.204820  0.590515  1
  Br  Br80  1  0.858125  0.639380  0.676706  1
  Br  Br81  1  0.800591  0.444375  0.411741  1
  Br  Br82  1  0.358125  0.860620  0.323294  1
  Br  Br83  1  0.737113  0.939464  0.250000  1
  Br  Br84  1  0.721062  0.729045  0.174448  1
  Br  Br85  1  0.659921  0.929434  0.945855  1
  Br  Br86  1  0.539322  0.911699  0.822798  1
  Br  Br87  1  0.803170  0.643965  0.012006  1
  Br  Br88  1  0.840079  0.429434  0.945855  1
  Br  Br89  1  0.039322  0.588301  0.322798  1
  Br  Br90  1  0.303170  0.856035  0.987994  1
  Br  Br91  1  0.221062  0.770955  0.674448  1
  Br  Br92  1  0.047777  0.998859  0.156709  1
  Br  Br93  1  0.141875  0.360620  0.323294  1
  Br  Br94  1  0.539322  0.911699  0.677202  1
  Br  Br95  1  0.960678  0.411699  0.677202  1
  Br  Br96  1  0.699409  0.944375  0.088259  1
  Br  Br97  1  0.964530  0.795425  0.570890  1
  Br  Br98  1  0.762887  0.439464  0.250000  1
  Br  Br99  1  0.141875  0.360620  0.176706  1
  Br  Br100  1  0.159921  0.570566  0.054145  1
  Br  Br101  1  0.643392  0.341796  0.750000  1
  Br  Br102  1  0.039322  0.588301  0.177202  1
  Br  Br103  1  0.547777  0.501141  0.843291  1
  Br  Br104  1  0.856608  0.841796  0.750000  1
  Br  Br105  1  0.778938  0.229045  0.325552  1
  Br  Br106  1  0.143392  0.158204  0.250000  1
  Br  Br107  1  0.721062  0.729045  0.325552  1
  Br  Br108  1  0.800591  0.444375  0.088259  1
  Br  Br109  1  0.469150  0.295180  0.409485  1
  Br  Br110  1  0.803170  0.643965  0.487994  1
  Br  Br111  1  0.535470  0.295425  0.929110  1
  Br  Br112  1  0.530850  0.704820  0.590515  1
  Br  Br113  1  0.952223  0.001141  0.843291  1
  Br  Br114  1  0.641875  0.139380  0.823294  1
  Br  Br115  1  0.696830  0.143965  0.487994  1
  Br  Br116  1  0.641875  0.139380  0.676706  1
  Br  Br117  1  0.278938  0.270955  0.674448  1
  Br  Br118  1  0.047777  0.998859  0.343291  1
  Br  Br119  1  0.278938  0.270955  0.825552  1
  Br  Br120  1  0.262887  0.060536  0.750000  1
  Br  Br121  1  0.952223  0.001141  0.656709  1
  Br  Br122  1  0.300591  0.055625  0.911741  1
  Br  Br123  1  0.530850  0.704820  0.909485  1
  Br  Br124  1  0.035470  0.204575  0.429110  1
  Br  Br125  1  0.030850  0.795180  0.409485  1
  Br  Br126  1  0.535470  0.295425  0.570890  1
  Br  Br127  1  0.340079  0.070566  0.445855  1
  Br  Br128  1  0.159921  0.570566  0.445855  1
  Br  Br129  1  0.696830  0.143965  0.012006  1
  Br  Br130  1  0.699409  0.944375  0.411741  1
  Br  Br131  1  0.464530  0.704575  0.070890  1
  Br  Br132  1  0.547777  0.501141  0.656709  1
  Br  Br133  1  0.356608  0.658204  0.250000  1
  Br  Br134  1  0.035470  0.204575  0.070890  1
  Br  Br135  1  0.237113  0.560536  0.750000  1
