# generated using pymatgen
data_Na2Ca3(Si3O8)2
_symmetry_space_group_name_H-M   'P 1'
_cell_length_a   7.30466891
_cell_length_b   10.28536101
_cell_length_c   10.80158757
_cell_angle_alpha   95.59755829
_cell_angle_beta   109.80573970
_cell_angle_gamma   99.08614194
_symmetry_Int_Tables_number   1
_chemical_formula_structural   Na2Ca3(Si3O8)2
_chemical_formula_sum   'Na4 Ca6 Si12 O32'
_cell_volume   743.91838299
_cell_formula_units_Z   2
loop_
 _symmetry_equiv_pos_site_id
 _symmetry_equiv_pos_as_xyz
  1  'x, y, z'
loop_
 _atom_site_type_symbol
 _atom_site_label
 _atom_site_symmetry_multiplicity
 _atom_site_fract_x
 _atom_site_fract_y
 _atom_site_fract_z
 _atom_site_occupancy
  Na  Na0  1  0.647312  0.418845  0.824524  1
  Na  Na1  1  0.602849  0.865389  0.520478  1
  Na  Na2  1  0.397151  0.134611  0.479522  1
  Na  Na3  1  0.352688  0.581155  0.175476  1
  Ca  Ca4  1  0.034767  0.875187  0.879871  1
  Ca  Ca5  1  0.536521  0.865574  0.887992  1
  Ca  Ca6  1  0.965233  0.124813  0.120129  1
  Ca  Ca7  1  0.096438  0.849880  0.515378  1
  Ca  Ca8  1  0.903562  0.150120  0.484622  1
  Ca  Ca9  1  0.463479  0.134426  0.112008  1
  Si  Si10  1  0.385589  0.601264  0.639369  1
  Si  Si11  1  0.187582  0.401995  0.373136  1
  Si  Si12  1  0.798453  0.416360  0.150078  1
  Si  Si13  1  0.318562  0.126590  0.768694  1
  Si  Si14  1  0.150457  0.312789  0.923899  1
  Si  Si15  1  0.812418  0.598005  0.626864  1
  Si  Si16  1  0.201547  0.583640  0.849922  1
  Si  Si17  1  0.249859  0.867322  0.231191  1
  Si  Si18  1  0.614411  0.398736  0.360631  1
  Si  Si19  1  0.681438  0.873410  0.231305  1
  Si  Si20  1  0.750141  0.132678  0.768809  1
  Si  Si21  1  0.849543  0.687211  0.076101  1
  O  O22  1  0.215428  0.501367  0.509804  1
  O  O23  1  0.265156  0.265987  0.824776  1
  O  O24  1  0.885087  0.754776  0.628711  1
  O  O25  1  0.803667  0.023600  0.869304  1
  O  O26  1  0.382850  0.757894  0.640849  1
  O  O27  1  0.784572  0.498633  0.490196  1
  O  O28  1  0.270966  0.912583  0.383119  1
  O  O29  1  0.734844  0.734013  0.175224  1
  O  O30  1  0.540804  0.182152  0.762879  1
  O  O31  1  0.114913  0.245224  0.371289  1
  O  O32  1  0.648630  0.450976  0.228595  1
  O  O33  1  0.196333  0.976400  0.130696  1
  O  O34  1  0.781490  0.521750  0.041953  1
  O  O35  1  0.351370  0.549024  0.771405  1
  O  O36  1  0.089499  0.722163  0.163634  1
  O  O37  1  0.729034  0.087417  0.616881  1
  O  O38  1  0.617150  0.242106  0.359151  1
  O  O39  1  0.264830  0.736939  0.918044  1
  O  O40  1  0.675015  0.978079  0.126468  1
  O  O41  1  0.599978  0.560810  0.651180  1
  O  O42  1  0.218510  0.478250  0.958047  1
  O  O43  1  0.459196  0.817848  0.237121  1
  O  O44  1  0.205307  0.248861  0.057957  1
  O  O45  1  0.735170  0.263061  0.081956  1
  O  O46  1  0.828223  0.932983  0.382851  1
  O  O47  1  0.794693  0.751139  0.942043  1
  O  O48  1  0.968150  0.542140  0.748771  1
  O  O49  1  0.031850  0.457860  0.251229  1
  O  O50  1  0.910501  0.277837  0.836366  1
  O  O51  1  0.171777  0.067017  0.617149  1
  O  O52  1  0.400022  0.439190  0.348820  1
  O  O53  1  0.324985  0.021921  0.873532  1
