# generated using pymatgen
data_CuBi2(SeO3)4
_symmetry_space_group_name_H-M   'P 1'
_cell_length_a   4.48337144
_cell_length_b   8.32685391
_cell_length_c   16.31678266
_cell_angle_alpha   90.00000000
_cell_angle_beta   90.00000000
_cell_angle_gamma   95.36808743
_symmetry_Int_Tables_number   1
_chemical_formula_structural   CuBi2(SeO3)4
_chemical_formula_sum   'Cu2 Bi4 Se8 O24'
_cell_volume   606.47274532
_cell_formula_units_Z   2
loop_
 _symmetry_equiv_pos_site_id
 _symmetry_equiv_pos_as_xyz
  1  'x, y, z'
loop_
 _atom_site_type_symbol
 _atom_site_label
 _atom_site_symmetry_multiplicity
 _atom_site_fract_x
 _atom_site_fract_y
 _atom_site_fract_z
 _atom_site_occupancy
  Cu  Cu0  1  0.000000  0.000000  0.000000  1
  Cu  Cu1  1  0.000000  0.500000  0.500000  1
  Bi  Bi2  1  0.498865  0.531598  0.272130  1
  Bi  Bi3  1  0.501135  0.468402  0.727870  1
  Bi  Bi4  1  0.501135  0.968402  0.772130  1
  Bi  Bi5  1  0.498865  0.031598  0.227870  1
  Se  Se6  1  0.447221  0.255480  0.429251  1
  Se  Se7  1  0.020659  0.363338  0.130327  1
  Se  Se8  1  0.552779  0.244520  0.929251  1
  Se  Se9  1  0.447221  0.755480  0.070749  1
  Se  Se10  1  0.979341  0.636662  0.869673  1
  Se  Se11  1  0.979341  0.136662  0.630327  1
  Se  Se12  1  0.552779  0.744520  0.570749  1
  Se  Se13  1  0.020659  0.863338  0.369673  1
  O  O14  1  0.531476  0.756629  0.176535  1
  O  O15  1  0.404203  0.877813  0.348557  1
  O  O16  1  0.948098  0.966951  0.277927  1
  O  O17  1  0.595797  0.622187  0.848557  1
  O  O18  1  0.079285  0.835844  0.850613  1
  O  O19  1  0.595797  0.122187  0.651443  1
  O  O20  1  0.792566  0.284431  0.475230  1
  O  O21  1  0.671645  0.552541  0.572309  1
  O  O22  1  0.079285  0.335844  0.649387  1
  O  O23  1  0.792566  0.784431  0.024770  1
  O  O24  1  0.531476  0.256629  0.323465  1
  O  O25  1  0.920715  0.664156  0.350613  1
  O  O26  1  0.948098  0.466951  0.222073  1
  O  O27  1  0.671645  0.052541  0.927691  1
  O  O28  1  0.404203  0.377813  0.151443  1
  O  O29  1  0.051902  0.033049  0.722073  1
  O  O30  1  0.468524  0.743371  0.676535  1
  O  O31  1  0.468524  0.243371  0.823465  1
  O  O32  1  0.207434  0.715569  0.524770  1
  O  O33  1  0.328355  0.447459  0.427691  1
  O  O34  1  0.920715  0.164156  0.149387  1
  O  O35  1  0.328355  0.947459  0.072309  1
  O  O36  1  0.051902  0.533049  0.777927  1
  O  O37  1  0.207434  0.215569  0.975230  1
