# generated using pymatgen
data_KLaSi(CN2)4
_symmetry_space_group_name_H-M   'P 1'
_cell_length_a   6.97652378
_cell_length_b   7.66816117
_cell_length_c   9.52587683
_cell_angle_alpha   90.00000000
_cell_angle_beta   90.00000000
_cell_angle_gamma   90.00000000
_symmetry_Int_Tables_number   1
_chemical_formula_structural   KLaSi(CN2)4
_chemical_formula_sum   'K2 La2 Si2 C8 N16'
_cell_volume   509.60686873
_cell_formula_units_Z   2
loop_
 _symmetry_equiv_pos_site_id
 _symmetry_equiv_pos_as_xyz
  1  'x, y, z'
loop_
 _atom_site_type_symbol
 _atom_site_label
 _atom_site_symmetry_multiplicity
 _atom_site_fract_x
 _atom_site_fract_y
 _atom_site_fract_z
 _atom_site_occupancy
  K  K0  1  0.922677  0.000000  0.000000  1
  K  K1  1  0.077323  0.500000  0.500000  1
  La  La2  1  0.259015  0.000000  0.500000  1
  La  La3  1  0.740985  0.500000  0.000000  1
  Si  Si4  1  0.751772  0.000000  0.500000  1
  Si  Si5  1  0.248228  0.500000  0.000000  1
  C  C6  1  0.872615  0.785557  0.700302  1
  C  C7  1  0.364170  0.672447  0.771057  1
  C  C8  1  0.364170  0.327553  0.228943  1
  C  C9  1  0.127385  0.714443  0.200302  1
  C  C10  1  0.127385  0.285557  0.799698  1
  C  C11  1  0.872615  0.214443  0.299698  1
  C  C12  1  0.635830  0.827553  0.271057  1
  C  C13  1  0.635830  0.172447  0.728943  1
  N  N14  1  0.911732  0.135215  0.413447  1
  N  N15  1  0.672367  0.239530  0.839210  1
  N  N16  1  0.672367  0.760470  0.160790  1
  N  N17  1  0.155948  0.791085  0.307612  1
  N  N18  1  0.327633  0.260470  0.339210  1
  N  N19  1  0.327633  0.739530  0.660790  1
  N  N20  1  0.088268  0.635215  0.086553  1
  N  N21  1  0.155948  0.208915  0.692388  1
  N  N22  1  0.593221  0.099967  0.612827  1
  N  N23  1  0.844052  0.291085  0.192388  1
  N  N24  1  0.844052  0.708915  0.807612  1
  N  N25  1  0.088268  0.364785  0.913447  1
  N  N26  1  0.406779  0.400033  0.112827  1
  N  N27  1  0.593221  0.900033  0.387173  1
  N  N28  1  0.406779  0.599967  0.887173  1
  N  N29  1  0.911732  0.864785  0.586553  1
