# generated using pymatgen
data_NdAlPt
_symmetry_space_group_name_H-M   'P 1'
_cell_length_a   4.50302304
_cell_length_b   7.17003775
_cell_length_c   7.88103682
_cell_angle_alpha   90.00000000
_cell_angle_beta   90.00000000
_cell_angle_gamma   90.00000000
_symmetry_Int_Tables_number   1
_chemical_formula_structural   NdAlPt
_chemical_formula_sum   'Nd4 Al4 Pt4'
_cell_volume   254.45381571
_cell_formula_units_Z   4
loop_
 _symmetry_equiv_pos_site_id
 _symmetry_equiv_pos_as_xyz
  1  'x, y, z'
loop_
 _atom_site_type_symbol
 _atom_site_label
 _atom_site_symmetry_multiplicity
 _atom_site_fract_x
 _atom_site_fract_y
 _atom_site_fract_z
 _atom_site_occupancy
  Nd  Nd0  1  0.750000  0.470980  0.817526  1
  Nd  Nd1  1  0.250000  0.029020  0.317526  1
  Nd  Nd2  1  0.750000  0.970980  0.682474  1
  Nd  Nd3  1  0.250000  0.529020  0.182474  1
  Al  Al4  1  0.750000  0.854377  0.066924  1
  Al  Al5  1  0.250000  0.645623  0.566924  1
  Al  Al6  1  0.750000  0.354377  0.433076  1
  Al  Al7  1  0.250000  0.145623  0.933076  1
  Pt  Pt8  1  0.750000  0.717616  0.388546  1
  Pt  Pt9  1  0.750000  0.217616  0.111454  1
  Pt  Pt10  1  0.250000  0.282384  0.611454  1
  Pt  Pt11  1  0.250000  0.782384  0.888546  1
