# generated using pymatgen
data_CsClO2
_symmetry_space_group_name_H-M   'P 1'
_cell_length_a   4.81288120
_cell_length_b   4.81287377
_cell_length_c   8.57359500
_cell_angle_alpha   90.00000520
_cell_angle_beta   89.99998321
_cell_angle_gamma   90.63910440
_symmetry_Int_Tables_number   1
_chemical_formula_structural   CsClO2
_chemical_formula_sum   'Cs2 Cl2 O4'
_cell_volume   198.58459646
_cell_formula_units_Z   2
loop_
 _symmetry_equiv_pos_site_id
 _symmetry_equiv_pos_as_xyz
  1  'x, y, z'
loop_
 _atom_site_type_symbol
 _atom_site_label
 _atom_site_symmetry_multiplicity
 _atom_site_fract_x
 _atom_site_fract_y
 _atom_site_fract_z
 _atom_site_occupancy
  Cl  Cl0  1  0.475824  0.524175  0.750000  1
  O  O1  1  0.151239  0.465007  0.750000  1
  Cl  Cl2  1  0.524176  0.475825  0.249999  1
  O  O3  1  0.534993  0.848760  0.750000  1
  O  O4  1  0.465007  0.151240  0.250000  1
  Cs  Cs5  1  1.000001  -0.000001  1.000000  1
  O  O6  1  0.848760  0.534994  0.250000  1
  Cs  Cs7  1  0.999999  1.000000  0.500000  1
