# generated using pymatgen
data_Ba5Ru2Cl2O9
_symmetry_space_group_name_H-M   'P 1'
_cell_length_a   6.02961349
_cell_length_b   14.52819598
_cell_length_c   15.57496847
_cell_angle_alpha   90.00000000
_cell_angle_beta   90.00000000
_cell_angle_gamma   90.00000000
_symmetry_Int_Tables_number   1
_chemical_formula_structural   Ba5Ru2Cl2O9
_chemical_formula_sum   'Ba20 Ru8 Cl8 O36'
_cell_volume   1364.35799370
_cell_formula_units_Z   4
loop_
 _symmetry_equiv_pos_site_id
 _symmetry_equiv_pos_as_xyz
  1  'x, y, z'
loop_
 _atom_site_type_symbol
 _atom_site_label
 _atom_site_symmetry_multiplicity
 _atom_site_fract_x
 _atom_site_fract_y
 _atom_site_fract_z
 _atom_site_occupancy
  Ba  Ba0  1  0.750000  0.729989  0.502089  1
  Ba  Ba1  1  0.250000  0.671733  0.790982  1
  Ba  Ba2  1  0.750000  0.019977  0.372970  1
  Ba  Ba3  1  0.250000  0.519977  0.127030  1
  Ba  Ba4  1  0.750000  0.442187  0.430180  1
  Ba  Ba5  1  0.250000  0.270011  0.497911  1
  Ba  Ba6  1  0.750000  0.854098  0.760483  1
  Ba  Ba7  1  0.750000  0.645902  0.260483  1
  Ba  Ba8  1  0.750000  0.171733  0.709018  1
  Ba  Ba9  1  0.750000  0.057813  0.930180  1
  Ba  Ba10  1  0.250000  0.980023  0.627030  1
  Ba  Ba11  1  0.750000  0.480023  0.872970  1
  Ba  Ba12  1  0.750000  0.328267  0.209018  1
  Ba  Ba13  1  0.250000  0.942187  0.069820  1
  Ba  Ba14  1  0.250000  0.229989  0.997911  1
  Ba  Ba15  1  0.250000  0.828267  0.290982  1
  Ba  Ba16  1  0.250000  0.354098  0.739517  1
  Ba  Ba17  1  0.250000  0.557813  0.569820  1
  Ba  Ba18  1  0.750000  0.770011  0.002089  1
  Ba  Ba19  1  0.250000  0.145902  0.239517  1
  Ru  Ru20  1  0.750000  0.437828  0.654075  1
  Ru  Ru21  1  0.250000  0.937828  0.845925  1
  Ru  Ru22  1  0.250000  0.374851  0.302553  1
  Ru  Ru23  1  0.250000  0.125149  0.802553  1
  Ru  Ru24  1  0.750000  0.874851  0.197447  1
  Ru  Ru25  1  0.250000  0.562172  0.345925  1
  Ru  Ru26  1  0.750000  0.625149  0.697447  1
  Ru  Ru27  1  0.750000  0.062172  0.154075  1
  Cl  Cl28  1  0.250000  0.444550  0.927339  1
  Cl  Cl29  1  0.750000  0.944550  0.572661  1
  Cl  Cl30  1  0.750000  0.555450  0.072661  1
  Cl  Cl31  1  0.250000  0.685929  0.990994  1
  Cl  Cl32  1  0.250000  0.814071  0.490994  1
  Cl  Cl33  1  0.750000  0.185929  0.509006  1
  Cl  Cl34  1  0.750000  0.314071  0.009006  1
  Cl  Cl35  1  0.250000  0.055450  0.427339  1
  O  O36  1  0.508541  0.113132  0.090963  1
  O  O37  1  0.022431  0.203825  0.842824  1
  O  O38  1  0.477569  0.296175  0.342824  1
  O  O39  1  0.250000  0.648829  0.254112  1
  O  O40  1  0.250000  0.330368  0.183135  1
  O  O41  1  0.750000  0.943922  0.079684  1
  O  O42  1  0.750000  0.669632  0.816865  1
  O  O43  1  0.478364  0.019932  0.773334  1
  O  O44  1  0.750000  0.148829  0.245888  1
  O  O45  1  0.977569  0.796175  0.157176  1
  O  O46  1  0.250000  0.056078  0.920316  1
  O  O47  1  0.750000  0.351171  0.745888  1
  O  O48  1  0.250000  0.851171  0.754112  1
  O  O49  1  0.522431  0.703825  0.657176  1
  O  O50  1  0.991459  0.113132  0.090963  1
  O  O51  1  0.477569  0.203825  0.842824  1
  O  O52  1  0.521636  0.980068  0.226666  1
  O  O53  1  0.508541  0.386868  0.590963  1
  O  O54  1  0.521636  0.519932  0.726666  1
  O  O55  1  0.008541  0.613132  0.409037  1
  O  O56  1  0.491459  0.613132  0.409037  1
  O  O57  1  0.991459  0.386868  0.590963  1
  O  O58  1  0.022431  0.296175  0.342824  1
  O  O59  1  0.008541  0.886868  0.909037  1
  O  O60  1  0.021636  0.480068  0.273334  1
  O  O61  1  0.977569  0.703825  0.657176  1
  O  O62  1  0.021636  0.019932  0.773334  1
  O  O63  1  0.522431  0.796175  0.157176  1
  O  O64  1  0.978364  0.980068  0.226666  1
  O  O65  1  0.750000  0.556078  0.579684  1
  O  O66  1  0.250000  0.443922  0.420316  1
  O  O67  1  0.491459  0.886868  0.909037  1
  O  O68  1  0.478364  0.480068  0.273334  1
  O  O69  1  0.750000  0.830368  0.316865  1
  O  O70  1  0.978364  0.519932  0.726666  1
  O  O71  1  0.250000  0.169632  0.683135  1
