# generated using pymatgen
data_TeI4
_symmetry_space_group_name_H-M   'P 1'
_cell_length_a   12.41065568
_cell_length_b   14.01372532
_cell_length_c   14.01372589
_cell_angle_alpha   78.68226549
_cell_angle_beta   63.70015462
_cell_angle_gamma   63.70015494
_symmetry_Int_Tables_number   1
_chemical_formula_structural   TeI4
_chemical_formula_sum   'Te8 I32'
_cell_volume   1958.80202873
_cell_formula_units_Z   8
loop_
 _symmetry_equiv_pos_site_id
 _symmetry_equiv_pos_as_xyz
  1  'x, y, z'
loop_
 _atom_site_type_symbol
 _atom_site_label
 _atom_site_symmetry_multiplicity
 _atom_site_fract_x
 _atom_site_fract_y
 _atom_site_fract_z
 _atom_site_occupancy
  Te  Te0  1  0.266393  0.887527  0.112426  1
  Te  Te1  1  0.121216  0.612490  0.112490  1
  Te  Te2  1  0.878784  0.387510  0.887510  1
  Te  Te3  1  0.266393  0.612426  0.387527  1
  Te  Te4  1  0.846014  0.887606  0.387606  1
  Te  Te5  1  0.733607  0.112473  0.887574  1
  Te  Te6  1  0.733607  0.387574  0.612473  1
  Te  Te7  1  0.153986  0.112394  0.612394  1
  I  I8  1  0.861865  0.889795  0.876083  1
  I  I9  1  0.634412  0.874612  0.374612  1
  I  I10  1  0.138135  0.623917  0.610205  1
  I  I11  1  0.508976  0.125460  0.874643  1
  I  I12  1  0.237854  0.624002  0.889807  1
  I  I13  1  0.248439  0.123926  0.389736  1
  I  I14  1  0.369342  0.628138  0.128138  1
  I  I15  1  0.491024  0.625357  0.374540  1
  I  I16  1  0.116332  0.374601  0.874601  1
  I  I17  1  0.237854  0.389807  0.124002  1
  I  I18  1  0.508976  0.374643  0.625460  1
  I  I19  1  0.248439  0.889736  0.623926  1
  I  I20  1  0.002517  0.628293  0.371848  1
  I  I21  1  0.874291  0.128268  0.628268  1
  I  I22  1  0.627629  0.610260  0.623886  1
  I  I23  1  0.372371  0.389740  0.376114  1
  I  I24  1  0.491024  0.874540  0.125357  1
  I  I25  1  0.372371  0.876114  0.889740  1
  I  I26  1  0.138135  0.110205  0.123917  1
  I  I27  1  0.751561  0.876074  0.610264  1
  I  I28  1  0.762146  0.375998  0.110192  1
  I  I29  1  0.997483  0.371707  0.628152  1
  I  I30  1  0.125709  0.871732  0.371732  1
  I  I31  1  0.762146  0.610193  0.875998  1
  I  I32  1  0.002517  0.871848  0.128293  1
  I  I33  1  0.751561  0.110264  0.376074  1
  I  I34  1  0.997483  0.128152  0.871707  1
  I  I35  1  0.861865  0.376083  0.389795  1
  I  I36  1  0.630658  0.371862  0.871862  1
  I  I37  1  0.883668  0.625399  0.125399  1
  I  I38  1  0.627629  0.123886  0.110260  1
  I  I39  1  0.365588  0.125388  0.625388  1
