# generated using pymatgen
data_Fe2(TeO3)3
_symmetry_space_group_name_H-M   'P 1'
_cell_length_a   7.63031245
_cell_length_b   9.65358102
_cell_length_c   11.24585389
_cell_angle_alpha   90.00530723
_cell_angle_beta   89.50268739
_cell_angle_gamma   90.08590863
_symmetry_Int_Tables_number   1
_chemical_formula_structural   Fe2(TeO3)3
_chemical_formula_sum   'Fe8 Te12 O36'
_cell_volume   828.33565465
_cell_formula_units_Z   4
loop_
 _symmetry_equiv_pos_site_id
 _symmetry_equiv_pos_as_xyz
  1  'x, y, z'
loop_
 _atom_site_type_symbol
 _atom_site_label
 _atom_site_symmetry_multiplicity
 _atom_site_fract_x
 _atom_site_fract_y
 _atom_site_fract_z
 _atom_site_occupancy
  Fe  Fe0  1  0.555841  0.726084  0.440948  1
  Fe  Fe1  1  0.942772  0.226796  0.059081  1
  Fe  Fe2  1  0.555268  0.227843  0.058376  1
  Fe  Fe3  1  0.057349  0.773240  0.941062  1
  Fe  Fe4  1  0.056111  0.273599  0.560206  1
  Fe  Fe5  1  0.444865  0.772573  0.941418  1
  Fe  Fe6  1  0.444171  0.273853  0.558862  1
  Fe  Fe7  1  0.943789  0.726247  0.439834  1
  Te  Te8  1  0.753413  0.390800  0.324052  1
  Te  Te9  1  0.251801  0.463446  0.337406  1
  Te  Te10  1  0.249377  0.962433  0.510693  1
  Te  Te11  1  0.244565  0.965604  0.163612  1
  Te  Te12  1  0.748650  0.889930  0.176269  1
  Te  Te13  1  0.246695  0.609184  0.676059  1
  Te  Te14  1  0.251650  0.110115  0.823812  1
  Te  Te15  1  0.755770  0.034487  0.836414  1
  Te  Te16  1  0.750222  0.539386  0.010631  1
  Te  Te17  1  0.750777  0.037576  0.489204  1
  Te  Te18  1  0.748354  0.536404  0.662588  1
  Te  Te19  1  0.249744  0.460652  0.989394  1
  O  O20  1  0.565698  0.096621  0.594434  1
  O  O21  1  0.562071  0.407865  0.658987  1
  O  O22  1  0.750170  0.760118  0.310488  1
  O  O23  1  0.564867  0.301181  0.403886  1
  O  O24  1  0.064806  0.590924  0.341105  1
  O  O25  1  0.249779  0.239736  0.689457  1
  O  O26  1  0.936443  0.596420  0.904687  1
  O  O27  1  0.565993  0.908727  0.843755  1
  O  O28  1  0.433760  0.091803  0.156116  1
  O  O29  1  0.437866  0.592159  0.340986  1
  O  O30  1  0.251122  0.153031  0.462899  1
  O  O31  1  0.750209  0.080334  0.007178  1
  O  O32  1  0.434164  0.903307  0.405272  1
  O  O33  1  0.064378  0.201220  0.903746  1
  O  O34  1  0.067076  0.903808  0.404928  1
  O  O35  1  0.932788  0.096096  0.595175  1
  O  O36  1  0.059028  0.093400  0.158710  1
  O  O37  1  0.748223  0.349982  0.962625  1
  O  O38  1  0.249846  0.919783  0.992853  1
  O  O39  1  0.940815  0.906305  0.841486  1
  O  O40  1  0.570070  0.598828  0.903426  1
  O  O41  1  0.748811  0.846914  0.536925  1
  O  O42  1  0.252226  0.738999  0.810591  1
  O  O43  1  0.249944  0.420849  0.509352  1
  O  O44  1  0.935696  0.798614  0.096329  1
  O  O45  1  0.430166  0.401495  0.096482  1
  O  O46  1  0.750002  0.578993  0.490675  1
  O  O47  1  0.936823  0.299343  0.405198  1
  O  O48  1  0.062667  0.700115  0.595027  1
  O  O49  1  0.435579  0.201354  0.904147  1
  O  O50  1  0.747880  0.261113  0.189414  1
  O  O51  1  0.063803  0.403477  0.095502  1
  O  O52  1  0.251844  0.650073  0.037378  1
  O  O53  1  0.934945  0.408598  0.659169  1
  O  O54  1  0.434869  0.698973  0.595951  1
  O  O55  1  0.564389  0.799187  0.095741  1
