# generated using pymatgen
data_SeCl4
_symmetry_space_group_name_H-M   'P 1'
_cell_length_a   10.14659765
_cell_length_b   10.14659804
_cell_length_c   15.18546741
_cell_angle_alpha   95.13371195
_cell_angle_beta   104.90623901
_cell_angle_gamma   118.75719590
_symmetry_Int_Tables_number   1
_chemical_formula_structural   SeCl4
_chemical_formula_sum   'Se8 Cl32'
_cell_volume   1281.81151004
_cell_formula_units_Z   8
loop_
 _symmetry_equiv_pos_site_id
 _symmetry_equiv_pos_as_xyz
  1  'x, y, z'
loop_
 _atom_site_type_symbol
 _atom_site_label
 _atom_site_symmetry_multiplicity
 _atom_site_fract_x
 _atom_site_fract_y
 _atom_site_fract_z
 _atom_site_occupancy
  Se  Se0  1  0.655775  0.110492  0.814212  1
  Se  Se1  1  0.796280  0.841564  0.685788  1
  Se  Se2  1  0.344225  0.889508  0.185788  1
  Se  Se3  1  0.203720  0.158436  0.314212  1
  Se  Se4  1  0.142750  0.264427  0.884067  1
  Se  Se5  1  0.880361  0.258683  0.615933  1
  Se  Se6  1  0.857250  0.735573  0.115933  1
  Se  Se7  1  0.119639  0.741317  0.384067  1
  Cl  Cl8  1  0.716998  0.212774  0.965074  1
  Cl  Cl9  1  0.747700  0.751924  0.534926  1
  Cl  Cl10  1  0.283002  0.787226  0.034926  1
  Cl  Cl11  1  0.252300  0.248076  0.465074  1
  Cl  Cl12  1  0.519664  0.219540  0.756600  1
  Cl  Cl13  1  0.962939  0.763064  0.743400  1
  Cl  Cl14  1  0.480336  0.780460  0.243400  1
  Cl  Cl15  1  0.037061  0.236936  0.256600  1
  Cl  Cl16  1  0.443191  0.883906  0.805630  1
  Cl  Cl17  1  0.578275  0.637560  0.694370  1
  Cl  Cl18  1  0.556809  0.116094  0.194370  1
  Cl  Cl19  1  0.421725  0.362440  0.305630  1
  Cl  Cl20  1  0.931644  0.362257  0.808145  1
  Cl  Cl21  1  0.054111  0.123498  0.691855  1
  Cl  Cl22  1  0.068356  0.637743  0.191855  1
  Cl  Cl23  1  0.945889  0.876502  0.308145  1
  Cl  Cl24  1  0.856961  0.994512  0.865875  1
  Cl  Cl25  1  0.628637  0.991086  0.634125  1
  Cl  Cl26  1  0.143039  0.005488  0.134125  1
  Cl  Cl27  1  0.371363  0.008914  0.365875  1
  Cl  Cl28  1  0.345328  0.478667  0.871936  1
  Cl  Cl29  1  0.106731  0.473392  0.628064  1
  Cl  Cl30  1  0.654672  0.521333  0.128064  1
  Cl  Cl31  1  0.893269  0.526608  0.371936  1
  Cl  Cl32  1  0.277478  0.148448  0.926394  1
  Cl  Cl33  1  0.722054  0.351084  0.573606  1
  Cl  Cl34  1  0.722522  0.851552  0.073606  1
  Cl  Cl35  1  0.277946  0.648916  0.426394  1
  Cl  Cl36  1  0.165847  0.359899  0.027515  1
  Cl  Cl37  1  0.832385  0.138333  0.472485  1
  Cl  Cl38  1  0.834153  0.640101  0.972485  1
  Cl  Cl39  1  0.167615  0.861667  0.527515  1
