# generated using pymatgen
data_MoSO6
_symmetry_space_group_name_H-M   'P 1'
_cell_length_a   8.84136744
_cell_length_b   12.38909877
_cell_length_c   14.95974010
_cell_angle_alpha   114.46147634
_cell_angle_beta   103.26211342
_cell_angle_gamma   89.99999875
_symmetry_Int_Tables_number   1
_chemical_formula_structural   MoSO6
_chemical_formula_sum   'Mo12 S12 O72'
_cell_volume   1443.40674189
_cell_formula_units_Z   12
loop_
 _symmetry_equiv_pos_site_id
 _symmetry_equiv_pos_as_xyz
  1  'x, y, z'
loop_
 _atom_site_type_symbol
 _atom_site_label
 _atom_site_symmetry_multiplicity
 _atom_site_fract_x
 _atom_site_fract_y
 _atom_site_fract_z
 _atom_site_occupancy
  Mo  Mo0  1  0.108128  0.457709  0.158443  1
  Mo  Mo1  1  0.098417  0.958133  0.167945  1
  Mo  Mo2  1  0.738609  0.640321  0.513476  1
  Mo  Mo3  1  0.238609  0.873155  0.513476  1
  Mo  Mo4  1  0.891872  0.542291  0.841557  1
  Mo  Mo5  1  0.608128  0.700734  0.158443  1
  Mo  Mo6  1  0.391872  0.299266  0.841557  1
  Mo  Mo7  1  0.401583  0.790188  0.832055  1
  Mo  Mo8  1  0.761391  0.126845  0.486524  1
  Mo  Mo9  1  0.261391  0.359679  0.486524  1
  Mo  Mo10  1  0.901583  0.041867  0.832055  1
  Mo  Mo11  1  0.598417  0.209812  0.167945  1
  S  S12  1  0.316727  0.583591  0.426053  1
  S  S13  1  0.971796  0.180595  0.109551  1
  S  S14  1  0.758792  0.250420  0.755140  1
  S  S15  1  0.741208  0.495280  0.244860  1
  S  S16  1  0.471796  0.928956  0.109551  1
  S  S17  1  0.683273  0.416409  0.573947  1
  S  S18  1  0.528204  0.071044  0.890449  1
  S  S19  1  0.816727  0.842462  0.426053  1
  S  S20  1  0.028204  0.819405  0.890449  1
  S  S21  1  0.241208  0.749580  0.244860  1
  S  S22  1  0.183273  0.157538  0.573947  1
  S  S23  1  0.258792  0.504720  0.755140  1
  O  O24  1  0.673290  0.368990  0.172790  1
  O  O25  1  0.936459  0.643631  0.551112  1
  O  O26  1  0.563541  0.092518  0.448888  1
  O  O27  1  0.177815  0.028416  0.501294  1
  O  O28  1  0.131050  0.638779  0.209978  1
  O  O29  1  0.826710  0.196200  0.827210  1
  O  O30  1  0.023175  0.580288  0.955501  1
  O  O31  1  0.822185  0.971584  0.498706  1
  O  O32  1  0.276728  0.177391  0.674568  1
  O  O33  1  0.354513  0.748692  0.704549  1
  O  O34  1  0.063541  0.356369  0.448888  1
  O  O35  1  0.436459  0.907482  0.551112  1
  O  O36  1  0.782326  0.691943  0.126763  1
  O  O37  1  0.065511  0.301477  0.169783  1
  O  O38  1  0.476825  0.624786  0.044499  1
  O  O39  1  0.416457  0.845247  0.003349  1
  O  O40  1  0.398084  0.720010  0.236201  1
  O  O41  1  0.776728  0.497177  0.674568  1
  O  O42  1  0.434489  0.131693  0.830217  1
  O  O43  1  0.236146  0.829728  0.348071  1
  O  O44  1  0.326710  0.631011  0.827210  1
  O  O45  1  0.934489  0.698523  0.830217  1
  O  O46  1  0.346809  0.982693  0.157617  1
  O  O47  1  0.868950  0.361221  0.790022  1
  O  O48  1  0.736146  0.518343  0.348071  1
  O  O49  1  0.763854  0.170272  0.651929  1
  O  O50  1  0.688403  0.717007  0.624830  1
  O  O51  1  0.414909  0.972962  0.879907  1
  O  O52  1  0.585091  0.027038  0.120093  1
  O  O53  1  0.902149  0.921414  0.140650  1
  O  O54  1  0.723272  0.822609  0.325432  1
  O  O55  1  0.024620  0.190639  0.573544  1
  O  O56  1  0.976825  0.419712  0.044499  1
  O  O57  1  0.101916  0.483809  0.763799  1
  O  O58  1  0.083543  0.841898  0.996651  1
  O  O59  1  0.263854  0.481657  0.651929  1
  O  O60  1  0.475380  0.617096  0.426456  1
  O  O61  1  0.677815  0.472878  0.501294  1
  O  O62  1  0.217674  0.308057  0.873237  1
  O  O63  1  0.653191  0.017307  0.842383  1
  O  O64  1  0.975380  0.809361  0.426456  1
  O  O65  1  0.645487  0.251308  0.295451  1
  O  O66  1  0.916457  0.158102  0.003349  1
  O  O67  1  0.597851  0.780764  0.859350  1
  O  O68  1  0.631050  0.571199  0.209978  1
  O  O69  1  0.402149  0.219236  0.140650  1
  O  O70  1  0.282326  0.434820  0.126763  1
  O  O71  1  0.914909  0.906946  0.879907  1
  O  O72  1  0.524620  0.382904  0.573544  1
  O  O73  1  0.322185  0.527122  0.498706  1
  O  O74  1  0.368950  0.428801  0.790022  1
  O  O75  1  0.145487  0.044143  0.295451  1
  O  O76  1  0.767344  0.307173  0.533619  1
  O  O77  1  0.854513  0.955857  0.704549  1
  O  O78  1  0.846809  0.174924  0.157617  1
  O  O79  1  0.153191  0.825076  0.842383  1
  O  O80  1  0.523175  0.375214  0.955501  1
  O  O81  1  0.311597  0.282993  0.375170  1
  O  O82  1  0.173290  0.803800  0.172790  1
  O  O83  1  0.717674  0.565180  0.873237  1
  O  O84  1  0.085091  0.093054  0.120093  1
  O  O85  1  0.097851  0.078586  0.859350  1
  O  O86  1  0.232656  0.692827  0.466381  1
  O  O87  1  0.732656  0.773554  0.466381  1
  O  O88  1  0.223272  0.502823  0.325432  1
  O  O89  1  0.188403  0.907823  0.624830  1
  O  O90  1  0.898084  0.516191  0.236201  1
  O  O91  1  0.601916  0.279990  0.763799  1
  O  O92  1  0.565511  0.868307  0.169783  1
  O  O93  1  0.583543  0.154753  0.996651  1
  O  O94  1  0.267344  0.226446  0.533619  1
  O  O95  1  0.811597  0.092177  0.375170  1
