# generated using pymatgen
data_Ba2Eu2ZnPtO8
_symmetry_space_group_name_H-M   'P 1'
_cell_length_a   5.85260438
_cell_length_b   10.53612975
_cell_length_c   13.61798677
_cell_angle_alpha   90.00000000
_cell_angle_beta   90.00000000
_cell_angle_gamma   90.00000000
_symmetry_Int_Tables_number   1
_chemical_formula_structural   Ba2Eu2ZnPtO8
_chemical_formula_sum   'Ba8 Eu8 Zn4 Pt4 O32'
_cell_volume   839.73680065
_cell_formula_units_Z   4
loop_
 _symmetry_equiv_pos_site_id
 _symmetry_equiv_pos_as_xyz
  1  'x, y, z'
loop_
 _atom_site_type_symbol
 _atom_site_label
 _atom_site_symmetry_multiplicity
 _atom_site_fract_x
 _atom_site_fract_y
 _atom_site_fract_z
 _atom_site_occupancy
  Eu  Eu0  1  0.250000  0.190410  0.860033  1
  Eu  Eu1  1  0.250000  0.309590  0.360033  1
  Eu  Eu2  1  0.750000  0.809590  0.139967  1
  Eu  Eu3  1  0.750000  0.987102  0.918333  1
  Eu  Eu4  1  0.250000  0.487102  0.581667  1
  Eu  Eu5  1  0.750000  0.690410  0.639967  1
  Eu  Eu6  1  0.750000  0.512898  0.418333  1
  Eu  Eu7  1  0.250000  0.012898  0.081667  1
  Ba  Ba8  1  0.250000  0.398879  0.082619  1
  Ba  Ba9  1  0.750000  0.177211  0.215205  1
  Ba  Ba10  1  0.250000  0.101121  0.582619  1
  Ba  Ba11  1  0.250000  0.822789  0.784795  1
  Ba  Ba12  1  0.750000  0.322789  0.715205  1
  Ba  Ba13  1  0.750000  0.601121  0.917381  1
  Ba  Ba14  1  0.250000  0.677211  0.284795  1
  Ba  Ba15  1  0.750000  0.898879  0.417381  1
  Zn  Zn16  1  0.750000  0.278419  0.973893  1
  Zn  Zn17  1  0.250000  0.721581  0.026107  1
  Zn  Zn18  1  0.750000  0.221581  0.473893  1
  Zn  Zn19  1  0.250000  0.778419  0.526107  1
  Pt  Pt20  1  0.750000  0.527907  0.192186  1
  Pt  Pt21  1  0.750000  0.972093  0.692186  1
  Pt  Pt22  1  0.250000  0.472093  0.807814  1
  Pt  Pt23  1  0.250000  0.027907  0.307814  1
  O  O24  1  0.489451  0.559271  0.723202  1
  O  O25  1  0.750000  0.822064  0.789492  1
  O  O26  1  0.505831  0.357317  0.494774  1
  O  O27  1  0.994858  0.623628  0.111573  1
  O  O28  1  0.005831  0.857317  0.005226  1
  O  O29  1  0.989451  0.440729  0.276798  1
  O  O30  1  0.505142  0.623628  0.111573  1
  O  O31  1  0.994169  0.357317  0.494774  1
  O  O32  1  0.494858  0.376372  0.888427  1
  O  O33  1  0.989451  0.059271  0.776798  1
  O  O34  1  0.250000  0.620673  0.903598  1
  O  O35  1  0.505142  0.876372  0.611573  1
  O  O36  1  0.750000  0.379327  0.096402  1
  O  O37  1  0.510549  0.440729  0.276798  1
  O  O38  1  0.494169  0.857317  0.005226  1
  O  O39  1  0.750000  0.677936  0.289492  1
  O  O40  1  0.510549  0.059271  0.776798  1
  O  O41  1  0.010549  0.559271  0.723202  1
  O  O42  1  0.489451  0.940729  0.223202  1
  O  O43  1  0.005831  0.642683  0.505226  1
  O  O44  1  0.994858  0.876372  0.611573  1
  O  O45  1  0.750000  0.120673  0.596402  1
  O  O46  1  0.005142  0.376372  0.888427  1
  O  O47  1  0.494169  0.642683  0.505226  1
  O  O48  1  0.994169  0.142683  0.994774  1
  O  O49  1  0.250000  0.177936  0.210508  1
  O  O50  1  0.505831  0.142683  0.994774  1
  O  O51  1  0.250000  0.322064  0.710508  1
  O  O52  1  0.010549  0.940729  0.223202  1
  O  O53  1  0.494858  0.123628  0.388427  1
  O  O54  1  0.250000  0.879327  0.403598  1
  O  O55  1  0.005142  0.123628  0.388427  1
