# generated using pymatgen
data_Sr(GaO2)2
_symmetry_space_group_name_H-M   'P 1'
_cell_length_a   8.21509346
_cell_length_b   9.18291714
_cell_length_c   10.87682601
_cell_angle_alpha   90.00000000
_cell_angle_beta   90.00000000
_cell_angle_gamma   91.69560761
_symmetry_Int_Tables_number   1
_chemical_formula_structural   Sr(GaO2)2
_chemical_formula_sum   'Sr8 Ga16 O32'
_cell_volume   820.17239936
_cell_formula_units_Z   8
loop_
 _symmetry_equiv_pos_site_id
 _symmetry_equiv_pos_as_xyz
  1  'x, y, z'
loop_
 _atom_site_type_symbol
 _atom_site_label
 _atom_site_symmetry_multiplicity
 _atom_site_fract_x
 _atom_site_fract_y
 _atom_site_fract_z
 _atom_site_occupancy
  Sr  Sr0  1  0.495069  0.774830  0.109545  1
  Sr  Sr1  1  0.504931  0.225170  0.890455  1
  Sr  Sr2  1  0.995069  0.274830  0.390455  1
  Sr  Sr3  1  0.003365  0.299917  0.847740  1
  Sr  Sr4  1  0.004931  0.725170  0.609545  1
  Sr  Sr5  1  0.496635  0.200083  0.347740  1
  Sr  Sr6  1  0.503365  0.799917  0.652260  1
  Sr  Sr7  1  0.996635  0.700083  0.152260  1
  Ga  Ga8  1  0.808204  0.907457  0.365109  1
  Ga  Ga9  1  0.718830  0.567588  0.362235  1
  Ga  Ga10  1  0.218830  0.067588  0.137765  1
  Ga  Ga11  1  0.308204  0.407457  0.134891  1
  Ga  Ga12  1  0.828164  0.069378  0.113573  1
  Ga  Ga13  1  0.737149  0.405024  0.113368  1
  Ga  Ga14  1  0.762851  0.094976  0.613368  1
  Ga  Ga15  1  0.781170  0.932412  0.862235  1
  Ga  Ga16  1  0.671836  0.430622  0.613573  1
  Ga  Ga17  1  0.262851  0.594976  0.886632  1
  Ga  Ga18  1  0.237149  0.905024  0.386632  1
  Ga  Ga19  1  0.691796  0.592543  0.865109  1
  Ga  Ga20  1  0.328164  0.569378  0.386427  1
  Ga  Ga21  1  0.171836  0.930622  0.886427  1
  Ga  Ga22  1  0.281170  0.432412  0.637765  1
  Ga  Ga23  1  0.191796  0.092543  0.634891  1
  O  O24  1  0.848290  0.453369  0.258600  1
  O  O25  1  0.286129  0.252097  0.719001  1
  O  O26  1  0.192198  0.445503  0.480892  1
  O  O27  1  0.213871  0.247903  0.219001  1
  O  O28  1  0.270107  0.077882  0.475188  1
  O  O29  1  0.229893  0.422118  0.975188  1
  O  O30  1  0.520200  0.338360  0.113391  1
  O  O31  1  0.807802  0.554497  0.519108  1
  O  O32  1  0.519102  0.471926  0.364825  1
  O  O33  1  0.651710  0.046631  0.758600  1
  O  O34  1  0.729893  0.922118  0.524812  1
  O  O35  1  0.830430  0.248673  0.034496  1
  O  O36  1  0.786129  0.752097  0.780999  1
  O  O37  1  0.307802  0.054497  0.980892  1
  O  O38  1  0.330430  0.748673  0.465504  1
  O  O39  1  0.980898  0.028074  0.864825  1
  O  O40  1  0.151710  0.546631  0.741400  1
  O  O41  1  0.732962  0.416496  0.782816  1
  O  O42  1  0.767038  0.083504  0.282816  1
  O  O43  1  0.692198  0.945503  0.019108  1
  O  O44  1  0.232962  0.916496  0.717184  1
  O  O45  1  0.979800  0.161640  0.613391  1
  O  O46  1  0.713871  0.747903  0.280999  1
  O  O47  1  0.669570  0.251327  0.534496  1
  O  O48  1  0.770107  0.577882  0.024812  1
  O  O49  1  0.019102  0.971926  0.135175  1
  O  O50  1  0.480898  0.528074  0.635175  1
  O  O51  1  0.348290  0.953369  0.241400  1
  O  O52  1  0.169570  0.751327  0.965504  1
  O  O53  1  0.267038  0.583504  0.217184  1
  O  O54  1  0.020200  0.838360  0.386609  1
  O  O55  1  0.479800  0.661640  0.886609  1
