# generated using pymatgen
data_KRb3CdCl6
_symmetry_space_group_name_H-M   'P 1'
_cell_length_a   8.95726215
_cell_length_b   8.95726215
_cell_length_c   8.95726243
_cell_angle_alpha   90.63577581
_cell_angle_beta   90.63577581
_cell_angle_gamma   90.63578068
_symmetry_Int_Tables_number   1
_chemical_formula_structural   KRb3CdCl6
_chemical_formula_sum   'K2 Rb6 Cd2 Cl12'
_cell_volume   718.53023985
_cell_formula_units_Z   2
loop_
 _symmetry_equiv_pos_site_id
 _symmetry_equiv_pos_as_xyz
  1  'x, y, z'
loop_
 _atom_site_type_symbol
 _atom_site_label
 _atom_site_symmetry_multiplicity
 _atom_site_fract_x
 _atom_site_fract_y
 _atom_site_fract_z
 _atom_site_occupancy
  K  K0  1  0.252242  0.252242  0.252242  1
  K  K1  1  0.752241  0.752241  0.752241  1
  Rb  Rb2  1  0.129721  0.374344  0.751897  1
  Rb  Rb3  1  0.751897  0.129720  0.374344  1
  Rb  Rb4  1  0.374344  0.751897  0.129721  1
  Rb  Rb5  1  0.874344  0.629721  0.251897  1
  Rb  Rb6  1  0.629720  0.251898  0.874343  1
  Rb  Rb7  1  0.251897  0.874344  0.629720  1
  Cd  Cd8  1  0.002265  0.002265  0.002265  1
  Cd  Cd9  1  0.502265  0.502265  0.502265  1
  Cl  Cl10  1  0.075970  0.950020  0.288944  1
  Cl  Cl11  1  0.288944  0.075971  0.950020  1
  Cl  Cl12  1  0.950020  0.288944  0.075970  1
  Cl  Cl13  1  0.450018  0.575971  0.788944  1
  Cl  Cl14  1  0.575970  0.788944  0.450019  1
  Cl  Cl15  1  0.788943  0.450019  0.575970  1
  Cl  Cl16  1  0.428658  0.215412  0.554228  1
  Cl  Cl17  1  0.554228  0.428658  0.215412  1
  Cl  Cl18  1  0.215412  0.554227  0.428659  1
  Cl  Cl19  1  0.715413  0.928659  0.054228  1
  Cl  Cl20  1  0.928660  0.054227  0.715414  1
  Cl  Cl21  1  0.054228  0.715413  0.928659  1
