# generated using pymatgen
data_KMnO2
_symmetry_space_group_name_H-M   'P 1'
_cell_length_a   6.31050308
_cell_length_b   10.37286346
_cell_length_c   11.55317878
_cell_angle_alpha   90.00000000
_cell_angle_beta   90.00000000
_cell_angle_gamma   94.81334058
_symmetry_Int_Tables_number   1
_chemical_formula_structural   KMnO2
_chemical_formula_sum   'K12 Mn12 O24'
_cell_volume   753.58080158
_cell_formula_units_Z   12
loop_
 _symmetry_equiv_pos_site_id
 _symmetry_equiv_pos_as_xyz
  1  'x, y, z'
loop_
 _atom_site_type_symbol
 _atom_site_label
 _atom_site_symmetry_multiplicity
 _atom_site_fract_x
 _atom_site_fract_y
 _atom_site_fract_z
 _atom_site_occupancy
  K  K0  1  0.169952  0.424692  0.750000  1
  K  K1  1  0.189797  0.415195  0.459018  1
  K  K2  1  0.810203  0.584805  0.540982  1
  K  K3  1  0.924550  0.823894  0.750000  1
  K  K4  1  0.933593  0.881529  0.103631  1
  K  K5  1  0.066407  0.118471  0.603631  1
  K  K6  1  0.075450  0.176106  0.250000  1
  K  K7  1  0.810203  0.584805  0.959018  1
  K  K8  1  0.933593  0.881529  0.396369  1
  K  K9  1  0.066407  0.118471  0.896369  1
  K  K10  1  0.189797  0.415195  0.040982  1
  K  K11  1  0.830048  0.575308  0.250000  1
  Mn  Mn12  1  0.637336  0.269591  0.500937  1
  Mn  Mn13  1  0.643026  0.280188  0.750000  1
  Mn  Mn14  1  0.621254  0.271877  0.250000  1
  Mn  Mn15  1  0.516158  0.987674  0.874952  1
  Mn  Mn16  1  0.356974  0.719812  0.250000  1
  Mn  Mn17  1  0.378746  0.728123  0.750000  1
  Mn  Mn18  1  0.362664  0.730409  0.000937  1
  Mn  Mn19  1  0.483842  0.012326  0.374952  1
  Mn  Mn20  1  0.362664  0.730409  0.499063  1
  Mn  Mn21  1  0.516158  0.987674  0.625048  1
  Mn  Mn22  1  0.637336  0.269591  0.999063  1
  Mn  Mn23  1  0.483842  0.012326  0.125048  1
  O  O24  1  0.685304  0.056465  0.250000  1
  O  O25  1  0.577340  0.770921  0.622188  1
  O  O26  1  0.422660  0.229079  0.122188  1
  O  O27  1  0.808182  0.342380  0.372236  1
  O  O28  1  0.838294  0.330514  0.621307  1
  O  O29  1  0.161706  0.669486  0.378693  1
  O  O30  1  0.314696  0.943535  0.750000  1
  O  O31  1  0.432355  0.268995  0.873702  1
  O  O32  1  0.293786  0.945853  0.250000  1
  O  O33  1  0.567645  0.731005  0.126299  1
  O  O34  1  0.161706  0.669486  0.121307  1
  O  O35  1  0.706214  0.054147  0.750000  1
  O  O36  1  0.691997  0.058981  0.001870  1
  O  O37  1  0.577340  0.770921  0.877812  1
  O  O38  1  0.691997  0.058981  0.498130  1
  O  O39  1  0.308003  0.941019  0.998131  1
  O  O40  1  0.808182  0.342380  0.127764  1
  O  O41  1  0.191818  0.657620  0.627764  1
  O  O42  1  0.432355  0.268995  0.626298  1
  O  O43  1  0.838294  0.330514  0.878693  1
  O  O44  1  0.422660  0.229079  0.377812  1
  O  O45  1  0.308003  0.941019  0.501869  1
  O  O46  1  0.191818  0.657620  0.872236  1
  O  O47  1  0.567645  0.731005  0.373702  1
