# generated using pymatgen
data_Ba2(Mo2S3)3
_symmetry_space_group_name_H-M   'P 1'
_cell_length_a   10.81029303
_cell_length_b   10.81029323
_cell_length_c   14.38887009
_cell_angle_alpha   90.00000000
_cell_angle_beta   90.00000000
_cell_angle_gamma   119.99999943
_symmetry_Int_Tables_number   1
_chemical_formula_structural   Ba2(Mo2S3)3
_chemical_formula_sum   'Ba8 Mo24 S36'
_cell_volume   1456.23768724
_cell_formula_units_Z   4
loop_
 _symmetry_equiv_pos_site_id
 _symmetry_equiv_pos_as_xyz
  1  'x, y, z'
loop_
 _atom_site_type_symbol
 _atom_site_label
 _atom_site_symmetry_multiplicity
 _atom_site_fract_x
 _atom_site_fract_y
 _atom_site_fract_z
 _atom_site_occupancy
  Ba  Ba0  1  0.186896  0.813104  0.744924  1
  Ba  Ba1  1  0.186896  0.373793  0.744924  1
  Ba  Ba2  1  0.000000  0.000000  0.447208  1
  Ba  Ba3  1  0.000000  0.000000  0.947208  1
  Ba  Ba4  1  0.626207  0.813104  0.744924  1
  Ba  Ba5  1  0.373793  0.186896  0.244924  1
  Ba  Ba6  1  0.813104  0.626207  0.244924  1
  Ba  Ba7  1  0.813104  0.186896  0.244924  1
  Mo  Mo8  1  0.242834  0.757166  0.361147  1
  Mo  Mo9  1  0.242420  0.757580  0.139415  1
  Mo  Mo10  1  0.165603  0.582802  0.511750  1
  Mo  Mo11  1  0.166029  0.583015  0.988194  1
  Mo  Mo12  1  0.242420  0.484839  0.139415  1
  Mo  Mo13  1  0.417198  0.834397  0.511750  1
  Mo  Mo14  1  0.416985  0.833971  0.988194  1
  Mo  Mo15  1  0.242834  0.485668  0.361147  1
  Mo  Mo16  1  0.416985  0.583015  0.988194  1
  Mo  Mo17  1  0.417198  0.582802  0.511750  1
  Mo  Mo18  1  0.515161  0.757580  0.139415  1
  Mo  Mo19  1  0.514332  0.757166  0.361147  1
  Mo  Mo20  1  0.484839  0.242420  0.639415  1
  Mo  Mo21  1  0.485668  0.242834  0.861147  1
  Mo  Mo22  1  0.582802  0.417198  0.011750  1
  Mo  Mo23  1  0.583015  0.416985  0.488194  1
  Mo  Mo24  1  0.583015  0.166029  0.488194  1
  Mo  Mo25  1  0.757166  0.514332  0.861147  1
  Mo  Mo26  1  0.582802  0.165603  0.011750  1
  Mo  Mo27  1  0.757580  0.515161  0.639415  1
  Mo  Mo28  1  0.834397  0.417198  0.011750  1
  Mo  Mo29  1  0.833971  0.416985  0.488194  1
  Mo  Mo30  1  0.757580  0.242420  0.639415  1
  Mo  Mo31  1  0.757166  0.242834  0.861147  1
  S  S32  1  0.136896  0.863104  0.254667  1
  S  S33  1  0.181077  0.818923  0.511680  1
  S  S34  1  0.181307  0.818693  0.987806  1
  S  S35  1  0.029464  0.514732  0.135226  1
  S  S36  1  0.029122  0.514561  0.364763  1
  S  S37  1  0.333333  0.666667  0.250010  1
  S  S38  1  0.485268  0.970536  0.135226  1
  S  S39  1  0.485439  0.970878  0.364763  1
  S  S40  1  0.333333  0.666667  0.640728  1
  S  S41  1  0.333333  0.666667  0.858439  1
  S  S42  1  0.181307  0.362613  0.987806  1
  S  S43  1  0.136896  0.273793  0.254667  1
  S  S44  1  0.181077  0.362154  0.511680  1
  S  S45  1  0.273793  0.136896  0.754667  1
  S  S46  1  0.485268  0.514732  0.135226  1
  S  S47  1  0.485439  0.514561  0.364763  1
  S  S48  1  0.637387  0.818693  0.987806  1
  S  S49  1  0.637846  0.818923  0.511680  1
  S  S50  1  0.362613  0.181307  0.487806  1
  S  S51  1  0.362154  0.181077  0.011680  1
  S  S52  1  0.514561  0.485439  0.864763  1
  S  S53  1  0.514732  0.485268  0.635226  1
  S  S54  1  0.726207  0.863104  0.254667  1
  S  S55  1  0.666667  0.333333  0.140728  1
  S  S56  1  0.514732  0.029464  0.635226  1
  S  S57  1  0.818923  0.637846  0.011680  1
  S  S58  1  0.666667  0.333333  0.358439  1
  S  S59  1  0.863104  0.726207  0.754667  1
  S  S60  1  0.666667  0.333333  0.750010  1
  S  S61  1  0.818693  0.637387  0.487806  1
  S  S62  1  0.514561  0.029122  0.864763  1
  S  S63  1  0.970878  0.485439  0.864763  1
  S  S64  1  0.970536  0.485268  0.635226  1
  S  S65  1  0.818923  0.181077  0.011680  1
  S  S66  1  0.818693  0.181307  0.487806  1
  S  S67  1  0.863104  0.136896  0.754667  1
