# generated using pymatgen
data_SiO2
_symmetry_space_group_name_H-M   'P 1'
_cell_length_a   11.74119092
_cell_length_b   11.74119099
_cell_length_c   4.44708411
_cell_angle_alpha   90.00000000
_cell_angle_beta   90.00000000
_cell_angle_gamma   119.99999980
_symmetry_Int_Tables_number   1
_chemical_formula_structural   SiO2
_chemical_formula_sum   'Si12 O24'
_cell_volume   530.92145861
_cell_formula_units_Z   12
loop_
 _symmetry_equiv_pos_site_id
 _symmetry_equiv_pos_as_xyz
  1  'x, y, z'
loop_
 _atom_site_type_symbol
 _atom_site_label
 _atom_site_symmetry_multiplicity
 _atom_site_fract_x
 _atom_site_fract_y
 _atom_site_fract_z
 _atom_site_occupancy
  Si  Si0  1  0.850272  0.538825  0.783002  1
  Si  Si1  1  0.688554  0.538825  0.216998  1
  Si  Si2  1  0.311446  0.850272  0.216998  1
  Si  Si3  1  0.688554  0.149728  0.783002  1
  Si  Si4  1  0.149728  0.688554  0.783002  1
  Si  Si5  1  0.538825  0.688554  0.216998  1
  Si  Si6  1  0.461175  0.149728  0.216998  1
  Si  Si7  1  0.311446  0.461175  0.783002  1
  Si  Si8  1  0.149728  0.461175  0.216998  1
  Si  Si9  1  0.538825  0.850272  0.783002  1
  Si  Si10  1  0.850272  0.311446  0.216998  1
  Si  Si11  1  0.461175  0.311446  0.783002  1
  O  O12  1  0.581487  0.418513  0.000000  1
  O  O13  1  0.418513  0.581487  0.000000  1
  O  O14  1  0.252677  0.747323  0.500000  1
  O  O15  1  0.000000  0.378488  0.345552  1
  O  O16  1  0.621512  0.000000  0.654448  1
  O  O17  1  0.837027  0.418513  0.000000  1
  O  O18  1  0.370209  0.185105  0.000000  1
  O  O19  1  0.747323  0.252677  0.500000  1
  O  O20  1  0.581487  0.162973  0.000000  1
  O  O21  1  0.629791  0.814895  0.000000  1
  O  O22  1  0.621512  0.621512  0.345552  1
  O  O23  1  0.494646  0.747323  0.500000  1
  O  O24  1  0.814895  0.629791  0.000000  1
  O  O25  1  0.378488  0.378488  0.654448  1
  O  O26  1  0.747323  0.494646  0.500000  1
  O  O27  1  0.418513  0.837027  0.000000  1
  O  O28  1  1.000000  0.621512  0.654448  1
  O  O29  1  0.378488  0.000000  0.345552  1
  O  O30  1  0.252677  0.505354  0.500000  1
  O  O31  1  0.185105  0.370209  0.000000  1
  O  O32  1  0.814895  0.185105  0.000000  1
  O  O33  1  0.162973  0.581487  0.000000  1
  O  O34  1  0.505354  0.252677  0.500000  1
  O  O35  1  0.185105  0.814895  0.000000  1
