# generated using pymatgen
data_Nb2Tl5S4Br9
_symmetry_space_group_name_H-M   'P 1'
_cell_length_a   7.45033658
_cell_length_b   10.39105726
_cell_length_c   10.34635551
_cell_angle_alpha   120.14308872
_cell_angle_beta   111.11222945
_cell_angle_gamma   89.99993505
_symmetry_Int_Tables_number   1
_chemical_formula_structural   Nb2Tl5S4Br9
_chemical_formula_sum   'Nb2 Tl5 S4 Br9'
_cell_volume   629.72376461
_cell_formula_units_Z   1
loop_
 _symmetry_equiv_pos_site_id
 _symmetry_equiv_pos_as_xyz
  1  'x, y, z'
loop_
 _atom_site_type_symbol
 _atom_site_label
 _atom_site_symmetry_multiplicity
 _atom_site_fract_x
 _atom_site_fract_y
 _atom_site_fract_z
 _atom_site_occupancy
  Nb  Nb0  1  0.410479  0.910498  0.820995  1
  Nb  Nb1  1  0.589521  0.089502  0.179005  1
  Tl  Tl2  1  0.165545  0.883306  0.331225  1
  Tl  Tl3  1  0.500000  0.500000  0.000000  1
  Tl  Tl4  1  0.834454  0.552080  0.668775  1
  Tl  Tl5  1  0.834455  0.116694  0.668775  1
  Tl  Tl6  1  0.165546  0.447920  0.331225  1
  S  S7  1  0.739186  0.097156  1.000025  1
  S  S8  1  0.260814  0.902844  -0.000025  1
  S  S9  1  0.260813  0.097131  -0.000025  1
  S  S10  1  0.739187  0.902869  1.000025  1
  Br  Br11  1  0.532756  0.787536  0.575072  1
  Br  Br12  1  0.467244  0.212464  0.424928  1
  Br  Br13  1  0.366267  0.127085  0.732496  1
  Br  Br14  1  0.633734  0.394588  0.267504  1
  Br  Br15  1  0.042166  0.787435  0.574870  1
  Br  Br16  1  0.957834  0.212565  0.425130  1
  Br  Br17  1  0.366266  0.605412  0.732496  1
  Br  Br18  1  0.000000  0.500000  0.000000  1
  Br  Br19  1  0.633733  0.872915  0.267504  1
