# generated using pymatgen
data_Nd6Fe13Sb
_symmetry_space_group_name_H-M   'P 1'
_cell_length_a   8.06761418
_cell_length_b   8.06761481
_cell_length_c   13.03643002
_cell_angle_alpha   108.02462605
_cell_angle_beta   108.02462752
_cell_angle_gamma   89.99999786
_symmetry_Int_Tables_number   1
_chemical_formula_structural   Nd6Fe13Sb
_chemical_formula_sum   'Nd12 Fe26 Sb2'
_cell_volume   762.94289417
_cell_formula_units_Z   2
loop_
 _symmetry_equiv_pos_site_id
 _symmetry_equiv_pos_as_xyz
  1  'x, y, z'
loop_
 _atom_site_type_symbol
 _atom_site_label
 _atom_site_symmetry_multiplicity
 _atom_site_fract_x
 _atom_site_fract_y
 _atom_site_fract_z
 _atom_site_occupancy
  Nd  Nd0  1  0.895939  0.895939  0.791879  1
  Nd  Nd1  1  0.977437  0.477437  0.629780  1
  Nd  Nd2  1  0.522563  0.347657  0.370220  1
  Nd  Nd3  1  0.347657  0.847657  0.370220  1
  Nd  Nd4  1  0.022563  0.522563  0.370220  1
  Nd  Nd5  1  0.477437  0.652343  0.629780  1
  Nd  Nd6  1  0.104061  0.104061  0.208121  1
  Nd  Nd7  1  0.395939  0.395939  0.791879  1
  Nd  Nd8  1  0.652343  0.152343  0.629780  1
  Nd  Nd9  1  0.604061  0.604061  0.208121  1
  Nd  Nd10  1  0.847657  0.022563  0.370220  1
  Nd  Nd11  1  0.152343  0.977437  0.629780  1
  Fe  Fe12  1  0.433299  0.709577  0.000000  1
  Fe  Fe13  1  0.792775  0.520271  0.813046  1
  Fe  Fe14  1  0.707225  0.207225  0.186954  1
  Fe  Fe15  1  0.709577  0.566701  0.000000  1
  Fe  Fe16  1  0.933299  0.790423  1.000000  1
  Fe  Fe17  1  0.880021  0.380021  0.117136  1
  Fe  Fe18  1  0.762884  0.262884  0.882864  1
  Fe  Fe19  1  0.479729  0.979729  0.186954  1
  Fe  Fe20  1  0.209577  0.933299  0.000000  1
  Fe  Fe21  1  0.380021  0.237116  0.117136  1
  Fe  Fe22  1  0.292775  0.792775  0.813046  1
  Fe  Fe23  1  0.207225  0.479729  0.186954  1
  Fe  Fe24  1  0.237116  0.737116  0.117136  1
  Fe  Fe25  1  0.290423  0.433299  0.000000  1
  Fe  Fe26  1  0.566701  0.290423  1.000000  1
  Fe  Fe27  1  0.500000  0.000000  0.000000  1
  Fe  Fe28  1  0.520271  0.020271  0.813046  1
  Fe  Fe29  1  0.066701  0.209577  0.000000  1
  Fe  Fe30  1  0.262884  0.119979  0.882864  1
  Fe  Fe31  1  0.737116  0.880021  0.117136  1
  Fe  Fe32  1  0.119979  0.619979  0.882864  1
  Fe  Fe33  1  0.790423  0.066701  0.000000  1
  Fe  Fe34  1  0.619979  0.762884  0.882864  1
  Fe  Fe35  1  0.000000  0.500000  0.000000  1
  Fe  Fe36  1  0.020271  0.292775  0.813046  1
  Fe  Fe37  1  0.979729  0.707225  0.186954  1
  Sb  Sb38  1  0.750000  0.750000  0.500000  1
  Sb  Sb39  1  0.250000  0.250000  0.500000  1
