# generated using pymatgen
data_P3IrO9
_symmetry_space_group_name_H-M   'P 1'
_cell_length_a   5.08632549
_cell_length_b   7.06868150
_cell_length_c   10.44160477
_cell_angle_alpha   98.45934731
_cell_angle_beta   92.45770904
_cell_angle_gamma   92.51574390
_symmetry_Int_Tables_number   1
_chemical_formula_structural   P3IrO9
_chemical_formula_sum   'P6 Ir2 O18'
_cell_volume   370.50853111
_cell_formula_units_Z   2
loop_
 _symmetry_equiv_pos_site_id
 _symmetry_equiv_pos_as_xyz
  1  'x, y, z'
loop_
 _atom_site_type_symbol
 _atom_site_label
 _atom_site_symmetry_multiplicity
 _atom_site_fract_x
 _atom_site_fract_y
 _atom_site_fract_z
 _atom_site_occupancy
  P  P0  1  0.000606  0.327736  0.638545  1
  P  P1  1  0.023905  0.960487  0.181824  1
  P  P2  1  0.976095  0.039513  0.818176  1
  P  P3  1  0.999394  0.672264  0.361455  1
  P  P4  1  0.736733  0.315391  0.227629  1
  P  P5  1  0.263267  0.684609  0.772371  1
  Ir  Ir6  1  0.500000  0.500000  0.500000  1
  Ir  Ir7  1  0.500000  0.000000  0.000000  1
  O  O8  1  0.958356  0.871864  0.310971  1
  O  O9  1  0.041644  0.128136  0.689029  1
  O  O10  1  0.120508  0.476355  0.762609  1
  O  O11  1  0.835314  0.665723  0.477992  1
  O  O12  1  0.171914  0.118589  0.928014  1
  O  O13  1  0.596669  0.274328  0.095317  1
  O  O14  1  0.689006  0.070958  0.841131  1
  O  O15  1  0.403331  0.725672  0.904683  1
  O  O16  1  0.986400  0.182110  0.231050  1
  O  O17  1  0.581977  0.298234  0.345854  1
  O  O18  1  0.418023  0.701766  0.654146  1
  O  O19  1  0.879492  0.523645  0.237391  1
  O  O20  1  0.013600  0.817890  0.768950  1
  O  O21  1  0.707368  0.347230  0.620716  1
  O  O22  1  0.310994  0.929042  0.158869  1
  O  O23  1  0.164686  0.334277  0.522008  1
  O  O24  1  0.828086  0.881411  0.071986  1
  O  O25  1  0.292632  0.652770  0.379284  1
