# generated using pymatgen
data_HfGa
_symmetry_space_group_name_H-M   'P 1'
_cell_length_a   5.67772318
_cell_length_b   8.55330020
_cell_length_c   9.21113967
_cell_angle_alpha   90.00000000
_cell_angle_beta   90.00000000
_cell_angle_gamma   90.00000000
_symmetry_Int_Tables_number   1
_chemical_formula_structural   HfGa
_chemical_formula_sum   'Hf12 Ga12'
_cell_volume   447.32307027
_cell_formula_units_Z   12
loop_
 _symmetry_equiv_pos_site_id
 _symmetry_equiv_pos_as_xyz
  1  'x, y, z'
loop_
 _atom_site_type_symbol
 _atom_site_label
 _atom_site_symmetry_multiplicity
 _atom_site_fract_x
 _atom_site_fract_y
 _atom_site_fract_z
 _atom_site_occupancy
  Ga  Ga0  1  0.000000  0.750000  0.434554  1
  Ga  Ga1  1  0.500000  0.250000  0.565446  1
  Ga  Ga2  1  0.000000  0.250000  0.565446  1
  Ga  Ga3  1  0.500000  0.750000  0.434554  1
  Ga  Ga4  1  0.750000  0.048058  0.914206  1
  Ga  Ga5  1  0.250000  0.951942  0.085794  1
  Ga  Ga6  1  0.750000  0.548058  0.085794  1
  Ga  Ga7  1  0.250000  0.451942  0.914206  1
  Ga  Ga8  1  0.750000  0.132078  0.349007  1
  Ga  Ga9  1  0.250000  0.867922  0.650993  1
  Ga  Ga10  1  0.750000  0.632078  0.650993  1
  Ga  Ga11  1  0.250000  0.367922  0.349007  1
  Hf  Hf12  1  0.000000  0.750000  0.888770  1
  Hf  Hf13  1  0.500000  0.250000  0.111230  1
  Hf  Hf14  1  0.000000  0.250000  0.111230  1
  Hf  Hf15  1  0.500000  0.750000  0.888770  1
  Hf  Hf16  1  0.750000  0.473401  0.382624  1
  Hf  Hf17  1  0.250000  0.526599  0.617376  1
  Hf  Hf18  1  0.750000  0.973401  0.617376  1
  Hf  Hf19  1  0.250000  0.026599  0.382624  1
  Hf  Hf20  1  0.750000  0.363478  0.807691  1
  Hf  Hf21  1  0.250000  0.636522  0.192309  1
  Hf  Hf22  1  0.750000  0.863478  0.192309  1
  Hf  Hf23  1  0.250000  0.136522  0.807691  1
