# generated using pymatgen
data_Al13Si5H14Cl(O17F2)2
_symmetry_space_group_name_H-M   'P 1'
_cell_length_a   9.89184983
_cell_length_b   9.94183924
_cell_length_c   9.98246061
_cell_angle_alpha   59.68112641
_cell_angle_beta   59.69798708
_cell_angle_gamma   59.71138569
_symmetry_Int_Tables_number   1
_chemical_formula_structural   Al13Si5H14Cl(O17F2)2
_chemical_formula_sum   'Al13 Si5 H14 Cl1 O34 F4'
_cell_volume   689.39108885
_cell_formula_units_Z   1
loop_
 _symmetry_equiv_pos_site_id
 _symmetry_equiv_pos_as_xyz
  1  'x, y, z'
loop_
 _atom_site_type_symbol
 _atom_site_label
 _atom_site_symmetry_multiplicity
 _atom_site_fract_x
 _atom_site_fract_y
 _atom_site_fract_z
 _atom_site_occupancy
  Al  Al0  1  0.062748  0.766525  0.398962  1
  Al  Al1  1  0.065333  0.406303  0.765217  1
  Al  Al2  1  0.412397  0.064564  0.754226  1
  Al  Al3  1  0.400568  0.772710  0.060257  1
  Al  Al4  1  0.062018  0.766332  0.771838  1
  Al  Al5  1  0.752402  0.060750  0.400138  1
  Al  Al6  1  0.766980  0.402993  0.060213  1
  Al  Al7  1  0.405899  0.767383  0.763656  1
  Al  Al8  1  0.762995  0.059583  0.784084  1
  Al  Al9  1  0.764146  0.766639  0.065039  1
  Al  Al10  1  0.763825  0.405855  0.768617  1
  Al  Al11  1  0.761804  0.765506  0.406767  1
  Al  Al12  1  0.748282  0.752967  0.747026  1
  Cl  Cl13  1  0.500077  0.499283  0.500054  1
  F  F14  1  0.088174  0.820583  0.546670  1
  F  F15  1  0.546929  0.548162  0.098008  1
  F  F16  1  0.550219  0.806288  0.093855  1
  F  F17  1  0.555272  0.097294  0.804731  1
  H  H18  1  0.351643  0.349297  0.644129  1
  H  H19  1  0.352294  0.646403  0.349161  1
  H  H20  1  0.624772  0.345892  0.349417  1
  H  H21  1  0.349447  0.647949  0.653526  1
  H  H22  1  0.628324  0.349116  0.673921  1
  H  H23  1  0.630973  0.662738  0.353124  1
  H  H24  1  0.959601  1.011119  0.513215  1
  H  H25  1  0.039868  0.512032  0.936418  1
  H  H26  1  0.855141  0.202723  0.470449  1
  H  H27  1  0.858594  0.474248  0.188281  1
  H  H28  1  0.486506  0.492530  0.934096  1
  H  H29  1  0.531586  0.943233  0.533417  1
  H  H30  1  0.868170  0.472543  0.478188  1
  H  H31  1  0.061175  0.502817  0.503898  1
  O  O32  1  0.000171  1.000368  0.273402  1
  O  O33  1  0.000419  0.273798  0.001024  1
  O  O34  1  0.278930  0.003085  0.000953  1
  O  O35  1  0.998707  0.724830  0.003449  1
  O  O36  1  0.997888  1.000857  0.728852  1
  O  O37  1  0.168264  0.186440  0.191152  1
  O  O38  1  0.172418  0.451806  0.187278  1
  O  O39  1  0.998973  0.275609  0.724555  1
  O  O40  1  1.000088  0.720797  0.275416  1
  O  O41  1  0.168859  0.186297  0.456612  1
  O  O42  1  0.444804  0.184088  0.186173  1
  O  O43  1  0.270954  0.000356  0.728083  1
  O  O44  1  0.275949  0.718229  0.004353  1
  O  O45  1  0.097465  0.546289  0.544126  1
  O  O46  1  0.714584  0.000920  0.007301  1
  O  O47  1  0.089707  0.549915  0.815887  1
  O  O48  1  0.282089  0.278680  0.724521  1
  O  O49  1  0.282230  0.725054  0.278768  1
  O  O50  1  0.724094  -0.001396  0.269629  1
  O  O51  1  0.715118  0.276281  0.004303  1
  O  O52  1  0.553690  0.083919  0.549596  1
  O  O53  1  0.278579  0.726967  0.714251  1
  O  O54  1  0.722235  0.280733  0.280250  1
  O  O55  1  0.817728  0.542701  0.095888  1
  O  O56  1  0.843529  0.093285  0.533210  1
  O  O57  1  0.717004  0.716587  0.282385  1
  O  O58  1  0.722316  0.278612  0.716570  1
  O  O59  1  0.540455  0.542469  0.817026  1
  O  O60  1  0.548556  0.825654  0.549576  1
  O  O61  1  0.524481  0.822851  0.832726  1
  O  O62  1  0.812335  0.542600  0.544802  1
  O  O63  1  0.820352  0.527135  0.827046  1
  O  O64  1  0.831570  0.823791  0.523444  1
  O  O65  1  0.821305  0.829623  0.824226  1
  Si  Si66  1  0.115420  0.113488  0.113420  1
  Si  Si67  1  0.242999  0.248962  0.254852  1
  Si  Si68  1  0.113397  0.656138  0.115807  1
  Si  Si69  1  0.113243  0.114202  0.660696  1
  Si  Si70  1  0.648927  0.115620  0.117795  1
