# generated using pymatgen
data_Np(MnSi)2
_symmetry_space_group_name_H-M   'P 1'
_cell_length_a   3.91480161
_cell_length_b   3.91480142
_cell_length_c   5.60583607
_cell_angle_alpha   110.43668305
_cell_angle_beta   110.43668200
_cell_angle_gamma   90.00000195
_symmetry_Int_Tables_number   1
_chemical_formula_structural   Np(MnSi)2
_chemical_formula_sum   'Np1 Mn2 Si2'
_cell_volume   74.70782481
_cell_formula_units_Z   1
loop_
 _symmetry_equiv_pos_site_id
 _symmetry_equiv_pos_as_xyz
  1  'x, y, z'
loop_
 _atom_site_type_symbol
 _atom_site_label
 _atom_site_symmetry_multiplicity
 _atom_site_fract_x
 _atom_site_fract_y
 _atom_site_fract_z
 _atom_site_occupancy
  Np  Np0  1  0.000000  0.000000  0.000000  1
  Mn  Mn1  1  0.750000  0.250000  0.500000  1
  Mn  Mn2  1  0.250000  0.750000  0.500000  1
  Si  Si3  1  0.379204  0.379204  0.758407  1
  Si  Si4  1  0.620796  0.620796  0.241593  1
