# generated using pymatgen
data_LaAl22O34
_symmetry_space_group_name_H-M   'P 1'
_cell_length_a   11.82845899
_cell_length_b   23.65010698
_cell_length_c   34.55277614
_cell_angle_alpha   18.55747194
_cell_angle_beta   24.63620284
_cell_angle_gamma   27.64960076
_symmetry_Int_Tables_number   1
_chemical_formula_structural   LaAl22O34
_chemical_formula_sum   'La2 Al44 O68'
_cell_volume   1261.02666454
_cell_formula_units_Z   2
loop_
 _symmetry_equiv_pos_site_id
 _symmetry_equiv_pos_as_xyz
  1  'x, y, z'
loop_
 _atom_site_type_symbol
 _atom_site_label
 _atom_site_symmetry_multiplicity
 _atom_site_fract_x
 _atom_site_fract_y
 _atom_site_fract_z
 _atom_site_occupancy
  Al  Al0  1  1.000641  -0.000379  0.999324  1
  Al  Al1  1  0.099696  0.272920  0.049851  1
  Al  Al2  1  0.593155  0.025167  0.046780  1
  Al  Al3  1  -0.000641  0.500379  0.000676  1
  Al  Al4  1  0.349392  0.086260  0.176198  1
  Al  Al5  1  0.443397  0.111266  0.228321  1
  Al  Al6  1  0.543024  0.135873  0.278063  1
  Al  Al7  1  0.093430  0.400412  0.296703  1
  Al  Al8  1  0.093723  0.020423  0.549797  1
  Al  Al9  1  0.095150  0.772061  0.048282  1
  Al  Al10  1  0.591479  0.522387  0.049478  1
  Al  Al11  1  0.646700  0.162385  0.325779  1
  Al  Al12  1  0.348476  0.590106  0.173833  1
  Al  Al13  1  0.404705  0.225294  0.449989  1
  Al  Al14  1  0.902396  0.350621  0.204304  1
  Al  Al15  1  0.450308  0.617884  0.221678  1
  Al  Al16  1  0.549179  0.642112  0.271911  1
  Al  Al17  1  0.097605  0.149379  0.795696  1
  Al  Al18  1  0.097562  0.523701  0.546531  1
  Al  Al19  1  0.094040  0.900926  0.295897  1
  Al  Al20  1  0.595295  0.274706  0.550011  1
  Al  Al21  1  0.650554  0.663651  0.324201  1
  Al  Al22  1  0.353300  0.337615  0.674221  1
  Al  Al23  1  0.000000  0.250000  0.500000  1
  Al  Al24  1  0.407057  0.726348  0.451905  1
  Al  Al25  1  0.906570  0.099588  0.703297  1
  Al  Al26  1  0.906277  0.479577  0.450203  1
  Al  Al27  1  0.902427  0.851905  0.203070  1
  Al  Al28  1  0.456976  0.364127  0.721937  1
  Al  Al29  1  0.556603  0.388734  0.771679  1
  Al  Al30  1  0.097573  0.648094  0.796930  1
  Al  Al31  1  0.592944  0.773652  0.548095  1
  Al  Al32  1  0.650607  0.413740  0.823802  1
  Al  Al33  1  0.349446  0.836349  0.675799  1
  Al  Al34  1  1.000000  0.750000  0.500000  1
  Al  Al35  1  0.406845  0.474834  0.953220  1
  Al  Al36  1  0.900303  0.227080  0.950149  1
  Al  Al37  1  0.905960  0.599074  0.704103  1
  Al  Al38  1  0.902439  0.976299  0.453469  1
  Al  Al39  1  0.450821  0.857889  0.728088  1
  Al  Al40  1  0.549693  0.882116  0.778322  1
  Al  Al41  1  0.651524  0.909894  0.826167  1
  Al  Al42  1  0.408521  0.977613  0.950521  1
  Al  Al43  1  0.904850  0.727939  0.951718  1
  La  La44  1  1.000001  0.249998  1.000001  1
  La  La45  1  0.500000  0.250001  0.500000  1
  O  O46  1  0.091718  0.029861  0.045078  1
  O  O47  1  0.296093  0.073902  0.148313  1
  O  O48  1  0.193221  0.311088  0.095210  1
  O  O49  1  0.720285  0.049364  0.093386  1
  O  O50  1  0.093529  0.522821  0.048185  1
  O  O51  1  0.090448  0.149079  0.300912  1
  O  O52  1  0.608377  0.274334  0.045558  1
  O  O53  1  0.561899  0.140310  0.219119  1
  O  O54  1  0.401008  0.350183  0.203317  1
  O  O55  1  0.908925  0.105767  0.195237  1
  O  O56  1  0.295463  0.574676  0.148138  1
  O  O57  1  0.275959  0.202279  0.406140  1
  O  O58  1  0.812049  0.333793  0.140530  1
  O  O59  1  0.191609  0.414842  0.359325  1
  O  O60  1  0.192088  0.063112  0.593663  1
  O  O61  1  0.190139  0.815839  0.092894  1
  O  O62  1  0.717228  0.546097  0.097216  1
  O  O63  1  0.702249  0.176312  0.351902  1
  O  O64  1  0.104498  0.273462  0.545109  1
  O  O65  1  0.096520  0.651920  0.296225  1
  O  O66  1  0.593267  0.393310  0.304689  1
  O  O67  1  0.593984  0.031646  0.545443  1
  O  O68  1  0.598402  0.777862  0.045809  1
  O  O69  1  0.500477  0.578713  0.280737  1
  O  O70  1  0.406733  0.106690  0.695311  1
  O  O71  1  0.406016  0.468354  0.454557  1
  O  O72  1  0.400381  0.854901  0.199357  1
  O  O73  1  0.902615  0.601654  0.201744  1
  O  O74  1  0.895502  0.226538  0.454891  1
  O  O75  1  0.297751  0.323688  0.648098  1
  O  O76  1  0.282350  0.700015  0.405718  1
  O  O77  1  0.808391  0.085158  0.640675  1
  O  O78  1  0.807912  0.436888  0.406337  1
  O  O79  1  0.809734  0.835603  0.139941  1
  O  O80  1  0.187950  0.166206  0.859470  1
  O  O81  1  0.189367  0.560519  0.596863  1
  O  O82  1  0.189170  0.914356  0.360272  1
  O  O83  1  0.724041  0.297721  0.593860  1
  O  O84  1  0.704595  0.675991  0.351577  1
  O  O85  1  0.093388  0.772924  0.548127  1
  O  O86  1  0.091075  0.394233  0.804763  1
  O  O87  1  0.598991  0.149817  0.796683  1
  O  O88  1  0.594289  0.899606  0.298364  1
  O  O89  1  0.600948  0.526344  0.545993  1
  O  O90  1  0.438101  0.359691  0.780881  1
  O  O91  1  0.391624  0.225666  0.954442  1
  O  O92  1  0.405711  0.600394  0.701636  1
  O  O93  1  0.399052  0.973656  0.454007  1
  O  O94  1  0.909552  0.350921  0.699088  1
  O  O95  1  0.906612  0.727076  0.451873  1
  O  O96  1  0.295405  0.824009  0.648423  1
  O  O97  1  0.279715  0.450636  0.906614  1
  O  O98  1  0.806779  0.188912  0.904790  1
  O  O99  1  0.810830  0.585644  0.639728  1
  O  O100  1  0.810633  0.939481  0.403137  1
  O  O101  1  0.190265  0.664397  0.860059  1
  O  O102  1  0.717650  0.799985  0.594282  1
  O  O103  1  0.703907  0.426098  0.851687  1
  O  O104  1  0.097385  0.898346  0.798256  1
  O  O105  1  0.599619  0.645100  0.800643  1
  O  O106  1  0.499523  0.921288  0.719263  1
  O  O107  1  0.401598  0.722138  0.954191  1
  O  O108  1  0.903480  0.848080  0.703775  1
  O  O109  1  0.908282  0.470139  0.954922  1
  O  O110  1  0.282772  0.953903  0.902784  1
  O  O111  1  0.809861  0.684161  0.907106  1
  O  O112  1  0.704537  0.925324  0.851862  1
  O  O113  1  0.906471  0.977179  0.951815  1
