# generated using pymatgen
data_Tl3BiI6
_symmetry_space_group_name_H-M   'P 1'
_cell_length_a   9.27898997
_cell_length_b   14.01648121
_cell_length_c   13.96208534
_cell_angle_alpha   104.33760405
_cell_angle_beta   90.00000000
_cell_angle_gamma   90.00000000
_symmetry_Int_Tables_number   1
_chemical_formula_structural   Tl3BiI6
_chemical_formula_sum   'Tl12 Bi4 I24'
_cell_volume   1759.33307052
_cell_formula_units_Z   4
loop_
 _symmetry_equiv_pos_site_id
 _symmetry_equiv_pos_as_xyz
  1  'x, y, z'
loop_
 _atom_site_type_symbol
 _atom_site_label
 _atom_site_symmetry_multiplicity
 _atom_site_fract_x
 _atom_site_fract_y
 _atom_site_fract_z
 _atom_site_occupancy
  Tl  Tl0  1  0.159315  0.953273  0.691732  1
  Tl  Tl1  1  0.123150  0.649837  0.869143  1
  Tl  Tl2  1  0.840685  0.046727  0.308268  1
  Tl  Tl3  1  0.858588  0.794137  0.514912  1
  Tl  Tl4  1  0.358588  0.205863  0.985088  1
  Tl  Tl5  1  0.659315  0.046727  0.808268  1
  Tl  Tl6  1  0.623150  0.350163  0.630857  1
  Tl  Tl7  1  0.641412  0.794137  0.014912  1
  Tl  Tl8  1  0.376850  0.649837  0.369143  1
  Tl  Tl9  1  0.340685  0.953273  0.191732  1
  Tl  Tl10  1  0.876850  0.350163  0.130857  1
  Tl  Tl11  1  0.141412  0.205863  0.485088  1
  Bi  Bi12  1  0.996361  0.733346  0.201460  1
  Bi  Bi13  1  0.496361  0.266654  0.298540  1
  Bi  Bi14  1  0.003639  0.266654  0.798540  1
  Bi  Bi15  1  0.503639  0.733346  0.701460  1
  I  I16  1  0.857716  0.107995  0.619597  1
  I  I17  1  0.835990  0.597197  0.031314  1
  I  I18  1  0.485850  0.574919  0.818264  1
  I  I19  1  0.192730  0.187875  0.207275  1
  I  I20  1  0.164010  0.402803  0.968686  1
  I  I21  1  0.014150  0.574919  0.318264  1
  I  I22  1  0.807270  0.812125  0.792725  1
  I  I23  1  0.642284  0.107995  0.119597  1
  I  I24  1  0.988424  0.897604  0.085619  1
  I  I25  1  0.307270  0.187875  0.707275  1
  I  I26  1  0.335990  0.402803  0.468686  1
  I  I27  1  0.511576  0.897604  0.585619  1
  I  I28  1  0.801527  0.316223  0.383767  1
  I  I29  1  0.357716  0.892005  0.880403  1
  I  I30  1  0.142284  0.892005  0.380403  1
  I  I31  1  0.514150  0.425081  0.181736  1
  I  I32  1  0.488424  0.102396  0.414381  1
  I  I33  1  0.664010  0.597197  0.531314  1
  I  I34  1  0.985850  0.425081  0.681736  1
  I  I35  1  0.011576  0.102396  0.914381  1
  I  I36  1  0.698473  0.316223  0.883767  1
  I  I37  1  0.198473  0.683777  0.616233  1
  I  I38  1  0.301527  0.683777  0.116233  1
  I  I39  1  0.692730  0.812125  0.292725  1
