# generated using pymatgen
data_U11Ni16
_symmetry_space_group_name_H-M   'P 1'
_cell_length_a   9.61821309
_cell_length_b   9.61821387
_cell_length_c   9.61821315
_cell_angle_alpha   74.97169168
_cell_angle_beta   74.97169038
_cell_angle_gamma   74.97168891
_symmetry_Int_Tables_number   1
_chemical_formula_structural   U11Ni16
_chemical_formula_sum   'U22 Ni32'
_cell_volume   812.17269247
_cell_formula_units_Z   2
loop_
 _symmetry_equiv_pos_site_id
 _symmetry_equiv_pos_as_xyz
  1  'x, y, z'
loop_
 _atom_site_type_symbol
 _atom_site_label
 _atom_site_symmetry_multiplicity
 _atom_site_fract_x
 _atom_site_fract_y
 _atom_site_fract_z
 _atom_site_occupancy
  U  U0  1  0.884682  0.413567  0.577245  1
  U  U1  1  0.586433  0.422755  0.115318  1
  U  U2  1  0.427989  0.427989  0.427989  1
  U  U3  1  0.413043  0.947550  0.125699  1
  U  U4  1  0.572011  0.572011  0.572011  1
  U  U5  1  0.586957  0.052450  0.874301  1
  U  U6  1  0.721032  0.145883  0.056990  1
  U  U7  1  0.422755  0.115318  0.586433  1
  U  U8  1  0.947550  0.125699  0.413043  1
  U  U9  1  0.874301  0.586957  0.052450  1
  U  U10  1  0.193816  0.193816  0.193816  1
  U  U11  1  0.413567  0.577245  0.884682  1
  U  U12  1  0.125699  0.413043  0.947550  1
  U  U13  1  0.145883  0.056990  0.721032  1
  U  U14  1  0.115318  0.586433  0.422755  1
  U  U15  1  0.052450  0.874301  0.586957  1
  U  U16  1  0.577245  0.884682  0.413567  1
  U  U17  1  0.806184  0.806184  0.806184  1
  U  U18  1  0.854117  0.943010  0.278968  1
  U  U19  1  0.056990  0.721032  0.145883  1
  U  U20  1  0.278968  0.854117  0.943010  1
  U  U21  1  0.943010  0.278968  0.854117  1
  Ni  Ni22  1  0.845196  0.112390  0.721013  1
  Ni  Ni23  1  0.992127  0.574089  0.727342  1
  Ni  Ni24  1  0.648523  0.334006  0.813598  1
  Ni  Ni25  1  0.186402  0.351477  0.665994  1
  Ni  Ni26  1  0.558710  0.817284  0.724884  1
  Ni  Ni27  1  0.887610  0.278987  0.154804  1
  Ni  Ni28  1  0.724884  0.558710  0.817284  1
  Ni  Ni29  1  0.813598  0.648523  0.334006  1
  Ni  Ni30  1  0.743102  0.414637  0.348014  1
  Ni  Ni31  1  0.665994  0.186402  0.351477  1
  Ni  Ni32  1  0.414637  0.348014  0.743102  1
  Ni  Ni33  1  0.425911  0.272658  0.007873  1
  Ni  Ni34  1  0.721013  0.845196  0.112390  1
  Ni  Ni35  1  0.061636  0.061636  0.061636  1
  Ni  Ni36  1  0.727342  0.992127  0.574089  1
  Ni  Ni37  1  0.272658  0.007873  0.425911  1
  Ni  Ni38  1  0.007873  0.425911  0.272658  1
  Ni  Ni39  1  0.938364  0.938364  0.938364  1
  Ni  Ni40  1  0.574089  0.727342  0.992127  1
  Ni  Ni41  1  0.334006  0.813598  0.648523  1
  Ni  Ni42  1  0.817284  0.724884  0.558710  1
  Ni  Ni43  1  0.441290  0.182716  0.275116  1
  Ni  Ni44  1  0.351477  0.665994  0.186402  1
  Ni  Ni45  1  0.182716  0.275116  0.441290  1
  Ni  Ni46  1  0.348014  0.743102  0.414637  1
  Ni  Ni47  1  0.585363  0.651986  0.256898  1
  Ni  Ni48  1  0.275116  0.441290  0.182716  1
  Ni  Ni49  1  0.256898  0.585363  0.651986  1
  Ni  Ni50  1  0.112390  0.721013  0.845196  1
  Ni  Ni51  1  0.154804  0.887610  0.278987  1
  Ni  Ni52  1  0.651986  0.256898  0.585363  1
  Ni  Ni53  1  0.278987  0.154804  0.887610  1
