# generated using pymatgen
data_Mn2Hg2SF6
_symmetry_space_group_name_H-M   'P 1'
_cell_length_a   7.91200860
_cell_length_b   7.91200859
_cell_length_c   7.91200859
_cell_angle_alpha   59.99999997
_cell_angle_beta   59.99999999
_cell_angle_gamma   59.99999995
_symmetry_Int_Tables_number   1
_chemical_formula_structural   Mn2Hg2SF6
_chemical_formula_sum   'Mn4 Hg4 S2 F12'
_cell_volume   350.22347486
_cell_formula_units_Z   2
loop_
 _symmetry_equiv_pos_site_id
 _symmetry_equiv_pos_as_xyz
  1  'x, y, z'
loop_
 _atom_site_type_symbol
 _atom_site_label
 _atom_site_symmetry_multiplicity
 _atom_site_fract_x
 _atom_site_fract_y
 _atom_site_fract_z
 _atom_site_occupancy
  F  F0  1  0.674738  0.075262  0.075262  1
  F  F1  1  0.674738  0.075262  0.674738  1
  F  F2  1  0.325262  0.924738  0.924738  1
  F  F3  1  0.075262  0.674738  0.674738  1
  F  F4  1  0.924738  0.325262  0.924738  1
  F  F5  1  0.924738  0.924738  0.325262  1
  F  F6  1  0.075262  0.674738  0.075262  1
  F  F7  1  0.325262  0.924738  0.325262  1
  F  F8  1  0.924738  0.325262  0.325262  1
  F  F9  1  0.674738  0.674738  0.075262  1
  F  F10  1  0.075262  0.075262  0.674738  1
  F  F11  1  0.325262  0.325262  0.924738  1
  S  S12  1  0.375000  0.375000  0.375000  1
  S  S13  1  0.625000  0.625000  0.625000  1
  Mn  Mn14  1  0.000000  0.500000  0.000000  1
  Mn  Mn15  1  0.500000  0.000000  0.000000  1
  Mn  Mn16  1  0.000000  0.000000  0.500000  1
  Mn  Mn17  1  0.000000  0.000000  0.000000  1
  Hg  Hg18  1  0.500000  0.000000  0.500000  1
  Hg  Hg19  1  0.000000  0.500000  0.500000  1
  Hg  Hg20  1  0.500000  0.500000  0.000000  1
  Hg  Hg21  1  0.500000  0.500000  0.500000  1
