# generated using pymatgen
data_Rb4Ti2P6Se25
_symmetry_space_group_name_H-M   'P 1'
_cell_length_a   7.03378158
_cell_length_b   18.70935421
_cell_length_c   19.51167412
_cell_angle_alpha   88.05835281
_cell_angle_beta   79.61593938
_cell_angle_gamma   79.16536740
_symmetry_Int_Tables_number   1
_chemical_formula_structural   Rb4Ti2P6Se25
_chemical_formula_sum   'Rb8 Ti4 P12 Se50'
_cell_volume   2480.61084353
_cell_formula_units_Z   2
loop_
 _symmetry_equiv_pos_site_id
 _symmetry_equiv_pos_as_xyz
  1  'x, y, z'
loop_
 _atom_site_type_symbol
 _atom_site_label
 _atom_site_symmetry_multiplicity
 _atom_site_fract_x
 _atom_site_fract_y
 _atom_site_fract_z
 _atom_site_occupancy
  Rb  Rb0  1  0.066772  0.146317  0.852763  1
  Rb  Rb1  1  0.628616  0.113725  0.289108  1
  Rb  Rb2  1  0.669535  0.646317  0.647237  1
  Rb  Rb3  1  0.963089  0.353683  0.352763  1
  Rb  Rb4  1  0.492340  0.386275  0.789108  1
  Rb  Rb5  1  0.065852  0.853683  0.147237  1
  Rb  Rb6  1  0.031449  0.886275  0.710892  1
  Rb  Rb7  1  0.667724  0.613725  0.210892  1
  Ti  Ti8  1  0.593200  0.752243  0.436800  1
  Ti  Ti9  1  0.780000  0.252243  0.063200  1
  Ti  Ti10  1  0.095443  0.747757  0.936800  1
  Ti  Ti11  1  0.782243  0.247757  0.563200  1
  P  P12  1  0.657778  0.570981  0.430334  1
  P  P13  1  0.659093  0.429019  0.569666  1
  P  P14  1  0.071657  0.665275  0.787767  1
  P  P15  1  0.838113  0.070981  0.069666  1
  P  P16  1  0.609424  0.165275  0.712233  1
  P  P17  1  0.486932  0.834725  0.287767  1
  P  P18  1  0.524698  0.334725  0.212233  1
  P  P19  1  0.207884  0.648533  0.075843  1
  P  P20  1  0.978759  0.929019  0.930334  1
  P  P21  1  0.606417  0.851467  0.575843  1
  P  P22  1  0.932260  0.351467  0.924157  1
  P  P23  1  0.033726  0.148533  0.424157  1
  Se  Se24  1  0.842174  0.740679  0.858721  1
  Se  Se25  1  0.857933  0.500000  0.500000  1
  Se  Se26  1  0.310821  0.446038  0.221622  1
  Se  Se27  1  0.560129  0.191372  0.821438  1
  Se  Se28  1  0.377735  0.723052  0.008925  1
  Se  Se29  1  0.888773  0.354879  0.617798  1
  Se  Se30  1  0.425654  0.495495  0.637958  1
  Se  Se31  1  0.349962  0.838327  0.527596  1
  Se  Se32  1  0.256571  0.854879  0.882202  1
  Se  Se33  1  0.131566  0.691372  0.678562  1
  Se  Se34  1  0.993651  0.145121  0.117798  1
  Se  Se35  1  0.983885  0.464075  0.955191  1
  Se  Se36  1  0.197960  0.035925  0.455191  1
  Se  Se37  1  0.916670  0.157391  0.653569  1
  Se  Se38  1  0.107933  0.000000  0.000000  1
  Se  Se39  1  0.938289  0.661673  0.027596  1
  Se  Se40  1  0.282443  0.946038  0.278378  1
  Se  Se41  1  0.559108  0.504505  0.362042  1
  Se  Se42  1  0.450895  0.240679  0.641279  1
  Se  Se43  1  0.978481  0.553962  0.778378  1
  Se  Se44  1  0.824481  0.848948  0.996313  1
  Se  Se45  1  0.501501  0.308628  0.321438  1
  Se  Se46  1  0.417117  0.038200  0.612645  1
  Se  Se47  1  0.689076  0.964075  0.544809  1
  Se  Se48  1  0.441574  0.259321  0.141279  1
  Se  Se49  1  0.092664  0.162736  0.313070  1
  Se  Se50  1  0.005399  0.337264  0.813070  1
  Se  Se51  1  0.861450  0.645121  0.382202  1
  Se  Se52  1  0.779761  0.538200  0.887355  1
  Se  Se53  1  0.067961  0.961800  0.387355  1
  Se  Se54  1  0.671149  0.004505  0.137958  1
  Se  Se55  1  0.715885  0.161673  0.472404  1
  Se  Se56  1  0.332853  0.759321  0.358721  1
  Se  Se57  1  0.423429  0.651052  0.496313  1
  Se  Se58  1  0.205316  0.461800  0.112645  1
  Se  Se59  1  0.155734  0.662736  0.186930  1
  Se  Se60  1  0.403152  0.535925  0.044809  1
  Se  Se61  1  0.320239  0.657391  0.846431  1
  Se  Se62  1  0.136660  0.223052  0.491075  1
  Se  Se63  1  0.570794  0.348948  0.503687  1
  Se  Se64  1  0.669742  0.151052  0.003687  1
  Se  Se65  1  0.506859  0.053962  0.721622  1
  Se  Se66  1  0.850787  0.776948  0.508925  1
  Se  Se67  1  0.109712  0.276948  0.991075  1
  Se  Se68  1  0.727630  0.842609  0.346431  1
  Se  Se69  1  0.627558  0.338327  0.972404  1
  Se  Se70  1  0.572939  0.808628  0.178562  1
  Se  Se71  1  0.568469  0.837264  0.686930  1
  Se  Se72  1  0.824061  0.342609  0.153569  1
  Se  Se73  1  0.813612  0.995495  0.862042  1
