# generated using pymatgen
data_Ga2NiCl8
_symmetry_space_group_name_H-M   'P 1'
_cell_length_a   8.02515356
_cell_length_b   9.63753364
_cell_length_c   9.92303475
_cell_angle_alpha   73.44524179
_cell_angle_beta   66.14834844
_cell_angle_gamma   65.39570024
_symmetry_Int_Tables_number   1
_chemical_formula_structural   Ga2NiCl8
_chemical_formula_sum   'Ga4 Ni2 Cl16'
_cell_volume   631.89464826
_cell_formula_units_Z   2
loop_
 _symmetry_equiv_pos_site_id
 _symmetry_equiv_pos_as_xyz
  1  'x, y, z'
loop_
 _atom_site_type_symbol
 _atom_site_label
 _atom_site_symmetry_multiplicity
 _atom_site_fract_x
 _atom_site_fract_y
 _atom_site_fract_z
 _atom_site_occupancy
  Ga  Ga0  1  0.672575  0.135379  0.032711  1
  Ga  Ga1  1  0.327425  0.864622  0.967290  1
  Ga  Ga2  1  0.840664  0.364621  0.467290  1
  Ga  Ga3  1  0.159336  0.635378  0.532710  1
  Ni  Ni4  1  -0.002788  0.250000  0.750000  1
  Ni  Ni5  1  1.002788  0.750000  0.250000  1
  Cl  Cl6  1  0.868177  0.784455  0.508743  1
  Cl  Cl7  1  0.131823  0.215545  0.491257  1
  Cl  Cl8  1  0.687749  0.242122  0.441935  1
  Cl  Cl9  1  0.628194  0.742122  0.941935  1
  Cl  Cl10  1  0.838626  0.284455  0.008743  1
  Cl  Cl11  1  0.857423  0.558055  0.280197  1
  Cl  Cl12  1  0.146919  0.945204  0.189737  1
  Cl  Cl13  1  0.281860  0.554796  0.310263  1
  Cl  Cl14  1  0.142577  0.441945  0.719803  1
  Cl  Cl15  1  0.312251  0.757878  0.558065  1
  Cl  Cl16  1  0.695674  0.941945  0.219803  1
  Cl  Cl17  1  0.161375  0.715545  0.991257  1
  Cl  Cl18  1  0.371806  0.257878  0.058065  1
  Cl  Cl19  1  0.304326  0.058055  0.780197  1
  Cl  Cl20  1  0.718140  0.445204  0.689737  1
  Cl  Cl21  1  0.853081  0.054796  0.810263  1
