# generated using pymatgen
data_Cu4Si2NiS7
_symmetry_space_group_name_H-M   'P 1'
_cell_length_a   5.28272157
_cell_length_b   6.34672008
_cell_length_c   8.17813921
_cell_angle_alpha   97.92696428
_cell_angle_beta   89.99580887
_cell_angle_gamma   114.59944814
_symmetry_Int_Tables_number   1
_chemical_formula_structural   Cu4Si2NiS7
_chemical_formula_sum   'Si2 Cu4 Ni1 S7'
_cell_volume   246.42705589
_cell_formula_units_Z   1
loop_
 _symmetry_equiv_pos_site_id
 _symmetry_equiv_pos_as_xyz
  1  'x, y, z'
loop_
 _atom_site_type_symbol
 _atom_site_label
 _atom_site_symmetry_multiplicity
 _atom_site_fract_x
 _atom_site_fract_y
 _atom_site_fract_z
 _atom_site_occupancy
  Si  Si0  1  0.434306  0.851139  0.282282  1
  Cu  Cu1  1  0.841128  0.720203  0.565193  1
  Si  Si2  1  0.583159  0.148762  0.717706  1
  Cu  Cu3  1  0.120752  0.279894  0.434786  1
  Cu  Cu4  1  0.284855  0.579877  0.860679  1
  Cu  Cu5  1  0.705077  0.420148  0.139322  1
  Ni  Ni6  1  0.999877  0.000169  -0.000004  1
  S  S7  1  0.512110  0.570004  0.350810  1
  S  S8  1  0.111733  0.723520  0.085625  1
  S  S9  1  0.804849  0.126483  0.213273  1
  S  S10  1  0.268480  0.999984  0.500010  1
  S  S11  1  0.678398  0.873421  0.786811  1
  S  S12  1  0.942117  0.429982  0.649205  1
  S  S13  1  0.388159  0.276414  0.914301  1
