# generated using pymatgen
data_La3Si2Cl3O7
_symmetry_space_group_name_H-M   'P 1'
_cell_length_a   5.41138954
_cell_length_b   7.97231568
_cell_length_c   12.24198524
_cell_angle_alpha   90.00000000
_cell_angle_beta   90.00000000
_cell_angle_gamma   108.91280781
_symmetry_Int_Tables_number   1
_chemical_formula_structural   La3Si2Cl3O7
_chemical_formula_sum   'La6 Si4 Cl6 O14'
_cell_volume   499.62275220
_cell_formula_units_Z   2
loop_
 _symmetry_equiv_pos_site_id
 _symmetry_equiv_pos_as_xyz
  1  'x, y, z'
loop_
 _atom_site_type_symbol
 _atom_site_label
 _atom_site_symmetry_multiplicity
 _atom_site_fract_x
 _atom_site_fract_y
 _atom_site_fract_z
 _atom_site_occupancy
  La  La0  1  0.022877  0.421194  0.505636  1
  La  La1  1  0.977123  0.578806  0.005636  1
  La  La2  1  0.438182  0.300051  0.251986  1
  La  La3  1  0.287065  0.970476  0.530663  1
  La  La4  1  0.561818  0.699949  0.751986  1
  La  La5  1  0.712935  0.029524  0.030663  1
  Si  Si6  1  0.216161  0.935209  0.843310  1
  Si  Si7  1  0.608318  0.683274  0.455522  1
  Si  Si8  1  0.783839  0.064791  0.343310  1
  Si  Si9  1  0.391682  0.316726  0.955522  1
  Cl  Cl10  1  0.160905  0.940493  0.129802  1
  Cl  Cl11  1  0.986074  0.505720  0.253451  1
  Cl  Cl12  1  0.839095  0.059507  0.629802  1
  Cl  Cl13  1  0.013926  0.494280  0.753451  1
  Cl  Cl14  1  0.543547  0.664560  0.123970  1
  Cl  Cl15  1  0.456453  0.335440  0.623970  1
  O  O16  1  0.899624  0.690916  0.496316  1
  O  O17  1  0.558015  0.498065  0.893155  1
  O  O18  1  0.441985  0.501935  0.393155  1
  O  O19  1  0.100376  0.309084  0.996316  1
  O  O20  1  0.731397  0.096629  0.216053  1
  O  O21  1  0.588503  0.303972  0.056965  1
  O  O22  1  0.090524  0.127456  0.381701  1
  O  O23  1  0.379676  0.138858  0.882776  1
  O  O24  1  0.641578  0.189760  0.410593  1
  O  O25  1  0.909476  0.872544  0.881701  1
  O  O26  1  0.358422  0.810240  0.910593  1
  O  O27  1  0.411497  0.696028  0.556965  1
  O  O28  1  0.620324  0.861142  0.382776  1
  O  O29  1  0.268603  0.903371  0.716053  1
