# generated using pymatgen
data_P2IrClF6
_symmetry_space_group_name_H-M   'P 1'
_cell_length_a   10.45357360
_cell_length_b   10.73877441
_cell_length_c   13.39268466
_cell_angle_alpha   101.19362305
_cell_angle_beta   90.00000000
_cell_angle_gamma   90.00000000
_symmetry_Int_Tables_number   1
_chemical_formula_structural   P2IrClF6
_chemical_formula_sum   'P16 Ir8 Cl8 F48'
_cell_volume   1474.84325246
_cell_formula_units_Z   8
loop_
 _symmetry_equiv_pos_site_id
 _symmetry_equiv_pos_as_xyz
  1  'x, y, z'
loop_
 _atom_site_type_symbol
 _atom_site_label
 _atom_site_symmetry_multiplicity
 _atom_site_fract_x
 _atom_site_fract_y
 _atom_site_fract_z
 _atom_site_occupancy
  P  P0  1  0.098518  0.011992  0.759984  1
  P  P1  1  0.361182  0.986624  0.256274  1
  P  P2  1  0.401482  0.511992  0.259984  1
  P  P3  1  0.102605  0.806362  0.554509  1
  P  P4  1  0.901482  0.988008  0.240016  1
  P  P5  1  0.598518  0.488008  0.740016  1
  P  P6  1  0.358864  0.201780  0.452931  1
  P  P7  1  0.602605  0.693638  0.945491  1
  P  P8  1  0.138818  0.486624  0.756274  1
  P  P9  1  0.397395  0.306362  0.054509  1
  P  P10  1  0.638818  0.013376  0.743726  1
  P  P11  1  0.141136  0.701780  0.952931  1
  P  P12  1  0.641136  0.798220  0.547069  1
  P  P13  1  0.897395  0.193638  0.445491  1
  P  P14  1  0.858864  0.298220  0.047069  1
  P  P15  1  0.861182  0.513376  0.243726  1
  Ir  Ir16  1  0.727573  0.830520  0.695803  1
  Ir  Ir17  1  0.989006  0.169103  0.298819  1
  Ir  Ir18  1  0.489006  0.330897  0.201181  1
  Ir  Ir19  1  0.772427  0.330520  0.195803  1
  Ir  Ir20  1  0.272427  0.169480  0.304197  1
  Ir  Ir21  1  0.227573  0.669480  0.804197  1
  Ir  Ir22  1  0.510994  0.669103  0.798819  1
  Ir  Ir23  1  0.010994  0.830897  0.701181  1
  Cl  Cl24  1  0.635027  0.359575  0.344473  1
  Cl  Cl25  1  0.364973  0.640425  0.655527  1
  Cl  Cl26  1  0.628727  0.151366  0.143692  1
  Cl  Cl27  1  0.864973  0.859575  0.844473  1
  Cl  Cl28  1  0.135027  0.140426  0.155527  1
  Cl  Cl29  1  0.371273  0.848634  0.856308  1
  Cl  Cl30  1  0.871273  0.651366  0.643692  1
  Cl  Cl31  1  0.128727  0.348634  0.356308  1
  F  F32  1  0.610552  0.657419  0.494093  1
  F  F33  1  0.118717  0.436110  0.638897  1
  F  F34  1  0.235585  0.867644  0.538584  1
  F  F35  1  0.222168  0.664555  0.041914  1
  F  F36  1  0.287230  0.867895  0.280603  1
  F  F37  1  0.003758  0.454744  0.796008  1
  F  F38  1  0.277832  0.164555  0.541914  1
  F  F39  1  0.618717  0.063890  0.861103  1
  F  F40  1  0.472790  0.355168  0.967527  1
  F  F41  1  0.516713  0.366085  0.745351  1
  F  F42  1  0.881283  0.563890  0.361103  1
  F  F43  1  0.226971  0.054258  0.716248  1
  F  F44  1  0.712770  0.132105  0.719397  1
  F  F45  1  0.027210  0.855168  0.467527  1
  F  F46  1  0.371776  0.167198  0.995033  1
  F  F47  1  0.369331  0.545757  0.376928  1
  F  F48  1  0.889448  0.157419  0.994093  1
  F  F49  1  0.511790  0.862497  0.525444  1
  F  F50  1  0.787230  0.632105  0.219397  1
  F  F51  1  0.628224  0.832802  0.004967  1
  F  F52  1  0.996242  0.545256  0.203992  1
  F  F53  1  0.016713  0.133915  0.754649  1
  F  F54  1  0.869331  0.954243  0.123072  1
  F  F55  1  0.777832  0.335445  0.958086  1
  F  F56  1  0.722168  0.835445  0.458086  1
  F  F57  1  0.496242  0.954744  0.296008  1
  F  F58  1  0.630669  0.454243  0.623072  1
  F  F59  1  0.381283  0.936110  0.138897  1
  F  F60  1  0.735585  0.632356  0.961416  1
  F  F61  1  0.972790  0.144832  0.532473  1
  F  F62  1  0.488210  0.137503  0.474556  1
  F  F63  1  0.212770  0.367895  0.780603  1
  F  F64  1  0.130669  0.045757  0.876928  1
  F  F65  1  0.764415  0.132356  0.461416  1
  F  F66  1  0.389448  0.342581  0.505907  1
  F  F67  1  0.273029  0.554258  0.216248  1
  F  F68  1  0.871776  0.332802  0.504967  1
  F  F69  1  0.011790  0.637503  0.974556  1
  F  F70  1  0.264415  0.367644  0.038584  1
  F  F71  1  0.726971  0.445742  0.783752  1
  F  F72  1  0.527210  0.644832  0.032473  1
  F  F73  1  0.503758  0.045256  0.703992  1
  F  F74  1  0.110552  0.842581  0.005907  1
  F  F75  1  0.128224  0.667198  0.495033  1
  F  F76  1  0.983287  0.866085  0.245351  1
  F  F77  1  0.773029  0.945742  0.283752  1
  F  F78  1  0.988210  0.362497  0.025444  1
  F  F79  1  0.483287  0.633915  0.254649  1
