# generated using pymatgen
data_RbMgAs(H6O5)2
_symmetry_space_group_name_H-M   'P 1'
_cell_length_a   6.25185697
_cell_length_b   7.07271600
_cell_length_c   11.50929825
_cell_angle_alpha   90.00000000
_cell_angle_beta   90.00000000
_cell_angle_gamma   90.00000000
_symmetry_Int_Tables_number   1
_chemical_formula_structural   RbMgAs(H6O5)2
_chemical_formula_sum   'Rb2 Mg2 As2 H24 O20'
_cell_volume   508.91364783
_cell_formula_units_Z   2
loop_
 _symmetry_equiv_pos_site_id
 _symmetry_equiv_pos_as_xyz
  1  'x, y, z'
loop_
 _atom_site_type_symbol
 _atom_site_label
 _atom_site_symmetry_multiplicity
 _atom_site_fract_x
 _atom_site_fract_y
 _atom_site_fract_z
 _atom_site_occupancy
  Rb  Rb0  1  0.643544  0.000000  0.261869  1
  Rb  Rb1  1  0.356456  0.500000  0.761869  1
  Mg  Mg2  1  0.612940  0.000000  0.612308  1
  Mg  Mg3  1  0.387060  0.500000  0.112308  1
  As  As4  1  0.977234  0.500000  0.481343  1
  As  As5  1  0.022766  0.000000  0.981343  1
  H  H6  1  0.645328  0.258918  0.980793  1
  H  H7  1  0.809354  0.319670  0.684262  1
  H  H8  1  0.720119  0.500000  0.275808  1
  H  H9  1  0.407272  0.820316  0.966737  1
  H  H10  1  0.190646  0.819670  0.184262  1
  H  H11  1  0.354672  0.241082  0.480793  1
  H  H12  1  0.833508  0.500000  0.148560  1
  H  H13  1  0.645328  0.741082  0.980793  1
  H  H14  1  0.407272  0.179684  0.966737  1
  H  H15  1  0.989377  0.114451  0.493320  1
  H  H16  1  0.212587  0.699862  0.301164  1
  H  H17  1  0.190646  0.180330  0.184262  1
  H  H18  1  0.212587  0.300138  0.301164  1
  H  H19  1  0.592728  0.679684  0.466737  1
  H  H20  1  0.809354  0.680330  0.684262  1
  H  H21  1  0.010623  0.385549  0.993320  1
  H  H22  1  0.989377  0.885549  0.493320  1
  H  H23  1  0.354672  0.758918  0.480793  1
  H  H24  1  0.279881  0.000000  0.775808  1
  H  H25  1  0.787413  0.800138  0.801164  1
  H  H26  1  0.166492  0.000000  0.648560  1
  H  H27  1  0.592728  0.320316  0.466737  1
  H  H28  1  0.010623  0.614451  0.993320  1
  H  H29  1  0.787413  0.199862  0.801164  1
  O  O30  1  0.949429  0.500000  0.629812  1
  O  O31  1  0.726626  0.500000  0.416751  1
  O  O32  1  0.491609  0.292352  0.995235  1
  O  O33  1  0.273374  0.000000  0.916751  1
  O  O34  1  0.508391  0.792352  0.495235  1
  O  O35  1  0.280560  0.280912  0.222946  1
  O  O36  1  0.890786  0.798772  0.936018  1
  O  O37  1  0.890786  0.201228  0.936018  1
  O  O38  1  0.109214  0.298772  0.436018  1
  O  O39  1  0.050571  0.000000  0.129812  1
  O  O40  1  0.280560  0.719088  0.222946  1
  O  O41  1  0.926651  0.000000  0.533594  1
  O  O42  1  0.694621  0.500000  0.188926  1
  O  O43  1  0.491609  0.707648  0.995235  1
  O  O44  1  0.073349  0.500000  0.033594  1
  O  O45  1  0.109214  0.701228  0.436018  1
  O  O46  1  0.719440  0.219088  0.722946  1
  O  O47  1  0.508391  0.207648  0.495235  1
  O  O48  1  0.305379  0.000000  0.688926  1
  O  O49  1  0.719440  0.780912  0.722946  1
