# generated using pymatgen
data_Ho(Mo3S4)2
_symmetry_space_group_name_H-M   'P 1'
_cell_length_a   6.54502798
_cell_length_b   6.54502753
_cell_length_c   6.54502805
_cell_angle_alpha   89.45385033
_cell_angle_beta   89.45384635
_cell_angle_gamma   89.45384633
_symmetry_Int_Tables_number   1
_chemical_formula_structural   Ho(Mo3S4)2
_chemical_formula_sum   'Ho1 Mo6 S8'
_cell_volume   280.33393639
_cell_formula_units_Z   1
loop_
 _symmetry_equiv_pos_site_id
 _symmetry_equiv_pos_as_xyz
  1  'x, y, z'
loop_
 _atom_site_type_symbol
 _atom_site_label
 _atom_site_symmetry_multiplicity
 _atom_site_fract_x
 _atom_site_fract_y
 _atom_site_fract_z
 _atom_site_occupancy
  Ho  Ho0  1  0.000000  0.000000  0.000000  1
  Mo  Mo1  1  0.440995  0.578498  0.774200  1
  Mo  Mo2  1  0.578498  0.774200  0.440995  1
  Mo  Mo3  1  0.774200  0.440995  0.578498  1
  Mo  Mo4  1  0.225800  0.559005  0.421502  1
  Mo  Mo5  1  0.421502  0.225800  0.559005  1
  Mo  Mo6  1  0.559005  0.421502  0.225800  1
  S  S7  1  0.244442  0.874316  0.633701  1
  S  S8  1  0.633701  0.244442  0.874316  1
  S  S9  1  0.763873  0.763873  0.763873  1
  S  S10  1  0.874316  0.633701  0.244442  1
  S  S11  1  0.125684  0.366299  0.755558  1
  S  S12  1  0.236127  0.236127  0.236127  1
  S  S13  1  0.366299  0.755558  0.125684  1
  S  S14  1  0.755558  0.125684  0.366299  1
