# generated using pymatgen
data_Na2CrNiF7
_symmetry_space_group_name_H-M   'P 1'
_cell_length_a   7.28193580
_cell_length_b   7.38260504
_cell_length_c   7.38260516
_cell_angle_alpha   61.32969468
_cell_angle_beta   60.45005925
_cell_angle_gamma   60.45005558
_symmetry_Int_Tables_number   1
_chemical_formula_structural   Na2CrNiF7
_chemical_formula_sum   'Na4 Cr2 Ni2 F14'
_cell_volume   285.30350329
_cell_formula_units_Z   2
loop_
 _symmetry_equiv_pos_site_id
 _symmetry_equiv_pos_as_xyz
  1  'x, y, z'
loop_
 _atom_site_type_symbol
 _atom_site_label
 _atom_site_symmetry_multiplicity
 _atom_site_fract_x
 _atom_site_fract_y
 _atom_site_fract_z
 _atom_site_occupancy
  Na  Na0  1  0.000000  0.000000  0.000000  1
  Na  Na1  1  0.500000  0.500000  0.500000  1
  Na  Na2  1  0.500000  0.500000  0.000000  1
  Na  Na3  1  0.000000  0.500000  0.000000  1
  Cr  Cr4  1  0.000000  0.500000  0.500000  1
  Cr  Cr5  1  0.500000  0.000000  0.000000  1
  Ni  Ni6  1  0.500000  0.000000  0.500000  1
  Ni  Ni7  1  0.000000  0.000000  0.500000  1
  F  F8  1  0.409358  0.319848  0.861436  1
  F  F9  1  0.750000  0.105839  0.394161  1
  F  F10  1  0.814822  0.947251  0.820922  1
  F  F11  1  0.185178  0.052749  0.179078  1
  F  F12  1  0.685178  0.679078  0.552749  1
  F  F13  1  0.314822  0.320922  0.447251  1
  F  F14  1  0.090642  0.638564  0.180152  1
  F  F15  1  0.590642  0.680152  0.138564  1
  F  F16  1  0.250000  0.894161  0.605839  1
  F  F17  1  0.082995  0.679078  0.552749  1
  F  F18  1  0.917005  0.320922  0.447251  1
  F  F19  1  0.417005  0.947251  0.820922  1
  F  F20  1  0.909358  0.361436  0.819848  1
  F  F21  1  0.582995  0.052749  0.179078  1
