# generated using pymatgen
data_Ba8Ce3(SbO6)4
_symmetry_space_group_name_H-M   'P 1'
_cell_length_a   8.57489089
_cell_length_b   8.57489095
_cell_length_c   10.53582055
_cell_angle_alpha   114.01274450
_cell_angle_beta   114.01274465
_cell_angle_gamma   90.00000349
_symmetry_Int_Tables_number   1
_chemical_formula_structural   Ba8Ce3(SbO6)4
_chemical_formula_sum   'Ba8 Ce3 Sb4 O24'
_cell_volume   633.53947196
_cell_formula_units_Z   1
loop_
 _symmetry_equiv_pos_site_id
 _symmetry_equiv_pos_as_xyz
  1  'x, y, z'
loop_
 _atom_site_type_symbol
 _atom_site_label
 _atom_site_symmetry_multiplicity
 _atom_site_fract_x
 _atom_site_fract_y
 _atom_site_fract_z
 _atom_site_occupancy
  Ba  Ba0  1  0.345792  0.345792  0.232328  1
  Ba  Ba1  1  0.345792  0.886536  0.232328  1
  Ba  Ba2  1  0.113464  0.113464  0.767672  1
  Ba  Ba3  1  0.654208  0.113464  0.767672  1
  Ba  Ba4  1  0.886536  0.345792  0.232328  1
  Ba  Ba5  1  0.654208  0.654208  0.767672  1
  Ba  Ba6  1  0.113464  0.654208  0.767672  1
  Ba  Ba7  1  0.886536  0.886536  0.232328  1
  Ce  Ce8  1  0.250000  0.750000  0.500000  1
  Ce  Ce9  1  0.750000  0.250000  0.500000  1
  Ce  Ce10  1  0.500000  0.500000  0.000000  1
  Sb  Sb11  1  0.744719  0.744719  0.489438  1
  Sb  Sb12  1  0.255281  0.255281  0.510562  1
  Sb  Sb13  1  0.500000  0.000000  0.000000  1
  Sb  Sb14  1  0.000000  0.500000  0.000000  1
  O  O15  1  0.239539  0.500000  0.000000  1
  O  O16  1  0.370908  0.370908  0.741816  1
  O  O17  1  0.985093  0.746245  0.492491  1
  O  O18  1  0.014907  0.253755  0.507509  1
  O  O19  1  0.746245  0.507398  0.492491  1
  O  O20  1  0.760461  0.500000  1.000000  1
  O  O21  1  0.880252  0.380252  0.760504  1
  O  O22  1  0.000000  0.272541  1.000000  1
  O  O23  1  0.253755  0.492602  0.507509  1
  O  O24  1  0.500000  0.760461  1.000000  1
  O  O25  1  0.119748  0.619748  0.239496  1
  O  O26  1  0.253755  0.014907  0.507509  1
  O  O27  1  0.507398  0.746245  0.492491  1
  O  O28  1  0.629092  0.629092  0.258184  1
  O  O29  1  1.000000  0.727459  0.000000  1
  O  O30  1  0.500000  0.239539  0.000000  1
  O  O31  1  0.727459  1.000000  0.000000  1
  O  O32  1  0.746245  0.985093  0.492491  1
  O  O33  1  0.141007  0.141007  0.282014  1
  O  O34  1  0.619748  0.119748  0.239496  1
  O  O35  1  0.858993  0.858993  0.717986  1
  O  O36  1  0.272541  0.000000  1.000000  1
  O  O37  1  0.492602  0.253755  0.507509  1
  O  O38  1  0.380252  0.880252  0.760504  1
