# generated using pymatgen
data_ErNi3Ge2
_symmetry_space_group_name_H-M   'P 1'
_cell_length_a   18.00180292
_cell_length_b   18.00180326
_cell_length_c   3.80393221
_cell_angle_alpha   90.00000000
_cell_angle_beta   90.00000000
_cell_angle_gamma   119.99999936
_symmetry_Int_Tables_number   1
_chemical_formula_structural   ErNi3Ge2
_chemical_formula_sum   'Er12 Ni36 Ge24'
_cell_volume   1067.56767935
_cell_formula_units_Z   12
loop_
 _symmetry_equiv_pos_site_id
 _symmetry_equiv_pos_as_xyz
  1  'x, y, z'
loop_
 _atom_site_type_symbol
 _atom_site_label
 _atom_site_symmetry_multiplicity
 _atom_site_fract_x
 _atom_site_fract_y
 _atom_site_fract_z
 _atom_site_occupancy
  Er  Er0  1  0.166575  0.333335  0.000000  1
  Er  Er1  1  0.666665  0.833240  0.000000  1
  Er  Er2  1  0.901035  0.660247  0.000000  1
  Er  Er3  1  0.993582  0.425956  0.000000  1
  Er  Er4  1  0.166760  0.833425  0.000000  1
  Er  Er5  1  0.000000  0.000000  0.500000  1
  Er  Er6  1  0.339753  0.240788  0.000000  1
  Er  Er7  1  0.574044  0.567626  0.000000  1
  Er  Er8  1  0.759212  0.098965  0.000000  1
  Er  Er9  1  0.432374  0.006418  0.000000  1
  Er  Er10  1  0.666667  0.333333  0.000000  1
  Er  Er11  1  0.333333  0.666667  0.500000  1
  Ni  Ni12  1  0.506053  0.285895  0.500000  1
  Ni  Ni13  1  0.278167  0.034737  0.000000  1
  Ni  Ni14  1  0.154545  0.065608  0.000000  1
  Ni  Ni15  1  0.389821  0.123382  0.500000  1
  Ni  Ni16  1  0.180063  0.712874  0.500000  1
  Ni  Ni17  1  0.827186  0.380754  0.500000  1
  Ni  Ni18  1  0.733561  0.610179  0.500000  1
  Ni  Ni19  1  0.184760  0.191834  0.500000  1
  Ni  Ni20  1  0.367893  0.423122  0.000000  1
  Ni  Ni21  1  0.055229  0.632107  0.000000  1
  Ni  Ni22  1  0.456743  0.400189  0.500000  1
  Ni  Ni23  1  0.911063  0.845455  0.000000  1
  Ni  Ni24  1  0.422401  0.821244  0.000000  1
  Ni  Ni25  1  0.007074  0.815240  0.500000  1
  Ni  Ni26  1  0.876618  0.266439  0.500000  1
  Ni  Ni27  1  0.148404  0.474787  0.500000  1
  Ni  Ni28  1  0.287126  0.467189  0.500000  1
  Ni  Ni29  1  0.934392  0.088937  0.000000  1
  Ni  Ni30  1  0.398843  0.577599  0.000000  1
  Ni  Ni31  1  0.965263  0.243430  0.000000  1
  Ni  Ni32  1  0.943446  0.543257  0.500000  1
  Ni  Ni33  1  0.619246  0.446432  0.500000  1
  Ni  Ni34  1  0.599811  0.056554  0.500000  1
  Ni  Ni35  1  0.326383  0.851596  0.500000  1
  Ni  Ni36  1  0.532811  0.819937  0.500000  1
  Ni  Ni37  1  0.779842  0.493947  0.500000  1
  Ni  Ni38  1  0.576878  0.944771  0.000000  1
  Ni  Ni39  1  0.178756  0.601157  0.000000  1
  Ni  Ni40  1  0.525213  0.673617  0.500000  1
  Ni  Ni41  1  0.046127  0.199476  0.500000  1
  Ni  Ni42  1  0.800524  0.846651  0.500000  1
  Ni  Ni43  1  0.808166  0.992926  0.500000  1
  Ni  Ni44  1  0.553568  0.172814  0.500000  1
  Ni  Ni45  1  0.153349  0.953873  0.500000  1
  Ni  Ni46  1  0.714105  0.220158  0.500000  1
  Ni  Ni47  1  0.756570  0.721833  0.000000  1
  Ge  Ge48  1  0.477961  0.914241  0.500000  1
  Ge  Ge49  1  0.297700  0.336966  0.500000  1
  Ge  Ge50  1  0.523419  0.380308  0.000000  1
  Ge  Ge51  1  0.086124  0.145674  0.000000  1
  Ge  Ge52  1  0.809942  0.286345  0.000000  1
  Ge  Ge53  1  0.247559  0.103066  0.500000  1
  Ge  Ge54  1  0.436280  0.522039  0.500000  1
  Ge  Ge55  1  0.619692  0.143111  0.000000  1
  Ge  Ge56  1  0.059551  0.913876  0.000000  1
  Ge  Ge57  1  0.478997  0.726109  0.000000  1
  Ge  Ge58  1  0.856889  0.476581  0.000000  1
  Ge  Ge59  1  0.663034  0.960734  0.500000  1
  Ge  Ge60  1  0.035429  0.329642  0.500000  1
  Ge  Ge61  1  0.713655  0.523597  0.000000  1
  Ge  Ge62  1  0.896934  0.144493  0.500000  1
  Ge  Ge63  1  0.854326  0.940449  0.000000  1
  Ge  Ge64  1  0.039266  0.702300  0.500000  1
  Ge  Ge65  1  0.085759  0.563720  0.500000  1
  Ge  Ge66  1  0.294213  0.964571  0.500000  1
  Ge  Ge67  1  0.476403  0.190058  0.000000  1
  Ge  Ge68  1  0.855507  0.752441  0.500000  1
  Ge  Ge69  1  0.670358  0.705787  0.500000  1
  Ge  Ge70  1  0.273891  0.752888  0.000000  1
  Ge  Ge71  1  0.247112  0.521003  0.000000  1
