# generated using pymatgen
data_LaH18C3S3(O2F)9
_symmetry_space_group_name_H-M   'P 1'
_cell_length_a   14.14781295
_cell_length_b   14.14781259
_cell_length_c   7.43141896
_cell_angle_alpha   90.00000000
_cell_angle_beta   90.00000000
_cell_angle_gamma   120.00000084
_symmetry_Int_Tables_number   1
_chemical_formula_structural   LaH18C3S3(O2F)9
_chemical_formula_sum   'La2 H36 C6 S6 O36 F18'
_cell_volume   1288.19313881
_cell_formula_units_Z   2
loop_
 _symmetry_equiv_pos_site_id
 _symmetry_equiv_pos_as_xyz
  1  'x, y, z'
loop_
 _atom_site_type_symbol
 _atom_site_label
 _atom_site_symmetry_multiplicity
 _atom_site_fract_x
 _atom_site_fract_y
 _atom_site_fract_z
 _atom_site_occupancy
  La  La0  1  0.333333  0.666667  0.250000  1
  La  La1  1  0.666667  0.333333  0.750000  1
  O  O2  1  0.347318  0.487778  0.250000  1
  O  O3  1  0.859540  0.347318  0.750000  1
  O  O4  1  0.487778  0.140460  0.750000  1
  O  O5  1  0.512222  0.859540  0.250000  1
  O  O6  1  0.140460  0.652682  0.250000  1
  O  O7  1  0.652682  0.512222  0.750000  1
  H  H8  1  0.354174  0.450865  0.143222  1
  H  H9  1  0.903308  0.354174  0.643222  1
  H  H10  1  0.450865  0.096692  0.643222  1
  H  H11  1  0.549134  0.903308  0.143222  1
  H  H12  1  0.096692  0.645826  0.143222  1
  H  H13  1  0.645826  0.549134  0.643222  1
  H  H14  1  0.645826  0.549134  0.856778  1
  H  H15  1  0.096692  0.645826  0.356778  1
  H  H16  1  0.549134  0.903308  0.356778  1
  H  H17  1  0.450865  0.096692  0.856778  1
  H  H18  1  0.903308  0.354174  0.856778  1
  H  H19  1  0.354174  0.450865  0.356778  1
  O  O20  1  0.204188  0.542106  0.492267  1
  O  O21  1  0.662082  0.204188  0.992267  1
  O  O22  1  0.542106  0.337918  0.992267  1
  O  O23  1  0.457894  0.662082  0.492267  1
  O  O24  1  0.337918  0.795812  0.492267  1
  O  O25  1  0.795812  0.457894  0.992267  1
  O  O26  1  0.795812  0.457894  0.507733  1
  O  O27  1  0.337918  0.795812  0.007733  1
  O  O28  1  0.457894  0.662082  0.007733  1
  O  O29  1  0.542106  0.337918  0.507733  1
  O  O30  1  0.662082  0.204188  0.507733  1
  O  O31  1  0.204188  0.542106  0.007733  1
  H  H32  1  0.126891  0.491321  0.464388  1
  H  H33  1  0.635569  0.126891  0.964388  1
  H  H34  1  0.491321  0.364431  0.964388  1
  H  H35  1  0.508679  0.635569  0.464388  1
  H  H36  1  0.364431  0.873109  0.464388  1
  H  H37  1  0.873109  0.508679  0.964388  1
  H  H38  1  0.873109  0.508679  0.535612  1
  H  H39  1  0.364431  0.873109  0.035612  1
  H  H40  1  0.508679  0.635569  0.035612  1
  H  H41  1  0.491321  0.364431  0.535612  1
  H  H42  1  0.635569  0.126891  0.535612  1
  H  H43  1  0.126891  0.491321  0.035612  1
  H  H44  1  0.226416  0.504105  0.578989  1
  H  H45  1  0.722311  0.226416  0.078989  1
  H  H46  1  0.504105  0.277689  0.078989  1
  H  H47  1  0.495895  0.722311  0.578989  1
  H  H48  1  0.277689  0.773584  0.578989  1
  H  H49  1  0.773584  0.495895  0.078989  1
  H  H50  1  0.773584  0.495895  0.421011  1
  H  H51  1  0.277689  0.773584  0.921011  1
  H  H52  1  0.495895  0.722311  0.921011  1
  H  H53  1  0.504105  0.277689  0.421011  1
  H  H54  1  0.722311  0.226416  0.421011  1
  H  H55  1  0.226416  0.504105  0.921011  1
  S  S56  1  0.319896  0.380631  0.750000  1
  S  S57  1  0.939265  0.319896  0.250000  1
  S  S58  1  0.380631  0.060735  0.250000  1
  S  S59  1  0.619369  0.939265  0.750000  1
  S  S60  1  0.060735  0.680104  0.750000  1
  S  S61  1  0.680104  0.619369  0.250000  1
  O  O62  1  0.249453  0.429275  0.750000  1
  O  O63  1  0.820177  0.249453  0.250000  1
  O  O64  1  0.429275  0.179823  0.250000  1
  O  O65  1  0.570725  0.820177  0.750000  1
  O  O66  1  0.179823  0.750547  0.750000  1
  O  O67  1  0.750547  0.570725  0.250000  1
  O  O68  1  0.382364  0.399456  0.583633  1
  O  O69  1  0.982908  0.382364  0.083633  1
  O  O70  1  0.399456  0.017092  0.083633  1
  O  O71  1  0.600544  0.982908  0.583633  1
  O  O72  1  0.017092  0.617636  0.583633  1
  O  O73  1  0.617636  0.600544  0.083633  1
  O  O74  1  0.617636  0.600544  0.416367  1
  O  O75  1  0.017092  0.617636  0.916367  1
  O  O76  1  0.600544  0.982908  0.916367  1
  O  O77  1  0.399456  0.017092  0.416367  1
  O  O78  1  0.982908  0.382364  0.416367  1
  O  O79  1  0.382364  0.399456  0.916367  1
  C  C80  1  0.221796  0.230222  0.750000  1
  C  C81  1  0.991574  0.221796  0.250000  1
  C  C82  1  0.230222  0.008426  0.250000  1
  C  C83  1  0.769778  0.991574  0.750000  1
  C  C84  1  0.008426  0.778204  0.750000  1
  C  C85  1  0.778204  0.769778  0.250000  1
  F  F86  1  0.278124  0.176046  0.750000  1
  F  F87  1  0.102078  0.278124  0.250000  1
  F  F88  1  0.176046  0.897922  0.250000  1
  F  F89  1  0.823954  0.102078  0.750000  1
  F  F90  1  0.897922  0.721876  0.750000  1
  F  F91  1  0.721876  0.823954  0.250000  1
  F  F92  1  0.157824  0.201478  0.602168  1
  F  F93  1  0.956346  0.157824  0.102168  1
  F  F94  1  0.201478  0.043654  0.102168  1
  F  F95  1  0.798522  0.956346  0.602168  1
  F  F96  1  0.043654  0.842176  0.602168  1
  F  F97  1  0.842176  0.798522  0.102168  1
  F  F98  1  0.842176  0.798522  0.397832  1
  F  F99  1  0.043654  0.842176  0.897832  1
  F  F100  1  0.798522  0.956346  0.897832  1
  F  F101  1  0.201478  0.043654  0.397832  1
  F  F102  1  0.956346  0.157824  0.397832  1
  F  F103  1  0.157824  0.201478  0.897832  1
