# generated using pymatgen
data_ZnS
_symmetry_space_group_name_H-M   'P 1'
_cell_length_a   3.85320441
_cell_length_b   3.85320430
_cell_length_c   107.07230229
_cell_angle_alpha   90.00000000
_cell_angle_beta   90.00000000
_cell_angle_gamma   120.00000087
_symmetry_Int_Tables_number   1
_chemical_formula_structural   ZnS
_chemical_formula_sum   'Zn34 S34'
_cell_volume   1376.73975643
_cell_formula_units_Z   34
loop_
 _symmetry_equiv_pos_site_id
 _symmetry_equiv_pos_as_xyz
  1  'x, y, z'
loop_
 _atom_site_type_symbol
 _atom_site_label
 _atom_site_symmetry_multiplicity
 _atom_site_fract_x
 _atom_site_fract_y
 _atom_site_fract_z
 _atom_site_occupancy
  Zn  Zn0  1  0.000000  0.000000  0.382347  1
  Zn  Zn1  1  0.333333  0.666667  0.323546  1
  Zn  Zn2  1  0.000000  0.000000  0.941604  1
  Zn  Zn3  1  0.666667  0.333333  0.470592  1
  Zn  Zn4  1  0.666667  0.333333  0.205915  1
  Zn  Zn5  1  0.666667  0.333333  0.294116  1
  Zn  Zn6  1  0.666667  0.333333  0.352975  1
  Zn  Zn7  1  0.666667  0.333333  0.647048  1
  Zn  Zn8  1  0.666667  0.333333  0.970943  1
  Zn  Zn9  1  0.666667  0.333333  0.764722  1
  Zn  Zn10  1  0.333333  0.666667  0.411771  1
  Zn  Zn11  1  0.000000  0.000000  0.088221  1
  Zn  Zn12  1  0.000000  0.000000  0.882507  1
  Zn  Zn13  1  0.000000  0.000000  0.735324  1
  Zn  Zn14  1  0.000000  0.000000  0.264713  1
  Zn  Zn15  1  0.000000  0.000000  0.441197  1
  Zn  Zn16  1  0.666667  0.333333  0.058828  1
  Zn  Zn17  1  0.333333  0.666667  0.705886  1
  Zn  Zn18  1  0.333333  0.666667  0.029472  1
  Zn  Zn19  1  0.000000  0.000000  0.529383  1
  Zn  Zn20  1  0.000000  0.000000  0.000201  1
  Zn  Zn21  1  0.000000  0.000000  0.176474  1
  Zn  Zn22  1  0.333333  0.666667  0.617644  1
  Zn  Zn23  1  0.666667  0.333333  0.852997  1
  Zn  Zn24  1  0.000000  0.000000  0.823533  1
  Zn  Zn25  1  0.000000  0.000000  0.676451  1
  Zn  Zn26  1  0.333333  0.666667  0.912075  1
  Zn  Zn27  1  0.333333  0.666667  0.794131  1
  Zn  Zn28  1  0.666667  0.333333  0.147031  1
  Zn  Zn29  1  0.333333  0.666667  0.117630  1
  Zn  Zn30  1  0.000000  0.000000  0.588247  1
  Zn  Zn31  1  0.666667  0.333333  0.558813  1
  Zn  Zn32  1  0.333333  0.666667  0.235308  1
  Zn  Zn33  1  0.333333  0.666667  0.499991  1
  S  S34  1  0.000000  0.000000  0.286763  1
  S  S35  1  0.666667  0.333333  0.316161  1
  S  S36  1  0.000000  0.000000  0.022185  1
  S  S37  1  0.333333  0.666667  0.051493  1
  S  S38  1  0.666667  0.333333  0.080872  1
  S  S39  1  0.000000  0.000000  0.610290  1
  S  S40  1  0.333333  0.666667  0.522036  1
  S  S41  1  0.000000  0.000000  0.845586  1
  S  S42  1  0.000000  0.000000  0.198560  1
  S  S43  1  0.000000  0.000000  0.963622  1
  S  S44  1  0.333333  0.666667  0.139684  1
  S  S45  1  0.333333  0.666667  0.727969  1
  S  S46  1  0.333333  0.666667  0.639697  1
  S  S47  1  0.333333  0.666667  0.816181  1
  S  S48  1  0.333333  0.666667  0.934210  1
  S  S49  1  0.666667  0.333333  0.786774  1
  S  S50  1  0.333333  0.666667  0.257357  1
  S  S51  1  0.333333  0.666667  0.433843  1
  S  S52  1  0.000000  0.000000  0.110273  1
  S  S53  1  0.000000  0.000000  0.757365  1
  S  S54  1  0.000000  0.000000  0.404384  1
  S  S55  1  0.000000  0.000000  0.551424  1
  S  S56  1  0.666667  0.333333  0.492638  1
  S  S57  1  0.666667  0.333333  0.992953  1
  S  S58  1  0.666667  0.333333  0.875100  1
  S  S59  1  0.666667  0.333333  0.580895  1
  S  S60  1  0.666667  0.333333  0.169078  1
  S  S61  1  0.666667  0.333333  0.669099  1
  S  S62  1  0.000000  0.000000  0.698496  1
  S  S63  1  0.000000  0.000000  0.463234  1
  S  S64  1  0.333333  0.666667  0.345623  1
  S  S65  1  0.666667  0.333333  0.375005  1
  S  S66  1  0.000000  0.000000  0.904600  1
  S  S67  1  0.666667  0.333333  0.227956  1
