# generated using pymatgen
data_Gd4Ti(SeO)4
_symmetry_space_group_name_H-M   'P 1'
_cell_length_a   3.77731670
_cell_length_b   8.20491489
_cell_length_c   9.47675935
_cell_angle_alpha   66.69814427
_cell_angle_beta   78.50433792
_cell_angle_gamma   76.69196380
_symmetry_Int_Tables_number   1
_chemical_formula_structural   Gd4Ti(SeO)4
_chemical_formula_sum   'Gd4 Ti1 Se4 O4'
_cell_volume   260.57642956
_cell_formula_units_Z   1
loop_
 _symmetry_equiv_pos_site_id
 _symmetry_equiv_pos_as_xyz
  1  'x, y, z'
loop_
 _atom_site_type_symbol
 _atom_site_label
 _atom_site_symmetry_multiplicity
 _atom_site_fract_x
 _atom_site_fract_y
 _atom_site_fract_z
 _atom_site_occupancy
  Gd  Gd0  1  0.475208  0.719024  0.330560  1
  Gd  Gd1  1  0.524792  0.280976  0.669440  1
  Gd  Gd2  1  0.776419  0.121231  0.325932  1
  Gd  Gd3  1  0.223581  0.878769  0.674068  1
  Ti  Ti4  1  0.000000  0.000000  0.000000  1
  Se  Se5  1  0.115516  0.400736  0.368231  1
  Se  Se6  1  0.621461  0.773183  0.983895  1
  Se  Se7  1  0.884484  0.599264  0.631769  1
  Se  Se8  1  0.378539  0.226817  0.016105  1
  O  O9  1  0.682915  0.044117  0.590052  1
  O  O10  1  0.051583  0.117408  0.779426  1
  O  O11  1  0.948417  0.882592  0.220574  1
  O  O12  1  0.317085  0.955883  0.409948  1
