# generated using pymatgen
data_K3Bi5(AsO4)6
_symmetry_space_group_name_H-M   'P 1'
_cell_length_a   7.31358299
_cell_length_b   9.90449843
_cell_length_c   18.02159754
_cell_angle_alpha   83.08434809
_cell_angle_beta   78.29097273
_cell_angle_gamma   68.33918726
_symmetry_Int_Tables_number   1
_chemical_formula_structural   K3Bi5(AsO4)6
_chemical_formula_sum   'K6 Bi10 As12 O48'
_cell_volume   1186.52144226
_cell_formula_units_Z   2
loop_
 _symmetry_equiv_pos_site_id
 _symmetry_equiv_pos_as_xyz
  1  'x, y, z'
loop_
 _atom_site_type_symbol
 _atom_site_label
 _atom_site_symmetry_multiplicity
 _atom_site_fract_x
 _atom_site_fract_y
 _atom_site_fract_z
 _atom_site_occupancy
  K  K0  1  0.805953  0.749959  0.749945  1
  K  K1  1  0.814708  0.068673  0.582290  1
  K  K2  1  0.034094  0.568596  0.082263  1
  K  K3  1  0.965906  0.431404  0.917737  1
  K  K4  1  0.194047  0.250041  0.250055  1
  K  K5  1  0.185292  0.931327  0.417710  1
  Bi  Bi6  1  0.885067  0.138327  0.798411  1
  Bi  Bi7  1  0.732739  0.699194  0.527231  1
  Bi  Bi8  1  0.540853  0.199297  0.027217  1
  Bi  Bi9  1  0.341164  0.750010  0.749989  1
  Bi  Bi10  1  0.678065  0.638440  0.298472  1
  Bi  Bi11  1  0.321935  0.361560  0.701528  1
  Bi  Bi12  1  0.459147  0.800703  0.972783  1
  Bi  Bi13  1  0.114933  0.861673  0.201589  1
  Bi  Bi14  1  0.267261  0.300806  0.472769  1
  Bi  Bi15  1  0.658836  0.249990  0.250011  1
  As  As16  1  0.050608  0.152501  0.085874  1
  As  As17  1  0.837072  0.420181  0.654039  1
  As  As18  1  0.949392  0.847499  0.914126  1
  As  As19  1  0.162928  0.579819  0.345961  1
  As  As20  1  0.211110  0.652443  0.585829  1
  As  As21  1  0.788890  0.347557  0.414171  1
  As  As22  1  0.588763  0.920169  0.154030  1
  As  As23  1  0.476788  0.474856  0.883734  1
  As  As24  1  0.411237  0.079831  0.845970  1
  As  As25  1  0.335056  0.025132  0.616218  1
  As  As26  1  0.523212  0.525144  0.116266  1
  As  As27  1  0.664944  0.974868  0.383782  1
  O  O28  1  0.036259  0.849426  0.814813  1
  O  O29  1  0.129378  0.755371  0.966016  1
  O  O30  1  0.695380  0.534203  0.422687  1
  O  O31  1  0.666886  0.483642  0.187345  1
  O  O32  1  0.782870  0.759682  0.917784  1
  O  O33  1  0.333114  0.516358  0.812655  1
  O  O34  1  0.593510  0.909083  0.059660  1
  O  O35  1  0.039566  0.259715  0.417769  1
  O  O36  1  0.007574  0.582012  0.283738  1
  O  O37  1  0.756464  0.924439  0.467200  1
  O  O38  1  0.304620  0.465797  0.577313  1
  O  O39  1  0.960434  0.740285  0.582231  1
  O  O40  1  0.602187  0.089142  0.158087  1
  O  O41  1  0.394642  0.172676  0.631044  1
  O  O42  1  0.152160  0.965833  0.077378  1
  O  O43  1  0.650706  0.589170  0.658077  1
  O  O44  1  0.799268  0.349570  0.314861  1
  O  O45  1  0.784083  0.783029  0.188198  1
  O  O46  1  0.243536  0.075561  0.532800  1
  O  O47  1  0.647858  0.575522  0.032848  1
  O  O48  1  0.200732  0.650430  0.685139  1
  O  O49  1  0.397813  0.910858  0.841913  1
  O  O50  1  0.547866  0.623662  0.878796  1
  O  O51  1  0.605358  0.827324  0.368956  1
  O  O52  1  0.217130  0.240318  0.082216  1
  O  O53  1  0.215917  0.216971  0.811802  1
  O  O54  1  0.373313  0.918083  0.216284  1
  O  O55  1  0.870622  0.244629  0.033984  1
  O  O56  1  0.450044  0.123687  0.378787  1
  O  O57  1  0.349294  0.410830  0.341923  1
  O  O58  1  0.838197  0.016360  0.312695  1
  O  O59  1  0.649118  0.255413  0.466079  1
  O  O60  1  0.549956  0.876313  0.621213  1
  O  O61  1  0.452134  0.376338  0.121204  1
  O  O62  1  0.406490  0.090917  0.940340  1
  O  O63  1  0.255425  0.716926  0.311820  1
  O  O64  1  0.350882  0.744587  0.533921  1
  O  O65  1  0.847840  0.034167  0.922622  1
  O  O66  1  0.937689  0.409103  0.559651  1
  O  O67  1  0.161803  0.983640  0.687305  1
  O  O68  1  0.062311  0.590897  0.440349  1
  O  O69  1  0.992426  0.417988  0.716262  1
  O  O70  1  0.744575  0.283074  0.688180  1
  O  O71  1  0.698643  0.327273  0.868920  1
  O  O72  1  0.963741  0.150574  0.185187  1
  O  O73  1  0.352142  0.424478  0.967152  1
  O  O74  1  0.626687  0.081917  0.783716  1
  O  O75  1  0.301357  0.672727  0.131080  1
