# generated using pymatgen
data_Zn3BPO7
_symmetry_space_group_name_H-M   'P 1'
_cell_length_a   4.96153772
_cell_length_b   8.14329059
_cell_length_c   8.14329075
_cell_angle_alpha   105.49518627
_cell_angle_beta   107.55058151
_cell_angle_gamma   107.55058688
_symmetry_Int_Tables_number   1
_chemical_formula_structural   Zn3BPO7
_chemical_formula_sum   'Zn6 B2 P2 O14'
_cell_volume   274.91573684
_cell_formula_units_Z   2
loop_
 _symmetry_equiv_pos_site_id
 _symmetry_equiv_pos_as_xyz
  1  'x, y, z'
loop_
 _atom_site_type_symbol
 _atom_site_label
 _atom_site_symmetry_multiplicity
 _atom_site_fract_x
 _atom_site_fract_y
 _atom_site_fract_z
 _atom_site_occupancy
  Zn  Zn0  1  0.230033  0.352256  0.849776  1
  Zn  Zn1  1  0.230033  0.849776  0.352256  1
  Zn  Zn2  1  0.536167  0.796765  0.067460  1
  Zn  Zn3  1  0.536206  0.299953  0.518388  1
  Zn  Zn4  1  0.536206  0.518388  0.299953  1
  Zn  Zn5  1  0.536167  0.067460  0.796765  1
  B  B6  1  0.899171  0.483294  0.055923  1
  B  B7  1  0.899171  0.055923  0.483294  1
  P  P8  1  0.141218  0.060820  0.060820  1
  P  P9  1  0.233186  0.606224  0.606224  1
  O  O10  1  0.853148  0.337311  0.900312  1
  O  O11  1  0.271923  0.802678  0.603088  1
  O  O12  1  0.198916  0.604527  0.190106  1
  O  O13  1  0.239685  0.108810  0.910948  1
  O  O14  1  0.198916  0.190106  0.604527  1
  O  O15  1  0.647021  0.075360  0.514578  1
  O  O16  1  0.271923  0.603088  0.802678  1
  O  O17  1  0.779411  0.981094  0.981094  1
  O  O18  1  0.280408  0.240606  0.240606  1
  O  O19  1  0.899438  0.461568  0.461568  1
  O  O20  1  0.853148  0.900312  0.337311  1
  O  O21  1  0.239685  0.910948  0.108810  1
  O  O22  1  0.483796  0.555293  0.555293  1
  O  O23  1  0.647021  0.514578  0.075360  1
