# generated using pymatgen
data_ErTe3
_symmetry_space_group_name_H-M   'P 1'
_cell_length_a   4.09947362
_cell_length_b   4.41630106
_cell_length_c   14.50357063
_cell_angle_alpha   90.00000000
_cell_angle_beta   98.12460759
_cell_angle_gamma   90.00000000
_symmetry_Int_Tables_number   1
_chemical_formula_structural   ErTe3
_chemical_formula_sum   'Er2 Te6'
_cell_volume   259.94453295
_cell_formula_units_Z   2
loop_
 _symmetry_equiv_pos_site_id
 _symmetry_equiv_pos_as_xyz
  1  'x, y, z'
loop_
 _atom_site_type_symbol
 _atom_site_label
 _atom_site_symmetry_multiplicity
 _atom_site_fract_x
 _atom_site_fract_y
 _atom_site_fract_z
 _atom_site_occupancy
  Er  Er0  1  0.946360  0.250000  0.892720  1
  Er  Er1  1  0.053640  0.750000  0.107280  1
  Te  Te2  1  0.687229  0.250000  0.374459  1
  Te  Te3  1  0.554428  0.250000  0.108855  1
  Te  Te4  1  0.835865  0.250000  0.671730  1
  Te  Te5  1  0.445572  0.750000  0.891145  1
  Te  Te6  1  0.164135  0.750000  0.328270  1
  Te  Te7  1  0.312771  0.750000  0.625541  1
