# generated using pymatgen
data_AlPO4
_symmetry_space_group_name_H-M   'P 1'
_cell_length_a   5.39426406
_cell_length_b   5.39426442
_cell_length_c   10.87933450
_cell_angle_alpha   90.00000000
_cell_angle_beta   90.00000000
_cell_angle_gamma   119.99999777
_symmetry_Int_Tables_number   1
_chemical_formula_structural   AlPO4
_chemical_formula_sum   'Al3 P3 O12'
_cell_volume   274.15577908
_cell_formula_units_Z   3
loop_
 _symmetry_equiv_pos_site_id
 _symmetry_equiv_pos_as_xyz
  1  'x, y, z'
loop_
 _atom_site_type_symbol
 _atom_site_label
 _atom_site_symmetry_multiplicity
 _atom_site_fract_x
 _atom_site_fract_y
 _atom_site_fract_z
 _atom_site_occupancy
  Al  Al0  1  0.000000  0.500000  0.833333  1
  Al  Al1  1  0.500000  0.000000  0.500000  1
  Al  Al2  1  0.500000  0.500000  0.166667  1
  P  P3  1  0.500000  0.500000  0.666667  1
  P  P4  1  0.000000  0.500000  0.333333  1
  P  P5  1  0.500000  0.000000  0.000000  1
  O  O6  1  0.562741  0.265245  0.266860  1
  O  O7  1  0.734755  0.297496  0.600193  1
  O  O8  1  0.265245  0.702504  0.600193  1
  O  O9  1  0.265245  0.562741  0.066473  1
  O  O10  1  0.562741  0.297496  0.399807  1
  O  O11  1  0.297496  0.562741  0.933527  1
  O  O12  1  0.437259  0.734755  0.266860  1
  O  O13  1  0.734755  0.437259  0.066473  1
  O  O14  1  0.437259  0.702504  0.399807  1
  O  O15  1  0.702504  0.437259  0.933527  1
  O  O16  1  0.702504  0.265245  0.733140  1
  O  O17  1  0.297496  0.734755  0.733140  1
