# generated using pymatgen
data_Hg2H10C3NCl5
_symmetry_space_group_name_H-M   'P 1'
_cell_length_a   6.38613470
_cell_length_b   10.25317821
_cell_length_c   11.11142699
_cell_angle_alpha   94.24456482
_cell_angle_beta   104.62620747
_cell_angle_gamma   98.70362209
_symmetry_Int_Tables_number   1
_chemical_formula_structural   Hg2H10C3NCl5
_chemical_formula_sum   'Hg4 H20 C6 N2 Cl10'
_cell_volume   691.06506972
_cell_formula_units_Z   2
loop_
 _symmetry_equiv_pos_site_id
 _symmetry_equiv_pos_as_xyz
  1  'x, y, z'
loop_
 _atom_site_type_symbol
 _atom_site_label
 _atom_site_symmetry_multiplicity
 _atom_site_fract_x
 _atom_site_fract_y
 _atom_site_fract_z
 _atom_site_occupancy
  Hg  Hg0  1  0.080182  0.891302  0.164470  1
  Hg  Hg1  1  0.312597  0.128087  0.569116  1
  Hg  Hg2  1  0.687403  0.871913  0.430884  1
  Hg  Hg3  1  0.919818  0.108698  0.835530  1
  H  H4  1  0.737973  0.404280  0.414821  1
  H  H5  1  0.448111  0.271661  0.031698  1
  H  H6  1  0.272007  0.642172  0.922527  1
  H  H7  1  0.727993  0.357828  0.077473  1
  H  H8  1  0.157484  0.720265  0.663536  1
  H  H9  1  0.895043  0.449584  0.305920  1
  H  H10  1  0.338860  0.805573  0.879256  1
  H  H11  1  0.559943  0.492476  0.706799  1
  H  H12  1  0.551889  0.728339  0.968302  1
  H  H13  1  0.104957  0.550416  0.694080  1
  H  H14  1  0.684900  0.555349  0.868948  1
  H  H15  1  0.414879  0.454288  0.822193  1
  H  H16  1  0.315100  0.444651  0.131052  1
  H  H17  1  0.661140  0.194427  0.120744  1
  H  H18  1  0.455943  0.279364  0.248802  1
  H  H19  1  0.262027  0.595720  0.585179  1
  H  H20  1  0.585121  0.545712  0.177807  1
  H  H21  1  0.842516  0.279735  0.336464  1
  H  H22  1  0.440057  0.507524  0.293201  1
  H  H23  1  0.544057  0.720636  0.751198  1
  C  C24  1  0.604094  0.288727  0.104624  1
  C  C25  1  0.395906  0.711273  0.895376  1
  C  C26  1  0.223126  0.627765  0.671900  1
  C  C27  1  0.776874  0.372235  0.328100  1
  C  C28  1  0.469730  0.470672  0.205067  1
  C  C29  1  0.530270  0.529328  0.794933  1
  N  N30  1  0.430521  0.651919  0.776285  1
  N  N31  1  0.569479  0.348081  0.223715  1
  Cl  Cl32  1  0.327515  0.329544  0.471203  1
  Cl  Cl33  1  0.005561  0.657172  0.127002  1
  Cl  Cl34  1  0.109825  0.122500  0.152522  1
  Cl  Cl35  1  0.592490  0.913576  0.208781  1
  Cl  Cl36  1  0.672485  0.670456  0.528797  1
  Cl  Cl37  1  0.890175  0.877500  0.847478  1
  Cl  Cl38  1  0.407510  0.086424  0.791219  1
  Cl  Cl39  1  0.994439  0.342828  0.872998  1
  Cl  Cl40  1  0.805958  0.102710  0.559946  1
  Cl  Cl41  1  0.194042  0.897290  0.440054  1
