# generated using pymatgen
data_Li2Ni12P7
_symmetry_space_group_name_H-M   'P 1'
_cell_length_a   8.99837670
_cell_length_b   8.99837706
_cell_length_c   3.53217975
_cell_angle_alpha   90.00000000
_cell_angle_beta   90.00000000
_cell_angle_gamma   119.99999869
_symmetry_Int_Tables_number   1
_chemical_formula_structural   Li2Ni12P7
_chemical_formula_sum   'Li2 Ni12 P7'
_cell_volume   247.68618928
_cell_formula_units_Z   1
loop_
 _symmetry_equiv_pos_site_id
 _symmetry_equiv_pos_as_xyz
  1  'x, y, z'
loop_
 _atom_site_type_symbol
 _atom_site_label
 _atom_site_symmetry_multiplicity
 _atom_site_fract_x
 _atom_site_fract_y
 _atom_site_fract_z
 _atom_site_occupancy
  Ni  Ni0  1  0.434318  0.061143  0.000000  1
  Ni  Ni1  1  0.626825  0.565682  0.000000  1
  Ni  Ni2  1  0.938857  0.373175  0.000000  1
  Ni  Ni3  1  0.159183  0.277495  0.000000  1
  Ni  Ni4  1  0.118313  0.840817  0.000000  1
  Ni  Ni5  1  0.722505  0.881687  0.000000  1
  Ni  Ni6  1  0.384380  0.435289  0.500000  1
  Ni  Ni7  1  0.050909  0.615620  0.500000  1
  Ni  Ni8  1  0.564711  0.949091  0.500000  1
  Ni  Ni9  1  0.219595  0.093626  0.500000  1
  Ni  Ni10  1  0.874032  0.780405  0.500000  1
  Ni  Ni11  1  0.906374  0.125968  0.500000  1
  P  P12  1  0.000000  0.000000  0.000000  1
  P  P13  1  0.418065  0.295003  0.000000  1
  P  P14  1  0.876938  0.581935  0.000000  1
  P  P15  1  0.704997  0.123062  0.000000  1
  P  P16  1  0.120118  0.412791  0.500000  1
  P  P17  1  0.292673  0.879882  0.500000  1
  P  P18  1  0.587209  0.707327  0.500000  1
  Li  Li19  1  0.333333  0.666667  0.000000  1
  Li  Li20  1  0.666667  0.333333  0.500000  1
