# generated using pymatgen
data_KB(CN)4
_symmetry_space_group_name_H-M   'P 1'
_cell_length_a   7.14231534
_cell_length_b   7.14231554
_cell_length_c   8.83614677
_cell_angle_alpha   113.83807540
_cell_angle_beta   113.83807602
_cell_angle_gamma   90.00000372
_symmetry_Int_Tables_number   1
_chemical_formula_structural   KB(CN)4
_chemical_formula_sum   'K2 B2 C8 N8'
_cell_volume   369.87231687
_cell_formula_units_Z   2
loop_
 _symmetry_equiv_pos_site_id
 _symmetry_equiv_pos_as_xyz
  1  'x, y, z'
loop_
 _atom_site_type_symbol
 _atom_site_label
 _atom_site_symmetry_multiplicity
 _atom_site_fract_x
 _atom_site_fract_y
 _atom_site_fract_z
 _atom_site_occupancy
  K  K0  1  0.625000  0.875000  0.250000  1
  K  K1  1  0.375000  0.125000  0.750000  1
  B  B2  1  0.875000  0.625000  0.750000  1
  B  B3  1  0.125000  0.375000  0.250000  1
  C  C4  1  0.288847  0.589267  0.374328  1
  C  C5  1  0.785061  0.788847  0.874328  1
  C  C6  1  0.089267  0.585481  0.874328  1
  C  C7  1  0.910733  0.414519  0.125672  1
  C  C8  1  0.085481  0.285061  0.374328  1
  C  C9  1  0.914519  0.714939  0.625672  1
  C  C10  1  0.214939  0.211153  0.125672  1
  C  C11  1  0.711153  0.410733  0.625672  1
  N  N12  1  0.715356  0.907974  0.962766  1
  N  N13  1  0.945208  0.784644  0.537234  1
  N  N14  1  0.284644  0.092026  0.037234  1
  N  N15  1  0.247410  0.554792  0.962766  1
  N  N16  1  0.592026  0.252590  0.537234  1
  N  N17  1  0.054792  0.215356  0.462766  1
  N  N18  1  0.752590  0.445208  0.037234  1
  N  N19  1  0.407974  0.747410  0.462766  1
