# generated using pymatgen
data_CaCuO2
_symmetry_space_group_name_H-M   'P 1'
_cell_length_a   3.20286330
_cell_length_b   5.46027114
_cell_length_c   11.13506554
_cell_angle_alpha   90.00000000
_cell_angle_beta   90.00000000
_cell_angle_gamma   90.03118921
_symmetry_Int_Tables_number   1
_chemical_formula_structural   CaCuO2
_chemical_formula_sum   'Ca4 Cu4 O8'
_cell_volume   194.73558772
_cell_formula_units_Z   4
loop_
 _symmetry_equiv_pos_site_id
 _symmetry_equiv_pos_as_xyz
  1  'x, y, z'
loop_
 _atom_site_type_symbol
 _atom_site_label
 _atom_site_symmetry_multiplicity
 _atom_site_fract_x
 _atom_site_fract_y
 _atom_site_fract_z
 _atom_site_occupancy
  Ca  Ca0  1  0.505993  0.225555  0.112978  1
  Ca  Ca1  1  0.496738  0.725559  0.887567  1
  Ca  Ca2  1  0.503262  0.274441  0.387567  1
  Ca  Ca3  1  0.494007  0.774445  0.612978  1
  Cu  Cu4  1  0.008438  0.734985  0.128389  1
  Cu  Cu5  1  0.991562  0.265015  0.628389  1
  Cu  Cu6  1  0.993104  0.235048  0.872018  1
  Cu  Cu7  1  0.006896  0.764952  0.372018  1
  O  O8  1  1.000381  0.023297  0.495963  1
  O  O9  1  0.016915  0.006492  0.244169  1
  O  O10  1  0.997226  0.523257  0.504584  1
  O  O11  1  0.002774  0.476743  0.004584  1
  O  O12  1  -0.000381  0.976703  0.995963  1
  O  O13  1  0.983085  0.993508  0.744169  1
  O  O14  1  0.014161  0.493342  0.256331  1
  O  O15  1  0.985839  0.506658  0.756331  1
