# generated using pymatgen
data_LaTiI5O16
_symmetry_space_group_name_H-M   'P 1'
_cell_length_a   7.52404572
_cell_length_b   10.65016682
_cell_length_c   18.24249307
_cell_angle_alpha   90.00000000
_cell_angle_beta   90.00000000
_cell_angle_gamma   91.65592553
_symmetry_Int_Tables_number   1
_chemical_formula_structural   LaTiI5O16
_chemical_formula_sum   'La4 Ti4 I20 O64'
_cell_volume   1461.20321963
_cell_formula_units_Z   4
loop_
 _symmetry_equiv_pos_site_id
 _symmetry_equiv_pos_as_xyz
  1  'x, y, z'
loop_
 _atom_site_type_symbol
 _atom_site_label
 _atom_site_symmetry_multiplicity
 _atom_site_fract_x
 _atom_site_fract_y
 _atom_site_fract_z
 _atom_site_occupancy
  La  La0  1  0.758205  0.741201  0.766780  1
  La  La1  1  0.258205  0.241201  0.733220  1
  La  La2  1  0.241795  0.258799  0.233220  1
  La  La3  1  0.741795  0.758799  0.266780  1
  Ti  Ti4  1  0.735609  0.234265  0.498299  1
  Ti  Ti5  1  0.764391  0.265735  0.998299  1
  Ti  Ti6  1  0.235609  0.734265  0.001701  1
  Ti  Ti7  1  0.264391  0.765735  0.501701  1
  I  I8  1  0.093716  0.567031  0.377966  1
  I  I9  1  0.433002  0.550681  0.631835  1
  I  I10  1  0.763119  0.753118  0.494666  1
  I  I11  1  0.593716  0.067031  0.122034  1
  I  I12  1  0.774954  0.099068  0.320171  1
  I  I13  1  0.270487  0.937090  0.336253  1
  I  I14  1  0.263119  0.253118  0.005334  1
  I  I15  1  0.906284  0.432969  0.622034  1
  I  I16  1  0.729513  0.062910  0.663747  1
  I  I17  1  0.725046  0.400932  0.820171  1
  I  I18  1  0.225046  0.900932  0.679829  1
  I  I19  1  0.406284  0.932969  0.877966  1
  I  I20  1  0.236881  0.246882  0.505334  1
  I  I21  1  0.274954  0.599068  0.179829  1
  I  I22  1  0.770487  0.437090  0.163747  1
  I  I23  1  0.736881  0.746882  0.994666  1
  I  I24  1  0.229513  0.562910  0.836253  1
  I  I25  1  0.933002  0.050681  0.868165  1
  I  I26  1  0.566998  0.449319  0.368165  1
  I  I27  1  0.066998  0.949319  0.131835  1
  O  O28  1  0.776610  0.980609  0.799614  1
  O  O29  1  0.163576  0.860911  0.582790  1
  O  O30  1  0.298551  0.649629  0.412785  1
  O  O31  1  0.802906  0.801702  0.903125  1
  O  O32  1  0.798551  0.149629  0.087215  1
  O  O33  1  0.988558  0.585386  0.831073  1
  O  O34  1  0.723390  0.519391  0.299614  1
  O  O35  1  0.782922  0.520174  0.694804  1
  O  O36  1  0.282922  0.020174  0.805196  1
  O  O37  1  0.604382  0.548494  0.823930  1
  O  O38  1  0.566289  0.295625  0.773726  1
  O  O39  1  0.276610  0.480609  0.700386  1
  O  O40  1  0.302906  0.301702  0.596875  1
  O  O41  1  0.217078  0.479826  0.305196  1
  O  O42  1  0.933711  0.204375  0.273726  1
  O  O43  1  0.104382  0.048494  0.676070  1
  O  O44  1  0.836424  0.139089  0.417210  1
  O  O45  1  0.982100  0.194557  0.817018  1
  O  O46  1  0.781806  0.885187  0.051812  1
  O  O47  1  0.759505  0.109355  0.930265  1
  O  O48  1  0.201449  0.850371  0.912785  1
  O  O49  1  0.505390  0.207485  0.487372  1
  O  O50  1  0.729815  0.412472  0.063946  1
  O  O51  1  0.395618  0.451506  0.176070  1
  O  O52  1  0.468564  0.808973  0.814233  1
  O  O53  1  0.005390  0.707485  0.012628  1
  O  O54  1  0.511442  0.914614  0.331073  1
  O  O55  1  0.006047  0.697332  0.475871  1
  O  O56  1  0.488558  0.085386  0.668927  1
  O  O57  1  0.493953  0.802668  0.975871  1
  O  O58  1  0.482100  0.694557  0.682982  1
  O  O59  1  0.229815  0.912472  0.436054  1
  O  O60  1  0.011442  0.414614  0.168927  1
  O  O61  1  0.728178  0.892227  0.658494  1
  O  O62  1  0.494610  0.792515  0.512628  1
  O  O63  1  0.994610  0.292515  0.987372  1
  O  O64  1  0.240495  0.890645  0.069735  1
  O  O65  1  0.895618  0.951506  0.323930  1
  O  O66  1  0.506047  0.197332  0.024129  1
  O  O67  1  0.228178  0.392227  0.841506  1
  O  O68  1  0.336424  0.639089  0.082790  1
  O  O69  1  0.663576  0.360911  0.917210  1
  O  O70  1  0.281806  0.385187  0.448188  1
  O  O71  1  0.771822  0.607773  0.158494  1
  O  O72  1  0.531436  0.191027  0.185767  1
  O  O73  1  0.259505  0.609355  0.569735  1
  O  O74  1  0.993953  0.302668  0.524129  1
  O  O75  1  0.031436  0.691027  0.314233  1
  O  O76  1  0.701449  0.350371  0.587215  1
  O  O77  1  0.770185  0.087528  0.563946  1
  O  O78  1  0.740495  0.390645  0.430265  1
  O  O79  1  0.270185  0.587528  0.936054  1
  O  O80  1  0.218194  0.114813  0.948188  1
  O  O81  1  0.197094  0.198298  0.096875  1
  O  O82  1  0.433711  0.704375  0.226274  1
  O  O83  1  0.968564  0.308973  0.685767  1
  O  O84  1  0.697094  0.698298  0.403125  1
  O  O85  1  0.066289  0.795625  0.726274  1
  O  O86  1  0.717078  0.979826  0.194804  1
  O  O87  1  0.718194  0.614813  0.551812  1
  O  O88  1  0.223390  0.019391  0.200386  1
  O  O89  1  0.271822  0.107773  0.341506  1
  O  O90  1  0.017900  0.805443  0.182982  1
  O  O91  1  0.517900  0.305443  0.317018  1
