# generated using pymatgen
data_Mn2O2F9
_symmetry_space_group_name_H-M   'P 1'
_cell_length_a   8.73368149
_cell_length_b   9.33418889
_cell_length_c   9.89130069
_cell_angle_alpha   99.23703347
_cell_angle_beta   116.19853843
_cell_angle_gamma   89.99999998
_symmetry_Int_Tables_number   1
_chemical_formula_structural   Mn2O2F9
_chemical_formula_sum   'Mn8 O8 F36'
_cell_volume   711.84760439
_cell_formula_units_Z   4
loop_
 _symmetry_equiv_pos_site_id
 _symmetry_equiv_pos_as_xyz
  1  'x, y, z'
loop_
 _atom_site_type_symbol
 _atom_site_label
 _atom_site_symmetry_multiplicity
 _atom_site_fract_x
 _atom_site_fract_y
 _atom_site_fract_z
 _atom_site_occupancy
  O  O0  1  0.267873  0.281984  0.622577  1
  O  O1  1  0.645295  0.218016  0.377423  1
  O  O2  1  0.732127  0.718016  0.377423  1
  O  O3  1  0.354705  0.781984  0.622577  1
  O  O4  1  0.187131  0.179877  0.618841  1
  O  O5  1  0.568290  0.320123  0.381159  1
  O  O6  1  0.812869  0.820123  0.381159  1
  O  O7  1  0.431710  0.679877  0.618841  1
  F  F8  1  0.207928  0.732037  0.149712  1
  F  F9  1  0.520216  0.083945  0.665557  1
  F  F10  1  0.854659  0.416055  0.334443  1
  F  F11  1  0.479784  0.916055  0.334443  1
  F  F12  1  0.145341  0.583945  0.665557  1
  F  F13  1  0.500791  0.348694  0.851976  1
  F  F14  1  0.648815  0.151306  0.148024  1
  F  F15  1  0.499209  0.651306  0.148024  1
  F  F16  1  0.210578  0.522583  0.932143  1
  F  F17  1  0.278435  0.977417  0.067857  1
  F  F18  1  0.789422  0.477417  0.067857  1
  F  F19  1  0.721565  0.022583  0.932143  1
  F  F20  1  0.058216  0.767963  0.850288  1
  F  F21  1  0.936932  0.089849  0.356271  1
  F  F22  1  0.941784  0.232037  0.149712  1
  F  F23  1  0.792072  0.267963  0.850288  1
  F  F24  1  0.063068  0.910151  0.643729  1
  F  F25  1  0.419338  0.589849  0.356271  1
  F  F26  1  0.177489  0.396120  0.404203  1
  F  F27  1  0.580662  0.410151  0.643729  1
  F  F28  1  0.822511  0.603880  0.595797  1
  F  F29  1  0.226714  0.896120  0.404203  1
  F  F30  1  0.583116  0.614703  0.852565  1
  F  F31  1  0.773286  0.103880  0.595797  1
  F  F32  1  0.968753  0.372646  0.681798  1
  F  F33  1  0.286955  0.127354  0.318202  1
  F  F34  1  0.031247  0.627354  0.318202  1
  F  F35  1  0.713045  0.872646  0.681798  1
  F  F36  1  0.987487  0.048175  0.864726  1
  F  F37  1  0.122761  0.451825  0.135274  1
  F  F38  1  0.012513  0.951825  0.135274  1
  F  F39  1  0.877239  0.548175  0.864726  1
  F  F40  1  0.269449  0.114703  0.852565  1
  F  F41  1  0.416884  0.385297  0.147435  1
  F  F42  1  0.730551  0.885297  0.147435  1
  F  F43  1  0.351185  0.848694  0.851976  1
  Mn  Mn44  1  0.169450  0.943395  0.847012  1
  Mn  Mn45  1  0.741890  0.062036  0.752254  1
  Mn  Mn46  1  0.989636  0.437964  0.247746  1
  Mn  Mn47  1  0.258110  0.937964  0.247746  1
  Mn  Mn48  1  0.010364  0.562036  0.752254  1
  Mn  Mn49  1  0.677563  0.443395  0.847012  1
  Mn  Mn50  1  0.830550  0.056605  0.152988  1
  Mn  Mn51  1  0.322437  0.556605  0.152988  1
