# generated using pymatgen
data_Li2Nd2Si3
_symmetry_space_group_name_H-M   'P 1'
_cell_length_a   4.41382299
_cell_length_b   6.80988199
_cell_length_c   9.51613738
_cell_angle_alpha   90.00000000
_cell_angle_beta   103.40969995
_cell_angle_gamma   90.00000000
_symmetry_Int_Tables_number   1
_chemical_formula_structural   Li2Nd2Si3
_chemical_formula_sum   'Li4 Nd4 Si6'
_cell_volume   278.23417463
_cell_formula_units_Z   2
loop_
 _symmetry_equiv_pos_site_id
 _symmetry_equiv_pos_as_xyz
  1  'x, y, z'
loop_
 _atom_site_type_symbol
 _atom_site_label
 _atom_site_symmetry_multiplicity
 _atom_site_fract_x
 _atom_site_fract_y
 _atom_site_fract_z
 _atom_site_occupancy
  Li  Li0  1  0.188466  0.061753  0.376932  1
  Li  Li1  1  0.188466  0.438247  0.376932  1
  Li  Li2  1  0.811534  0.938247  0.623068  1
  Li  Li3  1  0.811534  0.561753  0.623068  1
  Nd  Nd4  1  0.341833  0.250000  0.683667  1
  Nd  Nd5  1  0.658167  0.750000  0.316333  1
  Nd  Nd6  1  0.552047  0.250000  0.104094  1
  Nd  Nd7  1  0.447953  0.750000  0.895906  1
  Si  Si8  1  0.719912  0.250000  0.439824  1
  Si  Si9  1  0.280088  0.750000  0.560176  1
  Si  Si10  1  0.058008  0.925451  0.116017  1
  Si  Si11  1  0.941992  0.074549  0.883983  1
  Si  Si12  1  0.941992  0.425451  0.883983  1
  Si  Si13  1  0.058008  0.574549  0.116017  1
