# generated using pymatgen
data_K3NpO2F5
_symmetry_space_group_name_H-M   'P 1'
_cell_length_a   9.32946167
_cell_length_b   9.33120119
_cell_length_c   11.32432608
_cell_angle_alpha   114.32446107
_cell_angle_beta   114.31949180
_cell_angle_gamma   90.00893240
_symmetry_Int_Tables_number   1
_chemical_formula_structural   K3NpO2F5
_chemical_formula_sum   'K12 Np4 O8 F20'
_cell_volume   801.31482533
_cell_formula_units_Z   4
loop_
 _symmetry_equiv_pos_site_id
 _symmetry_equiv_pos_as_xyz
  1  'x, y, z'
loop_
 _atom_site_type_symbol
 _atom_site_label
 _atom_site_symmetry_multiplicity
 _atom_site_fract_x
 _atom_site_fract_y
 _atom_site_fract_z
 _atom_site_occupancy
  K  K0  1  0.125042  0.874942  0.249974  1
  K  K1  1  0.791759  0.500031  0.999992  1
  K  K2  1  0.208241  0.499969  0.000008  1
  K  K3  1  0.791757  1.000011  1.000003  1
  K  K4  1  0.208243  -0.000011  -0.000003  1
  K  K5  1  0.374875  0.625136  0.750006  1
  K  K6  1  -0.000007  0.208210  0.500000  1
  K  K7  1  0.500027  0.791788  0.499984  1
  K  K8  1  1.000007  0.791790  0.500000  1
  K  K9  1  0.625125  0.374864  0.249994  1
  K  K10  1  0.499973  0.208212  0.500016  1
  K  K11  1  0.874958  0.125058  0.750026  1
  Np  Np12  1  0.147104  0.397058  0.294096  1
  Np  Np13  1  0.852896  0.602942  0.705904  1
  Np  Np14  1  0.602941  0.852897  0.205903  1
  Np  Np15  1  0.397059  0.147103  0.794097  1
  O  O16  1  0.655782  0.601623  0.703305  1
  O  O17  1  0.601657  0.047485  0.203303  1
  O  O18  1  0.398343  0.952515  0.796697  1
  O  O19  1  0.398384  0.344217  0.796705  1
  O  O20  1  0.601616  0.655783  0.203295  1
  O  O21  1  0.344218  0.398377  0.296695  1
  O  O22  1  0.047440  0.601661  0.703310  1
  O  O23  1  0.952560  0.398339  0.296690  1
  F  F24  1  0.244771  0.348828  0.489562  1
  F  F25  1  0.895649  0.414934  0.791400  1
  F  F26  1  0.244820  0.640746  0.489561  1
  F  F27  1  0.104351  0.585066  0.208600  1
  F  F28  1  0.021460  0.271493  0.042781  1
  F  F29  1  0.585072  0.104344  0.708596  1
  F  F30  1  0.651184  0.755239  0.010443  1
  F  F31  1  0.978540  0.728507  0.957219  1
  F  F32  1  0.414928  0.895656  0.291404  1
  F  F33  1  0.876453  0.895715  0.291425  1
  F  F34  1  0.755229  0.651172  0.510438  1
  F  F35  1  0.348816  0.244761  0.989557  1
  F  F36  1  0.728507  0.978542  0.457228  1
  F  F37  1  0.755180  0.359254  0.510439  1
  F  F38  1  0.271493  0.021458  0.542772  1
  F  F39  1  0.895709  0.876447  0.791425  1
  F  F40  1  0.104291  0.123553  0.208575  1
  F  F41  1  0.359250  0.755198  0.010447  1
  F  F42  1  0.640750  0.244802  0.989553  1
  F  F43  1  0.123547  0.104285  0.708575  1
