# generated using pymatgen
data_CsBaIn2(PO4)3
_symmetry_space_group_name_H-M   'P 1'
_cell_length_a   10.42292086
_cell_length_b   10.42292086
_cell_length_c   10.42292086
_cell_angle_alpha   90.00000000
_cell_angle_beta   90.00000000
_cell_angle_gamma   90.00000000
_symmetry_Int_Tables_number   1
_chemical_formula_structural   CsBaIn2(PO4)3
_chemical_formula_sum   'Cs4 Ba4 In8 P12 O48'
_cell_volume   1132.31776411
_cell_formula_units_Z   4
loop_
 _symmetry_equiv_pos_site_id
 _symmetry_equiv_pos_as_xyz
  1  'x, y, z'
loop_
 _atom_site_type_symbol
 _atom_site_label
 _atom_site_symmetry_multiplicity
 _atom_site_fract_x
 _atom_site_fract_y
 _atom_site_fract_z
 _atom_site_occupancy
  Ba  Ba0  1  0.185138  0.314862  0.685138  1
  Ba  Ba1  1  0.314862  0.685138  0.185138  1
  Ba  Ba2  1  0.685138  0.185138  0.314862  1
  Ba  Ba3  1  0.814862  0.814862  0.814862  1
  Cs  Cs4  1  0.046113  0.046113  0.046113  1
  Cs  Cs5  1  0.453887  0.953887  0.546113  1
  Cs  Cs6  1  0.546113  0.453887  0.953887  1
  Cs  Cs7  1  0.953887  0.546113  0.453887  1
  In  In8  1  0.098294  0.901706  0.401707  1
  In  In9  1  0.169434  0.669434  0.830566  1
  In  In10  1  0.330566  0.330566  0.330566  1
  In  In11  1  0.401707  0.098294  0.901706  1
  In  In12  1  0.598294  0.598294  0.598294  1
  In  In13  1  0.669434  0.830566  0.169434  1
  In  In14  1  0.830566  0.169434  0.669434  1
  In  In15  1  0.901706  0.401707  0.098294  1
  O  O16  1  0.002188  0.565226  0.764780  1
  O  O17  1  0.008024  0.072658  0.332544  1
  O  O18  1  0.051328  0.796042  0.226268  1
  O  O19  1  0.065226  0.735220  0.997812  1
  O  O20  1  0.072658  0.332544  0.008024  1
  O  O21  1  0.089850  0.846163  0.756590  1
  O  O22  1  0.153837  0.256590  0.410150  1
  O  O23  1  0.167456  0.991976  0.572658  1
  O  O24  1  0.203958  0.726268  0.448672  1
  O  O25  1  0.226268  0.051328  0.796042  1
  O  O26  1  0.235220  0.502188  0.934774  1
  O  O27  1  0.243410  0.589850  0.653837  1
  O  O28  1  0.256590  0.410150  0.153837  1
  O  O29  1  0.264780  0.497812  0.434774  1
  O  O30  1  0.273732  0.948672  0.296042  1
  O  O31  1  0.296042  0.273732  0.948672  1
  O  O32  1  0.332544  0.008024  0.072658  1
  O  O33  1  0.346163  0.743410  0.910150  1
  O  O34  1  0.410150  0.153837  0.256590  1
  O  O35  1  0.427342  0.667456  0.508024  1
  O  O36  1  0.434774  0.264780  0.497812  1
  O  O37  1  0.448672  0.203958  0.726268  1
  O  O38  1  0.491976  0.927342  0.832544  1
  O  O39  1  0.497812  0.434774  0.264780  1
  O  O40  1  0.502188  0.934774  0.235220  1
  O  O41  1  0.508024  0.427342  0.667456  1
  O  O42  1  0.551328  0.703958  0.773732  1
  O  O43  1  0.565226  0.764780  0.002188  1
  O  O44  1  0.572658  0.167456  0.991976  1
  O  O45  1  0.589850  0.653837  0.243410  1
  O  O46  1  0.653837  0.243410  0.589850  1
  O  O47  1  0.667456  0.508024  0.427342  1
  O  O48  1  0.703958  0.773732  0.551328  1
  O  O49  1  0.726268  0.448672  0.203958  1
  O  O50  1  0.735220  0.997812  0.065226  1
  O  O51  1  0.743410  0.910150  0.346163  1
  O  O52  1  0.756590  0.089850  0.846163  1
  O  O53  1  0.764780  0.002188  0.565226  1
  O  O54  1  0.773732  0.551328  0.703958  1
  O  O55  1  0.796042  0.226268  0.051328  1
  O  O56  1  0.832544  0.491976  0.927342  1
  O  O57  1  0.846163  0.756590  0.089850  1
  O  O58  1  0.910150  0.346163  0.743410  1
  O  O59  1  0.927342  0.832544  0.491976  1
  O  O60  1  0.934774  0.235220  0.502188  1
  O  O61  1  0.948672  0.296042  0.273732  1
  O  O62  1  0.991976  0.572658  0.167456  1
  O  O63  1  0.997812  0.065226  0.735220  1
  P  P64  1  0.014635  0.213715  0.378284  1
  P  P65  1  0.121716  0.985365  0.713715  1
  P  P66  1  0.213715  0.378284  0.014635  1
  P  P67  1  0.286285  0.621716  0.514635  1
  P  P68  1  0.378284  0.014635  0.213715  1
  P  P69  1  0.485365  0.786285  0.878284  1
  P  P70  1  0.514635  0.286285  0.621716  1
  P  P71  1  0.621716  0.514635  0.286285  1
  P  P72  1  0.713715  0.121716  0.985365  1
  P  P73  1  0.786285  0.878284  0.485365  1
  P  P74  1  0.878284  0.485365  0.786285  1
  P  P75  1  0.985365  0.713715  0.121716  1
