# generated using pymatgen
data_HgB2(CN)8
_symmetry_space_group_name_H-M   'P 1'
_cell_length_a   7.94351850
_cell_length_b   7.94351887
_cell_length_c   6.09301297
_cell_angle_alpha   90.00000000
_cell_angle_beta   90.00000000
_cell_angle_gamma   119.99999847
_symmetry_Int_Tables_number   1
_chemical_formula_structural   HgB2(CN)8
_chemical_formula_sum   'Hg1 B2 C8 N8'
_cell_volume   332.95733263
_cell_formula_units_Z   1
loop_
 _symmetry_equiv_pos_site_id
 _symmetry_equiv_pos_as_xyz
  1  'x, y, z'
loop_
 _atom_site_type_symbol
 _atom_site_label
 _atom_site_symmetry_multiplicity
 _atom_site_fract_x
 _atom_site_fract_y
 _atom_site_fract_z
 _atom_site_occupancy
  Hg  Hg0  1  0.000000  0.000000  0.000000  1
  B  B1  1  0.666667  0.333333  0.370950  1
  B  B2  1  0.333333  0.666667  0.629050  1
  C  C3  1  0.775472  0.550944  0.283063  1
  C  C4  1  0.550944  0.775472  0.716937  1
  C  C5  1  0.333333  0.666667  0.368856  1
  C  C6  1  0.224528  0.449056  0.716937  1
  C  C7  1  0.775472  0.224528  0.283063  1
  C  C8  1  0.666667  0.333333  0.631144  1
  C  C9  1  0.449056  0.224528  0.283063  1
  C  C10  1  0.224528  0.775472  0.716937  1
  N  N11  1  0.144412  0.288824  0.776926  1
  N  N12  1  0.144412  0.855588  0.776926  1
  N  N13  1  0.288824  0.144412  0.223074  1
  N  N14  1  0.855588  0.711176  0.223074  1
  N  N15  1  0.711176  0.855588  0.776926  1
  N  N16  1  0.333333  0.666667  0.177573  1
  N  N17  1  0.666667  0.333333  0.822427  1
  N  N18  1  0.855588  0.144412  0.223074  1
