# generated using pymatgen
data_HoMoO4F
_symmetry_space_group_name_H-M   'P 1'
_cell_length_a   5.25188521
_cell_length_b   6.70742259
_cell_length_c   12.40467054
_cell_angle_alpha   90.00000000
_cell_angle_beta   90.00000000
_cell_angle_gamma   113.23505498
_symmetry_Int_Tables_number   1
_chemical_formula_structural   HoMoO4F
_chemical_formula_sum   'Ho4 Mo4 O16 F4'
_cell_volume   401.53334086
_cell_formula_units_Z   4
loop_
 _symmetry_equiv_pos_site_id
 _symmetry_equiv_pos_as_xyz
  1  'x, y, z'
loop_
 _atom_site_type_symbol
 _atom_site_label
 _atom_site_symmetry_multiplicity
 _atom_site_fract_x
 _atom_site_fract_y
 _atom_site_fract_z
 _atom_site_occupancy
  Ho  Ho0  1  0.639243  0.800286  0.051007  1
  Ho  Ho1  1  0.639243  0.300286  0.448993  1
  Ho  Ho2  1  0.360757  0.199714  0.948993  1
  Ho  Ho3  1  0.360757  0.699714  0.551007  1
  Mo  Mo4  1  0.079204  0.630477  0.856614  1
  Mo  Mo5  1  0.079204  0.130477  0.643386  1
  Mo  Mo6  1  0.920796  0.869523  0.356614  1
  Mo  Mo7  1  0.920796  0.369523  0.143386  1
  O  O8  1  0.997113  0.161815  0.068671  1
  O  O9  1  0.807248  0.295295  0.278083  1
  O  O10  1  0.192752  0.704705  0.721916  1
  O  O11  1  0.807248  0.795295  0.221916  1
  O  O12  1  0.690010  0.462062  0.065123  1
  O  O13  1  0.002887  0.838185  0.931329  1
  O  O14  1  0.239234  0.093854  0.347351  1
  O  O15  1  0.002887  0.338185  0.568671  1
  O  O16  1  0.192752  0.204705  0.778084  1
  O  O17  1  0.760766  0.406146  0.847351  1
  O  O18  1  0.309990  0.037938  0.565123  1
  O  O19  1  0.997113  0.661815  0.431329  1
  O  O20  1  0.309990  0.537938  0.934877  1
  O  O21  1  0.690010  0.962062  0.434877  1
  O  O22  1  0.239234  0.593854  0.152649  1
  O  O23  1  0.760766  0.906146  0.652649  1
  F  F24  1  0.456256  0.536283  0.402383  1
  F  F25  1  0.543744  0.463717  0.597617  1
  F  F26  1  0.543744  0.963717  0.902383  1
  F  F27  1  0.456256  0.036283  0.097617  1
