# generated using pymatgen
data_LaSiAs3
_symmetry_space_group_name_H-M   'P 1'
_cell_length_a   6.12710191
_cell_length_b   6.00964741
_cell_length_c   26.65883520
_cell_angle_alpha   90.00000000
_cell_angle_beta   90.00000000
_cell_angle_gamma   90.00000000
_symmetry_Int_Tables_number   1
_chemical_formula_structural   LaSiAs3
_chemical_formula_sum   'La8 Si8 As24'
_cell_volume   981.62422189
_cell_formula_units_Z   8
loop_
 _symmetry_equiv_pos_site_id
 _symmetry_equiv_pos_as_xyz
  1  'x, y, z'
loop_
 _atom_site_type_symbol
 _atom_site_label
 _atom_site_symmetry_multiplicity
 _atom_site_fract_x
 _atom_site_fract_y
 _atom_site_fract_z
 _atom_site_occupancy
  La  La0  1  0.015876  0.252014  0.909499  1
  La  La1  1  0.984124  0.752014  0.090501  1
  La  La2  1  0.484124  0.752014  0.409499  1
  La  La3  1  0.515876  0.252014  0.590501  1
  La  La4  1  0.516923  0.752369  0.903511  1
  La  La5  1  0.483077  0.252369  0.096489  1
  La  La6  1  0.983077  0.252369  0.403511  1
  La  La7  1  0.016923  0.752369  0.596489  1
  As  As8  1  0.511397  0.254887  0.874887  1
  As  As9  1  0.488603  0.754887  0.125113  1
  As  As10  1  0.988603  0.754887  0.374887  1
  As  As11  1  0.011397  0.254887  0.625113  1
  As  As12  1  0.020943  0.755602  0.878137  1
  As  As13  1  0.979057  0.255602  0.121863  1
  As  As14  1  0.479057  0.255602  0.378137  1
  As  As15  1  0.520943  0.755602  0.621863  1
  As  As16  1  0.295759  0.531603  0.997911  1
  As  As17  1  0.704241  0.031603  0.002089  1
  As  As18  1  0.204241  0.031603  0.497911  1
  As  As19  1  0.795759  0.531603  0.502089  1
  As  As20  1  0.706116  0.457110  0.001717  1
  As  As21  1  0.293884  0.957110  0.998283  1
  As  As22  1  0.793884  0.957110  0.501717  1
  As  As23  1  0.206116  0.457110  0.498283  1
  As  As24  1  0.567719  0.780572  0.785994  1
  As  As25  1  0.432281  0.280572  0.214006  1
  As  As26  1  0.932281  0.280572  0.285994  1
  As  As27  1  0.067719  0.780572  0.714006  1
  As  As28  1  0.984204  0.279277  0.789741  1
  As  As29  1  0.015796  0.779277  0.210259  1
  As  As30  1  0.515796  0.779277  0.289741  1
  As  As31  1  0.484204  0.279277  0.710259  1
  Si  Si32  1  0.936935  0.672905  0.794738  1
  Si  Si33  1  0.063065  0.172905  0.205262  1
  Si  Si34  1  0.563065  0.172905  0.294738  1
  Si  Si35  1  0.436935  0.672905  0.705262  1
  Si  Si36  1  0.612758  0.174660  0.792141  1
  Si  Si37  1  0.387242  0.674660  0.207859  1
  Si  Si38  1  0.887242  0.674660  0.292141  1
  Si  Si39  1  0.112758  0.174660  0.707859  1
