# generated using pymatgen
data_Nb6Co16Si7
_symmetry_space_group_name_H-M   'P 1'
_cell_length_a   7.91693248
_cell_length_b   7.91693288
_cell_length_c   7.91693242
_cell_angle_alpha   60.00000192
_cell_angle_beta   60.00000027
_cell_angle_gamma   59.99999942
_symmetry_Int_Tables_number   1
_chemical_formula_structural   Nb6Co16Si7
_chemical_formula_sum   'Nb6 Co16 Si7'
_cell_volume   350.87776625
_cell_formula_units_Z   1
loop_
 _symmetry_equiv_pos_site_id
 _symmetry_equiv_pos_as_xyz
  1  'x, y, z'
loop_
 _atom_site_type_symbol
 _atom_site_label
 _atom_site_symmetry_multiplicity
 _atom_site_fract_x
 _atom_site_fract_y
 _atom_site_fract_z
 _atom_site_occupancy
  Co  Co0  1  0.166509  0.166509  0.166509  1
  Co  Co1  1  0.833491  0.833491  0.499528  1
  Co  Co2  1  0.499528  0.833491  0.833491  1
  Co  Co3  1  0.833491  0.499528  0.833491  1
  Co  Co4  1  0.500472  0.166509  0.166509  1
  Co  Co5  1  0.166509  0.500472  0.166509  1
  Co  Co6  1  0.166509  0.166509  0.500472  1
  Co  Co7  1  0.833491  0.833491  0.833491  1
  Co  Co8  1  0.381249  0.381249  0.381249  1
  Co  Co9  1  0.618751  0.618751  0.143747  1
  Co  Co10  1  0.143747  0.618751  0.618751  1
  Co  Co11  1  0.618751  0.143747  0.618751  1
  Co  Co12  1  0.856253  0.381249  0.381249  1
  Co  Co13  1  0.381249  0.856253  0.381249  1
  Co  Co14  1  0.381249  0.381249  0.856253  1
  Co  Co15  1  0.618751  0.618751  0.618751  1
  Nb  Nb16  1  0.796702  0.203298  0.203298  1
  Nb  Nb17  1  0.796702  0.796702  0.203298  1
  Nb  Nb18  1  0.203298  0.203298  0.796702  1
  Nb  Nb19  1  0.796702  0.203298  0.796702  1
  Nb  Nb20  1  0.203298  0.796702  0.203298  1
  Nb  Nb21  1  0.203298  0.796702  0.796702  1
  Si  Si22  1  0.500000  0.500000  0.500000  1
  Si  Si23  1  0.500000  0.000000  0.000000  1
  Si  Si24  1  0.000000  0.000000  0.500000  1
  Si  Si25  1  0.500000  0.500000  0.000000  1
  Si  Si26  1  0.000000  0.500000  0.500000  1
  Si  Si27  1  0.000000  0.500000  0.000000  1
  Si  Si28  1  0.500000  0.000000  0.500000  1
