# generated using pymatgen
data_Ga(MoSe2)4
_symmetry_space_group_name_H-M   'P 1'
_cell_length_a   7.23785844
_cell_length_b   7.23785870
_cell_length_c   7.23785898
_cell_angle_alpha   60.85379713
_cell_angle_beta   60.85379594
_cell_angle_gamma   60.85379610
_symmetry_Int_Tables_number   1
_chemical_formula_structural   Ga(MoSe2)4
_chemical_formula_sum   'Ga1 Mo4 Se8'
_cell_volume   273.27271966
_cell_formula_units_Z   1
loop_
 _symmetry_equiv_pos_site_id
 _symmetry_equiv_pos_as_xyz
  1  'x, y, z'
loop_
 _atom_site_type_symbol
 _atom_site_label
 _atom_site_symmetry_multiplicity
 _atom_site_fract_x
 _atom_site_fract_y
 _atom_site_fract_z
 _atom_site_occupancy
  Ga  Ga0  1  0.000500  0.000500  0.000500  1
  Mo  Mo1  1  0.804240  0.399359  0.399359  1
  Mo  Mo2  1  0.399359  0.399359  0.804240  1
  Mo  Mo3  1  0.405834  0.405834  0.405834  1
  Mo  Mo4  1  0.399359  0.804240  0.399359  1
  Se  Se5  1  0.140424  0.590089  0.140424  1
  Se  Se6  1  0.639944  0.639944  0.093240  1
  Se  Se7  1  0.140424  0.140424  0.590089  1
  Se  Se8  1  0.590089  0.140424  0.140424  1
  Se  Se9  1  0.635731  0.635731  0.635731  1
  Se  Se10  1  0.139513  0.139513  0.139513  1
  Se  Se11  1  0.093240  0.639944  0.639944  1
  Se  Se12  1  0.639944  0.093240  0.639944  1
