# generated using pymatgen
data_LaBMoO6
_symmetry_space_group_name_H-M   'P 1'
_cell_length_a   4.19500053
_cell_length_b   10.42102008
_cell_length_c   21.77427942
_cell_angle_alpha   90.70242490
_cell_angle_beta   90.00000000
_cell_angle_gamma   90.00000000
_symmetry_Int_Tables_number   1
_chemical_formula_structural   LaBMoO6
_chemical_formula_sum   'La8 B8 Mo8 O48'
_cell_volume   951.81688900
_cell_formula_units_Z   8
loop_
 _symmetry_equiv_pos_site_id
 _symmetry_equiv_pos_as_xyz
  1  'x, y, z'
loop_
 _atom_site_type_symbol
 _atom_site_label
 _atom_site_symmetry_multiplicity
 _atom_site_fract_x
 _atom_site_fract_y
 _atom_site_fract_z
 _atom_site_occupancy
  La  La0  1  0.744187  0.568674  0.234669  1
  La  La1  1  0.755813  0.068674  0.734669  1
  La  La2  1  0.288069  0.182521  0.015800  1
  La  La3  1  0.244187  0.931326  0.265331  1
  La  La4  1  0.788069  0.317479  0.484200  1
  La  La5  1  0.211931  0.682521  0.515800  1
  La  La6  1  0.255813  0.431326  0.765331  1
  La  La7  1  0.711931  0.817479  0.984200  1
  B  B8  1  0.333982  0.402282  0.595385  1
  B  B9  1  0.666018  0.597718  0.404615  1
  B  B10  1  0.666283  0.848872  0.153866  1
  B  B11  1  0.166283  0.651128  0.346134  1
  B  B12  1  0.833982  0.097718  0.904615  1
  B  B13  1  0.166018  0.902282  0.095385  1
  B  B14  1  0.833717  0.348872  0.653866  1
  B  B15  1  0.333717  0.151128  0.846134  1
  Mo  Mo16  1  0.676092  0.943992  0.409715  1
  Mo  Mo17  1  0.199724  0.304530  0.339816  1
  Mo  Mo18  1  0.800276  0.695470  0.660184  1
  Mo  Mo19  1  0.823908  0.443992  0.909715  1
  Mo  Mo20  1  0.699724  0.195470  0.160184  1
  Mo  Mo21  1  0.300276  0.804530  0.839816  1
  Mo  Mo22  1  0.176092  0.556008  0.090285  1
  Mo  Mo23  1  0.323908  0.056008  0.590285  1
  O  O24  1  0.216285  0.819425  0.923525  1
  O  O25  1  0.283715  0.319425  0.423525  1
  O  O26  1  0.253170  0.404268  0.054776  1
  O  O27  1  0.841898  0.619010  0.350954  1
  O  O28  1  0.284724  0.441140  0.291552  1
  O  O29  1  0.753170  0.095732  0.445224  1
  O  O30  1  0.261064  0.692288  0.041676  1
  O  O31  1  0.764973  0.796976  0.206579  1
  O  O32  1  0.658102  0.119010  0.850954  1
  O  O33  1  0.758172  0.928812  0.326022  1
  O  O34  1  0.715276  0.558860  0.708448  1
  O  O35  1  0.247679  0.434827  0.902105  1
  O  O36  1  0.784724  0.058860  0.208448  1
  O  O37  1  0.264972  0.703024  0.293421  1
  O  O38  1  0.730108  0.045592  0.956866  1
  O  O39  1  0.269892  0.954408  0.043134  1
  O  O40  1  0.777086  0.347563  0.195586  1
  O  O41  1  0.222914  0.652437  0.804414  1
  O  O42  1  0.341898  0.880990  0.149046  1
  O  O43  1  0.223517  0.686857  0.652277  1
  O  O44  1  0.752321  0.565173  0.097895  1
  O  O45  1  0.735027  0.296976  0.706579  1
  O  O46  1  0.747679  0.065173  0.597895  1
  O  O47  1  0.215276  0.941140  0.791552  1
  O  O48  1  0.235028  0.203024  0.793421  1
  O  O49  1  0.158102  0.380990  0.649046  1
  O  O50  1  0.277086  0.152437  0.304414  1
  O  O51  1  0.841823  0.870547  0.100294  1
  O  O52  1  0.761064  0.807712  0.458324  1
  O  O53  1  0.252321  0.934827  0.402105  1
  O  O54  1  0.341823  0.629453  0.399706  1
  O  O55  1  0.246830  0.904268  0.554776  1
  O  O56  1  0.738936  0.307712  0.958324  1
  O  O57  1  0.276483  0.186857  0.152278  1
  O  O58  1  0.776483  0.313143  0.347722  1
  O  O59  1  0.158177  0.129453  0.899706  1
  O  O60  1  0.238936  0.192288  0.541676  1
  O  O61  1  0.716285  0.680575  0.576475  1
  O  O62  1  0.723517  0.813143  0.847723  1
  O  O63  1  0.769892  0.545592  0.456866  1
  O  O64  1  0.746830  0.595732  0.945224  1
  O  O65  1  0.722914  0.847563  0.695586  1
  O  O66  1  0.741828  0.428812  0.826022  1
  O  O67  1  0.230108  0.454408  0.543134  1
  O  O68  1  0.258172  0.571188  0.173978  1
  O  O69  1  0.658177  0.370547  0.600294  1
  O  O70  1  0.783715  0.180575  0.076475  1
  O  O71  1  0.241828  0.071188  0.673978  1
