# generated using pymatgen
data_SnH16C4(NCl3)2
_symmetry_space_group_name_H-M   'P 1'
_cell_length_a   7.38859263
_cell_length_b   7.50292086
_cell_length_c   14.69345761
_cell_angle_alpha   90.00000000
_cell_angle_beta   90.00000000
_cell_angle_gamma   90.00000000
_symmetry_Int_Tables_number   1
_chemical_formula_structural   SnH16C4(NCl3)2
_chemical_formula_sum   'Sn2 H32 C8 N4 Cl12'
_cell_volume   814.54689471
_cell_formula_units_Z   2
loop_
 _symmetry_equiv_pos_site_id
 _symmetry_equiv_pos_as_xyz
  1  'x, y, z'
loop_
 _atom_site_type_symbol
 _atom_site_label
 _atom_site_symmetry_multiplicity
 _atom_site_fract_x
 _atom_site_fract_y
 _atom_site_fract_z
 _atom_site_occupancy
  Sn  Sn0  1  0.000000  0.000000  0.000000  1
  Sn  Sn1  1  0.500000  0.500000  0.500000  1
  H  H2  1  0.879175  0.654829  0.238977  1
  H  H3  1  0.120825  0.654829  0.238977  1
  H  H4  1  0.000000  0.941584  0.434275  1
  H  H5  1  0.500000  0.558416  0.934275  1
  H  H6  1  0.878571  0.065359  0.671208  1
  H  H7  1  0.621429  0.565359  0.828792  1
  H  H8  1  0.500000  0.964338  0.217717  1
  H  H9  1  0.121429  0.934641  0.328792  1
  H  H10  1  0.388559  0.852144  0.904340  1
  H  H11  1  0.378571  0.565359  0.828792  1
  H  H12  1  0.620825  0.154829  0.261023  1
  H  H13  1  0.611441  0.147856  0.095660  1
  H  H14  1  0.111441  0.647856  0.404340  1
  H  H15  1  0.611441  0.852144  0.904340  1
  H  H16  1  0.888559  0.647856  0.404340  1
  H  H17  1  0.120825  0.345171  0.761023  1
  H  H18  1  0.111441  0.352144  0.595660  1
  H  H19  1  0.500000  0.441584  0.065725  1
  H  H20  1  0.878571  0.934641  0.328792  1
  H  H21  1  0.388559  0.147856  0.095660  1
  H  H22  1  0.621429  0.434641  0.171208  1
  H  H23  1  0.379175  0.154829  0.261023  1
  H  H24  1  0.000000  0.464338  0.282283  1
  H  H25  1  0.379175  0.845171  0.738977  1
  H  H26  1  0.121429  0.065359  0.671208  1
  H  H27  1  0.000000  0.058416  0.565725  1
  H  H28  1  0.879175  0.345171  0.761023  1
  H  H29  1  0.500000  0.035662  0.782283  1
  H  H30  1  0.620825  0.845171  0.738977  1
  H  H31  1  0.378571  0.434641  0.171208  1
  H  H32  1  0.888559  0.352144  0.595660  1
  H  H33  1  0.000000  0.535662  0.717717  1
  C  C34  1  0.000000  0.609444  0.275336  1
  C  C35  1  0.000000  0.109901  0.635238  1
  C  C36  1  0.500000  0.890556  0.775336  1
  C  C37  1  0.500000  0.109444  0.224664  1
  C  C38  1  0.500000  0.609901  0.864762  1
  C  C39  1  0.000000  0.890099  0.364762  1
  C  C40  1  0.500000  0.390099  0.135238  1
  C  C41  1  0.000000  0.390556  0.724664  1
  N  N42  1  0.000000  0.691511  0.367736  1
  N  N43  1  0.000000  0.308489  0.632264  1
  N  N44  1  0.500000  0.191511  0.132264  1
  N  N45  1  0.500000  0.808489  0.867736  1
  Cl  Cl46  1  0.258116  0.308043  0.436626  1
  Cl  Cl47  1  0.758116  0.191957  0.936626  1
  Cl  Cl48  1  0.500000  0.321556  0.641852  1
  Cl  Cl49  1  0.758116  0.808043  0.063374  1
  Cl  Cl50  1  0.500000  0.678444  0.358148  1
  Cl  Cl51  1  0.258116  0.691957  0.563374  1
  Cl  Cl52  1  0.741884  0.691957  0.563374  1
  Cl  Cl53  1  0.241884  0.191957  0.936626  1
  Cl  Cl54  1  0.000000  0.821556  0.858148  1
  Cl  Cl55  1  0.241884  0.808043  0.063374  1
  Cl  Cl56  1  0.741884  0.308043  0.436626  1
  Cl  Cl57  1  0.000000  0.178444  0.141852  1
