# generated using pymatgen
data_SiO2
_symmetry_space_group_name_H-M   'P 1'
_cell_length_a   8.54871744
_cell_length_b   8.89600025
_cell_length_c   10.42428537
_cell_angle_alpha   89.99964440
_cell_angle_beta   90.00000000
_cell_angle_gamma   90.00000000
_symmetry_Int_Tables_number   1
_chemical_formula_structural   SiO2
_chemical_formula_sum   'Si16 O32'
_cell_volume   792.76056945
_cell_formula_units_Z   16
loop_
 _symmetry_equiv_pos_site_id
 _symmetry_equiv_pos_as_xyz
  1  'x, y, z'
loop_
 _atom_site_type_symbol
 _atom_site_label
 _atom_site_symmetry_multiplicity
 _atom_site_fract_x
 _atom_site_fract_y
 _atom_site_fract_z
 _atom_site_occupancy
  Si  Si0  1  0.566260  0.581214  0.626300  1
  Si  Si1  1  0.933077  0.581537  0.626536  1
  Si  Si2  1  0.567070  0.081508  0.899725  1
  Si  Si3  1  0.066923  0.581537  0.126536  1
  Si  Si4  1  0.433740  0.581214  0.126300  1
  Si  Si5  1  0.433049  0.908945  0.661518  1
  Si  Si6  1  0.067033  0.409071  0.864730  1
  Si  Si7  1  0.933612  0.909351  0.161986  1
  Si  Si8  1  0.933777  0.081410  0.900261  1
  Si  Si9  1  0.432930  0.081508  0.399725  1
  Si  Si10  1  0.932967  0.409071  0.364730  1
  Si  Si11  1  0.433711  0.409265  0.864519  1
  Si  Si12  1  0.566951  0.908945  0.161518  1
  Si  Si13  1  0.066388  0.909351  0.661986  1
  Si  Si14  1  0.566289  0.409265  0.364519  1
  Si  Si15  1  0.066223  0.081410  0.400261  1
  O  O16  1  0.250309  0.440957  0.832668  1
  O  O17  1  0.958560  0.229567  0.381521  1
  O  O18  1  0.959249  0.730262  0.142022  1
  O  O19  1  0.485600  0.499620  0.993329  1
  O  O20  1  0.484028  0.994384  0.530215  1
  O  O21  1  0.040751  0.730262  0.642022  1
  O  O22  1  0.014479  0.999067  0.532908  1
  O  O23  1  0.459200  0.970027  0.278361  1
  O  O24  1  0.015783  0.495672  0.995442  1
  O  O25  1  0.249582  0.130130  0.406569  1
  O  O26  1  0.459783  0.465388  0.244918  1
  O  O27  1  0.959613  0.469104  0.747252  1
  O  O28  1  0.540748  0.230292  0.385155  1
  O  O29  1  0.249839  0.941071  0.693701  1
  O  O30  1  0.750161  0.941071  0.193701  1
  O  O31  1  0.514400  0.499620  0.493329  1
  O  O32  1  0.459252  0.230292  0.885155  1
  O  O33  1  0.984217  0.495672  0.495442  1
  O  O34  1  0.250370  0.629919  0.120041  1
  O  O35  1  0.540217  0.465388  0.744918  1
  O  O36  1  0.749630  0.629919  0.620041  1
  O  O37  1  0.959878  0.966127  0.781296  1
  O  O38  1  0.540800  0.970027  0.778361  1
  O  O39  1  0.040122  0.966127  0.281296  1
  O  O40  1  0.985521  0.999067  0.032908  1
  O  O41  1  0.541366  0.729274  0.145758  1
  O  O42  1  0.750418  0.130130  0.906569  1
  O  O43  1  0.749691  0.440957  0.332668  1
  O  O44  1  0.040387  0.469104  0.247252  1
  O  O45  1  0.458634  0.729274  0.645758  1
  O  O46  1  0.515972  0.994384  0.030215  1
  O  O47  1  0.041440  0.229567  0.881521  1
