# generated using pymatgen
data_SiO2
_symmetry_space_group_name_H-M   'P 1'
_cell_length_a   10.90672982
_cell_length_b   10.90673042
_cell_length_c   10.90673054
_cell_angle_alpha   43.33980912
_cell_angle_beta   43.33980525
_cell_angle_gamma   43.33980738
_symmetry_Int_Tables_number   1
_chemical_formula_structural   SiO2
_chemical_formula_sum   'Si12 O24'
_cell_volume   554.32535605
_cell_formula_units_Z   12
loop_
 _symmetry_equiv_pos_site_id
 _symmetry_equiv_pos_as_xyz
  1  'x, y, z'
loop_
 _atom_site_type_symbol
 _atom_site_label
 _atom_site_symmetry_multiplicity
 _atom_site_fract_x
 _atom_site_fract_y
 _atom_site_fract_z
 _atom_site_occupancy
  Si  Si0  1  0.549299  0.458975  0.139336  1
  Si  Si1  1  0.360664  0.041025  0.950701  1
  Si  Si2  1  0.958975  0.049299  0.639336  1
  Si  Si3  1  0.950701  0.360664  0.041025  1
  Si  Si4  1  0.541025  0.860664  0.450701  1
  Si  Si5  1  0.139336  0.549299  0.458975  1
  Si  Si6  1  0.450701  0.541025  0.860664  1
  Si  Si7  1  0.041025  0.950701  0.360664  1
  Si  Si8  1  0.639336  0.958975  0.049299  1
  Si  Si9  1  0.049299  0.639336  0.958975  1
  Si  Si10  1  0.458975  0.139336  0.549299  1
  Si  Si11  1  0.860664  0.450701  0.541025  1
  O  O12  1  0.247973  0.323050  0.596355  1
  O  O13  1  0.676950  0.403645  0.752027  1
  O  O14  1  0.500000  0.500000  0.000000  1
  O  O15  1  0.252027  0.903645  0.176950  1
  O  O16  1  0.823050  0.747973  0.096355  1
  O  O17  1  0.747973  0.096355  0.823050  1
  O  O18  1  0.176950  0.252027  0.903645  1
  O  O19  1  0.752027  0.676950  0.403645  1
  O  O20  1  0.323050  0.596355  0.247973  1
  O  O21  1  0.750000  0.494056  0.005944  1
  O  O22  1  0.494056  0.005944  0.750000  1
  O  O23  1  0.000000  0.000000  0.500000  1
  O  O24  1  0.250000  0.505944  0.994056  1
  O  O25  1  0.903645  0.176950  0.252027  1
  O  O26  1  0.505944  0.994056  0.250000  1
  O  O27  1  0.005944  0.750000  0.494056  1
  O  O28  1  0.500000  0.000000  0.500000  1
  O  O29  1  0.994056  0.250000  0.505944  1
  O  O30  1  0.403645  0.752027  0.676950  1
  O  O31  1  0.500000  0.000000  0.000000  1
  O  O32  1  0.596355  0.247973  0.323050  1
  O  O33  1  0.000000  0.500000  0.500000  1
  O  O34  1  0.000000  0.500000  0.000000  1
  O  O35  1  0.096355  0.823050  0.747973  1
