# generated using pymatgen
data_Cs3Mo4P3O16
_symmetry_space_group_name_H-M   'P 1'
_cell_length_a   7.86879603
_cell_length_b   7.86879603
_cell_length_c   7.86879603
_cell_angle_alpha   90.00000000
_cell_angle_beta   90.00000000
_cell_angle_gamma   90.00000000
_symmetry_Int_Tables_number   1
_chemical_formula_structural   Cs3Mo4P3O16
_chemical_formula_sum   'Cs3 Mo4 P3 O16'
_cell_volume   487.21972671
_cell_formula_units_Z   1
loop_
 _symmetry_equiv_pos_site_id
 _symmetry_equiv_pos_as_xyz
  1  'x, y, z'
loop_
 _atom_site_type_symbol
 _atom_site_label
 _atom_site_symmetry_multiplicity
 _atom_site_fract_x
 _atom_site_fract_y
 _atom_site_fract_z
 _atom_site_occupancy
  Cs  Cs0  1  0.000000  0.500000  0.000000  1
  Cs  Cs1  1  0.000000  0.000000  0.500000  1
  Cs  Cs2  1  0.500000  0.000000  0.000000  1
  Mo  Mo3  1  0.381912  0.381912  0.381912  1
  Mo  Mo4  1  0.618088  0.618088  0.381912  1
  Mo  Mo5  1  0.618088  0.381912  0.618088  1
  Mo  Mo6  1  0.381912  0.618088  0.618088  1
  P  P7  1  0.500000  0.000000  0.500000  1
  P  P8  1  0.500000  0.500000  0.000000  1
  P  P9  1  0.000000  0.500000  0.500000  1
  O  O10  1  0.383546  0.383546  0.110742  1
  O  O11  1  0.889258  0.616454  0.383546  1
  O  O12  1  0.642931  0.642931  0.642931  1
  O  O13  1  0.642931  0.357069  0.357069  1
  O  O14  1  0.110742  0.383546  0.383546  1
  O  O15  1  0.383546  0.616454  0.889258  1
  O  O16  1  0.616454  0.616454  0.110742  1
  O  O17  1  0.357069  0.357069  0.642931  1
  O  O18  1  0.616454  0.889258  0.383546  1
  O  O19  1  0.889258  0.383546  0.616454  1
  O  O20  1  0.383546  0.110742  0.383546  1
  O  O21  1  0.616454  0.383546  0.889258  1
  O  O22  1  0.357069  0.642931  0.357069  1
  O  O23  1  0.383546  0.889258  0.616454  1
  O  O24  1  0.110742  0.616454  0.616454  1
  O  O25  1  0.616454  0.110742  0.616454  1
