# generated using pymatgen
data_VS2Br2N3
_symmetry_space_group_name_H-M   'P 1'
_cell_length_a   6.05690586
_cell_length_b   7.86800798
_cell_length_c   8.30653936
_cell_angle_alpha   87.86843238
_cell_angle_beta   80.33920315
_cell_angle_gamma   71.95795962
_symmetry_Int_Tables_number   1
_chemical_formula_structural   VS2Br2N3
_chemical_formula_sum   'V2 S4 Br4 N6'
_cell_volume   371.00637726
_cell_formula_units_Z   2
loop_
 _symmetry_equiv_pos_site_id
 _symmetry_equiv_pos_as_xyz
  1  'x, y, z'
loop_
 _atom_site_type_symbol
 _atom_site_label
 _atom_site_symmetry_multiplicity
 _atom_site_fract_x
 _atom_site_fract_y
 _atom_site_fract_z
 _atom_site_occupancy
  V  V0  1  0.240502  0.996697  0.865185  1
  V  V1  1  0.759498  0.003303  0.134815  1
  S  S2  1  0.786668  0.290987  0.797936  1
  S  S3  1  0.778459  0.733604  0.417899  1
  S  S4  1  0.221541  0.266396  0.582101  1
  S  S5  1  0.213332  0.709013  0.202064  1
  Br  Br6  1  0.263836  0.722080  0.730564  1
  Br  Br7  1  0.663499  0.799370  0.936745  1
  Br  Br8  1  0.336501  0.200630  0.063255  1
  Br  Br9  1  0.736164  0.277920  0.269436  1
  N  N10  1  0.333742  0.105614  0.694026  1
  N  N11  1  0.666258  0.894386  0.305974  1
  N  N12  1  0.070628  0.875297  0.105743  1
  N  N13  1  0.944543  0.349749  0.647582  1
  N  N14  1  0.055457  0.650251  0.352418  1
  N  N15  1  0.929372  0.124703  0.894257  1
