# generated using pymatgen
data_Al2(WO4)3
_symmetry_space_group_name_H-M   'P 1'
_cell_length_a   9.22254174
_cell_length_b   9.31104364
_cell_length_c   12.89263915
_cell_angle_alpha   90.00000000
_cell_angle_beta   89.96425259
_cell_angle_gamma   90.00000000
_symmetry_Int_Tables_number   1
_chemical_formula_structural   Al2(WO4)3
_chemical_formula_sum   'Al8 W12 O48'
_cell_volume   1107.10990009
_cell_formula_units_Z   4
loop_
 _symmetry_equiv_pos_site_id
 _symmetry_equiv_pos_as_xyz
  1  'x, y, z'
loop_
 _atom_site_type_symbol
 _atom_site_label
 _atom_site_symmetry_multiplicity
 _atom_site_fract_x
 _atom_site_fract_y
 _atom_site_fract_z
 _atom_site_occupancy
  Al  Al0  1  0.001601  0.467521  0.132264  1
  Al  Al1  1  0.498259  0.467545  0.869548  1
  Al  Al2  1  0.502354  0.534187  0.369107  1
  Al  Al3  1  0.998233  0.532754  0.632571  1
  Al  Al4  1  0.501741  0.967545  0.130451  1
  Al  Al5  1  0.001767  0.032754  0.367429  1
  Al  Al6  1  0.497646  0.034187  0.630893  1
  Al  Al7  1  0.998399  0.967521  0.867736  1
  W  W8  1  0.145106  0.383159  0.395547  1
  W  W9  1  0.642528  0.384760  0.606493  1
  W  W10  1  0.854894  0.883159  0.604453  1
  W  W11  1  0.223348  0.250396  0.750165  1
  W  W12  1  0.642943  0.116589  0.893177  1
  W  W13  1  0.144930  0.117929  0.104072  1
  W  W14  1  0.776652  0.750396  0.249835  1
  W  W15  1  0.855070  0.617929  0.895928  1
  W  W16  1  0.357472  0.884760  0.393507  1
  W  W17  1  0.274122  0.750506  0.750656  1
  W  W18  1  0.725878  0.250506  0.249344  1
  W  W19  1  0.357057  0.616589  0.106823  1
  O  O20  1  0.336636  0.342808  0.843487  1
  O  O21  1  0.564867  0.494826  0.504990  1
  O  O22  1  0.436118  0.934877  0.270434  1
  O  O23  1  0.435133  0.994826  0.495010  1
  O  O24  1  0.158997  0.839553  0.844682  1
  O  O25  1  0.107842  0.376975  0.684213  1
  O  O26  1  0.393167  0.805207  0.084039  1
  O  O27  1  0.560639  0.067203  0.771236  1
  O  O28  1  0.839542  0.156967  0.341817  1
  O  O29  1  0.383459  0.879380  0.680915  1
  O  O30  1  0.563882  0.434877  0.729566  1
  O  O31  1  0.163364  0.910510  0.388063  1
  O  O32  1  0.338630  0.087518  0.106767  1
  O  O33  1  0.886061  0.620200  0.181989  1
  O  O34  1  0.060785  0.010648  0.003589  1
  O  O35  1  0.934862  0.990500  0.502294  1
  O  O36  1  0.431960  0.505696  0.004802  1
  O  O37  1  0.663061  0.662008  0.345139  1
  O  O38  1  0.888915  0.693336  0.584179  1
  O  O39  1  0.606833  0.305207  0.915961  1
  O  O40  1  0.068597  0.068609  0.227869  1
  O  O41  1  0.841003  0.339553  0.155318  1
  O  O42  1  0.837178  0.091804  0.884836  1
  O  O43  1  0.892158  0.876975  0.315787  1
  O  O44  1  0.660905  0.912205  0.610518  1
  O  O45  1  0.886651  0.808412  0.915379  1
  O  O46  1  0.162822  0.591804  0.115164  1
  O  O47  1  0.392070  0.695560  0.415242  1
  O  O48  1  0.935526  0.932707  0.726852  1
  O  O49  1  0.111085  0.193336  0.415821  1
  O  O50  1  0.568040  0.005696  0.995198  1
  O  O51  1  0.836636  0.410510  0.611937  1
  O  O52  1  0.113939  0.120200  0.818011  1
  O  O53  1  0.939215  0.510648  0.996411  1
  O  O54  1  0.931403  0.568609  0.772131  1
  O  O55  1  0.160458  0.656967  0.658183  1
  O  O56  1  0.439361  0.567203  0.228764  1
  O  O57  1  0.113349  0.308412  0.084621  1
  O  O58  1  0.661370  0.587518  0.893233  1
  O  O59  1  0.065138  0.490500  0.497706  1
  O  O60  1  0.616541  0.379380  0.319085  1
  O  O61  1  0.064474  0.432707  0.273148  1
  O  O62  1  0.336940  0.162008  0.654861  1
  O  O63  1  0.339095  0.412205  0.389482  1
  O  O64  1  0.611276  0.125243  0.180809  1
  O  O65  1  0.388724  0.625243  0.819191  1
  O  O66  1  0.607930  0.195560  0.584758  1
  O  O67  1  0.663364  0.842808  0.156513  1
