# generated using pymatgen
data_Sc2O3
_symmetry_space_group_name_H-M   'P 1'
_cell_length_a   3.21431456
_cell_length_b   6.88689773
_cell_length_c   8.05094014
_cell_angle_alpha   100.36216620
_cell_angle_beta   90.00000000
_cell_angle_gamma   103.49523383
_symmetry_Int_Tables_number   1
_chemical_formula_structural   Sc2O3
_chemical_formula_sum   'Sc6 O9'
_cell_volume   170.30942788
_cell_formula_units_Z   3
loop_
 _symmetry_equiv_pos_site_id
 _symmetry_equiv_pos_as_xyz
  1  'x, y, z'
loop_
 _atom_site_type_symbol
 _atom_site_label
 _atom_site_symmetry_multiplicity
 _atom_site_fract_x
 _atom_site_fract_y
 _atom_site_fract_z
 _atom_site_occupancy
  Sc  Sc0  1  0.969214  0.938428  0.183952  1
  Sc  Sc1  1  0.636326  0.272651  0.487189  1
  Sc  Sc2  1  0.307984  0.615969  0.863665  1
  Sc  Sc3  1  0.030786  0.061572  0.816048  1
  Sc  Sc4  1  0.363674  0.727349  0.512811  1
  Sc  Sc5  1  0.692016  0.384031  0.136335  1
  O  O6  1  0.173726  0.347451  0.964912  1
  O  O7  1  0.826274  0.652549  0.035088  1
  O  O8  1  0.210046  0.420092  0.621155  1
  O  O9  1  0.874449  0.748898  0.720561  1
  O  O10  1  0.500000  0.000000  0.000000  1
  O  O11  1  0.789954  0.579908  0.378845  1
  O  O12  1  0.465847  0.931695  0.340978  1
  O  O13  1  0.125551  0.251102  0.279439  1
  O  O14  1  0.534153  0.068305  0.659022  1
