# generated using pymatgen
data_Sr2MnMoO6
_symmetry_space_group_name_H-M   'P 1'
_cell_length_a   5.75379345
_cell_length_b   5.73850507
_cell_length_c   8.10560229
_cell_angle_alpha   90.13259158
_cell_angle_beta   90.00000000
_cell_angle_gamma   90.00000000
_symmetry_Int_Tables_number   1
_chemical_formula_structural   Sr2MnMoO6
_chemical_formula_sum   'Sr4 Mn2 Mo2 O12'
_cell_volume   267.63146126
_cell_formula_units_Z   2
loop_
 _symmetry_equiv_pos_site_id
 _symmetry_equiv_pos_as_xyz
  1  'x, y, z'
loop_
 _atom_site_type_symbol
 _atom_site_label
 _atom_site_symmetry_multiplicity
 _atom_site_fract_x
 _atom_site_fract_y
 _atom_site_fract_z
 _atom_site_occupancy
  Sr  Sr0  1  0.527624  0.495147  0.249668  1
  Sr  Sr1  1  0.027624  0.004853  0.250332  1
  Sr  Sr2  1  0.972376  0.995147  0.749668  1
  Sr  Sr3  1  0.472376  0.504853  0.750332  1
  Mn  Mn4  1  0.000000  0.500000  0.000000  1
  Mn  Mn5  1  0.500000  0.000000  0.500000  1
  Mo  Mo6  1  0.500000  0.000000  0.000000  1
  Mo  Mo7  1  0.000000  0.500000  0.500000  1
  O  O8  1  0.204861  0.767357  0.533794  1
  O  O9  1  0.795139  0.232643  0.466206  1
  O  O10  1  0.986259  0.566158  0.264007  1
  O  O11  1  0.269436  0.297893  0.464471  1
  O  O12  1  0.486259  0.933842  0.235993  1
  O  O13  1  0.230564  0.797893  0.964471  1
  O  O14  1  0.513741  0.066158  0.764007  1
  O  O15  1  0.769436  0.202107  0.035529  1
  O  O16  1  0.295139  0.267357  0.033794  1
  O  O17  1  0.730564  0.702107  0.535529  1
  O  O18  1  0.013741  0.433842  0.735993  1
  O  O19  1  0.704861  0.732643  0.966206  1
