# generated using pymatgen
data_Na2Si3O7
_symmetry_space_group_name_H-M   'P 1'
_cell_length_a   7.29481143
_cell_length_b   8.88125256
_cell_length_c   10.73429100
_cell_angle_alpha   90.00000000
_cell_angle_beta   90.00000000
_cell_angle_gamma   104.89601436
_symmetry_Int_Tables_number   1
_chemical_formula_structural   Na2Si3O7
_chemical_formula_sum   'Na8 Si12 O28'
_cell_volume   672.07209523
_cell_formula_units_Z   4
loop_
 _symmetry_equiv_pos_site_id
 _symmetry_equiv_pos_as_xyz
  1  'x, y, z'
loop_
 _atom_site_type_symbol
 _atom_site_label
 _atom_site_symmetry_multiplicity
 _atom_site_fract_x
 _atom_site_fract_y
 _atom_site_fract_z
 _atom_site_occupancy
  Na  Na0  1  0.588684  0.377578  0.696403  1
  Na  Na1  1  0.681256  0.429983  0.060459  1
  Na  Na2  1  0.181256  0.929983  0.439541  1
  Na  Na3  1  0.818744  0.070017  0.560459  1
  Na  Na4  1  0.088684  0.877578  0.803597  1
  Na  Na5  1  0.318744  0.570017  0.939541  1
  Na  Na6  1  0.411316  0.622422  0.303597  1
  Na  Na7  1  0.911316  0.122422  0.196403  1
  Si  Si8  1  0.403501  0.024073  0.183200  1
  Si  Si9  1  0.849035  0.684244  0.568386  1
  Si  Si10  1  0.596499  0.975927  0.816800  1
  Si  Si11  1  0.449186  0.727180  0.606172  1
  Si  Si12  1  0.050814  0.772820  0.106172  1
  Si  Si13  1  0.949186  0.227180  0.893828  1
  Si  Si14  1  0.903501  0.524073  0.316800  1
  Si  Si15  1  0.349035  0.184244  0.931614  1
  Si  Si16  1  0.096499  0.475927  0.683200  1
  Si  Si17  1  0.550814  0.272820  0.393828  1
  Si  Si18  1  0.150965  0.315756  0.431614  1
  Si  Si19  1  0.650965  0.815756  0.068386  1
  O  O20  1  0.580903  0.954112  0.144092  1
  O  O21  1  0.710221  0.382764  0.295502  1
  O  O22  1  0.459022  0.356652  0.894672  1
  O  O23  1  0.959022  0.856652  0.605328  1
  O  O24  1  0.789779  0.117236  0.795502  1
  O  O25  1  0.867047  0.256706  0.024664  1
  O  O26  1  0.289779  0.617236  0.704498  1
  O  O27  1  0.380395  0.366304  0.398170  1
  O  O28  1  0.419097  0.045888  0.855908  1
  O  O29  1  0.630984  0.847485  0.916709  1
  O  O30  1  0.130984  0.347485  0.583291  1
  O  O31  1  0.119605  0.133696  0.898170  1
  O  O32  1  0.540978  0.643348  0.105328  1
  O  O33  1  0.880395  0.866304  0.101830  1
  O  O34  1  0.132954  0.743294  0.975336  1
  O  O35  1  0.041711  0.392193  0.817657  1
  O  O36  1  0.919097  0.545888  0.644092  1
  O  O37  1  0.869016  0.652515  0.416709  1
  O  O38  1  0.541711  0.892193  0.682343  1
  O  O39  1  0.367046  0.756706  0.475336  1
  O  O40  1  0.369016  0.152515  0.083291  1
  O  O41  1  0.080903  0.454112  0.355908  1
  O  O42  1  0.632953  0.243294  0.524664  1
  O  O43  1  0.210221  0.882764  0.204498  1
  O  O44  1  0.619605  0.633696  0.601830  1
  O  O45  1  0.458289  0.107807  0.317657  1
  O  O46  1  0.958289  0.607807  0.182343  1
  O  O47  1  0.040978  0.143348  0.394672  1
