# generated using pymatgen
data_Co2(GeSe)3
_symmetry_space_group_name_H-M   'P 1'
_cell_length_a   8.36263458
_cell_length_b   8.36263459
_cell_length_c   8.36263458
_cell_angle_alpha   89.94543985
_cell_angle_beta   89.94543981
_cell_angle_gamma   89.94543979
_symmetry_Int_Tables_number   1
_chemical_formula_structural   Co2(GeSe)3
_chemical_formula_sum   'Co8 Ge12 Se12'
_cell_volume   584.82882528
_cell_formula_units_Z   4
loop_
 _symmetry_equiv_pos_site_id
 _symmetry_equiv_pos_as_xyz
  1  'x, y, z'
loop_
 _atom_site_type_symbol
 _atom_site_label
 _atom_site_symmetry_multiplicity
 _atom_site_fract_x
 _atom_site_fract_y
 _atom_site_fract_z
 _atom_site_occupancy
  Co  Co0  1  0.002190  0.002190  0.002190  1
  Co  Co1  1  0.503580  0.503580  0.503580  1
  Co  Co2  1  -0.000008  0.500764  0.501265  1
  Co  Co3  1  0.501265  -0.000008  0.500764  1
  Co  Co4  1  0.500764  0.501265  -0.000008  1
  Co  Co5  1  0.505777  0.005021  0.004490  1
  Co  Co6  1  0.004490  0.505777  0.005021  1
  Co  Co7  1  0.005021  0.004490  0.505777  1
  Ge  Ge8  1  0.255323  0.925886  0.095108  1
  Ge  Ge9  1  0.095108  0.255323  0.925886  1
  Ge  Ge10  1  0.925886  0.095108  0.255323  1
  Ge  Ge11  1  0.080216  0.594668  0.752413  1
  Ge  Ge12  1  0.594668  0.752413  0.080216  1
  Ge  Ge13  1  0.752413  0.080216  0.594668  1
  Ge  Ge14  1  0.250446  0.579834  0.410690  1
  Ge  Ge15  1  0.410690  0.250446  0.579834  1
  Ge  Ge16  1  0.579834  0.410690  0.250446  1
  Ge  Ge17  1  0.425529  0.911056  0.753378  1
  Ge  Ge18  1  0.911056  0.753378  0.425529  1
  Ge  Ge19  1  0.753378  0.425529  0.911056  1
  Se  Se20  1  0.098450  0.901081  0.756434  1
  Se  Se21  1  0.901081  0.756434  0.098450  1
  Se  Se22  1  0.756434  0.098450  0.901081  1
  Se  Se23  1  0.104362  0.253332  0.597879  1
  Se  Se24  1  0.253332  0.597879  0.104362  1
  Se  Se25  1  0.597879  0.104362  0.253332  1
  Se  Se26  1  0.749358  0.407318  0.604565  1
  Se  Se27  1  0.604565  0.749358  0.407318  1
  Se  Se28  1  0.407318  0.604565  0.749358  1
  Se  Se29  1  0.401407  0.252427  0.907862  1
  Se  Se30  1  0.907862  0.401407  0.252427  1
  Se  Se31  1  0.252427  0.907862  0.401407  1
