# generated using pymatgen
data_BaGa2(GeO4)2
_symmetry_space_group_name_H-M   'P 1'
_cell_length_a   8.91094938
_cell_length_b   9.48059180
_cell_length_c   10.07196562
_cell_angle_alpha   90.00000000
_cell_angle_beta   90.00000000
_cell_angle_gamma   90.38377996
_symmetry_Int_Tables_number   1
_chemical_formula_structural   BaGa2(GeO4)2
_chemical_formula_sum   'Ba4 Ga8 Ge8 O32'
_cell_volume   850.87138139
_cell_formula_units_Z   4
loop_
 _symmetry_equiv_pos_site_id
 _symmetry_equiv_pos_as_xyz
  1  'x, y, z'
loop_
 _atom_site_type_symbol
 _atom_site_label
 _atom_site_symmetry_multiplicity
 _atom_site_fract_x
 _atom_site_fract_y
 _atom_site_fract_z
 _atom_site_occupancy
  Ba  Ba0  1  0.250596  0.891197  0.412570  1
  Ba  Ba1  1  0.749404  0.608803  0.912570  1
  Ba  Ba2  1  0.749404  0.108803  0.587430  1
  Ba  Ba3  1  0.250596  0.391197  0.087430  1
  Ge  Ge4  1  0.937313  0.064274  0.196838  1
  Ge  Ge5  1  0.062687  0.435726  0.696838  1
  Ge  Ge6  1  0.062687  0.935726  0.803162  1
  Ge  Ge7  1  0.937313  0.564274  0.303162  1
  Ga  Ga8  1  0.570849  0.061740  0.192527  1
  Ga  Ga9  1  0.429151  0.438260  0.692527  1
  Ga  Ga10  1  0.429151  0.938260  0.807473  1
  Ga  Ga11  1  0.570849  0.561740  0.307473  1
  Ga  Ga12  1  0.932297  0.228734  0.920359  1
  Ga  Ga13  1  0.067703  0.271266  0.420359  1
  Ga  Ga14  1  0.067703  0.771266  0.079641  1
  Ga  Ga15  1  0.932297  0.728734  0.579641  1
  Ge  Ge16  1  0.563124  0.234772  0.916924  1
  Ge  Ge17  1  0.436876  0.265228  0.416924  1
  Ge  Ge18  1  0.436876  0.765228  0.083076  1
  Ge  Ge19  1  0.563124  0.734772  0.583076  1
  O  O20  1  0.007370  0.199387  0.089516  1
  O  O21  1  0.992630  0.300613  0.589516  1
  O  O22  1  0.992630  0.800613  0.910484  1
  O  O23  1  0.007370  0.699387  0.410484  1
  O  O24  1  0.493324  0.197235  0.077293  1
  O  O25  1  0.506676  0.302765  0.577293  1
  O  O26  1  0.506676  0.802765  0.922707  1
  O  O27  1  0.493324  0.697235  0.422707  1
  O  O28  1  0.942098  0.123118  0.364671  1
  O  O29  1  0.057902  0.376882  0.864671  1
  O  O30  1  0.057902  0.876882  0.635329  1
  O  O31  1  0.942098  0.623118  0.135329  1
  O  O32  1  0.557618  0.125606  0.367339  1
  O  O33  1  0.442382  0.374394  0.867339  1
  O  O34  1  0.442382  0.874394  0.632661  1
  O  O35  1  0.557618  0.625606  0.132661  1
  O  O36  1  0.069060  0.924571  0.191773  1
  O  O37  1  0.930940  0.575429  0.691773  1
  O  O38  1  0.930940  0.075429  0.808227  1
  O  O39  1  0.069060  0.424571  0.308227  1
  O  O40  1  0.436129  0.910337  0.191904  1
  O  O41  1  0.563871  0.589663  0.691904  1
  O  O42  1  0.563871  0.089663  0.808096  1
  O  O43  1  0.436129  0.410337  0.308096  1
  O  O44  1  0.759968  0.005137  0.145689  1
  O  O45  1  0.240032  0.494863  0.645689  1
  O  O46  1  0.240032  0.994863  0.854311  1
  O  O47  1  0.759968  0.505137  0.354311  1
  O  O48  1  0.744636  0.314170  0.913158  1
  O  O49  1  0.255364  0.185830  0.413158  1
  O  O50  1  0.255364  0.685830  0.086842  1
  O  O51  1  0.744636  0.814170  0.586842  1
