# generated using pymatgen
data_Na3NbAs2O9
_symmetry_space_group_name_H-M   'P 1'
_cell_length_a   9.47548892
_cell_length_b   10.50933117
_cell_length_c   11.33182880
_cell_angle_alpha   110.85118300
_cell_angle_beta   90.00000000
_cell_angle_gamma   90.00000000
_symmetry_Int_Tables_number   1
_chemical_formula_structural   Na3NbAs2O9
_chemical_formula_sum   'Na12 Nb4 As8 O36'
_cell_volume   1054.53202215
_cell_formula_units_Z   4
loop_
 _symmetry_equiv_pos_site_id
 _symmetry_equiv_pos_as_xyz
  1  'x, y, z'
loop_
 _atom_site_type_symbol
 _atom_site_label
 _atom_site_symmetry_multiplicity
 _atom_site_fract_x
 _atom_site_fract_y
 _atom_site_fract_z
 _atom_site_occupancy
  Na  Na0  1  0.060983  0.649305  0.852051  1
  Na  Na1  1  0.722251  0.674899  0.146004  1
  Na  Na2  1  0.777749  0.174899  0.646004  1
  Na  Na3  1  0.277749  0.325101  0.853996  1
  Na  Na4  1  0.560983  0.850695  0.647949  1
  Na  Na5  1  0.222251  0.825101  0.353996  1
  Na  Na6  1  0.866804  0.015551  0.152900  1
  Na  Na7  1  0.133196  0.984449  0.847100  1
  Na  Na8  1  0.366804  0.484449  0.347100  1
  Na  Na9  1  0.939017  0.350695  0.147949  1
  Na  Na10  1  0.439017  0.149305  0.352051  1
  Na  Na11  1  0.633196  0.515551  0.652900  1
  Nb  Nb12  1  0.607636  0.298661  0.031228  1
  Nb  Nb13  1  0.107636  0.201339  0.468772  1
  Nb  Nb14  1  0.392364  0.701339  0.968772  1
  Nb  Nb15  1  0.892364  0.798661  0.531228  1
  As  As16  1  0.172051  0.728941  0.611621  1
  As  As17  1  0.716299  0.560924  0.388080  1
  As  As18  1  0.827949  0.271059  0.388379  1
  As  As19  1  0.783701  0.060924  0.888080  1
  As  As20  1  0.327949  0.228941  0.111621  1
  As  As21  1  0.283701  0.439076  0.611920  1
  As  As22  1  0.216299  0.939076  0.111920  1
  As  As23  1  0.672051  0.771059  0.888379  1
  O  O24  1  0.573652  0.281547  0.585706  1
  O  O25  1  0.480386  0.429664  0.983616  1
  O  O26  1  0.400149  0.190677  0.959771  1
  O  O27  1  0.073652  0.218453  0.914294  1
  O  O28  1  0.926348  0.781547  0.085706  1
  O  O29  1  0.584675  0.316359  0.479979  1
  O  O30  1  0.599851  0.809323  0.040229  1
  O  O31  1  0.426348  0.718453  0.414294  1
  O  O32  1  0.748595  0.149527  0.055171  1
  O  O33  1  0.915325  0.816359  0.979979  1
  O  O34  1  0.818536  0.687449  0.350778  1
  O  O35  1  0.519614  0.570336  0.016384  1
  O  O36  1  0.415325  0.683641  0.520021  1
  O  O37  1  0.730646  0.437480  0.098485  1
  O  O38  1  0.644490  0.929032  0.855181  1
  O  O39  1  0.751405  0.649527  0.555171  1
  O  O40  1  0.084675  0.183641  0.020021  1
  O  O41  1  0.269354  0.562520  0.901515  1
  O  O42  1  0.181464  0.312551  0.649222  1
  O  O43  1  0.355510  0.070968  0.144819  1
  O  O44  1  0.251405  0.850473  0.944829  1
  O  O45  1  0.099851  0.690677  0.459771  1
  O  O46  1  0.900149  0.309323  0.540229  1
  O  O47  1  0.681464  0.187449  0.850778  1
  O  O48  1  0.318536  0.812551  0.149222  1
  O  O49  1  0.502437  0.694496  0.811655  1
  O  O50  1  0.497563  0.305504  0.188345  1
  O  O51  1  0.019614  0.929664  0.483616  1
  O  O52  1  0.248595  0.350473  0.444829  1
  O  O53  1  0.769354  0.937480  0.598485  1
  O  O54  1  0.997563  0.194496  0.311655  1
  O  O55  1  0.855510  0.429032  0.355181  1
  O  O56  1  0.144490  0.570968  0.644819  1
  O  O57  1  0.002437  0.805504  0.688345  1
  O  O58  1  0.230646  0.062520  0.401515  1
  O  O59  1  0.980386  0.070336  0.516384  1
