# generated using pymatgen
data_Ba2Nd2Co4O11
_symmetry_space_group_name_H-M   'P 1'
_cell_length_a   3.93300230
_cell_length_b   7.63939269
_cell_length_c   8.02851385
_cell_angle_alpha   90.00248391
_cell_angle_beta   90.01113611
_cell_angle_gamma   89.99695962
_symmetry_Int_Tables_number   1
_chemical_formula_structural   Ba2Nd2Co4O11
_chemical_formula_sum   'Ba2 Nd2 Co4 O11'
_cell_volume   241.22270686
_cell_formula_units_Z   1
loop_
 _symmetry_equiv_pos_site_id
 _symmetry_equiv_pos_as_xyz
  1  'x, y, z'
loop_
 _atom_site_type_symbol
 _atom_site_label
 _atom_site_symmetry_multiplicity
 _atom_site_fract_x
 _atom_site_fract_y
 _atom_site_fract_z
 _atom_site_occupancy
  Ba  Ba0  1  0.500183  0.999222  0.754616  1
  Ba  Ba1  1  0.499890  0.999261  0.245350  1
  Nd  Nd2  1  0.500058  0.500609  0.736400  1
  Nd  Nd3  1  0.499872  0.500674  0.263643  1
  Co  Co4  1  0.999872  0.745711  0.000001  1
  Co  Co5  1  0.999868  0.251094  0.500001  1
  Co  Co6  1  0.000035  0.748909  0.500049  1
  Co  Co7  1  0.000284  0.253711  -0.000001  1
  O  O8  1  -0.000008  0.707101  0.770371  1
  O  O9  1  0.999993  0.707116  0.229623  1
  O  O10  1  0.499944  0.269114  0.499994  1
  O  O11  1  0.500004  0.733386  0.499947  1
  O  O12  1  0.999940  0.495801  0.500007  1
  O  O13  1  0.000129  0.290739  0.769161  1
  O  O14  1  0.999881  0.999511  0.999989  1
  O  O15  1  0.500197  0.685990  1.000000  1
  O  O16  1  0.000276  0.290735  0.230843  1
  O  O17  1  0.499577  0.312735  0.999979  1
  O  O18  1  0.000005  0.008581  0.500028  1
