# generated using pymatgen
data_Tb9(SbO)5
_symmetry_space_group_name_H-M   'P 1'
_cell_length_a   8.92553480
_cell_length_b   9.92464812
_cell_length_c   9.92464812
_cell_angle_alpha   90.00000000
_cell_angle_beta   90.00000000
_cell_angle_gamma   90.00000000
_symmetry_Int_Tables_number   1
_chemical_formula_structural   Tb9(SbO)5
_chemical_formula_sum   'Tb18 Sb10 O10'
_cell_volume   879.15304180
_cell_formula_units_Z   2
loop_
 _symmetry_equiv_pos_site_id
 _symmetry_equiv_pos_as_xyz
  1  'x, y, z'
loop_
 _atom_site_type_symbol
 _atom_site_label
 _atom_site_symmetry_multiplicity
 _atom_site_fract_x
 _atom_site_fract_y
 _atom_site_fract_z
 _atom_site_occupancy
  Tb  Tb0  1  0.341895  0.645419  0.455442  1
  Tb  Tb1  1  0.671644  0.750000  0.750000  1
  Tb  Tb2  1  0.658105  0.354581  0.544558  1
  Tb  Tb3  1  0.658105  0.145419  0.955442  1
  Tb  Tb4  1  0.001460  0.667518  0.975940  1
  Tb  Tb5  1  0.341895  0.044558  0.645419  1
  Tb  Tb6  1  0.658105  0.955442  0.354581  1
  Tb  Tb7  1  0.341895  0.455442  0.854581  1
  Tb  Tb8  1  0.328356  0.250000  0.250000  1
  Tb  Tb9  1  0.658105  0.544558  0.145419  1
  Tb  Tb10  1  0.001460  0.832482  0.524060  1
  Tb  Tb11  1  0.998540  0.332482  0.024060  1
  Tb  Tb12  1  0.998540  0.167518  0.475940  1
  Tb  Tb13  1  0.341895  0.854581  0.044558  1
  Tb  Tb14  1  0.001460  0.975940  0.832482  1
  Tb  Tb15  1  0.998540  0.024060  0.167518  1
  Tb  Tb16  1  0.998540  0.475940  0.332482  1
  Tb  Tb17  1  0.001460  0.524060  0.667518  1
  Sb  Sb18  1  0.698367  0.445545  0.845632  1
  Sb  Sb19  1  0.301633  0.554455  0.154368  1
  Sb  Sb20  1  0.301633  0.154368  0.945545  1
  Sb  Sb21  1  0.681998  0.250000  0.250000  1
  Sb  Sb22  1  0.698367  0.654368  0.445545  1
  Sb  Sb23  1  0.698367  0.845632  0.054455  1
  Sb  Sb24  1  0.301633  0.345632  0.554455  1
  Sb  Sb25  1  0.698367  0.054455  0.654368  1
  Sb  Sb26  1  0.301633  0.945545  0.345632  1
  Sb  Sb27  1  0.318002  0.750000  0.750000  1
  O  O28  1  0.087058  0.629892  0.474940  1
  O  O29  1  0.912942  0.129892  0.974940  1
  O  O30  1  0.935639  0.750000  0.750000  1
  O  O31  1  0.087058  0.474940  0.870108  1
  O  O32  1  0.064361  0.250000  0.250000  1
  O  O33  1  0.912942  0.525060  0.129892  1
  O  O34  1  0.912942  0.974940  0.370108  1
  O  O35  1  0.087058  0.025060  0.629892  1
  O  O36  1  0.087058  0.870108  0.025060  1
  O  O37  1  0.912942  0.370108  0.525060  1
