# generated using pymatgen
data_P2W2O11
_symmetry_space_group_name_H-M   'P 1'
_cell_length_a   7.99663596
_cell_length_b   8.01093536
_cell_length_c   12.74191659
_cell_angle_alpha   90.00000000
_cell_angle_beta   90.00000000
_cell_angle_gamma   92.37576374
_symmetry_Int_Tables_number   1
_chemical_formula_structural   P2W2O11
_chemical_formula_sum   'P8 W8 O44'
_cell_volume   815.55237031
_cell_formula_units_Z   4
loop_
 _symmetry_equiv_pos_site_id
 _symmetry_equiv_pos_as_xyz
  1  'x, y, z'
loop_
 _atom_site_type_symbol
 _atom_site_label
 _atom_site_symmetry_multiplicity
 _atom_site_fract_x
 _atom_site_fract_y
 _atom_site_fract_z
 _atom_site_occupancy
  P  P0  1  0.252156  0.106297  0.501496  1
  P  P1  1  0.250360  0.615581  0.755582  1
  P  P2  1  0.250771  0.614512  0.247936  1
  P  P3  1  0.072181  0.344155  0.001823  1
  P  P4  1  0.749229  0.385488  0.747936  1
  P  P5  1  0.749640  0.384419  0.255582  1
  P  P6  1  0.747844  0.893703  0.001496  1
  P  P7  1  0.927819  0.655845  0.501823  1
  W  W8  1  0.850721  0.807569  0.749449  1
  W  W9  1  0.149743  0.193409  0.753899  1
  W  W10  1  0.362546  0.689950  0.001923  1
  W  W11  1  0.361315  0.694309  0.501846  1
  W  W12  1  0.638685  0.305691  0.001846  1
  W  W13  1  0.850257  0.806591  0.253899  1
  W  W14  1  0.149279  0.192431  0.249449  1
  W  W15  1  0.637454  0.310050  0.501923  1
  O  O16  1  0.256312  0.421527  0.257277  1
  O  O17  1  0.896004  0.407918  0.001904  1
  O  O18  1  0.556898  0.515549  0.002314  1
  O  O19  1  0.999223  0.999936  0.252006  1
  O  O20  1  0.831164  0.815622  0.098291  1
  O  O21  1  0.255839  0.422768  0.745230  1
  O  O22  1  0.371173  0.664476  0.847991  1
  O  O23  1  0.668988  0.305486  0.846653  1
  O  O24  1  0.000777  0.000064  0.752006  1
  O  O25  1  0.076230  0.671551  0.226549  1
  O  O26  1  0.330072  0.696854  0.657072  1
  O  O27  1  0.212064  0.839171  0.002169  1
  O  O28  1  0.796378  0.508386  0.502066  1
  O  O29  1  0.628351  0.335627  0.655747  1
  O  O30  1  0.330888  0.088994  0.226282  1
  O  O31  1  0.773488  0.082887  0.000927  1
  O  O32  1  0.669112  0.911006  0.726282  1
  O  O33  1  0.443102  0.484451  0.502314  1
  O  O34  1  0.102922  0.234415  0.099465  1
  O  O35  1  0.103996  0.592082  0.501904  1
  O  O36  1  0.443396  0.152554  0.501652  1
  O  O37  1  0.226512  0.917113  0.500927  1
  O  O38  1  0.924259  0.327999  0.277394  1
  O  O39  1  0.744161  0.577232  0.245230  1
  O  O40  1  0.371649  0.664373  0.155747  1
  O  O41  1  0.556604  0.847446  0.001652  1
  O  O42  1  0.787936  0.160829  0.502169  1
  O  O43  1  0.332271  0.091828  0.777521  1
  O  O44  1  0.831176  0.814421  0.905117  1
  O  O45  1  0.203622  0.491614  0.002066  1
  O  O46  1  0.896739  0.764497  0.403801  1
  O  O47  1  0.628827  0.335524  0.347991  1
  O  O48  1  0.452413  0.187536  0.001916  1
  O  O49  1  0.897078  0.765585  0.599465  1
  O  O50  1  0.669928  0.303146  0.157072  1
  O  O51  1  0.168836  0.184378  0.598291  1
  O  O52  1  0.168824  0.185579  0.405117  1
  O  O53  1  0.743688  0.578473  0.757277  1
  O  O54  1  0.331012  0.694514  0.346653  1
  O  O55  1  0.075741  0.672001  0.777394  1
  O  O56  1  0.103261  0.235503  0.903801  1
  O  O57  1  0.923770  0.328449  0.726549  1
  O  O58  1  0.667729  0.908172  0.277521  1
  O  O59  1  0.547587  0.812464  0.501916  1
