# generated using pymatgen
data_Ti4O7
_symmetry_space_group_name_H-M   'P 1'
_cell_length_a   5.63783799
_cell_length_b   7.18364035
_cell_length_c   12.57501466
_cell_angle_alpha   95.12319470
_cell_angle_beta   95.69911689
_cell_angle_gamma   108.89704510
_symmetry_Int_Tables_number   1
_chemical_formula_structural   Ti4O7
_chemical_formula_sum   'Ti16 O28'
_cell_volume   475.45212668
_cell_formula_units_Z   4
loop_
 _symmetry_equiv_pos_site_id
 _symmetry_equiv_pos_as_xyz
  1  'x, y, z'
loop_
 _atom_site_type_symbol
 _atom_site_label
 _atom_site_symmetry_multiplicity
 _atom_site_fract_x
 _atom_site_fract_y
 _atom_site_fract_z
 _atom_site_occupancy
  O  O0  1  0.892733  0.637434  0.483384  1
  O  O1  1  0.107267  0.362566  0.516616  1
  O  O2  1  0.414009  0.705514  0.442482  1
  O  O3  1  0.585991  0.294486  0.557518  1
  O  O4  1  0.144891  0.005002  0.418065  1
  O  O5  1  0.855109  0.994998  0.581935  1
  O  O6  1  0.671804  0.062543  0.361371  1
  O  O7  1  0.328196  0.937457  0.638629  1
  O  O8  1  0.473907  0.355738  0.336167  1
  O  O9  1  0.526093  0.644262  0.663833  1
  O  O10  1  0.964743  0.432069  0.301573  1
  O  O11  1  0.035257  0.567931  0.698427  1
  O  O12  1  0.704633  0.709846  0.276602  1
  O  O13  1  0.295367  0.290154  0.723398  1
  O  O14  1  0.704841  0.209402  0.776655  1
  O  O15  1  0.295159  0.790598  0.223345  1
  O  O16  1  0.107645  0.862958  0.016762  1
  O  O17  1  0.892355  0.137042  0.983238  1
  O  O18  1  0.586070  0.794358  0.057571  1
  O  O19  1  0.413930  0.205642  0.942429  1
  O  O20  1  0.854943  0.495081  0.081855  1
  O  O21  1  0.145057  0.504919  0.918145  1
  O  O22  1  0.327859  0.437729  0.138678  1
  O  O23  1  0.672141  0.562271  0.861322  1
  O  O24  1  0.525953  0.144685  0.163776  1
  O  O25  1  0.474047  0.855315  0.836224  1
  O  O26  1  0.034988  0.068555  0.198421  1
  O  O27  1  0.965012  0.931445  0.801579  1
  Ti  Ti28  1  0.312267  0.559929  0.298629  1
  Ti  Ti29  1  0.687733  0.440071  0.701371  1
  Ti  Ti30  1  0.317281  0.062319  0.298729  1
  Ti  Ti31  1  0.682719  0.937681  0.701271  1
  Ti  Ti32  1  0.312572  0.059523  0.798713  1
  Ti  Ti33  1  0.687428  0.940477  0.201287  1
  Ti  Ti34  1  0.317479  0.561823  0.798787  1
  Ti  Ti35  1  0.682521  0.438177  0.201213  1
  Ti  Ti36  1  0.783793  0.849352  0.434120  1
  Ti  Ti37  1  0.216207  0.150648  0.565880  1
  Ti  Ti38  1  0.783334  0.347076  0.437646  1
  Ti  Ti39  1  0.216666  0.652924  0.562354  1
  Ti  Ti40  1  0.783878  0.349121  0.934092  1
  Ti  Ti41  1  0.216122  0.650879  0.065908  1
  Ti  Ti42  1  0.783438  0.846699  0.937633  1
  Ti  Ti43  1  0.216562  0.153301  0.062367  1
