# generated using pymatgen
data_TiMnH12(OF)6
_symmetry_space_group_name_H-M   'P 1'
_cell_length_a   6.63787990
_cell_length_b   6.63788025
_cell_length_c   6.63788049
_cell_angle_alpha   96.48290275
_cell_angle_beta   96.48290306
_cell_angle_gamma   96.48289863
_symmetry_Int_Tables_number   1
_chemical_formula_structural   TiMnH12(OF)6
_chemical_formula_sum   'Ti1 Mn1 H12 O6 F6'
_cell_volume   286.39789019
_cell_formula_units_Z   1
loop_
 _symmetry_equiv_pos_site_id
 _symmetry_equiv_pos_as_xyz
  1  'x, y, z'
loop_
 _atom_site_type_symbol
 _atom_site_label
 _atom_site_symmetry_multiplicity
 _atom_site_fract_x
 _atom_site_fract_y
 _atom_site_fract_z
 _atom_site_occupancy
  Mn  Mn0  1  0.000000  0.000000  0.000000  1
  Ti  Ti1  1  0.500000  0.500000  0.500000  1
  F  F2  1  0.254080  0.359266  0.562284  1
  F  F3  1  0.562284  0.254080  0.359266  1
  F  F4  1  0.359266  0.562284  0.254080  1
  F  F5  1  0.745920  0.640734  0.437716  1
  F  F6  1  0.437716  0.745920  0.640734  1
  F  F7  1  0.640734  0.437716  0.745920  1
  O  O8  1  0.129311  0.301632  0.936452  1
  O  O9  1  0.936452  0.129311  0.301632  1
  O  O10  1  0.301632  0.936452  0.129311  1
  O  O11  1  0.870689  0.698368  0.063548  1
  O  O12  1  0.063548  0.870689  0.698368  1
  O  O13  1  0.698368  0.063548  0.870689  1
  H  H14  1  0.182919  0.319061  0.806474  1
  H  H15  1  0.806474  0.182919  0.319061  1
  H  H16  1  0.319061  0.806474  0.182919  1
  H  H17  1  0.817081  0.680939  0.193526  1
  H  H18  1  0.193526  0.817081  0.680939  1
  H  H19  1  0.680939  0.193526  0.817081  1
  H  H20  1  0.209335  0.403526  0.043071  1
  H  H21  1  0.043071  0.209335  0.403526  1
  H  H22  1  0.403526  0.043071  0.209335  1
  H  H23  1  0.790665  0.596474  0.956929  1
  H  H24  1  0.956929  0.790665  0.596474  1
  H  H25  1  0.596474  0.956929  0.790665  1
