# generated using pymatgen
data_Ba17Dy16Zn8Pt4O57
_symmetry_space_group_name_H-M   'P 1'
_cell_length_a   5.77171719
_cell_length_b   16.61413890
_cell_length_c   16.61417506
_cell_angle_alpha   88.27140317
_cell_angle_beta   79.99768069
_cell_angle_gamma   79.99607135
_symmetry_Int_Tables_number   1
_chemical_formula_structural   Ba17Dy16Zn8Pt4O57
_chemical_formula_sum   'Ba17 Dy16 Zn8 Pt4 O57'
_cell_volume   1545.09870393
_cell_formula_units_Z   1
loop_
 _symmetry_equiv_pos_site_id
 _symmetry_equiv_pos_as_xyz
  1  'x, y, z'
loop_
 _atom_site_type_symbol
 _atom_site_label
 _atom_site_symmetry_multiplicity
 _atom_site_fract_x
 _atom_site_fract_y
 _atom_site_fract_z
 _atom_site_occupancy
  Ba  Ba0  1  0.441607  0.626017  0.490830  1
  Ba  Ba1  1  0.888009  0.388612  0.835356  1
  Ba  Ba2  1  0.649510  0.692262  0.008772  1
  Ba  Ba3  1  0.558393  0.373983  0.509170  1
  Ba  Ba4  1  0.732222  0.456945  0.078602  1
  Ba  Ba5  1  0.189189  0.078609  0.543064  1
  Ba  Ba6  1  0.658255  0.991226  0.692258  1
  Ba  Ba7  1  0.341745  0.008774  0.307742  1
  Ba  Ba8  1  0.276633  0.835353  0.611380  1
  Ba  Ba9  1  0.267778  0.543055  0.921398  1
  Ba  Ba10  1  0.810811  0.921391  0.456936  1
  Ba  Ba11  1  0.932378  0.509175  0.626005  1
  Ba  Ba12  1  0.067622  0.490825  0.373995  1
  Ba  Ba13  1  0.350490  0.307738  0.991228  1
  Ba  Ba14  1  0.111991  0.611388  0.164644  1
  Ba  Ba15  1  0.000000  0.000000  0.000000  1
  Ba  Ba16  1  0.723367  0.164647  0.388620  1
  Dy  Dy17  1  0.400234  0.088121  0.111355  1
  Dy  Dy18  1  0.493636  0.255965  0.756751  1
  Dy  Dy19  1  0.049686  0.276554  0.624066  1
  Dy  Dy20  1  0.673781  0.375941  0.276558  1
  Dy  Dy21  1  0.506364  0.744035  0.243249  1
  Dy  Dy22  1  0.599766  0.911879  0.888645  1
  Dy  Dy23  1  0.749594  0.756754  0.744037  1
  Dy  Dy24  1  0.326219  0.624059  0.723442  1
  Dy  Dy25  1  0.171971  0.775696  0.880377  1
  Dy  Dy26  1  0.511640  0.888630  0.088126  1
  Dy  Dy27  1  0.250406  0.243246  0.255963  1
  Dy  Dy28  1  0.052336  0.119623  0.775700  1
  Dy  Dy29  1  0.488360  0.111370  0.911874  1
  Dy  Dy30  1  0.947664  0.880377  0.224300  1
  Dy  Dy31  1  0.828029  0.224304  0.119623  1
  Dy  Dy32  1  0.950314  0.723446  0.375934  1
  Zn  Zn33  1  0.924162  0.209382  0.942237  1
  Zn  Zn34  1  0.866422  0.057764  0.209374  1
  Zn  Zn35  1  0.620845  0.166865  0.591500  1
  Zn  Zn36  1  0.075838  0.790618  0.057763  1
  Zn  Zn37  1  0.133578  0.942236  0.790626  1
  Zn  Zn38  1  0.787676  0.591503  0.833129  1
  Zn  Zn39  1  0.212324  0.408497  0.166871  1
  Zn  Zn40  1  0.379155  0.833135  0.408500  1
  Pt  Pt41  1  0.582925  0.561449  0.272828  1
  Pt  Pt42  1  0.417075  0.438551  0.727172  1
  Pt  Pt43  1  0.144330  0.272825  0.438550  1
  Pt  Pt44  1  0.855670  0.727175  0.561450  1
  O  O45  1  0.000858  0.319296  0.176040  1
  O  O46  1  0.925146  0.310841  0.355182  1
  O  O47  1  0.659621  0.155155  0.024279  1
  O  O48  1  0.496156  0.680697  0.823963  1
  O  O49  1  0.760401  0.538652  0.940608  1
  O  O50  1  0.768822  0.839180  0.623125  1
  O  O51  1  0.927089  0.851782  0.796505  1
  O  O52  1  0.839196  0.844871  0.975723  1
  O  O53  1  0.111268  0.520618  0.767550  1
  O  O54  1  0.679827  0.823981  0.319299  1
  O  O55  1  0.999142  0.680704  0.823960  1
  O  O56  1  0.503844  0.319303  0.176037  1
  O  O57  1  0.054988  0.380409  0.509519  1
  O  O58  1  0.074854  0.689159  0.644818  1
  O  O59  1  0.231178  0.160820  0.376875  1
  O  O60  1  0.778916  0.796491  0.148219  1
  O  O61  1  0.160804  0.155129  0.024277  1
  O  O62  1  0.391946  0.376886  0.839184  1
  O  O63  1  0.575411  0.148217  0.203493  1
  O  O64  1  0.408839  0.310857  0.355186  1
  O  O65  1  0.564603  0.490478  0.380408  1
  O  O66  1  0.945012  0.619591  0.490481  1
  O  O67  1  0.280306  0.644817  0.310845  1
  O  O68  1  0.700948  0.059388  0.538642  1
  O  O69  1  0.719694  0.355183  0.689155  1
  O  O70  1  0.157526  0.682747  0.002110  1
  O  O71  1  0.159582  0.997885  0.682753  1
  O  O72  1  0.888732  0.479382  0.232450  1
  O  O73  1  0.840418  0.002115  0.317247  1
  O  O74  1  0.121145  0.767557  0.479388  1
  O  O75  1  0.764009  0.644822  0.310853  1
  O  O76  1  0.500000  0.000000  0.000000  1
  O  O77  1  0.591161  0.689143  0.644814  1
  O  O78  1  0.221084  0.203509  0.851781  1
  O  O79  1  0.842474  0.317253  0.997890  1
  O  O80  1  0.276407  0.796495  0.148216  1
  O  O81  1  0.399472  0.479383  0.232450  1
  O  O82  1  0.368086  0.232447  0.520625  1
  O  O83  1  0.320173  0.176019  0.680701  1
  O  O84  1  0.608054  0.623114  0.160816  1
  O  O85  1  0.185110  0.975708  0.155120  1
  O  O86  1  0.723593  0.203505  0.851784  1
  O  O87  1  0.631914  0.767553  0.479375  1
  O  O88  1  0.683938  0.975715  0.155149  1
  O  O89  1  0.072911  0.148218  0.203495  1
  O  O90  1  0.239599  0.461348  0.059392  1
  O  O91  1  0.814890  0.024292  0.844880  1
  O  O92  1  0.600528  0.520617  0.767550  1
  O  O93  1  0.176879  0.823971  0.319292  1
  O  O94  1  0.424589  0.851783  0.796507  1
  O  O95  1  0.823121  0.176029  0.680708  1
  O  O96  1  0.316062  0.024285  0.844851  1
  O  O97  1  0.878855  0.232443  0.520612  1
  O  O98  1  0.435397  0.509522  0.619592  1
  O  O99  1  0.235991  0.355178  0.689147  1
  O  O100  1  0.340379  0.844845  0.975721  1
  O  O101  1  0.299052  0.940612  0.461358  1
