# generated using pymatgen
data_Na2EuC(OF)3
_symmetry_space_group_name_H-M   'P 1'
_cell_length_a   6.71717227
_cell_length_b   11.00147244
_cell_length_c   14.38695171
_cell_angle_alpha   90.00000000
_cell_angle_beta   90.00000000
_cell_angle_gamma   90.00000000
_symmetry_Int_Tables_number   1
_chemical_formula_structural   Na2EuC(OF)3
_chemical_formula_sum   'Na16 Eu8 C8 O24 F24'
_cell_volume   1063.17825990
_cell_formula_units_Z   8
loop_
 _symmetry_equiv_pos_site_id
 _symmetry_equiv_pos_as_xyz
  1  'x, y, z'
loop_
 _atom_site_type_symbol
 _atom_site_label
 _atom_site_symmetry_multiplicity
 _atom_site_fract_x
 _atom_site_fract_y
 _atom_site_fract_z
 _atom_site_occupancy
  Eu  Eu0  1  0.002971  0.686484  0.487339  1
  Eu  Eu1  1  0.002971  0.813516  0.987339  1
  Eu  Eu2  1  0.502971  0.813516  0.512661  1
  Eu  Eu3  1  0.997029  0.313516  0.512661  1
  Eu  Eu4  1  0.497029  0.313516  0.987339  1
  Eu  Eu5  1  0.502971  0.686484  0.012661  1
  Eu  Eu6  1  0.497029  0.186484  0.487339  1
  Eu  Eu7  1  0.997029  0.186484  0.012661  1
  Na  Na8  1  0.945005  0.008403  0.395549  1
  Na  Na9  1  0.745565  0.280150  0.243275  1
  Na  Na10  1  0.445005  0.491597  0.604451  1
  Na  Na11  1  0.245565  0.280150  0.256725  1
  Na  Na12  1  0.254435  0.780150  0.256725  1
  Na  Na13  1  0.745565  0.219850  0.743275  1
  Na  Na14  1  0.245565  0.219850  0.756725  1
  Na  Na15  1  0.054995  0.508403  0.104451  1
  Na  Na16  1  0.554995  0.508403  0.395549  1
  Na  Na17  1  0.445005  0.008403  0.104451  1
  Na  Na18  1  0.554995  0.991597  0.895549  1
  Na  Na19  1  0.754435  0.780150  0.243275  1
  Na  Na20  1  0.054995  0.991597  0.604451  1
  Na  Na21  1  0.945005  0.491597  0.895549  1
  Na  Na22  1  0.754435  0.719850  0.743275  1
  Na  Na23  1  0.254435  0.719850  0.756725  1
  C  C24  1  0.500262  0.984302  0.678488  1
  C  C25  1  1.000262  0.984302  0.821512  1
  C  C26  1  0.499738  0.484302  0.821512  1
  C  C27  1  0.500262  0.515698  0.178488  1
  C  C28  1  -0.000262  0.484302  0.678488  1
  C  C29  1  0.499738  0.015698  0.321512  1
  C  C30  1  -0.000262  0.015698  0.178488  1
  C  C31  1  1.000262  0.515698  0.321512  1
  O  O32  1  0.945103  0.127069  0.190097  1
  O  O33  1  0.054897  0.627069  0.309903  1
  O  O34  1  0.554897  0.872931  0.690097  1
  O  O35  1  0.445103  0.127069  0.309903  1
  O  O36  1  0.054897  0.872931  0.809903  1
  O  O37  1  0.932096  0.012677  0.904125  1
  O  O38  1  0.493157  0.936707  0.256530  1
  O  O39  1  0.432096  0.012677  0.595875  1
  O  O40  1  0.945103  0.372931  0.690097  1
  O  O41  1  0.067904  0.512677  0.595875  1
  O  O42  1  0.567904  0.512677  0.904125  1
  O  O43  1  0.932096  0.487323  0.404125  1
  O  O44  1  0.445103  0.372931  0.809903  1
  O  O45  1  0.567904  0.987323  0.404125  1
  O  O46  1  0.554897  0.627069  0.190097  1
  O  O47  1  0.006843  0.063293  0.756530  1
  O  O48  1  0.993157  0.936707  0.243470  1
  O  O49  1  0.432096  0.487323  0.095875  1
  O  O50  1  0.493157  0.563293  0.756530  1
  O  O51  1  0.506843  0.063293  0.743470  1
  O  O52  1  0.993157  0.563293  0.743470  1
  O  O53  1  0.506843  0.436707  0.243470  1
  O  O54  1  0.006843  0.436707  0.256530  1
  O  O55  1  0.067904  0.987323  0.095875  1
  F  F56  1  0.802882  0.283438  0.894620  1
  F  F57  1  0.197118  0.716562  0.105380  1
  F  F58  1  0.302882  0.216562  0.105380  1
  F  F59  1  0.697118  0.783438  0.894620  1
  F  F60  1  0.208139  0.836692  0.415457  1
  F  F61  1  0.651579  0.120420  0.018321  1
  F  F62  1  0.697118  0.716562  0.394620  1
  F  F63  1  0.651579  0.379580  0.518321  1
  F  F64  1  0.791861  0.163308  0.584543  1
  F  F65  1  0.348421  0.879580  0.981679  1
  F  F66  1  0.291861  0.336692  0.415457  1
  F  F67  1  0.151579  0.120420  0.481679  1
  F  F68  1  0.802882  0.216562  0.394620  1
  F  F69  1  0.151579  0.379580  0.981679  1
  F  F70  1  0.848421  0.620420  0.018321  1
  F  F71  1  0.708139  0.836692  0.084543  1
  F  F72  1  0.708139  0.663308  0.584543  1
  F  F73  1  0.348421  0.620420  0.481679  1
  F  F74  1  0.791861  0.336692  0.084543  1
  F  F75  1  0.291861  0.163308  0.915457  1
  F  F76  1  0.208139  0.663308  0.915457  1
  F  F77  1  0.197118  0.783438  0.605380  1
  F  F78  1  0.848421  0.879580  0.518321  1
  F  F79  1  0.302882  0.283438  0.605380  1
