# generated using pymatgen
data_CuSb2H12(O3F4)2
_symmetry_space_group_name_H-M   'P 1'
_cell_length_a   5.08999643
_cell_length_b   7.15516750
_cell_length_c   18.12664512
_cell_angle_alpha   90.00000000
_cell_angle_beta   90.00000000
_cell_angle_gamma   101.67855600
_symmetry_Int_Tables_number   1
_chemical_formula_structural   CuSb2H12(O3F4)2
_chemical_formula_sum   'Cu2 Sb4 H24 O12 F16'
_cell_volume   646.50198969
_cell_formula_units_Z   2
loop_
 _symmetry_equiv_pos_site_id
 _symmetry_equiv_pos_as_xyz
  1  'x, y, z'
loop_
 _atom_site_type_symbol
 _atom_site_label
 _atom_site_symmetry_multiplicity
 _atom_site_fract_x
 _atom_site_fract_y
 _atom_site_fract_z
 _atom_site_occupancy
  Cu  Cu0  1  0.000000  0.500000  0.000000  1
  Cu  Cu1  1  0.500000  0.000000  0.500000  1
  Sb  Sb2  1  0.114464  0.991107  0.782129  1
  Sb  Sb3  1  0.885536  0.008893  0.217871  1
  Sb  Sb4  1  0.385536  0.508893  0.282129  1
  Sb  Sb5  1  0.614464  0.491107  0.717871  1
  H  H6  1  0.799539  0.029036  0.617017  1
  H  H7  1  0.351454  0.343076  0.560086  1
  H  H8  1  0.934730  0.175771  0.555330  1
  H  H9  1  0.250639  0.329183  0.478248  1
  H  H10  1  0.380536  0.715861  0.588681  1
  H  H11  1  0.687074  0.357458  0.887858  1
  H  H12  1  0.880536  0.215861  0.911319  1
  H  H13  1  0.750639  0.829183  0.021752  1
  H  H14  1  0.749361  0.670817  0.521752  1
  H  H15  1  0.565270  0.324229  0.055330  1
  H  H16  1  0.065270  0.824229  0.444670  1
  H  H17  1  0.851454  0.843076  0.939914  1
  H  H18  1  0.700461  0.470964  0.117017  1
  H  H19  1  0.119464  0.784139  0.088681  1
  H  H20  1  0.434730  0.675771  0.944670  1
  H  H21  1  0.249361  0.170817  0.978248  1
  H  H22  1  0.648546  0.656924  0.439914  1
  H  H23  1  0.812926  0.142542  0.387858  1
  H  H24  1  0.148546  0.156924  0.060086  1
  H  H25  1  0.299539  0.529036  0.882983  1
  H  H26  1  0.200461  0.970964  0.382983  1
  H  H27  1  0.312926  0.642542  0.112142  1
  H  H28  1  0.619464  0.284139  0.411319  1
  H  H29  1  0.187074  0.857458  0.612142  1
  O  O30  1  0.282783  0.813156  0.569806  1
  O  O31  1  0.738161  0.757079  0.975137  1
  O  O32  1  0.717217  0.186844  0.430194  1
  O  O33  1  0.238161  0.257079  0.524863  1
  O  O34  1  0.744166  0.385876  0.077719  1
  O  O35  1  0.261839  0.242921  0.024863  1
  O  O36  1  0.217217  0.686844  0.069806  1
  O  O37  1  0.761839  0.742921  0.475137  1
  O  O38  1  0.244166  0.885876  0.422281  1
  O  O39  1  0.782783  0.313156  0.930194  1
  O  O40  1  0.255834  0.614124  0.922281  1
  O  O41  1  0.755834  0.114124  0.577719  1
  F  F42  1  0.430428  0.448989  0.398695  1
  F  F43  1  0.569572  0.551011  0.601305  1
  F  F44  1  0.833379  0.766235  0.810431  1
  F  F45  1  0.968355  0.901226  0.675676  1
  F  F46  1  0.655421  0.349222  0.275509  1
  F  F47  1  0.155421  0.849222  0.224491  1
  F  F48  1  0.344579  0.650778  0.724491  1
  F  F49  1  0.844579  0.150778  0.775509  1
  F  F50  1  0.666621  0.733765  0.310431  1
  F  F51  1  0.930428  0.948989  0.101305  1
  F  F52  1  0.166621  0.233765  0.189569  1
  F  F53  1  0.031645  0.098774  0.324324  1
  F  F54  1  0.531645  0.598774  0.175676  1
  F  F55  1  0.468355  0.401226  0.824324  1
  F  F56  1  0.333379  0.266235  0.689569  1
  F  F57  1  0.069572  0.051011  0.898695  1
