# generated using pymatgen
data_Eu4Br6O
_symmetry_space_group_name_H-M   'P 1'
_cell_length_a   9.88731578
_cell_length_b   9.88731612
_cell_length_c   7.54958372
_cell_angle_alpha   90.00000000
_cell_angle_beta   90.00000000
_cell_angle_gamma   119.99999887
_symmetry_Int_Tables_number   1
_chemical_formula_structural   Eu4Br6O
_chemical_formula_sum   'Eu8 Br12 O2'
_cell_volume   639.16129297
_cell_formula_units_Z   2
loop_
 _symmetry_equiv_pos_site_id
 _symmetry_equiv_pos_as_xyz
  1  'x, y, z'
loop_
 _atom_site_type_symbol
 _atom_site_label
 _atom_site_symmetry_multiplicity
 _atom_site_fract_x
 _atom_site_fract_y
 _atom_site_fract_z
 _atom_site_occupancy
  Eu  Eu0  1  0.401890  0.200945  0.500872  1
  Eu  Eu1  1  0.598110  0.799055  0.000872  1
  Eu  Eu2  1  0.333333  0.666667  0.413533  1
  Eu  Eu3  1  0.200945  0.799055  0.000872  1
  Eu  Eu4  1  0.666667  0.333333  0.913533  1
  Eu  Eu5  1  0.799055  0.598110  0.500872  1
  Eu  Eu6  1  0.799055  0.200945  0.500872  1
  Eu  Eu7  1  0.200945  0.401890  0.000872  1
  Br  Br8  1  0.534198  0.465802  0.205660  1
  Br  Br9  1  0.722224  0.861112  0.385067  1
  Br  Br10  1  0.931603  0.465802  0.205660  1
  Br  Br11  1  0.138888  0.277776  0.385067  1
  Br  Br12  1  0.068397  0.534198  0.705660  1
  Br  Br13  1  0.534198  0.068397  0.205660  1
  Br  Br14  1  0.277776  0.138888  0.885067  1
  Br  Br15  1  0.138888  0.861112  0.385067  1
  Br  Br16  1  0.465802  0.534198  0.705660  1
  Br  Br17  1  0.465802  0.931603  0.705660  1
  Br  Br18  1  0.861112  0.138888  0.885067  1
  Br  Br19  1  0.861112  0.722224  0.885067  1
  O  O20  1  0.333333  0.666667  0.100771  1
  O  O21  1  0.666667  0.333333  0.600771  1
