# generated using pymatgen
data_AgCSN
_symmetry_space_group_name_H-M   'P 1'
_cell_length_a   4.22133649
_cell_length_b   7.17241257
_cell_length_c   11.40674794
_cell_angle_alpha   90.00000000
_cell_angle_beta   90.00000000
_cell_angle_gamma   90.00000000
_symmetry_Int_Tables_number   1
_chemical_formula_structural   AgCSN
_chemical_formula_sum   'Ag4 C4 S4 N4'
_cell_volume   345.36401120
_cell_formula_units_Z   4
loop_
 _symmetry_equiv_pos_site_id
 _symmetry_equiv_pos_as_xyz
  1  'x, y, z'
loop_
 _atom_site_type_symbol
 _atom_site_label
 _atom_site_symmetry_multiplicity
 _atom_site_fract_x
 _atom_site_fract_y
 _atom_site_fract_z
 _atom_site_occupancy
  Ag  Ag0  1  0.500000  0.319782  0.653093  1
  Ag  Ag1  1  0.000000  0.819782  0.846907  1
  Ag  Ag2  1  0.500000  0.680218  0.346907  1
  Ag  Ag3  1  0.000000  0.180218  0.153093  1
  C  C4  1  0.000000  0.339800  0.878186  1
  C  C5  1  0.000000  0.660200  0.121814  1
  C  C6  1  0.500000  0.160200  0.378186  1
  C  C7  1  0.500000  0.839800  0.621814  1
  S  S8  1  0.000000  0.458643  0.753749  1
  S  S9  1  0.500000  0.041357  0.253749  1
  S  S10  1  0.500000  0.958643  0.746251  1
  S  S11  1  0.000000  0.541357  0.246251  1
  N  N12  1  0.000000  0.253359  0.965942  1
  N  N13  1  0.500000  0.246641  0.465942  1
  N  N14  1  0.500000  0.753359  0.534058  1
  N  N15  1  0.000000  0.746641  0.034058  1
