# generated using pymatgen
data_V6Ga5
_symmetry_space_group_name_H-M   'P 1'
_cell_length_a   5.13190413
_cell_length_b   8.47008366
_cell_length_c   8.46959065
_cell_angle_alpha   120.00306293
_cell_angle_beta   90.00293152
_cell_angle_gamma   89.99617064
_symmetry_Int_Tables_number   1
_chemical_formula_structural   V6Ga5
_chemical_formula_sum   'V12 Ga10'
_cell_volume   318.82023787
_cell_formula_units_Z   2
loop_
 _symmetry_equiv_pos_site_id
 _symmetry_equiv_pos_as_xyz
  1  'x, y, z'
loop_
 _atom_site_type_symbol
 _atom_site_label
 _atom_site_symmetry_multiplicity
 _atom_site_fract_x
 _atom_site_fract_y
 _atom_site_fract_z
 _atom_site_occupancy
  V  V0  1  0.499970  0.499997  0.999992  1
  V  V1  1  0.499978  0.500005  0.500007  1
  V  V2  1  0.499970  0.000003  0.499998  1
  V  V3  1  0.000023  0.500000  0.999996  1
  V  V4  1  0.000021  0.499993  0.500005  1
  V  V5  1  0.000023  0.999999  0.499999  1
  V  V6  1  0.750008  0.843678  0.687375  1
  V  V7  1  0.749994  0.843643  0.156281  1
  V  V8  1  0.750012  0.312555  0.156240  1
  V  V9  1  0.249994  0.156314  0.312604  1
  V  V10  1  0.250020  0.156352  0.843734  1
  V  V11  1  0.249996  0.687471  0.843774  1
  Ga  Ga12  1  0.499991  0.999994  0.999994  1
  Ga  Ga13  1  0.000011  0.999992  0.999992  1
  Ga  Ga14  1  0.749996  0.666648  0.333338  1
  Ga  Ga15  1  0.250001  0.333356  0.666667  1
  Ga  Ga16  1  0.750008  0.203921  0.407827  1
  Ga  Ga17  1  0.749995  0.203955  0.796054  1
  Ga  Ga18  1  0.750005  0.592155  0.796075  1
  Ga  Ga19  1  0.249984  0.796090  0.592197  1
  Ga  Ga20  1  0.250002  0.796047  0.203934  1
  Ga  Ga21  1  0.249996  0.407830  0.203916  1
