# generated using pymatgen
data_BaMo2(PO4)3
_symmetry_space_group_name_H-M   'P 1'
_cell_length_a   9.53281026
_cell_length_b   9.53280972
_cell_length_c   9.53280988
_cell_angle_alpha   54.69827570
_cell_angle_beta   54.69827800
_cell_angle_gamma   54.69827926
_symmetry_Int_Tables_number   1
_chemical_formula_structural   BaMo2(PO4)3
_chemical_formula_sum   'Ba2 Mo4 P6 O24'
_cell_volume   536.90463521
_cell_formula_units_Z   2
loop_
 _symmetry_equiv_pos_site_id
 _symmetry_equiv_pos_as_xyz
  1  'x, y, z'
loop_
 _atom_site_type_symbol
 _atom_site_label
 _atom_site_symmetry_multiplicity
 _atom_site_fract_x
 _atom_site_fract_y
 _atom_site_fract_z
 _atom_site_occupancy
  Ba  Ba0  1  0.000000  0.000000  0.000000  1
  Ba  Ba1  1  0.500000  0.500000  0.500000  1
  Mo  Mo2  1  0.150772  0.150772  0.150772  1
  Mo  Mo3  1  0.349228  0.349228  0.349228  1
  Mo  Mo4  1  0.849228  0.849228  0.849228  1
  Mo  Mo5  1  0.650772  0.650772  0.650772  1
  P  P6  1  0.537274  0.962726  0.250000  1
  P  P7  1  0.250000  0.537274  0.962726  1
  P  P8  1  0.962726  0.250000  0.537274  1
  P  P9  1  0.462726  0.037274  0.750000  1
  P  P10  1  0.750000  0.462726  0.037274  1
  P  P11  1  0.037274  0.750000  0.462726  1
  O  O12  1  0.244746  0.368962  0.980784  1
  O  O13  1  0.980784  0.244746  0.368962  1
  O  O14  1  0.368962  0.980784  0.244746  1
  O  O15  1  0.131038  0.255254  0.519216  1
  O  O16  1  0.519216  0.131038  0.255254  1
  O  O17  1  0.255254  0.519216  0.131038  1
  O  O18  1  0.755254  0.631038  0.019216  1
  O  O19  1  0.019216  0.755254  0.631038  1
  O  O20  1  0.631038  0.019216  0.755254  1
  O  O21  1  0.868962  0.744746  0.480784  1
  O  O22  1  0.480784  0.868962  0.744746  1
  O  O23  1  0.744746  0.480784  0.868962  1
  O  O24  1  0.289184  0.069455  0.923532  1
  O  O25  1  0.923532  0.289184  0.069455  1
  O  O26  1  0.069455  0.923532  0.289184  1
  O  O27  1  0.430545  0.210816  0.576468  1
  O  O28  1  0.576468  0.430545  0.210816  1
  O  O29  1  0.210816  0.576468  0.430545  1
  O  O30  1  0.710816  0.930545  0.076468  1
  O  O31  1  0.076468  0.710816  0.930545  1
  O  O32  1  0.930545  0.076468  0.710816  1
  O  O33  1  0.569455  0.789184  0.423532  1
  O  O34  1  0.423532  0.569455  0.789184  1
  O  O35  1  0.789184  0.423532  0.569455  1
