# generated using pymatgen
data_Ag5Hg4P8Cl5
_symmetry_space_group_name_H-M   'P 1'
_cell_length_a   6.36098080
_cell_length_b   9.20537731
_cell_length_c   9.20537692
_cell_angle_alpha   74.55610864
_cell_angle_beta   79.22837412
_cell_angle_gamma   79.22837181
_symmetry_Int_Tables_number   1
_chemical_formula_structural   Ag5Hg4P8Cl5
_chemical_formula_sum   'Ag5 Hg4 P8 Cl5'
_cell_volume   505.02480438
_cell_formula_units_Z   1
loop_
 _symmetry_equiv_pos_site_id
 _symmetry_equiv_pos_as_xyz
  1  'x, y, z'
loop_
 _atom_site_type_symbol
 _atom_site_label
 _atom_site_symmetry_multiplicity
 _atom_site_fract_x
 _atom_site_fract_y
 _atom_site_fract_z
 _atom_site_occupancy
  Ag  Ag0  1  0.000000  0.853477  0.146523  1
  Ag  Ag1  1  0.054661  0.204496  0.204496  1
  Ag  Ag2  1  0.945339  0.795504  0.795504  1
  Ag  Ag3  1  1.000000  0.146523  0.853477  1
  Ag  Ag4  1  0.000000  0.500000  0.500000  1
  Hg  Hg5  1  0.532976  0.517864  0.174916  1
  Hg  Hg6  1  0.467024  0.482136  0.825084  1
  Hg  Hg7  1  0.532976  0.174916  0.517864  1
  Hg  Hg8  1  0.467024  0.825084  0.482136  1
  P  P9  1  0.599686  0.901515  0.203845  1
  P  P10  1  0.400314  0.796155  0.098485  1
  P  P11  1  0.445745  0.141759  0.141759  1
  P  P12  1  0.599686  0.203845  0.901515  1
  P  P13  1  0.658839  0.240364  0.240364  1
  P  P14  1  0.554255  0.858241  0.858241  1
  P  P15  1  0.400314  0.098485  0.796155  1
  P  P16  1  0.341161  0.759636  0.759636  1
  Cl  Cl17  1  0.976963  0.803570  0.473708  1
  Cl  Cl18  1  0.023037  0.196430  0.526292  1
  Cl  Cl19  1  0.023037  0.526292  0.196430  1
  Cl  Cl20  1  0.976963  0.473708  0.803570  1
  Cl  Cl21  1  0.500000  0.500000  0.500000  1
