# generated using pymatgen
data_LiYSiO4
_symmetry_space_group_name_H-M   'P 1'
_cell_length_a   5.45574497
_cell_length_b   6.26662565
_cell_length_c   10.08565172
_cell_angle_alpha   90.00000000
_cell_angle_beta   96.08936101
_cell_angle_gamma   90.00000000
_symmetry_Int_Tables_number   1
_chemical_formula_structural   LiYSiO4
_chemical_formula_sum   'Li4 Y4 Si4 O16'
_cell_volume   342.87388062
_cell_formula_units_Z   4
loop_
 _symmetry_equiv_pos_site_id
 _symmetry_equiv_pos_as_xyz
  1  'x, y, z'
loop_
 _atom_site_type_symbol
 _atom_site_label
 _atom_site_symmetry_multiplicity
 _atom_site_fract_x
 _atom_site_fract_y
 _atom_site_fract_z
 _atom_site_occupancy
  Li  Li0  1  0.652052  0.134363  0.570162  1
  Li  Li1  1  0.847948  0.634363  0.929838  1
  Li  Li2  1  0.347948  0.865637  0.429838  1
  Li  Li3  1  0.152052  0.365637  0.070162  1
  Y  Y4  1  0.706894  0.115872  0.152688  1
  Y  Y5  1  0.293106  0.884128  0.847312  1
  Y  Y6  1  0.793106  0.615872  0.347312  1
  Y  Y7  1  0.206894  0.384128  0.652688  1
  Si  Si8  1  0.737270  0.652121  0.640654  1
  Si  Si9  1  0.262730  0.347879  0.359346  1
  Si  Si10  1  0.762730  0.152121  0.859346  1
  Si  Si11  1  0.237270  0.847879  0.140654  1
  O  O12  1  0.994927  0.858518  0.224400  1
  O  O13  1  0.494927  0.641482  0.724400  1
  O  O14  1  0.289737  0.163985  0.475818  1
  O  O15  1  0.490069  0.837278  0.246852  1
  O  O16  1  0.005073  0.141482  0.775600  1
  O  O17  1  0.218638  0.569952  0.444770  1
  O  O18  1  0.990069  0.662722  0.746852  1
  O  O19  1  0.781362  0.430048  0.555230  1
  O  O20  1  0.281362  0.069952  0.055230  1
  O  O21  1  0.210263  0.663985  0.024182  1
  O  O22  1  0.509931  0.162722  0.753148  1
  O  O23  1  0.718638  0.930048  0.944770  1
  O  O24  1  0.789737  0.336015  0.975818  1
  O  O25  1  0.009931  0.337278  0.253148  1
  O  O26  1  0.505073  0.358518  0.275600  1
  O  O27  1  0.710263  0.836015  0.524182  1
