# generated using pymatgen
data_AsS4N4F5
_symmetry_space_group_name_H-M   'P 1'
_cell_length_a   7.94344693
_cell_length_b   10.66100554
_cell_length_c   12.41543213
_cell_angle_alpha   90.00000000
_cell_angle_beta   105.78745221
_cell_angle_gamma   90.00000000
_symmetry_Int_Tables_number   1
_chemical_formula_structural   AsS4N4F5
_chemical_formula_sum   'As4 S16 N16 F20'
_cell_volume   1011.74107956
_cell_formula_units_Z   4
loop_
 _symmetry_equiv_pos_site_id
 _symmetry_equiv_pos_as_xyz
  1  'x, y, z'
loop_
 _atom_site_type_symbol
 _atom_site_label
 _atom_site_symmetry_multiplicity
 _atom_site_fract_x
 _atom_site_fract_y
 _atom_site_fract_z
 _atom_site_occupancy
  As  As0  1  0.581307  0.183613  0.213646  1
  As  As1  1  0.418693  0.816387  0.786354  1
  As  As2  1  0.081307  0.316387  0.713646  1
  As  As3  1  0.918693  0.683613  0.286354  1
  S  S4  1  0.427175  0.851373  0.392964  1
  S  S5  1  0.425573  0.453594  0.125300  1
  S  S6  1  0.528488  0.423769  0.357018  1
  S  S7  1  0.177482  0.326483  0.355595  1
  S  S8  1  0.322518  0.826483  0.144405  1
  S  S9  1  0.572825  0.148627  0.607036  1
  S  S10  1  0.074427  0.953594  0.374700  1
  S  S11  1  0.028488  0.076231  0.857018  1
  S  S12  1  0.925573  0.046406  0.625300  1
  S  S13  1  0.822518  0.673517  0.644405  1
  S  S14  1  0.677482  0.173517  0.855595  1
  S  S15  1  0.971512  0.923769  0.142982  1
  S  S16  1  0.072825  0.351373  0.107036  1
  S  S17  1  0.927175  0.648627  0.892964  1
  S  S18  1  0.574427  0.546406  0.874700  1
  S  S19  1  0.471512  0.576231  0.642982  1
  N  N20  1  0.512775  0.358835  0.232468  1
  N  N21  1  0.859910  0.107944  0.898438  1
  N  N22  1  0.359910  0.392056  0.398438  1
  N  N23  1  0.640090  0.607944  0.601562  1
  N  N24  1  0.779119  0.571075  0.923057  1
  N  N25  1  0.279119  0.928925  0.423057  1
  N  N26  1  0.487225  0.641165  0.767532  1
  N  N27  1  0.987225  0.858835  0.267532  1
  N  N28  1  0.720881  0.071075  0.576943  1
  N  N29  1  0.608029  0.209899  0.727194  1
  N  N30  1  0.012775  0.141165  0.732468  1
  N  N31  1  0.220881  0.428925  0.076943  1
  N  N32  1  0.140090  0.892056  0.101562  1
  N  N33  1  0.891971  0.709899  0.772806  1
  N  N34  1  0.108029  0.290101  0.227194  1
  N  N35  1  0.391971  0.790101  0.272806  1
  F  F36  1  0.692229  0.236885  0.115352  1
  F  F37  1  0.855820  0.527086  0.301701  1
  F  F38  1  0.228173  0.793286  0.673590  1
  F  F39  1  0.192229  0.263115  0.615352  1
  F  F40  1  0.771827  0.206714  0.326410  1
  F  F41  1  0.965946  0.366352  0.811788  1
  F  F42  1  0.613005  0.836471  0.897665  1
  F  F43  1  0.034054  0.633648  0.188212  1
  F  F44  1  0.534054  0.866352  0.688212  1
  F  F45  1  0.271827  0.293286  0.826410  1
  F  F46  1  0.144180  0.472914  0.698299  1
  F  F47  1  0.386995  0.163529  0.102335  1
  F  F48  1  0.465946  0.133648  0.311788  1
  F  F49  1  0.886995  0.336471  0.602335  1
  F  F50  1  0.644180  0.027086  0.198299  1
  F  F51  1  0.355820  0.972914  0.801701  1
  F  F52  1  0.307771  0.763115  0.884648  1
  F  F53  1  0.113005  0.663529  0.397665  1
  F  F54  1  0.728173  0.706714  0.173590  1
  F  F55  1  0.807771  0.736885  0.384648  1
