# generated using pymatgen
data_Ca14MnSb11
_symmetry_space_group_name_H-M   'P 1'
_cell_length_a   16.26004385
_cell_length_b   16.26004372
_cell_length_c   16.26004410
_cell_angle_alpha   93.80305166
_cell_angle_beta   117.82914312
_cell_angle_gamma   117.82913938
_symmetry_Int_Tables_number   1
_chemical_formula_structural   Ca14MnSb11
_chemical_formula_sum   'Ca56 Mn4 Sb44'
_cell_volume   3132.11679746
_cell_formula_units_Z   4
loop_
 _symmetry_equiv_pos_site_id
 _symmetry_equiv_pos_as_xyz
  1  'x, y, z'
loop_
 _atom_site_type_symbol
 _atom_site_label
 _atom_site_symmetry_multiplicity
 _atom_site_fract_x
 _atom_site_fract_y
 _atom_site_fract_z
 _atom_site_occupancy
  Ca  Ca0  1  0.969948  0.254670  0.371357  1
  Ca  Ca1  1  0.353604  0.879104  0.481643  1
  Ca  Ca2  1  0.587893  0.837655  0.564949  1
  Ca  Ca3  1  0.102539  0.474500  0.120896  1
  Ca  Ca4  1  0.227293  0.977055  0.064949  1
  Ca  Ca5  1  0.087893  0.522945  0.750238  1
  Ca  Ca6  1  0.030052  0.745330  0.628643  1
  Ca  Ca7  1  0.883313  0.754670  0.784722  1
  Ca  Ca8  1  0.146396  0.628039  0.525500  1
  Ca  Ca9  1  0.412107  0.162345  0.435051  1
  Ca  Ca10  1  0.602539  0.620896  0.974500  1
  Ca  Ca11  1  0.897461  0.871961  0.018357  1
  Ca  Ca12  1  0.355756  0.250000  0.605756  1
  Ca  Ca13  1  0.646396  0.120896  0.518357  1
  Ca  Ca14  1  0.646396  0.025500  0.128039  1
  Ca  Ca15  1  0.969948  0.215278  0.598590  1
  Ca  Ca16  1  0.855756  0.105756  0.750000  1
  Ca  Ca17  1  0.587893  0.250238  0.022945  1
  Ca  Ca18  1  0.397461  0.379104  0.025500  1
  Ca  Ca19  1  0.530052  0.128643  0.245330  1
  Ca  Ca20  1  0.272707  0.435051  0.522945  1
  Ca  Ca21  1  0.853604  0.981643  0.379104  1
  Ca  Ca22  1  0.272707  0.337655  0.749762  1
  Ca  Ca23  1  0.772707  0.249762  0.837655  1
  Ca  Ca24  1  0.397461  0.518357  0.371961  1
  Ca  Ca25  1  0.383313  0.284722  0.254670  1
  Ca  Ca26  1  0.912107  0.935051  0.662345  1
  Ca  Ca27  1  0.353604  0.974500  0.871961  1
  Ca  Ca28  1  0.102539  0.128039  0.981643  1
  Ca  Ca29  1  0.144244  0.750000  0.894244  1
  Ca  Ca30  1  0.897461  0.525500  0.879104  1
  Ca  Ca31  1  0.727293  0.564949  0.477055  1
  Ca  Ca32  1  0.412107  0.749762  0.977055  1
  Ca  Ca33  1  0.355756  0.605756  0.750000  1
  Ca  Ca34  1  0.883313  0.628643  0.098590  1
  Ca  Ca35  1  0.469948  0.098590  0.715278  1
  Ca  Ca36  1  0.855756  0.250000  0.105756  1
  Ca  Ca37  1  0.853604  0.371961  0.474500  1
  Ca  Ca38  1  0.469948  0.871357  0.754670  1
  Ca  Ca39  1  0.772707  0.022945  0.935051  1
  Ca  Ca40  1  0.616687  0.401410  0.871357  1
  Ca  Ca41  1  0.912107  0.477055  0.249762  1
  Ca  Ca42  1  0.144244  0.894244  0.250000  1
  Ca  Ca43  1  0.644244  0.394244  0.250000  1
  Ca  Ca44  1  0.146396  0.018357  0.620896  1
  Ca  Ca45  1  0.727293  0.662345  0.250238  1
  Ca  Ca46  1  0.530052  0.901410  0.284722  1
  Ca  Ca47  1  0.383313  0.598590  0.128643  1
  Ca  Ca48  1  0.116687  0.245330  0.215278  1
  Ca  Ca49  1  0.030052  0.784722  0.401410  1
  Ca  Ca50  1  0.087893  0.064949  0.337655  1
  Ca  Ca51  1  0.227293  0.750238  0.162345  1
  Ca  Ca52  1  0.116687  0.371357  0.901410  1
  Ca  Ca53  1  0.602539  0.481643  0.628039  1
  Ca  Ca54  1  0.616687  0.715278  0.745330  1
  Ca  Ca55  1  0.644244  0.750000  0.394244  1
  Mn  Mn56  1  0.250000  0.625000  0.375000  1
  Mn  Mn57  1  0.250000  0.125000  0.875000  1
  Mn  Mn58  1  0.750000  0.875000  0.125000  1
  Mn  Mn59  1  0.750000  0.375000  0.625000  1
  Sb  Sb60  1  0.107852  0.423243  0.307387  1
  Sb  Sb61  1  0.155281  0.072253  0.177273  1
  Sb  Sb62  1  0.615856  0.800465  0.192613  1
  Sb  Sb63  1  0.750000  0.125000  0.375000  1
  Sb  Sb64  1  0.615856  0.315391  0.423243  1
  Sb  Sb65  1  0.115856  0.923243  0.815391  1
  Sb  Sb66  1  0.250000  0.739738  0.760262  1
  Sb  Sb67  1  0.884144  0.076757  0.184609  1
  Sb  Sb68  1  0.894980  0.822727  0.478008  1
  Sb  Sb69  1  0.605020  0.083027  0.927747  1
  Sb  Sb70  1  0.250000  0.010262  0.489738  1
  Sb  Sb71  1  0.155281  0.583027  0.978008  1
  Sb  Sb72  1  0.107852  0.184609  0.800465  1
  Sb  Sb73  1  0.892148  0.576757  0.692613  1
  Sb  Sb74  1  0.607852  0.300465  0.684609  1
  Sb  Sb75  1  0.605020  0.021992  0.677273  1
  Sb  Sb76  1  0.115856  0.692613  0.300465  1
  Sb  Sb77  1  0.344719  0.322727  0.427747  1
  Sb  Sb78  1  0.607852  0.807387  0.923243  1
  Sb  Sb79  1  0.250000  0.875000  0.625000  1
  Sb  Sb80  1  0.392148  0.192613  0.076757  1
  Sb  Sb81  1  0.105020  0.177273  0.521992  1
  Sb  Sb82  1  0.750000  0.989738  0.510262  1
  Sb  Sb83  1  0.750000  0.260262  0.239738  1
  Sb  Sb84  1  0.384144  0.684609  0.576757  1
  Sb  Sb85  1  0.844719  0.927747  0.822727  1
  Sb  Sb86  1  0.392148  0.699535  0.315391  1
  Sb  Sb87  1  0.479475  0.489738  0.739738  1
  Sb  Sb88  1  0.384144  0.199535  0.807387  1
  Sb  Sb89  1  0.979475  0.239738  0.989738  1
  Sb  Sb90  1  0.844719  0.416973  0.021992  1
  Sb  Sb91  1  0.750000  0.625000  0.875000  1
  Sb  Sb92  1  0.344719  0.521992  0.916973  1
  Sb  Sb93  1  0.105020  0.427747  0.583027  1
  Sb  Sb94  1  0.892148  0.815391  0.199535  1
  Sb  Sb95  1  0.394980  0.978008  0.322727  1
  Sb  Sb96  1  0.894980  0.572253  0.416973  1
  Sb  Sb97  1  0.655281  0.677273  0.572253  1
  Sb  Sb98  1  0.250000  0.375000  0.125000  1
  Sb  Sb99  1  0.884144  0.307387  0.699535  1
  Sb  Sb100  1  0.520525  0.510262  0.260262  1
  Sb  Sb101  1  0.394980  0.916973  0.072253  1
  Sb  Sb102  1  0.020525  0.760262  0.010262  1
  Sb  Sb103  1  0.655281  0.478008  0.083027  1
