# generated using pymatgen
data_Ca3SiH30CSO25
_symmetry_space_group_name_H-M   'P 1'
_cell_length_a   11.13593174
_cell_length_b   11.13591608
_cell_length_c   10.45914348
_cell_angle_alpha   90.00000000
_cell_angle_beta   90.00000000
_cell_angle_gamma   120.00000301
_symmetry_Int_Tables_number   1
_chemical_formula_structural   Ca3SiH30CSO25
_chemical_formula_sum   'Ca6 Si2 H60 C2 S2 O50'
_cell_volume   1123.25729816
_cell_formula_units_Z   2
loop_
 _symmetry_equiv_pos_site_id
 _symmetry_equiv_pos_as_xyz
  1  'x, y, z'
loop_
 _atom_site_type_symbol
 _atom_site_label
 _atom_site_symmetry_multiplicity
 _atom_site_fract_x
 _atom_site_fract_y
 _atom_site_fract_z
 _atom_site_occupancy
  Ca  Ca0  1  0.208901  0.192899  0.760846  1
  Ca  Ca1  1  0.983997  0.791097  0.760846  1
  Ca  Ca2  1  0.807100  0.016002  0.760846  1
  Ca  Ca3  1  0.791099  0.807101  0.260846  1
  Ca  Ca4  1  0.016003  0.208903  0.260846  1
  Ca  Ca5  1  0.192900  0.983998  0.260846  1
  Si  Si6  1  -0.000000  -0.000000  0.511111  1
  Si  Si7  1  0.000000  0.000000  0.011111  1
  H  H8  1  0.059731  0.362446  0.764445  1
  H  H9  1  0.302715  0.940269  0.764444  1
  H  H10  1  0.637554  0.697286  0.764444  1
  H  H11  1  0.940269  0.637554  0.264445  1
  H  H12  1  0.697285  0.059731  0.264444  1
  H  H13  1  0.362446  0.302714  0.264444  1
  H  H14  1  0.215658  0.485684  0.787098  1
  H  H15  1  0.270027  0.784343  0.787098  1
  H  H16  1  0.514316  0.729974  0.787098  1
  H  H17  1  0.784342  0.514316  0.287098  1
  H  H18  1  0.729973  0.215657  0.287098  1
  H  H19  1  0.485684  0.270026  0.287098  1
  H  H20  1  0.838683  0.304297  0.836836  1
  H  H21  1  0.465615  0.161318  0.836837  1
  H  H22  1  0.695703  0.534386  0.836837  1
  H  H23  1  0.161317  0.695703  0.336836  1
  H  H24  1  0.534385  0.838682  0.336837  1
  H  H25  1  0.304297  0.465614  0.336837  1
  H  H26  1  0.840353  0.304267  0.685570  1
  H  H27  1  0.463914  0.159647  0.685571  1
  H  H28  1  0.695733  0.536086  0.685570  1
  H  H29  1  0.159647  0.695733  0.185570  1
  H  H30  1  0.536086  0.840353  0.185571  1
  H  H31  1  0.304267  0.463914  0.185570  1
  H  H32  1  0.340969  0.424774  0.551845  1
  H  H33  1  0.083805  0.659030  0.551845  1
  H  H34  1  0.575225  0.916195  0.551846  1
  H  H35  1  0.659031  0.575226  0.051845  1
  H  H36  1  0.916195  0.340970  0.051845  1
  H  H37  1  0.424775  0.083805  0.051846  1
  H  H38  1  0.631359  0.075057  0.567968  1
  H  H39  1  0.443697  0.368640  0.567968  1
  H  H40  1  0.924942  0.556302  0.567967  1
  H  H41  1  0.368641  0.924943  0.067968  1
  H  H42  1  0.556303  0.631360  0.067968  1
  H  H43  1  0.075058  0.443698  0.067967  1
  H  H44  1  0.647000  0.098755  0.952200  1
  H  H45  1  0.451754  0.353000  0.952200  1
  H  H46  1  0.901246  0.548245  0.952200  1
  H  H47  1  0.353000  0.901245  0.452200  1
  H  H48  1  0.548246  0.647000  0.452200  1
  H  H49  1  0.098754  0.451755  0.452200  1
  H  H50  1  0.347656  0.408718  0.968453  1
  H  H51  1  0.061063  0.652345  0.968452  1
  H  H52  1  0.591283  0.938938  0.968452  1
  H  H53  1  0.652344  0.591282  0.468452  1
  H  H54  1  0.938937  0.347655  0.468452  1
  H  H55  1  0.408717  0.061062  0.468452  1
  H  H56  1  0.029666  0.217273  0.566703  1
  H  H57  1  0.187606  0.970334  0.566703  1
  H  H58  1  0.782727  0.812393  0.566702  1
  H  H59  1  0.970334  0.782727  0.066703  1
  H  H60  1  0.812394  0.029666  0.066703  1
  H  H61  1  0.217273  0.187607  0.066702  1
  H  H62  1  0.025387  0.215949  0.951331  1
  H  H63  1  0.190563  0.974613  0.951331  1
  H  H64  1  0.784050  0.809437  0.951331  1
  H  H65  1  0.974613  0.784051  0.451331  1
  H  H66  1  0.809437  0.025387  0.451331  1
  H  H67  1  0.215950  0.190563  0.451331  1
  C  C68  1  0.666673  0.333338  0.961059  1
  C  C69  1  0.333327  0.666662  0.461059  1
  S  S70  1  0.666667  0.333333  0.497643  1
  S  S71  1  0.333333  0.666667  0.997643  1
  O  O72  1  0.158369  0.386859  0.766227  1
  O  O73  1  0.228491  0.841632  0.766227  1
  O  O74  1  0.613142  0.771509  0.766227  1
  O  O75  1  0.841631  0.613141  0.266227  1
  O  O76  1  0.771509  0.158368  0.266227  1
  O  O77  1  0.386858  0.228491  0.266227  1
  O  O78  1  0.868494  0.270309  0.761160  1
  O  O79  1  0.401815  0.131505  0.761161  1
  O  O80  1  0.729691  0.598186  0.761160  1
  O  O81  1  0.131506  0.729691  0.261160  1
  O  O82  1  0.598185  0.868495  0.261161  1
  O  O83  1  0.270309  0.401814  0.261160  1
  O  O84  1  0.657930  0.003248  0.580426  1
  O  O85  1  0.345318  0.342070  0.580426  1
  O  O86  1  0.996752  0.654682  0.580426  1
  O  O87  1  0.342070  0.996752  0.080426  1
  O  O88  1  0.654682  0.657930  0.080426  1
  O  O89  1  0.003248  0.345318  0.080426  1
  O  O90  1  0.675360  0.025741  0.943216  1
  O  O91  1  0.350382  0.324640  0.943217  1
  O  O92  1  0.974259  0.649620  0.943216  1
  O  O93  1  0.324640  0.974259  0.443216  1
  O  O94  1  0.649618  0.675360  0.443217  1
  O  O95  1  0.025741  0.350380  0.443216  1
  O  O96  1  0.579288  0.200643  0.959165  1
  O  O97  1  0.621363  0.420721  0.959166  1
  O  O98  1  0.799364  0.378646  0.959166  1
  O  O99  1  0.420712  0.799357  0.459165  1
  O  O100  1  0.378637  0.579279  0.459166  1
  O  O101  1  0.200636  0.621354  0.459166  1
  O  O102  1  0.567555  0.191324  0.546830  1
  O  O103  1  0.623769  0.432445  0.546830  1
  O  O104  1  0.808674  0.376231  0.546829  1
  O  O105  1  0.432445  0.808676  0.046830  1
  O  O106  1  0.376231  0.567555  0.046830  1
  O  O107  1  0.191326  0.623769  0.046829  1
  O  O108  1  0.009075  0.133217  0.615568  1
  O  O109  1  0.124142  0.990924  0.615568  1
  O  O110  1  0.866783  0.875858  0.615568  1
  O  O111  1  0.990925  0.866783  0.115568  1
  O  O112  1  0.875858  0.009076  0.115568  1
  O  O113  1  0.133217  0.124142  0.115568  1
  O  O114  1  0.008443  0.132088  0.905685  1
  O  O115  1  0.123644  0.991557  0.905685  1
  O  O116  1  0.867912  0.876356  0.905686  1
  O  O117  1  0.991557  0.867912  0.405685  1
  O  O118  1  0.876356  0.008443  0.405685  1
  O  O119  1  0.132088  0.123644  0.405686  1
  O  O120  1  0.666665  0.333333  0.355264  1
  O  O121  1  0.333335  0.666667  0.855264  1
