# generated using pymatgen
data_SbSO2F5
_symmetry_space_group_name_H-M   'P 1'
_cell_length_a   5.95643018
_cell_length_b   10.35875870
_cell_length_c   10.74275390
_cell_angle_alpha   90.00000000
_cell_angle_beta   90.00000000
_cell_angle_gamma   102.45216367
_symmetry_Int_Tables_number   1
_chemical_formula_structural   SbSO2F5
_chemical_formula_sum   'Sb4 S4 O8 F20'
_cell_volume   647.24862753
_cell_formula_units_Z   4
loop_
 _symmetry_equiv_pos_site_id
 _symmetry_equiv_pos_as_xyz
  1  'x, y, z'
loop_
 _atom_site_type_symbol
 _atom_site_label
 _atom_site_symmetry_multiplicity
 _atom_site_fract_x
 _atom_site_fract_y
 _atom_site_fract_z
 _atom_site_occupancy
  Sb  Sb0  1  0.308269  0.230461  0.541376  1
  Sb  Sb1  1  0.808269  0.730461  0.958624  1
  Sb  Sb2  1  0.691731  0.769539  0.458624  1
  Sb  Sb3  1  0.191731  0.269539  0.041376  1
  S  S4  1  0.411875  0.935146  0.252475  1
  S  S5  1  0.588125  0.064854  0.747525  1
  S  S6  1  0.911875  0.435146  0.247525  1
  S  S7  1  0.088125  0.564854  0.752475  1
  O  O8  1  0.390135  0.959587  0.761709  1
  O  O9  1  0.109865  0.540413  0.261709  1
  O  O10  1  0.935724  0.324344  0.163005  1
  O  O11  1  0.890135  0.459587  0.738291  1
  O  O12  1  0.609865  0.040413  0.238291  1
  O  O13  1  0.435724  0.824344  0.336995  1
  O  O14  1  0.064276  0.675656  0.836995  1
  O  O15  1  0.564276  0.175656  0.663005  1
  F  F16  1  0.912906  0.844267  0.336449  1
  F  F17  1  0.279105  0.059520  0.467272  1
  F  F18  1  0.590551  0.781666  0.066991  1
  F  F19  1  0.909449  0.718334  0.566991  1
  F  F20  1  0.587094  0.655733  0.836449  1
  F  F21  1  0.565879  0.294737  0.437284  1
  F  F22  1  0.409449  0.218334  0.933009  1
  F  F23  1  0.779105  0.559520  0.032728  1
  F  F24  1  0.131822  0.107300  0.130981  1
  F  F25  1  0.868178  0.892700  0.869019  1
  F  F26  1  0.087094  0.155733  0.663551  1
  F  F27  1  0.065879  0.794737  0.062716  1
  F  F28  1  0.631822  0.607300  0.369019  1
  F  F29  1  0.720895  0.940480  0.532728  1
  F  F30  1  0.090551  0.281666  0.433009  1
  F  F31  1  0.368178  0.392700  0.630981  1
  F  F32  1  0.412906  0.344267  0.163551  1
  F  F33  1  0.934121  0.205263  0.937284  1
  F  F34  1  0.220895  0.440480  0.967272  1
  F  F35  1  0.434121  0.705263  0.562716  1
