# generated using pymatgen
data_CaYbInS4
_symmetry_space_group_name_H-M   'P 1'
_cell_length_a   6.73802528
_cell_length_b   8.04723276
_cell_length_c   13.83916733
_cell_angle_alpha   90.00000000
_cell_angle_beta   90.00000000
_cell_angle_gamma   90.00000000
_symmetry_Int_Tables_number   1
_chemical_formula_structural   CaYbInS4
_chemical_formula_sum   'Ca4 Yb4 In4 S16'
_cell_volume   750.39366614
_cell_formula_units_Z   4
loop_
 _symmetry_equiv_pos_site_id
 _symmetry_equiv_pos_as_xyz
  1  'x, y, z'
loop_
 _atom_site_type_symbol
 _atom_site_label
 _atom_site_symmetry_multiplicity
 _atom_site_fract_x
 _atom_site_fract_y
 _atom_site_fract_z
 _atom_site_occupancy
  Ca  Ca0  1  0.007075  0.750000  0.731610  1
  Ca  Ca1  1  0.507075  0.250000  0.768390  1
  Ca  Ca2  1  0.992925  0.250000  0.268390  1
  Ca  Ca3  1  0.492925  0.750000  0.231610  1
  Yb  Yb4  1  0.500000  0.000000  0.500000  1
  Yb  Yb5  1  0.000000  0.000000  0.000000  1
  Yb  Yb6  1  0.500000  0.500000  0.500000  1
  Yb  Yb7  1  0.000000  0.500000  0.000000  1
  In  In8  1  0.583958  0.750000  0.909885  1
  In  In9  1  0.083958  0.250000  0.590115  1
  In  In10  1  0.416042  0.250000  0.090115  1
  In  In11  1  0.916042  0.750000  0.409885  1
  S  S12  1  0.221679  0.750000  0.909961  1
  S  S13  1  0.721679  0.250000  0.590039  1
  S  S14  1  0.778321  0.250000  0.090039  1
  S  S15  1  0.278321  0.750000  0.409961  1
  S  S16  1  0.749410  0.750000  0.571961  1
  S  S17  1  0.249410  0.250000  0.928039  1
  S  S18  1  0.250590  0.250000  0.428039  1
  S  S19  1  0.750590  0.750000  0.071961  1
  S  S20  1  0.760040  0.987897  0.832984  1
  S  S21  1  0.260040  0.012103  0.667016  1
  S  S22  1  0.239960  0.487897  0.167016  1
  S  S23  1  0.739960  0.512103  0.332984  1
  S  S24  1  0.239960  0.012103  0.167016  1
  S  S25  1  0.739960  0.987897  0.332984  1
  S  S26  1  0.760040  0.512103  0.832984  1
  S  S27  1  0.260040  0.487897  0.667016  1
