# generated using pymatgen
data_Ba2B5ClO9
_symmetry_space_group_name_H-M   'P 1'
_cell_length_a   6.76226366
_cell_length_b   11.78662579
_cell_length_c   11.72438271
_cell_angle_alpha   90.00000000
_cell_angle_beta   90.00000000
_cell_angle_gamma   90.00000000
_symmetry_Int_Tables_number   1
_chemical_formula_structural   Ba2B5ClO9
_chemical_formula_sum   'Ba8 B20 Cl4 O36'
_cell_volume   934.48337980
_cell_formula_units_Z   4
loop_
 _symmetry_equiv_pos_site_id
 _symmetry_equiv_pos_as_xyz
  1  'x, y, z'
loop_
 _atom_site_type_symbol
 _atom_site_label
 _atom_site_symmetry_multiplicity
 _atom_site_fract_x
 _atom_site_fract_y
 _atom_site_fract_z
 _atom_site_occupancy
  Ba  Ba0  1  0.006802  0.979954  0.268320  1
  Ba  Ba1  1  0.351528  0.255135  0.542733  1
  Ba  Ba2  1  0.006802  0.020046  0.731680  1
  Ba  Ba3  1  0.851528  0.244865  0.042733  1
  Ba  Ba4  1  0.851528  0.755135  0.957267  1
  Ba  Ba5  1  0.351528  0.744865  0.457267  1
  Ba  Ba6  1  0.506802  0.520046  0.768320  1
  Ba  Ba7  1  0.506802  0.479954  0.231680  1
  B  B8  1  0.156924  0.727803  0.186715  1
  B  B9  1  0.502073  0.181489  0.798913  1
  B  B10  1  0.869970  0.248346  0.489087  1
  B  B11  1  0.002073  0.681489  0.701087  1
  B  B12  1  0.502073  0.818511  0.201087  1
  B  B13  1  0.369970  0.748346  0.010913  1
  B  B14  1  0.036336  0.456873  0.725926  1
  B  B15  1  0.536336  0.956873  0.774074  1
  B  B16  1  0.656924  0.772197  0.686715  1
  B  B17  1  0.322518  0.786419  0.785634  1
  B  B18  1  0.822518  0.286419  0.714366  1
  B  B19  1  0.002073  0.318511  0.298913  1
  B  B20  1  0.156924  0.272197  0.813285  1
  B  B21  1  0.536336  0.043127  0.225926  1
  B  B22  1  0.036336  0.543127  0.274074  1
  B  B23  1  0.869970  0.751654  0.510913  1
  B  B24  1  0.656924  0.227803  0.313285  1
  B  B25  1  0.369970  0.251654  0.989087  1
  B  B26  1  0.322518  0.213581  0.214366  1
  B  B27  1  0.822518  0.713581  0.285634  1
  Cl  Cl28  1  0.993321  0.000000  0.000000  1
  Cl  Cl29  1  0.730707  0.500000  0.000000  1
  Cl  Cl30  1  0.230708  0.000000  0.500000  1
  Cl  Cl31  1  0.493321  0.500000  0.500000  1
  O  O32  1  0.019706  0.704639  0.575507  1
  O  O33  1  0.610593  0.268803  0.731503  1
  O  O34  1  0.690986  0.118920  0.249732  1
  O  O35  1  0.289893  0.184484  0.766232  1
  O  O36  1  0.590697  0.931248  0.225324  1
  O  O37  1  0.519706  0.204639  0.924493  1
  O  O38  1  0.690986  0.881080  0.750268  1
  O  O39  1  0.110593  0.231197  0.231503  1
  O  O40  1  0.110593  0.768803  0.768497  1
  O  O41  1  0.789893  0.684484  0.733768  1
  O  O42  1  0.902112  0.232572  0.604636  1
  O  O43  1  0.090697  0.568752  0.725324  1
  O  O44  1  0.789893  0.315516  0.266232  1
  O  O45  1  0.351121  0.913799  0.793240  1
  O  O46  1  0.402112  0.732572  0.895364  1
  O  O47  1  0.019706  0.295361  0.424493  1
  O  O48  1  0.199805  0.709216  0.062359  1
  O  O49  1  0.447051  0.739253  0.693719  1
  O  O50  1  0.851121  0.586201  0.293240  1
  O  O51  1  0.351121  0.086201  0.206760  1
  O  O52  1  0.447051  0.260747  0.306281  1
  O  O53  1  0.699805  0.790784  0.562359  1
  O  O54  1  0.402112  0.267428  0.104636  1
  O  O55  1  0.947051  0.760747  0.193719  1
  O  O56  1  0.902112  0.767428  0.395364  1
  O  O57  1  0.090697  0.431248  0.274676  1
  O  O58  1  0.190986  0.381080  0.749732  1
  O  O59  1  0.610593  0.731197  0.268497  1
  O  O60  1  0.590697  0.068752  0.774676  1
  O  O61  1  0.947051  0.239253  0.806281  1
  O  O62  1  0.199805  0.290784  0.937641  1
  O  O63  1  0.699805  0.209216  0.437641  1
  O  O64  1  0.190986  0.618920  0.250268  1
  O  O65  1  0.851121  0.413799  0.706760  1
  O  O66  1  0.289893  0.815516  0.233768  1
  O  O67  1  0.519706  0.795361  0.075507  1
