# generated using pymatgen
data_K3In3(PO4)4
_symmetry_space_group_name_H-M   'P 1'
_cell_length_a   9.84603805
_cell_length_b   9.98510404
_cell_length_c   16.06728932
_cell_angle_alpha   90.00000000
_cell_angle_beta   90.36481350
_cell_angle_gamma   90.00000000
_symmetry_Int_Tables_number   1
_chemical_formula_structural   K3In3(PO4)4
_chemical_formula_sum   'K12 In12 P16 O64'
_cell_volume   1579.60287126
_cell_formula_units_Z   4
loop_
 _symmetry_equiv_pos_site_id
 _symmetry_equiv_pos_as_xyz
  1  'x, y, z'
loop_
 _atom_site_type_symbol
 _atom_site_label
 _atom_site_symmetry_multiplicity
 _atom_site_fract_x
 _atom_site_fract_y
 _atom_site_fract_z
 _atom_site_occupancy
  K  K0  1  0.024863  0.271203  0.786011  1
  K  K1  1  0.524863  0.228797  0.286011  1
  K  K2  1  0.673304  0.110047  0.632259  1
  K  K3  1  0.826696  0.610047  0.867741  1
  K  K4  1  0.670799  0.526316  0.101715  1
  K  K5  1  0.170799  0.973684  0.601715  1
  K  K6  1  0.329201  0.473684  0.898285  1
  K  K7  1  0.975137  0.728797  0.213989  1
  K  K8  1  0.326696  0.889953  0.367741  1
  K  K9  1  0.829201  0.026316  0.398285  1
  K  K10  1  0.173304  0.389953  0.132259  1
  K  K11  1  0.475137  0.771203  0.713989  1
  In  In12  1  0.744042  0.424952  0.509410  1
  In  In13  1  0.823986  0.728575  0.635048  1
  In  In14  1  0.244042  0.075048  0.009410  1
  In  In15  1  0.755958  0.924952  0.990590  1
  In  In16  1  0.188727  0.860439  0.838869  1
  In  In17  1  0.176014  0.271425  0.364952  1
  In  In18  1  0.811273  0.139561  0.161131  1
  In  In19  1  0.688727  0.639561  0.338869  1
  In  In20  1  0.323986  0.771425  0.135048  1
  In  In21  1  0.255958  0.575048  0.490590  1
  In  In22  1  0.676014  0.228575  0.864952  1
  In  In23  1  0.311273  0.360439  0.661131  1
  P  P24  1  0.556967  0.732599  0.495158  1
  P  P25  1  0.637020  0.897374  0.204742  1
  P  P26  1  0.865766  0.968511  0.787992  1
  P  P27  1  0.634234  0.468511  0.712008  1
  P  P28  1  0.362980  0.102626  0.795258  1
  P  P29  1  0.943033  0.232599  0.004842  1
  P  P30  1  0.552972  0.222446  0.025681  1
  P  P31  1  0.365766  0.531489  0.287992  1
  P  P32  1  0.137020  0.602626  0.704742  1
  P  P33  1  0.056967  0.767401  0.995158  1
  P  P34  1  0.947028  0.722446  0.474318  1
  P  P35  1  0.134234  0.031489  0.212008  1
  P  P36  1  0.447028  0.777554  0.974318  1
  P  P37  1  0.862980  0.397374  0.295258  1
  P  P38  1  0.443033  0.267401  0.504842  1
  P  P39  1  0.052972  0.277554  0.525682  1
  O  O40  1  0.399340  0.211368  0.042225  1
  O  O41  1  0.612952  0.101011  0.973243  1
  O  O42  1  0.805696  0.902056  0.708335  1
  O  O43  1  0.683099  0.392185  0.634682  1
  O  O44  1  0.421090  0.190192  0.587717  1
  O  O45  1  0.811573  0.115007  0.787023  1
  O  O46  1  0.293902  0.235980  0.769322  1
  O  O47  1  0.518483  0.122374  0.798493  1
  O  O48  1  0.925266  0.844838  0.533712  1
  O  O49  1  0.074734  0.155162  0.466288  1
  O  O50  1  0.297818  0.059318  0.880767  1
  O  O51  1  0.078910  0.690192  0.912283  1
  O  O52  1  0.890195  0.087313  0.028569  1
  O  O53  1  0.109805  0.912687  0.971431  1
  O  O54  1  0.523400  0.526788  0.283234  1
  O  O55  1  0.688427  0.615007  0.712977  1
  O  O56  1  0.100660  0.711368  0.457775  1
  O  O57  1  0.136637  0.707643  0.069795  1
  O  O58  1  0.183099  0.107815  0.134682  1
  O  O59  1  0.793902  0.264020  0.269322  1
  O  O60  1  0.316901  0.607815  0.365318  1
  O  O61  1  0.476600  0.473212  0.716766  1
  O  O62  1  0.863363  0.292357  0.930205  1
  O  O63  1  0.595585  0.269577  0.479496  1
  O  O64  1  0.636637  0.792357  0.569795  1
  O  O65  1  0.481517  0.877626  0.201507  1
  O  O66  1  0.206098  0.735980  0.730678  1
  O  O67  1  0.425266  0.655162  0.033712  1
  O  O68  1  0.816901  0.892185  0.865318  1
  O  O69  1  0.387048  0.898989  0.026757  1
  O  O70  1  0.324278  0.982910  0.739367  1
  O  O71  1  0.921090  0.309808  0.087717  1
  O  O72  1  0.018483  0.377626  0.298493  1
  O  O73  1  0.887048  0.601011  0.526757  1
  O  O74  1  0.127965  0.261405  0.610173  1
  O  O75  1  0.305696  0.597944  0.208335  1
  O  O76  1  0.627965  0.238595  0.110173  1
  O  O77  1  0.095585  0.230423  0.979496  1
  O  O78  1  0.175722  0.482910  0.760633  1
  O  O79  1  0.694304  0.402056  0.791665  1
  O  O80  1  0.311573  0.384993  0.287023  1
  O  O81  1  0.363363  0.207643  0.430205  1
  O  O82  1  0.797818  0.440682  0.380767  1
  O  O83  1  0.976600  0.026788  0.216766  1
  O  O84  1  0.706098  0.764020  0.230678  1
  O  O85  1  0.112952  0.398989  0.473243  1
  O  O86  1  0.702182  0.940682  0.119233  1
  O  O87  1  0.194304  0.097944  0.291665  1
  O  O88  1  0.899340  0.288632  0.542225  1
  O  O89  1  0.372035  0.761405  0.889827  1
  O  O90  1  0.188427  0.884993  0.212977  1
  O  O91  1  0.981517  0.622374  0.701507  1
  O  O92  1  0.904415  0.769577  0.020504  1
  O  O93  1  0.390195  0.412687  0.528569  1
  O  O94  1  0.600660  0.788632  0.957775  1
  O  O95  1  0.824278  0.517090  0.239367  1
  O  O96  1  0.872035  0.738595  0.389827  1
  O  O97  1  0.404415  0.730423  0.520504  1
  O  O98  1  0.023400  0.973212  0.783234  1
  O  O99  1  0.202182  0.559318  0.619233  1
  O  O100  1  0.609805  0.587313  0.471431  1
  O  O101  1  0.675722  0.017090  0.260633  1
  O  O102  1  0.574734  0.344838  0.966288  1
  O  O103  1  0.578910  0.809808  0.412283  1
