# generated using pymatgen
data_CdHgAsBr
_symmetry_space_group_name_H-M   'P 1'
_cell_length_a   11.00950385
_cell_length_b   4.83587146
_cell_length_c   10.06410105
_cell_angle_alpha   90.00000000
_cell_angle_beta   90.00000000
_cell_angle_gamma   90.00000000
_symmetry_Int_Tables_number   1
_chemical_formula_structural   CdHgAsBr
_chemical_formula_sum   'Cd4 Hg4 As4 Br4'
_cell_volume   535.81822944
_cell_formula_units_Z   4
loop_
 _symmetry_equiv_pos_site_id
 _symmetry_equiv_pos_as_xyz
  1  'x, y, z'
loop_
 _atom_site_type_symbol
 _atom_site_label
 _atom_site_symmetry_multiplicity
 _atom_site_fract_x
 _atom_site_fract_y
 _atom_site_fract_z
 _atom_site_occupancy
  Cd  Cd0  1  0.076951  0.000000  0.285285  1
  Cd  Cd1  1  0.423049  0.000000  0.285285  1
  Cd  Cd2  1  0.576951  0.000000  0.714715  1
  Cd  Cd3  1  0.923049  0.000000  0.714715  1
  Hg  Hg4  1  0.000000  0.499999  0.000000  1
  Hg  Hg5  1  0.500001  0.499999  0.000000  1
  Hg  Hg6  1  0.750000  0.499999  0.267326  1
  Hg  Hg7  1  0.250000  0.499999  0.732675  1
  As  As8  1  0.518205  0.499999  0.254160  1
  As  As9  1  0.981795  0.499999  0.254160  1
  As  As10  1  0.018206  0.499999  0.745840  1
  As  As11  1  0.481795  0.499999  0.745840  1
  Br  Br12  1  0.250000  0.000000  0.076096  1
  Br  Br13  1  0.250000  0.000000  0.485253  1
  Br  Br14  1  0.750000  0.000000  0.514748  1
  Br  Br15  1  0.750000  0.000000  0.923904  1
