# generated using pymatgen
data_Tm3(CuGe)4
_symmetry_space_group_name_H-M   'P 1'
_cell_length_a   4.15007793
_cell_length_b   6.62552657
_cell_length_c   7.91883303
_cell_angle_alpha   114.73352327
_cell_angle_beta   105.19460152
_cell_angle_gamma   89.99717553
_symmetry_Int_Tables_number   1
_chemical_formula_structural   Tm3(CuGe)4
_chemical_formula_sum   'Tm3 Cu4 Ge4'
_cell_volume   189.35327303
_cell_formula_units_Z   1
loop_
 _symmetry_equiv_pos_site_id
 _symmetry_equiv_pos_as_xyz
  1  'x, y, z'
loop_
 _atom_site_type_symbol
 _atom_site_label
 _atom_site_symmetry_multiplicity
 _atom_site_fract_x
 _atom_site_fract_y
 _atom_site_fract_z
 _atom_site_occupancy
  Tm  Tm0  1  0.129356  0.129356  0.258711  1
  Tm  Tm1  1  0.870644  0.870644  0.741289  1
  Tm  Tm2  1  0.000000  0.500000  0.000000  1
  Cu  Cu3  1  0.669932  0.478572  0.339748  1
  Cu  Cu4  1  0.669920  0.861162  0.339784  1
  Cu  Cu5  1  0.330080  0.138838  0.660216  1
  Cu  Cu6  1  0.330068  0.521428  0.660252  1
  Ge  Ge7  1  0.783424  0.283465  0.566896  1
  Ge  Ge8  1  0.216576  0.716535  0.433104  1
  Ge  Ge9  1  0.499996  0.192640  0.000000  1
  Ge  Ge10  1  0.500004  0.807360  1.000000  1
