# generated using pymatgen
data_ZnS
_symmetry_space_group_name_H-M   'P 1'
_cell_length_a   37.82848837
_cell_length_b   37.82848835
_cell_length_c   37.82848904
_cell_angle_alpha   5.84756467
_cell_angle_beta   5.84756496
_cell_angle_gamma   5.84756402
_symmetry_Int_Tables_number   1
_chemical_formula_structural   ZnS
_chemical_formula_sum   'Zn12 S12'
_cell_volume   487.03568570
_cell_formula_units_Z   12
loop_
 _symmetry_equiv_pos_site_id
 _symmetry_equiv_pos_as_xyz
  1  'x, y, z'
loop_
 _atom_site_type_symbol
 _atom_site_label
 _atom_site_symmetry_multiplicity
 _atom_site_fract_x
 _atom_site_fract_y
 _atom_site_fract_z
 _atom_site_occupancy
  Zn  Zn0  1  0.083339  0.083339  0.083339  1
  Zn  Zn1  1  0.527785  0.527785  0.527785  1
  Zn  Zn2  1  0.611121  0.611121  0.611121  1
  Zn  Zn3  1  0.166674  0.166674  0.166674  1
  Zn  Zn4  1  0.916671  0.916671  0.916671  1
  Zn  Zn5  1  0.361126  0.361126  0.361126  1
  Zn  Zn6  1  0.000002  0.000002  0.000002  1
  Zn  Zn7  1  0.805551  0.805551  0.805551  1
  Zn  Zn8  1  0.722222  0.722222  0.722222  1
  Zn  Zn9  1  0.305555  0.305555  0.305555  1
  Zn  Zn10  1  0.222229  0.222229  0.222229  1
  Zn  Zn11  1  0.444454  0.444454  0.444454  1
  S  S12  1  0.243049  0.243049  0.243049  1
  S  S13  1  0.937498  0.937498  0.937498  1
  S  S14  1  0.104164  0.104164  0.104164  1
  S  S15  1  0.381939  0.381939  0.381939  1
  S  S16  1  0.465271  0.465271  0.465271  1
  S  S17  1  0.743048  0.743048  0.743048  1
  S  S18  1  0.548622  0.548622  0.548622  1
  S  S19  1  0.020844  0.020844  0.020844  1
  S  S20  1  0.826379  0.826379  0.826379  1
  S  S21  1  0.631942  0.631942  0.631942  1
  S  S22  1  0.187484  0.187484  0.187484  1
  S  S23  1  0.326367  0.326367  0.326367  1
