# generated using pymatgen
data_KNi3As3O11
_symmetry_space_group_name_H-M   'P 1'
_cell_length_a   9.84291390
_cell_length_b   10.25566261
_cell_length_c   10.37170656
_cell_angle_alpha   119.33166158
_cell_angle_beta   90.00000000
_cell_angle_gamma   90.00000000
_symmetry_Int_Tables_number   1
_chemical_formula_structural   KNi3As3O11
_chemical_formula_sum   'K4 Ni12 As12 O44'
_cell_volume   912.75422682
_cell_formula_units_Z   4
loop_
 _symmetry_equiv_pos_site_id
 _symmetry_equiv_pos_as_xyz
  1  'x, y, z'
loop_
 _atom_site_type_symbol
 _atom_site_label
 _atom_site_symmetry_multiplicity
 _atom_site_fract_x
 _atom_site_fract_y
 _atom_site_fract_z
 _atom_site_occupancy
  K  K0  1  0.232602  0.500981  0.910031  1
  K  K1  1  0.267398  0.000981  0.410031  1
  K  K2  1  0.767398  0.499019  0.089969  1
  K  K3  1  0.732602  0.999019  0.589969  1
  Ni  Ni4  1  0.632121  0.675786  0.763469  1
  Ni  Ni5  1  0.363096  0.143361  0.881482  1
  Ni  Ni6  1  0.128985  0.008291  0.099435  1
  Ni  Ni7  1  0.628985  0.491709  0.400565  1
  Ni  Ni8  1  0.636904  0.856639  0.118518  1
  Ni  Ni9  1  0.371015  0.508291  0.599435  1
  Ni  Ni10  1  0.132121  0.824214  0.736531  1
  Ni  Ni11  1  0.367879  0.324214  0.236531  1
  Ni  Ni12  1  0.867879  0.175786  0.263469  1
  Ni  Ni13  1  0.136904  0.643361  0.381482  1
  Ni  Ni14  1  0.863096  0.356639  0.618518  1
  Ni  Ni15  1  0.871015  0.991709  0.900565  1
  As  As16  1  0.657157  0.167009  0.068484  1
  As  As17  1  0.573873  0.186028  0.414432  1
  As  As18  1  0.556809  0.352170  0.759236  1
  As  As19  1  0.056809  0.147830  0.740764  1
  As  As20  1  0.926127  0.686028  0.914432  1
  As  As21  1  0.443191  0.647830  0.240764  1
  As  As22  1  0.157157  0.332991  0.431516  1
  As  As23  1  0.073873  0.313972  0.085568  1
  As  As24  1  0.842843  0.667009  0.568484  1
  As  As25  1  0.426127  0.813972  0.585568  1
  As  As26  1  0.943191  0.852170  0.259236  1
  As  As27  1  0.342843  0.832991  0.931516  1
  O  O28  1  0.758994  0.521903  0.585749  1
  O  O29  1  0.983643  0.522851  0.776880  1
  O  O30  1  0.987594  0.692077  0.078861  1
  O  O31  1  0.727144  0.314114  0.228851  1
  O  O32  1  0.747176  0.198180  0.435495  1
  O  O33  1  0.502369  0.508350  0.750574  1
  O  O34  1  0.516649  0.831134  0.935311  1
  O  O35  1  0.763884  0.650429  0.415376  1
  O  O36  1  0.497055  0.340884  0.414127  1
  O  O37  1  0.002369  0.991650  0.749426  1
  O  O38  1  0.533523  0.674856  0.117999  1
  O  O39  1  0.247176  0.301820  0.064505  1
  O  O40  1  0.502944  0.659116  0.585873  1
  O  O41  1  0.741006  0.021903  0.085749  1
  O  O42  1  0.271787  0.648395  0.229550  1
  O  O43  1  0.512406  0.192077  0.578861  1
  O  O44  1  0.016357  0.477149  0.223120  1
  O  O45  1  0.997631  0.008350  0.250574  1
  O  O46  1  0.497631  0.491650  0.249426  1
  O  O47  1  0.252824  0.801820  0.564505  1
  O  O48  1  0.033523  0.825144  0.382001  1
  O  O49  1  0.483643  0.977149  0.723120  1
  O  O50  1  0.272856  0.685886  0.771149  1
  O  O51  1  0.983351  0.331134  0.435311  1
  O  O52  1  0.966477  0.174856  0.617999  1
  O  O53  1  0.752824  0.698180  0.935495  1
  O  O54  1  0.728213  0.351605  0.770450  1
  O  O55  1  0.241006  0.478097  0.414251  1
  O  O56  1  0.228213  0.148395  0.729550  1
  O  O57  1  0.002945  0.840884  0.914127  1
  O  O58  1  0.997056  0.159116  0.085873  1
  O  O59  1  0.772856  0.814114  0.728851  1
  O  O60  1  0.483351  0.168866  0.064689  1
  O  O61  1  0.236116  0.349571  0.584624  1
  O  O62  1  0.487594  0.807923  0.421139  1
  O  O63  1  0.012406  0.307923  0.921139  1
  O  O64  1  0.466477  0.325144  0.882001  1
  O  O65  1  0.263884  0.849571  0.084624  1
  O  O66  1  0.516357  0.022851  0.276880  1
  O  O67  1  0.227144  0.185886  0.271149  1
  O  O68  1  0.258994  0.978097  0.914251  1
  O  O69  1  0.736116  0.150429  0.915376  1
  O  O70  1  0.016649  0.668866  0.564689  1
  O  O71  1  0.771787  0.851605  0.270450  1
