# generated using pymatgen
data_Pm2O3
_symmetry_space_group_name_H-M   'P 1'
_cell_length_a   9.59101190
_cell_length_b   9.59101181
_cell_length_c   9.59101161
_cell_angle_alpha   109.47121813
_cell_angle_beta   109.47121793
_cell_angle_gamma   109.47122053
_symmetry_Int_Tables_number   1
_chemical_formula_structural   Pm2O3
_chemical_formula_sum   'Pm16 O24'
_cell_volume   679.15892141
_cell_formula_units_Z   8
loop_
 _symmetry_equiv_pos_site_id
 _symmetry_equiv_pos_as_xyz
  1  'x, y, z'
loop_
 _atom_site_type_symbol
 _atom_site_label
 _atom_site_symmetry_multiplicity
 _atom_site_fract_x
 _atom_site_fract_y
 _atom_site_fract_z
 _atom_site_occupancy
  Pm  Pm0  1  0.750000  0.281261  0.531261  1
  Pm  Pm1  1  0.750000  0.781261  0.031261  1
  Pm  Pm2  1  0.250000  0.218739  0.968739  1
  Pm  Pm3  1  0.031261  0.750000  0.781261  1
  Pm  Pm4  1  0.281261  0.531261  0.750000  1
  Pm  Pm5  1  0.531261  0.750000  0.281261  1
  Pm  Pm6  1  0.000000  0.000000  0.500000  1
  Pm  Pm7  1  0.781261  0.031261  0.750000  1
  Pm  Pm8  1  0.250000  0.718739  0.468739  1
  Pm  Pm9  1  0.718739  0.468739  0.250000  1
  Pm  Pm10  1  0.468739  0.250000  0.718739  1
  Pm  Pm11  1  0.218739  0.968739  0.250000  1
  Pm  Pm12  1  0.500000  0.500000  0.500000  1
  Pm  Pm13  1  0.968739  0.250000  0.218739  1
  Pm  Pm14  1  0.500000  0.000000  0.000000  1
  Pm  Pm15  1  0.000000  0.500000  0.000000  1
  O  O16  1  0.271147  0.011774  0.040622  1
  O  O17  1  0.959378  0.728853  0.988226  1
  O  O18  1  0.971152  0.511774  0.240627  1
  O  O19  1  0.511774  0.240627  0.971152  1
  O  O20  1  0.740627  0.228853  0.269474  1
  O  O21  1  0.769474  0.540622  0.528848  1
  O  O22  1  0.988226  0.959378  0.728853  1
  O  O23  1  0.528848  0.769474  0.540622  1
  O  O24  1  0.040622  0.271147  0.011774  1
  O  O25  1  0.488226  0.759373  0.028848  1
  O  O26  1  0.730526  0.259373  0.771147  1
  O  O27  1  0.728853  0.988226  0.959378  1
  O  O28  1  0.459378  0.471152  0.230526  1
  O  O29  1  0.028848  0.488226  0.759373  1
  O  O30  1  0.771147  0.730526  0.259373  1
  O  O31  1  0.540622  0.528848  0.769474  1
  O  O32  1  0.269474  0.740627  0.228853  1
  O  O33  1  0.228853  0.269474  0.740627  1
  O  O34  1  0.759373  0.028848  0.488226  1
  O  O35  1  0.240627  0.971152  0.511774  1
  O  O36  1  0.471152  0.230526  0.459378  1
  O  O37  1  0.230526  0.459378  0.471152  1
  O  O38  1  0.259373  0.771147  0.730526  1
  O  O39  1  0.011774  0.040622  0.271147  1
