# generated using pymatgen
data_YbSnAu
_symmetry_space_group_name_H-M   'P 1'
_cell_length_a   4.76325484
_cell_length_b   8.23122047
_cell_length_c   11.98311875
_cell_angle_alpha   110.08766302
_cell_angle_beta   101.45467422
_cell_angle_gamma   90.00254584
_symmetry_Int_Tables_number   1
_chemical_formula_structural   YbSnAu
_chemical_formula_sum   'Yb6 Sn6 Au6'
_cell_volume   431.26731145
_cell_formula_units_Z   6
loop_
 _symmetry_equiv_pos_site_id
 _symmetry_equiv_pos_as_xyz
  1  'x, y, z'
loop_
 _atom_site_type_symbol
 _atom_site_label
 _atom_site_symmetry_multiplicity
 _atom_site_fract_x
 _atom_site_fract_y
 _atom_site_fract_z
 _atom_site_occupancy
  Yb  Yb0  1  0.334561  0.866135  0.669120  1
  Yb  Yb1  1  0.499990  0.965439  -0.000002  1
  Yb  Yb2  1  0.167914  0.634319  0.335818  1
  Yb  Yb3  1  0.665458  0.197040  0.330908  1
  Yb  Yb4  1  0.832099  0.298519  0.664185  1
  Yb  Yb5  1  0.000008  0.532470  0.000007  1
  Sn  Sn6  1  0.067915  0.230444  0.135833  1
  Sn  Sn7  1  0.764908  0.600185  0.529918  1
  Sn  Sn8  1  0.235067  0.070166  0.470124  1
  Sn  Sn9  1  0.405921  0.569939  0.811895  1
  Sn  Sn10  1  0.594085  0.758125  0.188102  1
  Sn  Sn11  1  0.931985  0.094572  0.864099  1
  Au  Au12  1  0.423497  0.256557  0.846965  1
  Au  Au13  1  0.262306  0.426563  0.524605  1
  Au  Au14  1  0.737697  0.901997  0.475393  1
  Au  Au15  1  0.100433  0.934529  0.200754  1
  Au  Au16  1  0.576549  0.409542  0.153033  1
  Au  Au17  1  0.899608  0.733757  0.799243  1
