# generated using pymatgen
data_Cs4Ti3S14
_symmetry_space_group_name_H-M   'P 1'
_cell_length_a   8.63839110
_cell_length_b   11.70249778
_cell_length_c   14.20554360
_cell_angle_alpha   112.99067669
_cell_angle_beta   90.00000000
_cell_angle_gamma   111.65908812
_symmetry_Int_Tables_number   1
_chemical_formula_structural   Cs4Ti3S14
_chemical_formula_sum   'Cs8 Ti6 S28'
_cell_volume   1211.07887137
_cell_formula_units_Z   2
loop_
 _symmetry_equiv_pos_site_id
 _symmetry_equiv_pos_as_xyz
  1  'x, y, z'
loop_
 _atom_site_type_symbol
 _atom_site_label
 _atom_site_symmetry_multiplicity
 _atom_site_fract_x
 _atom_site_fract_y
 _atom_site_fract_z
 _atom_site_occupancy
  Cs  Cs0  1  0.025891  0.408110  0.114187  1
  Cs  Cs1  1  0.617781  0.591890  0.385813  1
  Cs  Cs2  1  0.974109  0.591890  0.885813  1
  Cs  Cs3  1  0.382219  0.408110  0.614187  1
  Cs  Cs4  1  0.200847  0.875260  0.352959  1
  Cs  Cs5  1  0.325588  0.124740  0.147041  1
  Cs  Cs6  1  0.799153  0.124740  0.647041  1
  Cs  Cs7  1  0.674412  0.875260  0.852959  1
  Ti  Ti8  1  0.923467  0.334426  0.417763  1
  Ti  Ti9  1  0.589041  0.665574  0.082237  1
  Ti  Ti10  1  0.076533  0.665574  0.582237  1
  Ti  Ti11  1  0.410959  0.334426  0.917763  1
  Ti  Ti12  1  0.763882  0.000000  0.250000  1
  Ti  Ti13  1  0.236118  0.000000  0.750000  1
  S  S14  1  0.880346  0.079021  0.117745  1
  S  S15  1  0.801324  0.920979  0.382255  1
  S  S16  1  0.119654  0.920979  0.882255  1
  S  S17  1  0.198676  0.079021  0.617745  1
  S  S18  1  0.669752  0.138116  0.413086  1
  S  S19  1  0.531636  0.861884  0.086914  1
  S  S20  1  0.330248  0.861884  0.586914  1
  S  S21  1  0.468364  0.138116  0.913086  1
  S  S22  1  0.056003  0.169798  0.368557  1
  S  S23  1  0.886206  0.830202  0.131443  1
  S  S24  1  0.943997  0.830202  0.631443  1
  S  S25  1  0.113794  0.169798  0.868557  1
  S  S26  1  0.764368  0.191401  0.219751  1
  S  S27  1  0.572967  0.808599  0.280249  1
  S  S28  1  0.235632  0.808599  0.780249  1
  S  S29  1  0.427033  0.191401  0.719751  1
  S  S30  1  0.993991  0.556266  0.405851  1
  S  S31  1  0.437725  0.443734  0.094149  1
  S  S32  1  0.006009  0.443734  0.594149  1
  S  S33  1  0.562275  0.556266  0.905851  1
  S  S34  1  0.834240  0.657341  0.156044  1
  S  S35  1  0.176899  0.342659  0.343956  1
  S  S36  1  0.165760  0.342659  0.843956  1
  S  S37  1  0.823101  0.657341  0.656044  1
  S  S38  1  0.327545  0.708429  0.101054  1
  S  S39  1  0.619115  0.291571  0.398946  1
  S  S40  1  0.672455  0.291571  0.898946  1
  S  S41  1  0.380885  0.708429  0.601054  1
