# generated using pymatgen
data_Cr3Ag8(IO6)2
_symmetry_space_group_name_H-M   'P 1'
_cell_length_a   9.54828108
_cell_length_b   9.54828072
_cell_length_c   10.43147493
_cell_angle_alpha   90.00000000
_cell_angle_beta   90.00000000
_cell_angle_gamma   120.00000128
_symmetry_Int_Tables_number   1
_chemical_formula_structural   Cr3Ag8(IO6)2
_chemical_formula_sum   'Cr6 Ag16 I4 O24'
_cell_volume   823.61968652
_cell_formula_units_Z   2
loop_
 _symmetry_equiv_pos_site_id
 _symmetry_equiv_pos_as_xyz
  1  'x, y, z'
loop_
 _atom_site_type_symbol
 _atom_site_label
 _atom_site_symmetry_multiplicity
 _atom_site_fract_x
 _atom_site_fract_y
 _atom_site_fract_z
 _atom_site_occupancy
  Cr  Cr0  1  0.716244  0.720228  0.250000  1
  Cr  Cr1  1  0.283756  0.279772  0.750000  1
  Cr  Cr2  1  0.279772  0.996016  0.250000  1
  Cr  Cr3  1  0.720228  0.003984  0.750000  1
  Cr  Cr4  1  0.996016  0.716244  0.750000  1
  Cr  Cr5  1  0.003984  0.283756  0.250000  1
  Ag  Ag6  1  1.000075  0.371770  0.574528  1
  Ag  Ag7  1  0.371770  0.371694  0.425472  1
  Ag  Ag8  1  0.371694  -0.000075  0.925472  1
  Ag  Ag9  1  -0.000075  0.628230  0.425472  1
  Ag  Ag10  1  0.628230  0.628305  0.925472  1
  Ag  Ag11  1  -0.000075  0.628230  0.074528  1
  Ag  Ag12  1  0.628305  1.000075  0.425472  1
  Ag  Ag13  1  0.666667  0.333333  0.750000  1
  Ag  Ag14  1  0.371770  0.371694  0.074528  1
  Ag  Ag15  1  0.628230  0.628305  0.574528  1
  Ag  Ag16  1  0.628305  1.000075  0.074528  1
  Ag  Ag17  1  0.000000  0.000000  0.500000  1
  Ag  Ag18  1  0.371694  -0.000075  0.574528  1
  Ag  Ag19  1  0.000000  0.000000  0.000000  1
  Ag  Ag20  1  1.000075  0.371770  0.925472  1
  Ag  Ag21  1  0.333333  0.666667  0.250000  1
  I  I22  1  0.333333  0.666667  0.520830  1
  I  I23  1  0.666667  0.333333  0.479170  1
  I  I24  1  0.666667  0.333333  0.020830  1
  I  I25  1  0.333333  0.666667  0.979170  1
  O  O26  1  0.351045  0.193821  0.250000  1
  O  O27  1  0.170059  0.915703  0.384754  1
  O  O28  1  0.434508  0.957405  0.250000  1
  O  O29  1  0.042595  0.477103  0.250000  1
  O  O30  1  0.084297  0.254356  0.115246  1
  O  O31  1  0.745644  0.829941  0.384754  1
  O  O32  1  0.648955  0.806179  0.750000  1
  O  O33  1  0.084297  0.254356  0.384754  1
  O  O34  1  0.915703  0.745644  0.615246  1
  O  O35  1  0.829941  0.084297  0.884754  1
  O  O36  1  0.254356  0.170059  0.884754  1
  O  O37  1  0.193821  0.842776  0.750000  1
  O  O38  1  0.842776  0.648955  0.250000  1
  O  O39  1  0.565492  0.042595  0.750000  1
  O  O40  1  0.915703  0.745644  0.884754  1
  O  O41  1  0.254356  0.170059  0.615246  1
  O  O42  1  0.170059  0.915703  0.115246  1
  O  O43  1  0.829941  0.084297  0.615246  1
  O  O44  1  0.522897  0.565492  0.250000  1
  O  O45  1  0.157224  0.351045  0.750000  1
  O  O46  1  0.806179  0.157224  0.250000  1
  O  O47  1  0.477103  0.434508  0.750000  1
  O  O48  1  0.957405  0.522897  0.750000  1
  O  O49  1  0.745644  0.829941  0.115246  1
