# generated using pymatgen
data_GeSe2
_symmetry_space_group_name_H-M   'P 1'
_cell_length_a   7.20019779
_cell_length_b   12.89870701
_cell_length_c   17.25089389
_cell_angle_alpha   90.00000000
_cell_angle_beta   90.00000000
_cell_angle_gamma   90.85330497
_symmetry_Int_Tables_number   1
_chemical_formula_structural   GeSe2
_chemical_formula_sum   'Ge16 Se32'
_cell_volume   1601.96876226
_cell_formula_units_Z   16
loop_
 _symmetry_equiv_pos_site_id
 _symmetry_equiv_pos_as_xyz
  1  'x, y, z'
loop_
 _atom_site_type_symbol
 _atom_site_label
 _atom_site_symmetry_multiplicity
 _atom_site_fract_x
 _atom_site_fract_y
 _atom_site_fract_z
 _atom_site_occupancy
  Ge  Ge0  1  0.660276  0.776125  0.845728  1
  Ge  Ge1  1  0.339724  0.723875  0.345728  1
  Ge  Ge2  1  0.339724  0.223875  0.154272  1
  Ge  Ge3  1  0.660276  0.276125  0.654272  1
  Ge  Ge4  1  0.834583  0.224574  0.849879  1
  Ge  Ge5  1  0.165417  0.275426  0.349879  1
  Ge  Ge6  1  0.165417  0.775426  0.150121  1
  Ge  Ge7  1  0.834583  0.724574  0.650121  1
  Ge  Ge8  1  0.162085  0.294033  0.999750  1
  Ge  Ge9  1  0.837915  0.205967  0.499750  1
  Ge  Ge10  1  0.837915  0.705967  0.000250  1
  Ge  Ge11  1  0.162085  0.794033  0.500250  1
  Ge  Ge12  1  0.332184  0.724880  0.689976  1
  Ge  Ge13  1  0.667816  0.775120  0.189976  1
  Ge  Ge14  1  0.667816  0.275120  0.310024  1
  Ge  Ge15  1  0.332184  0.224880  0.810024  1
  Se  Se16  1  0.332956  0.788507  0.820547  1
  Se  Se17  1  0.667044  0.711493  0.320547  1
  Se  Se18  1  0.667044  0.211493  0.179453  1
  Se  Se19  1  0.332956  0.288507  0.679453  1
  Se  Se20  1  0.723573  0.872583  0.962165  1
  Se  Se21  1  0.276427  0.627417  0.462165  1
  Se  Se22  1  0.276427  0.127416  0.037835  1
  Se  Se23  1  0.723573  0.372584  0.537835  1
  Se  Se24  1  0.769043  0.608719  0.884954  1
  Se  Se25  1  0.230957  0.891281  0.384954  1
  Se  Se26  1  0.230957  0.391281  0.115046  1
  Se  Se27  1  0.769043  0.108719  0.615046  1
  Se  Se28  1  0.840530  0.859470  0.744848  1
  Se  Se29  1  0.159470  0.640530  0.244848  1
  Se  Se30  1  0.159470  0.140530  0.255152  1
  Se  Se31  1  0.840530  0.359470  0.755152  1
  Se  Se32  1  0.582036  0.605556  0.670439  1
  Se  Se33  1  0.417964  0.894444  0.170439  1
  Se  Se34  1  0.417964  0.394444  0.329561  1
  Se  Se35  1  0.582036  0.105556  0.829561  1
  Se  Se36  1  0.085136  0.604463  0.661763  1
  Se  Se37  1  0.914864  0.895537  0.161763  1
  Se  Se38  1  0.914864  0.395537  0.338237  1
  Se  Se39  1  0.085136  0.104463  0.838237  1
  Se  Se40  1  0.330876  0.872386  0.606511  1
  Se  Se41  1  0.669124  0.627614  0.106511  1
  Se  Se42  1  0.669124  0.127614  0.393489  1
  Se  Se43  1  0.330876  0.372386  0.893489  1
  Se  Se44  1  0.833788  0.803368  0.524076  1
  Se  Se45  1  0.166212  0.696632  0.024076  1
  Se  Se46  1  0.166212  0.196632  0.475924  1
  Se  Se47  1  0.833788  0.303368  0.975924  1
