# generated using pymatgen
data_Ba2WO5
_symmetry_space_group_name_H-M   'P 1'
_cell_length_a   5.81031418
_cell_length_b   7.56529768
_cell_length_c   11.71993905
_cell_angle_alpha   90.00000000
_cell_angle_beta   90.00000000
_cell_angle_gamma   90.00000000
_symmetry_Int_Tables_number   1
_chemical_formula_structural   Ba2WO5
_chemical_formula_sum   'Ba8 W4 O20'
_cell_volume   515.17050568
_cell_formula_units_Z   4
loop_
 _symmetry_equiv_pos_site_id
 _symmetry_equiv_pos_as_xyz
  1  'x, y, z'
loop_
 _atom_site_type_symbol
 _atom_site_label
 _atom_site_symmetry_multiplicity
 _atom_site_fract_x
 _atom_site_fract_y
 _atom_site_fract_z
 _atom_site_occupancy
  O  O0  1  0.009322  0.177163  0.613136  1
  O  O1  1  0.509321  0.822838  0.386864  1
  O  O2  1  0.490679  0.677162  0.886864  1
  O  O3  1  0.990679  0.322838  0.113136  1
  O  O4  1  0.990679  0.822838  0.386864  1
  O  O5  1  0.490679  0.177163  0.613136  1
  O  O6  1  0.509321  0.322838  0.113136  1
  O  O7  1  0.009322  0.677162  0.886864  1
  O  O8  1  0.750000  0.774296  0.592430  1
  O  O9  1  0.249999  0.225704  0.407570  1
  O  O10  1  0.750000  0.274295  0.907570  1
  O  O11  1  0.249999  0.725704  0.092430  1
  O  O12  1  0.500001  0.000000  0.000000  1
  O  O13  1  0.000000  0.000000  0.000000  1
  O  O14  1  0.000000  0.500000  0.500000  1
  O  O15  1  0.500001  0.500000  0.500000  1
  O  O16  1  0.750000  0.528553  0.303973  1
  O  O17  1  0.750000  0.028553  0.196028  1
  O  O18  1  0.249999  0.471446  0.696027  1
  O  O19  1  0.249999  0.971447  0.803973  1
  Ba  Ba20  1  0.750000  0.674398  0.083961  1
  Ba  Ba21  1  0.249999  0.325602  0.916039  1
  Ba  Ba22  1  0.750000  0.174397  0.416039  1
  Ba  Ba23  1  0.249999  0.825602  0.583961  1
  Ba  Ba24  1  0.249999  0.521624  0.283980  1
  Ba  Ba25  1  0.750000  0.478376  0.716020  1
  Ba  Ba26  1  0.750000  0.978376  0.783980  1
  Ba  Ba27  1  0.249999  0.021625  0.216020  1
  W  W28  1  0.249999  0.824539  0.935957  1
  W  W29  1  0.750000  0.175461  0.064043  1
  W  W30  1  0.249999  0.324539  0.564043  1
  W  W31  1  0.750000  0.675460  0.435957  1
