# generated using pymatgen
data_Sr2Ni(PO4)2
_symmetry_space_group_name_H-M   'P 1'
_cell_length_a   9.12289778
_cell_length_b   10.11725819
_cell_length_c   11.80459134
_cell_angle_alpha   90.00000000
_cell_angle_beta   97.84890814
_cell_angle_gamma   90.00000000
_symmetry_Int_Tables_number   1
_chemical_formula_structural   Sr2Ni(PO4)2
_chemical_formula_sum   'Sr12 Ni6 P12 O48'
_cell_volume   1079.34128721
_cell_formula_units_Z   6
loop_
 _symmetry_equiv_pos_site_id
 _symmetry_equiv_pos_as_xyz
  1  'x, y, z'
loop_
 _atom_site_type_symbol
 _atom_site_label
 _atom_site_symmetry_multiplicity
 _atom_site_fract_x
 _atom_site_fract_y
 _atom_site_fract_z
 _atom_site_occupancy
  Sr  Sr0  1  0.832491  0.849748  0.847731  1
  Sr  Sr1  1  0.667509  0.349748  0.152269  1
  Sr  Sr2  1  0.167509  0.150252  0.152269  1
  Sr  Sr3  1  0.332491  0.650252  0.847731  1
  Sr  Sr4  1  0.303465  0.118392  0.504656  1
  Sr  Sr5  1  0.196535  0.618392  0.495344  1
  Sr  Sr6  1  0.696535  0.881608  0.495344  1
  Sr  Sr7  1  0.803465  0.381608  0.504656  1
  Sr  Sr8  1  0.836994  0.725076  0.189709  1
  Sr  Sr9  1  0.663006  0.225076  0.810291  1
  Sr  Sr10  1  0.163006  0.274924  0.810291  1
  Sr  Sr11  1  0.336994  0.774924  0.189709  1
  Ni  Ni12  1  0.125305  0.890736  0.676607  1
  Ni  Ni13  1  0.374695  0.390736  0.323393  1
  Ni  Ni14  1  0.874695  0.109264  0.323393  1
  Ni  Ni15  1  0.625305  0.609264  0.676607  1
  Ni  Ni16  1  0.000000  0.500000  0.000000  1
  Ni  Ni17  1  0.500000  0.000000  0.000000  1
  P  P18  1  0.289429  0.433029  0.042785  1
  P  P19  1  0.210571  0.933029  0.957215  1
  P  P20  1  0.710571  0.566971  0.957215  1
  P  P21  1  0.789429  0.066971  0.042785  1
  P  P22  1  0.494402  0.075964  0.286697  1
  P  P23  1  0.005598  0.575964  0.713303  1
  P  P24  1  0.505598  0.924036  0.713303  1
  P  P25  1  0.994402  0.424036  0.286697  1
  P  P26  1  0.437395  0.399200  0.625729  1
  P  P27  1  0.062605  0.899200  0.374271  1
  P  P28  1  0.562605  0.600800  0.374271  1
  P  P29  1  0.937395  0.100800  0.625729  1
  O  O30  1  0.231294  0.576691  0.057612  1
  O  O31  1  0.268706  0.076691  0.942388  1
  O  O32  1  0.768706  0.423309  0.942388  1
  O  O33  1  0.731294  0.923309  0.057612  1
  O  O34  1  0.389210  0.382242  0.150328  1
  O  O35  1  0.110790  0.882242  0.849672  1
  O  O36  1  0.610790  0.617758  0.849672  1
  O  O37  1  0.889210  0.117758  0.150328  1
  O  O38  1  0.367618  0.419556  0.935932  1
  O  O39  1  0.132382  0.919556  0.064068  1
  O  O40  1  0.632382  0.580444  0.064068  1
  O  O41  1  0.867618  0.080444  0.935932  1
  O  O42  1  0.143304  0.345286  0.020757  1
  O  O43  1  0.356696  0.845286  0.979243  1
  O  O44  1  0.856696  0.654714  0.979243  1
  O  O45  1  0.643304  0.154714  0.020757  1
  O  O46  1  0.387016  0.188518  0.315425  1
  O  O47  1  0.112984  0.688518  0.684575  1
  O  O48  1  0.612984  0.811482  0.684575  1
  O  O49  1  0.887016  0.311482  0.315425  1
  O  O50  1  0.477631  0.964185  0.373540  1
  O  O51  1  0.022370  0.464185  0.626460  1
  O  O52  1  0.522370  0.035815  0.626460  1
  O  O53  1  0.977630  0.535815  0.373540  1
  O  O54  1  0.651164  0.133630  0.293287  1
  O  O55  1  0.848836  0.633630  0.706713  1
  O  O56  1  0.348836  0.866370  0.706713  1
  O  O57  1  0.151164  0.366370  0.293287  1
  O  O58  1  0.435075  0.021763  0.165071  1
  O  O59  1  0.064925  0.521763  0.834929  1
  O  O60  1  0.866905  0.131937  0.501288  1
  O  O61  1  0.633095  0.631937  0.498712  1
  O  O62  1  0.133095  0.868063  0.498712  1
  O  O63  1  0.366905  0.368063  0.501288  1
  O  O64  1  0.897450  0.955356  0.655585  1
  O  O65  1  0.602550  0.455356  0.344415  1
  O  O66  1  0.102550  0.044644  0.344415  1
  O  O67  1  0.397450  0.544644  0.655585  1
  O  O68  1  0.111520  0.101957  0.642833  1
  O  O69  1  0.388480  0.601957  0.357167  1
  O  O70  1  0.888480  0.898043  0.357167  1
  O  O71  1  0.611520  0.398043  0.642833  1
  O  O72  1  0.884406  0.206193  0.704932  1
  O  O73  1  0.615594  0.706193  0.295068  1
  O  O74  1  0.115594  0.793807  0.295068  1
  O  O75  1  0.384406  0.293807  0.704932  1
  O  O76  1  0.935075  0.478237  0.165071  1
  O  O77  1  0.564925  0.978237  0.834929  1
