# generated using pymatgen
data_NbVF6
_symmetry_space_group_name_H-M   'P 1'
_cell_length_a   5.77588545
_cell_length_b   5.77588556
_cell_length_c   5.77588583
_cell_angle_alpha   57.45672555
_cell_angle_beta   57.45672483
_cell_angle_gamma   57.45672569
_symmetry_Int_Tables_number   1
_chemical_formula_structural   NbVF6
_chemical_formula_sum   'Nb1 V1 F6'
_cell_volume   128.27967084
_cell_formula_units_Z   1
loop_
 _symmetry_equiv_pos_site_id
 _symmetry_equiv_pos_as_xyz
  1  'x, y, z'
loop_
 _atom_site_type_symbol
 _atom_site_label
 _atom_site_symmetry_multiplicity
 _atom_site_fract_x
 _atom_site_fract_y
 _atom_site_fract_z
 _atom_site_occupancy
  Nb  Nb0  1  0.500000  0.500000  0.500000  1
  V  V1  1  0.000000  0.000000  0.000000  1
  F  F2  1  0.830528  0.257015  0.659890  1
  F  F3  1  0.257015  0.659890  0.830528  1
  F  F4  1  0.340110  0.169472  0.742985  1
  F  F5  1  0.742985  0.340110  0.169472  1
  F  F6  1  0.169472  0.742985  0.340110  1
  F  F7  1  0.659890  0.830528  0.257015  1
