# generated using pymatgen
data_NdAsO4
_symmetry_space_group_name_H-M   'P 1'
_cell_length_a   6.77150315
_cell_length_b   7.00611742
_cell_length_c   7.19911695
_cell_angle_alpha   90.00000000
_cell_angle_beta   90.00000000
_cell_angle_gamma   105.07182645
_symmetry_Int_Tables_number   1
_chemical_formula_structural   NdAsO4
_chemical_formula_sum   'Nd4 As4 O16'
_cell_volume   329.79134692
_cell_formula_units_Z   4
loop_
 _symmetry_equiv_pos_site_id
 _symmetry_equiv_pos_as_xyz
  1  'x, y, z'
loop_
 _atom_site_type_symbol
 _atom_site_label
 _atom_site_symmetry_multiplicity
 _atom_site_fract_x
 _atom_site_fract_y
 _atom_site_fract_z
 _atom_site_occupancy
  Nd  Nd0  1  0.404931  0.217636  0.151417  1
  Nd  Nd1  1  0.595069  0.782364  0.848583  1
  Nd  Nd2  1  0.095069  0.282364  0.651417  1
  Nd  Nd3  1  0.904931  0.717636  0.348583  1
  As  As4  1  0.112683  0.802538  0.837942  1
  As  As5  1  0.387317  0.697462  0.337942  1
  As  As6  1  0.612683  0.302538  0.662058  1
  As  As7  1  0.887317  0.197462  0.162058  1
  O  O8  1  0.774812  0.384193  0.213048  1
  O  O9  1  0.225188  0.615807  0.786952  1
  O  O10  1  0.423698  0.252333  0.495935  1
  O  O11  1  0.168272  0.518082  0.394125  1
  O  O12  1  0.725188  0.115807  0.713048  1
  O  O13  1  0.923698  0.752333  0.004065  1
  O  O14  1  0.076302  0.247667  0.995935  1
  O  O15  1  0.498558  0.393234  0.844030  1
  O  O16  1  0.001442  0.106766  0.344030  1
  O  O17  1  0.831728  0.481918  0.605875  1
  O  O18  1  0.668272  0.018082  0.105875  1
  O  O19  1  0.998558  0.893234  0.655970  1
  O  O20  1  0.274812  0.884193  0.286952  1
  O  O21  1  0.576302  0.747667  0.504065  1
  O  O22  1  0.501442  0.606766  0.155970  1
  O  O23  1  0.331728  0.981918  0.894125  1
