# generated using pymatgen
data_K2LaH4N5O17
_symmetry_space_group_name_H-M   'P 1'
_cell_length_a   8.46524637
_cell_length_b   8.46541465
_cell_length_c   12.32309381
_cell_angle_alpha   108.33028426
_cell_angle_beta   108.30287686
_cell_angle_gamma   94.88866891
_symmetry_Int_Tables_number   1
_chemical_formula_structural   K2LaH4N5O17
_chemical_formula_sum   'K4 La2 H8 N10 O34'
_cell_volume   779.11656819
_cell_formula_units_Z   2
loop_
 _symmetry_equiv_pos_site_id
 _symmetry_equiv_pos_as_xyz
  1  'x, y, z'
loop_
 _atom_site_type_symbol
 _atom_site_label
 _atom_site_symmetry_multiplicity
 _atom_site_fract_x
 _atom_site_fract_y
 _atom_site_fract_z
 _atom_site_occupancy
  La  La0  1  0.997707  0.002257  -0.000022  1
  La  La1  1  0.747776  0.252235  0.500001  1
  O  O2  1  0.770602  0.956928  0.097080  1
  O  O3  1  0.043106  0.229416  0.902922  1
  O  O4  1  0.890070  0.576399  0.597100  1
  O  O5  1  0.423597  0.109908  0.402912  1
  O  O6  1  0.727669  0.754620  0.922683  1
  O  O7  1  0.245377  0.272374  0.077307  1
  O  O8  1  0.918005  0.444991  0.422732  1
  O  O9  1  0.554968  0.081997  0.577254  1
  O  O10  1  0.575046  0.724838  0.033347  1
  O  O11  1  0.275183  0.424959  0.966650  1
  O  O12  1  0.058359  0.708354  0.533382  1
  O  O13  1  0.291638  0.941630  0.466625  1
  O  O14  1  0.065757  0.771441  0.115110  1
  O  O15  1  0.228531  0.934256  0.884896  1
  O  O16  1  0.093592  0.299388  0.615268  1
  O  O17  1  0.700579  0.906443  0.384761  1
  O  O18  1  0.290706  0.928719  0.123758  1
  O  O19  1  0.071280  0.709308  0.876250  1
  O  O20  1  0.944926  0.082985  0.623709  1
  O  O21  1  0.917019  0.055128  0.376317  1
  O  O22  1  0.318547  0.730486  0.205624  1
  O  O23  1  0.269513  0.681442  0.794361  1
  O  O24  1  0.225007  0.137021  0.705649  1
  O  O25  1  0.862988  0.774990  0.294343  1
  O  O26  1  0.712861  0.116556  0.909303  1
  O  O27  1  0.883420  0.287145  0.090695  1
  O  O28  1  0.542978  0.446683  0.409404  1
  O  O29  1  0.553296  0.457048  0.590583  1
  O  O30  1  0.644618  0.355395  0.000021  1
  O  O31  1  0.394605  0.605404  0.500005  1
  K  K32  1  0.560455  0.523869  0.204482  1
  K  K33  1  0.476160  0.439503  0.795505  1
  K  K34  1  0.430258  0.894166  0.704411  1
  K  K35  1  0.105822  0.569753  0.295576  1
  N  N36  1  0.687223  0.809109  0.018199  1
  N  N37  1  0.190912  0.312801  0.981797  1
  N  N38  1  0.958971  0.580937  0.518230  1
  N  N39  1  0.419048  0.041024  0.481770  1
  N  N40  1  0.226744  0.808108  0.149132  1
  N  N41  1  0.191888  0.773261  0.850865  1
  N  N42  1  0.090922  0.172367  0.649173  1
  N  N43  1  0.827620  0.909093  0.350838  1
  N  N44  1  0.744764  0.255235  0.000006  1
  N  N45  1  0.494757  0.505245  0.499995  1
  O  O46  1  0.110899  0.156021  0.246004  1
  O  O47  1  0.843980  0.889072  0.754004  1
  O  O48  1  0.839963  0.385101  0.746005  1
  O  O49  1  0.614919  0.160029  0.253995  1
  H  H50  1  0.223519  0.142542  0.293044  1
  H  H51  1  0.857471  0.776434  0.706952  1
  H  H52  1  0.900477  0.319542  0.793057  1
  H  H53  1  0.680473  0.099488  0.206925  1
  H  H54  1  0.035781  0.113136  0.282129  1
  H  H55  1  0.886870  0.964189  0.717882  1
  H  H56  1  0.918997  0.496345  0.782122  1
  H  H57  1  0.503664  0.081006  0.217870  1
