# generated using pymatgen
data_Sr3Mg(SiO4)2
_symmetry_space_group_name_H-M   'P 1'
_cell_length_a   5.51148593
_cell_length_b   5.52428092
_cell_length_c   14.03674292
_cell_angle_alpha   89.23373005
_cell_angle_beta   90.00000000
_cell_angle_gamma   119.92341227
_symmetry_Int_Tables_number   1
_chemical_formula_structural   Sr3Mg(SiO4)2
_chemical_formula_sum   'Sr6 Mg2 Si4 O16'
_cell_volume   370.36025646
_cell_formula_units_Z   2
loop_
 _symmetry_equiv_pos_site_id
 _symmetry_equiv_pos_as_xyz
  1  'x, y, z'
loop_
 _atom_site_type_symbol
 _atom_site_label
 _atom_site_symmetry_multiplicity
 _atom_site_fract_x
 _atom_site_fract_y
 _atom_site_fract_z
 _atom_site_occupancy
  Sr  Sr0  1  0.931028  0.000000  0.500000  1
  Sr  Sr1  1  0.041817  0.000000  -0.000000  1
  Sr  Sr2  1  0.673132  0.340537  0.161904  1
  Sr  Sr3  1  0.332595  0.659463  0.838096  1
  Sr  Sr4  1  0.298815  0.652691  0.337946  1
  Sr  Sr5  1  0.646124  0.347309  0.662054  1
  Mg  Mg6  1  0.985551  -0.003847  0.250009  1
  Mg  Mg7  1  0.989398  0.003847  0.749991  1
  Si  Si8  1  0.634776  0.318213  0.384721  1
  Si  Si9  1  0.316563  0.681787  0.615279  1
  Si  Si10  1  0.336622  0.675302  0.115221  1
  Si  Si11  1  0.661320  0.324698  0.884779  1
  O  O12  1  0.769388  0.150479  0.326462  1
  O  O13  1  0.618909  0.849521  0.673538  1
  O  O14  1  0.142559  0.369473  0.667423  1
  O  O15  1  0.773086  0.630527  0.332577  1
  O  O16  1  0.727052  0.336663  0.495006  1
  O  O17  1  0.390389  0.663337  0.504994  1
  O  O18  1  0.197682  0.361019  0.166345  1
  O  O19  1  0.836663  0.638981  0.833655  1
  O  O20  1  0.244375  0.660855  0.005010  1
  O  O21  1  0.583520  0.339145  -0.005010  1
  O  O22  1  0.676848  0.841087  0.136612  1
  O  O23  1  0.835761  0.158913  0.863388  1
  O  O24  1  0.202861  0.842217  0.174545  1
  O  O25  1  0.360644  0.157783  0.825455  1
  O  O26  1  0.294878  0.153234  0.363270  1
  O  O27  1  0.141645  0.846766  0.636730  1
