# generated using pymatgen
data_Fe2P2H4O9
_symmetry_space_group_name_H-M   'P 1'
_cell_length_a   6.56188845
_cell_length_b   7.47826404
_cell_length_c   14.19940925
_cell_angle_alpha   90.00000000
_cell_angle_beta   90.00000000
_cell_angle_gamma   94.68396000
_symmetry_Int_Tables_number   1
_chemical_formula_structural   Fe2P2H4O9
_chemical_formula_sum   'Fe8 P8 H16 O36'
_cell_volume   694.45973207
_cell_formula_units_Z   4
loop_
 _symmetry_equiv_pos_site_id
 _symmetry_equiv_pos_as_xyz
  1  'x, y, z'
loop_
 _atom_site_type_symbol
 _atom_site_label
 _atom_site_symmetry_multiplicity
 _atom_site_fract_x
 _atom_site_fract_y
 _atom_site_fract_z
 _atom_site_occupancy
  Fe  Fe0  1  0.265773  0.084653  0.385965  1
  Fe  Fe1  1  0.234227  0.415347  0.885965  1
  Fe  Fe2  1  0.734227  0.915347  0.614035  1
  Fe  Fe3  1  0.765773  0.584653  0.114035  1
  Fe  Fe4  1  0.951363  0.653910  0.751359  1
  Fe  Fe5  1  0.548637  0.846090  0.251359  1
  Fe  Fe6  1  0.048637  0.346090  0.248641  1
  Fe  Fe7  1  0.451363  0.153910  0.748641  1
  P  P8  1  0.244021  0.856154  0.584231  1
  P  P9  1  0.255979  0.643846  0.084231  1
  P  P10  1  0.755979  0.143846  0.415769  1
  P  P11  1  0.744021  0.356154  0.915769  1
  P  P12  1  0.433276  0.576283  0.685159  1
  P  P13  1  0.066724  0.923717  0.185159  1
  P  P14  1  0.566724  0.423717  0.314841  1
  P  P15  1  0.933276  0.076283  0.814841  1
  H  H16  1  0.342564  0.312040  0.548061  1
  H  H17  1  0.157436  0.187960  0.048061  1
  H  H18  1  0.657436  0.687960  0.451939  1
  H  H19  1  0.842564  0.812040  0.951939  1
  H  H20  1  0.110213  0.275233  0.525366  1
  H  H21  1  0.389787  0.224767  0.025366  1
  H  H22  1  0.889787  0.724767  0.474634  1
  H  H23  1  0.610213  0.775233  0.974634  1
  H  H24  1  0.825188  0.461494  0.600938  1
  H  H25  1  0.674812  0.038506  0.100938  1
  H  H26  1  0.174812  0.538506  0.399062  1
  H  H27  1  0.325188  0.961494  0.899062  1
  H  H28  1  0.883676  0.318380  0.674742  1
  H  H29  1  0.616324  0.181620  0.174742  1
  H  H30  1  0.116324  0.681620  0.325258  1
  H  H31  1  0.383676  0.818380  0.825258  1
  O  O32  1  0.205385  0.881846  0.480107  1
  O  O33  1  0.294615  0.618154  0.980107  1
  O  O34  1  0.794615  0.118154  0.519893  1
  O  O35  1  0.705385  0.381846  0.019893  1
  O  O36  1  0.045109  0.844348  0.641663  1
  O  O37  1  0.454891  0.655652  0.141663  1
  O  O38  1  0.954891  0.155652  0.358337  1
  O  O39  1  0.545109  0.344348  0.858337  1
  O  O40  1  0.412006  0.985227  0.628494  1
  O  O41  1  0.087994  0.514773  0.128494  1
  O  O42  1  0.587994  0.014773  0.371506  1
  O  O43  1  0.912006  0.485227  0.871506  1
  O  O44  1  0.335354  0.658944  0.590713  1
  O  O45  1  0.164646  0.841056  0.090713  1
  O  O46  1  0.664646  0.341056  0.409287  1
  O  O47  1  0.835354  0.158944  0.909287  1
  O  O48  1  0.279758  0.602552  0.766060  1
  O  O49  1  0.220242  0.897448  0.266060  1
  O  O50  1  0.720242  0.397448  0.233940  1
  O  O51  1  0.779758  0.102552  0.733940  1
  O  O52  1  0.636420  0.690233  0.703816  1
  O  O53  1  0.863580  0.809767  0.203816  1
  O  O54  1  0.363580  0.309767  0.296184  1
  O  O55  1  0.136420  0.190233  0.796184  1
  O  O56  1  0.459527  0.381672  0.659120  1
  O  O57  1  0.040473  0.118328  0.159120  1
  O  O58  1  0.540473  0.618328  0.340880  1
  O  O59  1  0.959527  0.881672  0.840880  1
  O  O60  1  0.244768  0.288350  0.495408  1
  O  O61  1  0.255232  0.211650  0.995408  1
  O  O62  1  0.755232  0.711650  0.504592  1
  O  O63  1  0.744768  0.788350  0.004592  1
  O  O64  1  0.929394  0.437144  0.647915  1
  O  O65  1  0.570606  0.062856  0.147915  1
  O  O66  1  0.070606  0.562856  0.352085  1
  O  O67  1  0.429394  0.937144  0.852085  1
