# generated using pymatgen
data_Sr2Cu3(IO2)2
_symmetry_space_group_name_H-M   'P 1'
_cell_length_a   5.68476167
_cell_length_b   5.68331144
_cell_length_c   9.62025107
_cell_angle_alpha   107.17043252
_cell_angle_beta   107.18687999
_cell_angle_gamma   89.97201564
_symmetry_Int_Tables_number   1
_chemical_formula_structural   Sr2Cu3(IO2)2
_chemical_formula_sum   'Sr2 Cu3 I2 O4'
_cell_volume   282.41645495
_cell_formula_units_Z   1
loop_
 _symmetry_equiv_pos_site_id
 _symmetry_equiv_pos_as_xyz
  1  'x, y, z'
loop_
 _atom_site_type_symbol
 _atom_site_label
 _atom_site_symmetry_multiplicity
 _atom_site_fract_x
 _atom_site_fract_y
 _atom_site_fract_z
 _atom_site_occupancy
  I  I0  1  0.250007  0.750037  0.500089  1
  I  I1  1  0.749994  0.249968  0.499913  1
  Cu  Cu2  1  0.000000  0.499998  -0.000001  1
  O  O3  1  0.771406  0.228579  0.000020  1
  Sr  Sr4  1  0.850540  0.850514  0.701222  1
  O  O5  1  0.228533  0.228507  0.000085  1
  O  O6  1  0.771460  0.771485  0.999914  1
  O  O7  1  0.228595  0.771418  0.999980  1
  Sr  Sr8  1  0.149463  0.149492  0.298778  1
  Cu  Cu9  1  0.500000  1.000000  0.000000  1
  Cu  Cu10  1  1.000003  1.000003  1.000000  1
