# generated using pymatgen
data_Sm3(Ge3Pt2)2
_symmetry_space_group_name_H-M   'P 1'
_cell_length_a   4.41439580
_cell_length_b   8.86925865
_cell_length_c   26.40110320
_cell_angle_alpha   90.00000000
_cell_angle_beta   90.00000000
_cell_angle_gamma   90.00000000
_symmetry_Int_Tables_number   1
_chemical_formula_structural   Sm3(Ge3Pt2)2
_chemical_formula_sum   'Sm12 Ge24 Pt16'
_cell_volume   1033.66703168
_cell_formula_units_Z   4
loop_
 _symmetry_equiv_pos_site_id
 _symmetry_equiv_pos_as_xyz
  1  'x, y, z'
loop_
 _atom_site_type_symbol
 _atom_site_label
 _atom_site_symmetry_multiplicity
 _atom_site_fract_x
 _atom_site_fract_y
 _atom_site_fract_z
 _atom_site_occupancy
  Sm  Sm0  1  0.250000  0.113488  0.592252  1
  Sm  Sm1  1  0.750000  0.125706  0.280106  1
  Sm  Sm2  1  0.750000  0.613488  0.907748  1
  Sm  Sm3  1  0.750000  0.364651  0.407180  1
  Sm  Sm4  1  0.750000  0.886512  0.407748  1
  Sm  Sm5  1  0.750000  0.374294  0.780106  1
  Sm  Sm6  1  0.750000  0.135349  0.907180  1
  Sm  Sm7  1  0.250000  0.635349  0.592820  1
  Sm  Sm8  1  0.250000  0.386512  0.092252  1
  Sm  Sm9  1  0.250000  0.874294  0.719894  1
  Sm  Sm10  1  0.250000  0.625706  0.219894  1
  Sm  Sm11  1  0.250000  0.864651  0.092820  1
  Ge  Ge12  1  0.750000  0.022178  0.784269  1
  Ge  Ge13  1  0.750000  0.625890  0.138545  1
  Ge  Ge14  1  0.250000  0.374110  0.861455  1
  Ge  Ge15  1  0.250000  0.627322  0.997359  1
  Ge  Ge16  1  0.250000  0.273122  0.215448  1
  Ge  Ge17  1  0.250000  0.522178  0.715731  1
  Ge  Ge18  1  0.750000  0.726878  0.784552  1
  Ge  Ge19  1  0.750000  0.372678  0.002641  1
  Ge  Ge20  1  0.750000  0.126390  0.142064  1
  Ge  Ge21  1  0.250000  0.226878  0.715448  1
  Ge  Ge22  1  0.750000  0.773122  0.284552  1
  Ge  Ge23  1  0.250000  0.626390  0.357936  1
  Ge  Ge24  1  0.750000  0.477822  0.284269  1
  Ge  Ge25  1  0.750000  0.874110  0.638545  1
  Ge  Ge26  1  0.250000  0.121944  0.001420  1
  Ge  Ge27  1  0.250000  0.378056  0.501420  1
  Ge  Ge28  1  0.250000  0.125890  0.361455  1
  Ge  Ge29  1  0.750000  0.878056  0.998580  1
  Ge  Ge30  1  0.250000  0.977822  0.215731  1
  Ge  Ge31  1  0.750000  0.127322  0.502641  1
  Ge  Ge32  1  0.750000  0.373610  0.642064  1
  Ge  Ge33  1  0.750000  0.621944  0.498580  1
  Ge  Ge34  1  0.250000  0.873610  0.857936  1
  Ge  Ge35  1  0.250000  0.872678  0.497359  1
  Pt  Pt36  1  0.750000  0.376992  0.187741  1
  Pt  Pt37  1  0.250000  0.375110  0.312306  1
  Pt  Pt38  1  0.750000  0.870783  0.544466  1
  Pt  Pt39  1  0.750000  0.123008  0.687741  1
  Pt  Pt40  1  0.250000  0.876992  0.312259  1
  Pt  Pt41  1  0.750000  0.121614  0.049674  1
  Pt  Pt42  1  0.250000  0.621614  0.450326  1
  Pt  Pt43  1  0.250000  0.124890  0.812306  1
  Pt  Pt44  1  0.250000  0.370783  0.955534  1
  Pt  Pt45  1  0.750000  0.629217  0.044466  1
  Pt  Pt46  1  0.750000  0.378386  0.549674  1
  Pt  Pt47  1  0.250000  0.878386  0.950326  1
  Pt  Pt48  1  0.250000  0.129217  0.455534  1
  Pt  Pt49  1  0.750000  0.624890  0.687694  1
  Pt  Pt50  1  0.250000  0.623008  0.812259  1
  Pt  Pt51  1  0.750000  0.875110  0.187694  1
