# generated using pymatgen
data_BeCl2
_symmetry_space_group_name_H-M   'P 1'
_cell_length_a   11.16576907
_cell_length_b   11.16576861
_cell_length_c   12.02563773
_cell_angle_alpha   117.66159871
_cell_angle_beta   117.66159768
_cell_angle_gamma   90.00000216
_symmetry_Int_Tables_number   1
_chemical_formula_structural   BeCl2
_chemical_formula_sum   'Be16 Cl32'
_cell_volume   1130.89202071
_cell_formula_units_Z   16
loop_
 _symmetry_equiv_pos_site_id
 _symmetry_equiv_pos_as_xyz
  1  'x, y, z'
loop_
 _atom_site_type_symbol
 _atom_site_label
 _atom_site_symmetry_multiplicity
 _atom_site_fract_x
 _atom_site_fract_y
 _atom_site_fract_z
 _atom_site_occupancy
  Be  Be0  1  0.387750  0.436106  0.622437  1
  Be  Be1  1  0.234687  0.686331  0.622437  1
  Be  Be2  1  0.313669  0.612250  0.877563  1
  Be  Be3  1  0.686331  0.387750  0.122437  1
  Be  Be4  1  0.936106  0.887750  0.122437  1
  Be  Be5  1  0.265313  0.063894  0.377563  1
  Be  Be6  1  0.112250  0.813669  0.377563  1
  Be  Be7  1  0.887750  0.186331  0.622437  1
  Be  Be8  1  0.612250  0.563894  0.377563  1
  Be  Be9  1  0.186331  0.734687  0.122437  1
  Be  Be10  1  0.563894  0.765313  0.877563  1
  Be  Be11  1  0.734687  0.936106  0.622437  1
  Be  Be12  1  0.436106  0.234687  0.122437  1
  Be  Be13  1  0.765313  0.313669  0.377563  1
  Be  Be14  1  0.813669  0.265313  0.877563  1
  Be  Be15  1  0.063894  0.112250  0.877563  1
  Cl  Cl16  1  0.250000  0.583733  0.000000  1
  Cl  Cl17  1  0.750000  0.416267  1.000000  1
  Cl  Cl18  1  0.005813  0.255813  0.011626  1
  Cl  Cl19  1  0.172522  0.667870  0.249320  1
  Cl  Cl20  1  0.581450  0.576798  0.749320  1
  Cl  Cl21  1  0.494187  0.244187  0.988374  1
  Cl  Cl22  1  0.076798  0.081450  0.249320  1
  Cl  Cl23  1  0.576798  0.167870  0.249320  1
  Cl  Cl24  1  0.416267  0.250000  0.500000  1
  Cl  Cl25  1  0.755813  0.505813  0.511626  1
  Cl  Cl26  1  0.327478  0.418550  0.750680  1
  Cl  Cl27  1  0.827478  0.332130  0.750680  1
  Cl  Cl28  1  0.250000  0.083733  0.000000  1
  Cl  Cl29  1  0.244187  0.494187  0.488374  1
  Cl  Cl30  1  0.916267  0.250000  0.500000  1
  Cl  Cl31  1  0.418550  0.423202  0.250680  1
  Cl  Cl32  1  0.994187  0.744187  0.988374  1
  Cl  Cl33  1  0.081450  0.172522  0.749320  1
  Cl  Cl34  1  0.832130  0.327478  0.250680  1
  Cl  Cl35  1  0.423202  0.832130  0.750680  1
  Cl  Cl36  1  0.332130  0.923202  0.250680  1
  Cl  Cl37  1  0.083733  0.750000  0.500000  1
  Cl  Cl38  1  0.750000  0.916267  1.000000  1
  Cl  Cl39  1  0.667870  0.076798  0.749320  1
  Cl  Cl40  1  0.672522  0.581450  0.249320  1
  Cl  Cl41  1  0.167870  0.672522  0.749320  1
  Cl  Cl42  1  0.744187  0.994187  0.488374  1
  Cl  Cl43  1  0.923202  0.918550  0.750680  1
  Cl  Cl44  1  0.918550  0.827478  0.250680  1
  Cl  Cl45  1  0.505813  0.755813  0.011626  1
  Cl  Cl46  1  0.583733  0.750000  0.500000  1
  Cl  Cl47  1  0.255813  0.005813  0.511626  1
