# generated using pymatgen
data_Ni3H12C10NO6
_symmetry_space_group_name_H-M   'P 1'
_cell_length_a   11.07080739
_cell_length_b   11.07080782
_cell_length_c   7.20693916
_cell_angle_alpha   90.00000000
_cell_angle_beta   90.00000000
_cell_angle_gamma   119.99999874
_symmetry_Int_Tables_number   1
_chemical_formula_structural   Ni3H12C10NO6
_chemical_formula_sum   'Ni6 H24 C20 N2 O12'
_cell_volume   764.96241892
_cell_formula_units_Z   2
loop_
 _symmetry_equiv_pos_site_id
 _symmetry_equiv_pos_as_xyz
  1  'x, y, z'
loop_
 _atom_site_type_symbol
 _atom_site_label
 _atom_site_symmetry_multiplicity
 _atom_site_fract_x
 _atom_site_fract_y
 _atom_site_fract_z
 _atom_site_occupancy
  Ni  Ni0  1  0.115801  0.982656  0.169770  1
  Ni  Ni1  1  0.866855  0.884199  0.169770  1
  Ni  Ni2  1  0.884199  0.017344  0.830230  1
  Ni  Ni3  1  0.982656  0.866855  0.830230  1
  Ni  Ni4  1  0.017344  0.133145  0.169770  1
  Ni  Ni5  1  0.133145  0.115801  0.830230  1
  H  H6  1  0.113012  0.556458  0.577051  1
  H  H7  1  0.243969  0.568890  0.841765  1
  H  H8  1  0.804233  0.358265  0.635818  1
  H  H9  1  0.324921  0.756031  0.841765  1
  H  H10  1  0.743103  0.550550  0.443246  1
  H  H11  1  0.554032  0.195767  0.635818  1
  H  H12  1  0.675079  0.243969  0.158235  1
  H  H13  1  0.756031  0.431110  0.158235  1
  H  H14  1  0.556554  0.113012  0.422949  1
  H  H15  1  0.445968  0.804233  0.364181  1
  H  H16  1  0.807448  0.256897  0.443246  1
  H  H17  1  0.358265  0.554032  0.364181  1
  H  H18  1  0.556458  0.443446  0.422949  1
  H  H19  1  0.443446  0.886988  0.577051  1
  H  H20  1  0.256897  0.449450  0.556754  1
  H  H21  1  0.568890  0.324921  0.158235  1
  H  H22  1  0.550550  0.807448  0.556754  1
  H  H23  1  0.886988  0.443542  0.422949  1
  H  H24  1  0.431110  0.675079  0.841765  1
  H  H25  1  0.641735  0.445968  0.635818  1
  H  H26  1  0.192552  0.743103  0.556754  1
  H  H27  1  0.195767  0.641735  0.364181  1
  H  H28  1  0.449450  0.192552  0.443246  1
  H  H29  1  0.443542  0.556554  0.577051  1
  C  C30  1  0.333333  0.666667  0.793479  1
  C  C31  1  0.452654  0.801628  0.515473  1
  C  C32  1  0.025634  0.196155  0.760723  1
  C  C33  1  0.196155  0.170521  0.239277  1
  C  C34  1  0.742725  0.044856  0.832146  1
  C  C35  1  0.348974  0.547346  0.515473  1
  C  C36  1  0.803845  0.829479  0.760723  1
  C  C37  1  0.974366  0.803845  0.239277  1
  C  C38  1  0.829479  0.025634  0.239277  1
  C  C39  1  0.044856  0.302131  0.167854  1
  C  C40  1  0.257275  0.955144  0.167854  1
  C  C41  1  0.170521  0.974366  0.760723  1
  C  C42  1  0.801628  0.348974  0.484527  1
  C  C43  1  0.198372  0.651026  0.515473  1
  C  C44  1  0.302131  0.257275  0.832146  1
  C  C45  1  0.666667  0.333333  0.206521  1
  C  C46  1  0.547346  0.198372  0.484527  1
  C  C47  1  0.697869  0.742725  0.167854  1
  C  C48  1  0.955144  0.697869  0.832146  1
  C  C49  1  0.651026  0.452654  0.484527  1
  N  N50  1  0.666667  0.333333  0.415095  1
  N  N51  1  0.333333  0.666667  0.584905  1
  O  O52  1  0.931744  0.583048  0.846462  1
  O  O53  1  0.583048  0.651304  0.153538  1
  O  O54  1  0.068256  0.416952  0.153538  1
  O  O55  1  0.416952  0.348696  0.846462  1
  O  O56  1  0.737997  0.038854  0.305350  1
  O  O57  1  0.262003  0.961146  0.694650  1
  O  O58  1  0.651304  0.068256  0.846462  1
  O  O59  1  0.038854  0.300856  0.694650  1
  O  O60  1  0.961146  0.699144  0.305350  1
  O  O61  1  0.699144  0.737997  0.694650  1
  O  O62  1  0.348696  0.931744  0.153538  1
  O  O63  1  0.300856  0.262003  0.305350  1
