# generated using pymatgen
data_MnPO4
_symmetry_space_group_name_H-M   'P 1'
_cell_length_a   8.17564775
_cell_length_b   4.82582705
_cell_length_c   8.99237497
_cell_angle_alpha   90.00000000
_cell_angle_beta   107.62227877
_cell_angle_gamma   90.00000000
_symmetry_Int_Tables_number   1
_chemical_formula_structural   MnPO4
_chemical_formula_sum   'Mn4 P4 O16'
_cell_volume   338.13841296
_cell_formula_units_Z   4
loop_
 _symmetry_equiv_pos_site_id
 _symmetry_equiv_pos_as_xyz
  1  'x, y, z'
loop_
 _atom_site_type_symbol
 _atom_site_label
 _atom_site_symmetry_multiplicity
 _atom_site_fract_x
 _atom_site_fract_y
 _atom_site_fract_z
 _atom_site_occupancy
  Mn  Mn0  1  0.533923  0.875100  0.261342  1
  Mn  Mn1  1  0.466077  0.375100  0.738658  1
  Mn  Mn2  1  0.010888  0.989977  0.179208  1
  Mn  Mn3  1  0.989112  0.489977  0.820792  1
  P  P4  1  0.248494  0.029100  0.928924  1
  P  P5  1  0.765947  0.019547  0.628438  1
  P  P6  1  0.234053  0.519547  0.371562  1
  P  P7  1  0.751506  0.529100  0.071076  1
  O  O8  1  0.286117  0.169720  0.790358  1
  O  O9  1  0.587751  0.538829  0.929182  1
  O  O10  1  0.356457  0.630137  0.284201  1
  O  O11  1  0.183863  0.218982  0.317950  1
  O  O12  1  0.101982  0.194220  0.972501  1
  O  O13  1  0.926406  0.207064  0.661936  1
  O  O14  1  0.643543  0.130137  0.715800  1
  O  O15  1  0.073594  0.707064  0.338064  1
  O  O16  1  0.323712  0.522239  0.549254  1
  O  O17  1  0.816137  0.718982  0.682050  1
  O  O18  1  0.898018  0.694220  0.027499  1
  O  O19  1  0.676288  0.022239  0.450746  1
  O  O20  1  0.190095  0.728952  0.889613  1
  O  O21  1  0.713883  0.669720  0.209642  1
  O  O22  1  0.412249  0.038829  0.070818  1
  O  O23  1  0.809905  0.228952  0.110387  1
