# generated using pymatgen
data_ZrSCl6O
_symmetry_space_group_name_H-M   'P 1'
_cell_length_a   7.20825183
_cell_length_b   7.56793844
_cell_length_c   23.99233876
_cell_angle_alpha   90.00000000
_cell_angle_beta   90.00000000
_cell_angle_gamma   113.66406028
_symmetry_Int_Tables_number   1
_chemical_formula_structural   ZrSCl6O
_chemical_formula_sum   'Zr4 S4 Cl24 O4'
_cell_volume   1198.76783265
_cell_formula_units_Z   4
loop_
 _symmetry_equiv_pos_site_id
 _symmetry_equiv_pos_as_xyz
  1  'x, y, z'
loop_
 _atom_site_type_symbol
 _atom_site_label
 _atom_site_symmetry_multiplicity
 _atom_site_fract_x
 _atom_site_fract_y
 _atom_site_fract_z
 _atom_site_occupancy
  Zr  Zr0  1  0.007807  0.153448  0.070416  1
  Zr  Zr1  1  0.992193  0.846552  0.929584  1
  Zr  Zr2  1  0.492193  0.846552  0.570416  1
  Zr  Zr3  1  0.507807  0.153448  0.429584  1
  S  S4  1  0.873118  0.321360  0.628985  1
  S  S5  1  0.373118  0.321360  0.871015  1
  S  S6  1  0.126882  0.678640  0.371015  1
  S  S7  1  0.626882  0.678640  0.128985  1
  Cl  Cl8  1  0.744458  0.335841  0.705270  1
  Cl  Cl9  1  0.236715  0.448497  0.032573  1
  Cl  Cl10  1  0.246550  0.746364  0.897723  1
  Cl  Cl11  1  0.191662  0.956653  0.023413  1
  Cl  Cl12  1  0.736715  0.448497  0.467427  1
  Cl  Cl13  1  0.308338  0.043347  0.523413  1
  Cl  Cl14  1  0.179591  0.158037  0.155507  1
  Cl  Cl15  1  0.253450  0.253636  0.397723  1
  Cl  Cl16  1  0.255542  0.664159  0.294730  1
  Cl  Cl17  1  0.415313  0.779700  0.156227  1
  Cl  Cl18  1  0.584687  0.220300  0.843773  1
  Cl  Cl19  1  0.820409  0.841963  0.844493  1
  Cl  Cl20  1  0.691662  0.956653  0.476587  1
  Cl  Cl21  1  0.915313  0.779700  0.343773  1
  Cl  Cl22  1  0.763285  0.551503  0.967427  1
  Cl  Cl23  1  0.808338  0.043347  0.976587  1
  Cl  Cl24  1  0.263285  0.551503  0.532573  1
  Cl  Cl25  1  0.746550  0.746364  0.602277  1
  Cl  Cl26  1  0.753450  0.253636  0.102277  1
  Cl  Cl27  1  0.320409  0.841963  0.655507  1
  Cl  Cl28  1  0.679591  0.158037  0.344493  1
  Cl  Cl29  1  0.084687  0.220300  0.656227  1
  Cl  Cl30  1  0.755542  0.664159  0.205270  1
  Cl  Cl31  1  0.244458  0.335841  0.794730  1
  O  O32  1  0.780606  0.835494  0.097221  1
  O  O33  1  0.280606  0.835494  0.402779  1
  O  O34  1  0.219394  0.164506  0.902779  1
  O  O35  1  0.719394  0.164506  0.597221  1
