# generated using pymatgen
data_SiPb4(ClO)4
_symmetry_space_group_name_H-M   'P 1'
_cell_length_a   8.43866814
_cell_length_b   8.91091437
_cell_length_c   15.89886612
_cell_angle_alpha   90.00000000
_cell_angle_beta   90.00000000
_cell_angle_gamma   92.10354493
_symmetry_Int_Tables_number   1
_chemical_formula_structural   SiPb4(ClO)4
_chemical_formula_sum   'Si4 Pb16 Cl16 O16'
_cell_volume   1194.72945726
_cell_formula_units_Z   4
loop_
 _symmetry_equiv_pos_site_id
 _symmetry_equiv_pos_as_xyz
  1  'x, y, z'
loop_
 _atom_site_type_symbol
 _atom_site_label
 _atom_site_symmetry_multiplicity
 _atom_site_fract_x
 _atom_site_fract_y
 _atom_site_fract_z
 _atom_site_occupancy
  Si  Si0  1  0.351647  0.366332  0.648463  1
  Si  Si1  1  0.851647  0.366332  0.851537  1
  Si  Si2  1  0.648353  0.633668  0.351537  1
  Si  Si3  1  0.148353  0.633668  0.148463  1
  Pb  Pb4  1  0.504147  0.569622  0.797930  1
  Pb  Pb5  1  0.704445  0.155718  0.991644  1
  Pb  Pb6  1  0.795555  0.844282  0.491644  1
  Pb  Pb7  1  0.929502  0.892468  0.243669  1
  Pb  Pb8  1  0.570498  0.107532  0.743669  1
  Pb  Pb9  1  0.846084  0.654734  0.969758  1
  Pb  Pb10  1  0.153916  0.345266  0.030242  1
  Pb  Pb11  1  0.004147  0.569622  0.702070  1
  Pb  Pb12  1  0.995853  0.430378  0.297930  1
  Pb  Pb13  1  0.204445  0.155718  0.508356  1
  Pb  Pb14  1  0.495853  0.430378  0.202070  1
  Pb  Pb15  1  0.295555  0.844282  0.008356  1
  Pb  Pb16  1  0.653916  0.345266  0.469758  1
  Pb  Pb17  1  0.346084  0.654734  0.530242  1
  Pb  Pb18  1  0.429502  0.892468  0.256331  1
  Pb  Pb19  1  0.070498  0.107532  0.756331  1
  Cl  Cl20  1  0.830919  0.161183  0.624167  1
  Cl  Cl21  1  0.883346  0.128390  0.391138  1
  Cl  Cl22  1  0.380468  0.272812  0.346331  1
  Cl  Cl23  1  0.116654  0.871610  0.608862  1
  Cl  Cl24  1  0.119532  0.727188  0.846331  1
  Cl  Cl25  1  0.619532  0.727188  0.653669  1
  Cl  Cl26  1  0.000000  0.000000  0.000000  1
  Cl  Cl27  1  0.616654  0.871610  0.891138  1
  Cl  Cl28  1  0.330919  0.161183  0.875833  1
  Cl  Cl29  1  0.500000  0.500000  0.000000  1
  Cl  Cl30  1  0.669081  0.838817  0.124167  1
  Cl  Cl31  1  0.169081  0.838817  0.375833  1
  Cl  Cl32  1  0.880468  0.272812  0.153669  1
  Cl  Cl33  1  0.383346  0.128390  0.108862  1
  Cl  Cl34  1  0.000000  0.500000  0.500000  1
  Cl  Cl35  1  0.500000  0.000000  0.500000  1
  O  O36  1  0.230951  0.473987  0.171208  1
  O  O37  1  0.104339  0.624829  0.046671  1
  O  O38  1  0.395661  0.375171  0.546671  1
  O  O39  1  0.604339  0.624829  0.453329  1
  O  O40  1  0.006555  0.352964  0.789476  1
  O  O41  1  0.730951  0.473987  0.328792  1
  O  O42  1  0.506555  0.352964  0.710524  1
  O  O43  1  0.236688  0.212822  0.655895  1
  O  O44  1  0.769049  0.526013  0.828792  1
  O  O45  1  0.493445  0.647036  0.289476  1
  O  O46  1  0.895661  0.375171  0.953329  1
  O  O47  1  0.993445  0.647036  0.210524  1
  O  O48  1  0.263312  0.787178  0.155895  1
  O  O49  1  0.736688  0.212822  0.844105  1
  O  O50  1  0.763312  0.787178  0.344105  1
  O  O51  1  0.269049  0.526013  0.671208  1
