# generated using pymatgen
data_CuTeBr
_symmetry_space_group_name_H-M   'P 1'
_cell_length_a   14.03189878
_cell_length_b   14.03189810
_cell_length_c   13.86288170
_cell_angle_alpha   108.12185741
_cell_angle_beta   108.12185704
_cell_angle_gamma   112.66950907
_symmetry_Int_Tables_number   1
_chemical_formula_structural   CuTeBr
_chemical_formula_sum   'Cu24 Te24 Br24'
_cell_volume   2084.80806149
_cell_formula_units_Z   24
loop_
 _symmetry_equiv_pos_site_id
 _symmetry_equiv_pos_as_xyz
  1  'x, y, z'
loop_
 _atom_site_type_symbol
 _atom_site_label
 _atom_site_symmetry_multiplicity
 _atom_site_fract_x
 _atom_site_fract_y
 _atom_site_fract_z
 _atom_site_occupancy
  Cu  Cu0  1  0.209143  0.459143  0.250000  1
  Cu  Cu1  1  0.042447  0.292447  0.250000  1
  Cu  Cu2  1  0.071789  0.321530  0.978047  1
  Cu  Cu3  1  0.656517  0.406258  0.478047  1
  Cu  Cu4  1  0.292447  0.042447  0.750000  1
  Cu  Cu5  1  0.707553  0.957553  0.250000  1
  Cu  Cu6  1  0.343483  0.593742  0.521953  1
  Cu  Cu7  1  0.459143  0.209143  0.750000  1
  Cu  Cu8  1  0.540857  0.790857  0.250000  1
  Cu  Cu9  1  0.375000  0.625000  0.250000  1
  Cu  Cu10  1  0.678470  0.928211  0.521953  1
  Cu  Cu11  1  0.928211  0.678470  0.021953  1
  Cu  Cu12  1  0.989789  0.739789  0.479578  1
  Cu  Cu13  1  0.593742  0.343483  0.021953  1
  Cu  Cu14  1  0.790857  0.540857  0.750000  1
  Cu  Cu15  1  0.957553  0.707553  0.750000  1
  Cu  Cu16  1  0.010211  0.260211  0.520422  1
  Cu  Cu17  1  0.406258  0.656517  0.978047  1
  Cu  Cu18  1  0.875000  0.125000  0.250000  1
  Cu  Cu19  1  0.321530  0.071789  0.478047  1
  Cu  Cu20  1  0.625000  0.375000  0.750000  1
  Cu  Cu21  1  0.260211  0.010211  0.020422  1
  Cu  Cu22  1  0.739789  0.989789  0.979578  1
  Cu  Cu23  1  0.125000  0.875000  0.750000  1
  Te  Te24  1  0.483448  0.339370  0.137359  1
  Te  Te25  1  0.532594  0.180787  0.360763  1
  Te  Te26  1  0.180787  0.532594  0.860763  1
  Te  Te27  1  0.485811  0.136071  0.136900  1
  Te  Te28  1  0.846089  0.202011  0.862641  1
  Te  Te29  1  0.514189  0.863929  0.863100  1
  Te  Te30  1  0.153911  0.797989  0.137359  1
  Te  Te31  1  0.848911  0.999170  0.863100  1
  Te  Te32  1  0.863929  0.514189  0.363100  1
  Te  Te33  1  0.467406  0.819213  0.639237  1
  Te  Te34  1  0.819213  0.467406  0.139237  1
  Te  Te35  1  0.328169  0.179976  0.360763  1
  Te  Te36  1  0.660630  0.516552  0.362641  1
  Te  Te37  1  0.202011  0.846089  0.362641  1
  Te  Te38  1  0.671831  0.820024  0.639237  1
  Te  Te39  1  0.339370  0.483448  0.637359  1
  Te  Te40  1  0.797989  0.153911  0.637359  1
  Te  Te41  1  0.136071  0.485811  0.636900  1
  Te  Te42  1  0.999170  0.848911  0.363100  1
  Te  Te43  1  0.000830  0.151089  0.636900  1
  Te  Te44  1  0.820024  0.671831  0.139237  1
  Te  Te45  1  0.179976  0.328169  0.860763  1
  Te  Te46  1  0.516552  0.660630  0.862641  1
  Te  Te47  1  0.151089  0.000830  0.136900  1
  Br  Br48  1  0.754778  0.875511  0.382409  1
  Br  Br49  1  0.160485  0.539404  0.116693  1
  Br  Br50  1  0.790836  0.911309  0.118211  1
  Br  Br51  1  0.172625  0.793098  0.881789  1
  Br  Br52  1  0.539404  0.160485  0.616693  1
  Br  Br53  1  0.460596  0.839515  0.383307  1
  Br  Br54  1  0.827375  0.206902  0.118211  1
  Br  Br55  1  0.493102  0.872369  0.117591  1
  Br  Br56  1  0.506898  0.127631  0.882409  1
  Br  Br57  1  0.088691  0.209164  0.381789  1
  Br  Br58  1  0.543792  0.422711  0.883307  1
  Br  Br59  1  0.793098  0.172625  0.381789  1
  Br  Br60  1  0.875511  0.754778  0.882409  1
  Br  Br61  1  0.456208  0.577289  0.116693  1
  Br  Br62  1  0.124489  0.245222  0.117591  1
  Br  Br63  1  0.911309  0.790836  0.618211  1
  Br  Br64  1  0.872369  0.493102  0.617591  1
  Br  Br65  1  0.127631  0.506898  0.382409  1
  Br  Br66  1  0.422711  0.543792  0.383307  1
  Br  Br67  1  0.839515  0.460596  0.883307  1
  Br  Br68  1  0.577289  0.456208  0.616693  1
  Br  Br69  1  0.206902  0.827375  0.618211  1
  Br  Br70  1  0.245222  0.124489  0.617591  1
  Br  Br71  1  0.209164  0.088691  0.881789  1
