# generated using pymatgen
data_Sb4OsC6(O3F11)2
_symmetry_space_group_name_H-M   'P 1'
_cell_length_a   9.97986408
_cell_length_b   10.76266776
_cell_length_c   12.77946213
_cell_angle_alpha   90.00000000
_cell_angle_beta   90.00000000
_cell_angle_gamma   110.82279639
_symmetry_Int_Tables_number   1
_chemical_formula_structural   Sb4OsC6(O3F11)2
_chemical_formula_sum   'Sb8 Os2 C12 O12 F44'
_cell_volume   1282.98651314
_cell_formula_units_Z   2
loop_
 _symmetry_equiv_pos_site_id
 _symmetry_equiv_pos_as_xyz
  1  'x, y, z'
loop_
 _atom_site_type_symbol
 _atom_site_label
 _atom_site_symmetry_multiplicity
 _atom_site_fract_x
 _atom_site_fract_y
 _atom_site_fract_z
 _atom_site_occupancy
  Sb  Sb0  1  0.984530  0.226239  0.630996  1
  Sb  Sb1  1  0.015470  0.773761  0.369004  1
  Sb  Sb2  1  0.402931  0.003333  0.700064  1
  Sb  Sb3  1  0.902931  0.503333  0.799936  1
  Sb  Sb4  1  0.515470  0.273761  0.130996  1
  Sb  Sb5  1  0.484530  0.726239  0.869004  1
  Sb  Sb6  1  0.597069  0.996667  0.299936  1
  Sb  Sb7  1  0.097069  0.496667  0.200064  1
  Os  Os8  1  0.000000  0.000000  0.000000  1
  Os  Os9  1  0.500000  0.500000  0.500000  1
  C  C10  1  0.357266  0.326915  0.446525  1
  C  C11  1  0.523951  0.573726  0.353063  1
  C  C12  1  0.342661  0.573524  0.523057  1
  C  C13  1  0.857266  0.826915  0.053475  1
  C  C14  1  0.657339  0.426476  0.476943  1
  C  C15  1  0.142734  0.173085  0.946525  1
  C  C16  1  0.842661  0.073524  0.976943  1
  C  C17  1  0.476049  0.426274  0.646937  1
  C  C18  1  0.157339  0.926476  0.023057  1
  C  C19  1  0.023951  0.073726  0.146937  1
  C  C20  1  0.642734  0.673085  0.553475  1
  C  C21  1  0.976049  0.926274  0.853063  1
  O  O22  1  0.277755  0.229039  0.416523  1
  O  O23  1  0.534766  0.616325  0.270796  1
  O  O24  1  0.222245  0.270961  0.916523  1
  O  O25  1  0.744164  0.382003  0.466409  1
  O  O26  1  0.722245  0.770961  0.583477  1
  O  O27  1  0.777755  0.729039  0.083477  1
  O  O28  1  0.965234  0.883675  0.770796  1
  O  O29  1  0.755836  0.117997  0.966409  1
  O  O30  1  0.255836  0.617997  0.533591  1
  O  O31  1  0.034766  0.116325  0.229204  1
  O  O32  1  0.244164  0.882003  0.033591  1
  O  O33  1  0.465234  0.383675  0.729204  1
  F  F34  1  0.075307  0.610303  0.734418  1
  F  F35  1  0.026211  0.324236  0.503800  1
  F  F36  1  0.204666  0.872102  0.411675  1
  F  F37  1  0.166324  0.344486  0.680994  1
  F  F38  1  0.398635  0.863118  0.816142  1
  F  F39  1  0.526211  0.824236  0.996200  1
  F  F40  1  0.554034  0.347596  0.269535  1
  F  F41  1  0.063306  0.098055  0.588709  1
  F  F42  1  0.666324  0.844486  0.819006  1
  F  F43  1  0.502118  0.919694  0.615198  1
  F  F44  1  0.705160  0.940828  0.197537  1
  F  F45  1  0.445966  0.652404  0.730465  1
  F  F46  1  0.833676  0.655514  0.319006  1
  F  F47  1  0.101365  0.636882  0.316142  1
  F  F48  1  0.563306  0.598055  0.911291  1
  F  F49  1  0.436694  0.401945  0.088709  1
  F  F50  1  0.726709  0.379167  0.847365  1
  F  F51  1  0.973789  0.675764  0.496200  1
  F  F52  1  0.898635  0.363118  0.683858  1
  F  F53  1  0.294840  0.059172  0.802463  1
  F  F54  1  0.909046  0.640334  0.896603  1
  F  F55  1  0.794840  0.559172  0.697537  1
  F  F56  1  0.424693  0.889697  0.234418  1
  F  F57  1  0.590954  0.859666  0.396603  1
  F  F58  1  0.497882  0.080306  0.384802  1
  F  F59  1  0.704666  0.372102  0.088325  1
  F  F60  1  0.273291  0.620833  0.152635  1
  F  F61  1  0.473789  0.175764  0.003800  1
  F  F62  1  0.924693  0.389697  0.265582  1
  F  F63  1  0.997882  0.580306  0.115198  1
  F  F64  1  0.002118  0.419694  0.884802  1
  F  F65  1  0.090954  0.359666  0.103397  1
  F  F66  1  0.205160  0.440828  0.302463  1
  F  F67  1  0.601365  0.136882  0.183858  1
  F  F68  1  0.295334  0.627898  0.911675  1
  F  F69  1  0.575307  0.110303  0.765582  1
  F  F70  1  0.054034  0.847596  0.230465  1
  F  F71  1  0.945966  0.152404  0.769535  1
  F  F72  1  0.773291  0.120833  0.347365  1
  F  F73  1  0.936694  0.901945  0.411291  1
  F  F74  1  0.333676  0.155514  0.180994  1
  F  F75  1  0.226709  0.879167  0.652635  1
  F  F76  1  0.795334  0.127898  0.588325  1
  F  F77  1  0.409046  0.140334  0.603397  1
