# generated using pymatgen
data_H2CO
_symmetry_space_group_name_H-M   'P 1'
_cell_length_a   7.85186753
_cell_length_b   8.36954181
_cell_length_c   10.90697758
_cell_angle_alpha   90.00000000
_cell_angle_beta   90.00000000
_cell_angle_gamma   90.00000000
_symmetry_Int_Tables_number   1
_chemical_formula_structural   H2CO
_chemical_formula_sum   'H40 C20 O20'
_cell_volume   716.76875838
_cell_formula_units_Z   20
loop_
 _symmetry_equiv_pos_site_id
 _symmetry_equiv_pos_as_xyz
  1  'x, y, z'
loop_
 _atom_site_type_symbol
 _atom_site_label
 _atom_site_symmetry_multiplicity
 _atom_site_fract_x
 _atom_site_fract_y
 _atom_site_fract_z
 _atom_site_occupancy
  H  H0  1  0.065418  0.485525  0.240438  1
  H  H1  1  0.434582  0.514475  0.240438  1
  H  H2  1  0.434050  0.806059  0.892011  1
  H  H3  1  0.065950  0.193941  0.892011  1
  H  H4  1  0.724280  0.149248  0.611374  1
  H  H5  1  0.224280  0.350752  0.888626  1
  H  H6  1  0.042476  0.360856  0.105041  1
  H  H7  1  0.934582  0.514475  0.759562  1
  H  H8  1  0.565950  0.306059  0.607989  1
  H  H9  1  0.957524  0.860856  0.394959  1
  H  H10  1  0.144292  0.457483  0.551976  1
  H  H11  1  0.275720  0.850752  0.388626  1
  H  H12  1  0.275720  0.649248  0.888626  1
  H  H13  1  0.957524  0.639144  0.894959  1
  H  H14  1  0.934050  0.693941  0.607989  1
  H  H15  1  0.565950  0.193941  0.107989  1
  H  H16  1  0.457524  0.639144  0.105041  1
  H  H17  1  0.355708  0.957483  0.051976  1
  H  H18  1  0.565418  0.014475  0.259562  1
  H  H19  1  0.434050  0.693941  0.392011  1
  H  H20  1  0.224280  0.149248  0.388626  1
  H  H21  1  0.457524  0.860856  0.605041  1
  H  H22  1  0.434582  0.985525  0.740438  1
  H  H23  1  0.934582  0.985525  0.259562  1
  H  H24  1  0.542476  0.360856  0.894959  1
  H  H25  1  0.144292  0.042517  0.051976  1
  H  H26  1  0.775720  0.850752  0.611374  1
  H  H27  1  0.542476  0.139144  0.394959  1
  H  H28  1  0.065950  0.306059  0.392011  1
  H  H29  1  0.934050  0.806059  0.107989  1
  H  H30  1  0.565418  0.485525  0.759562  1
  H  H31  1  0.724280  0.350752  0.111374  1
  H  H32  1  0.855708  0.957483  0.948024  1
  H  H33  1  0.644292  0.457483  0.448024  1
  H  H34  1  0.855708  0.542517  0.448024  1
  H  H35  1  0.775720  0.649248  0.111374  1
  H  H36  1  0.042476  0.139144  0.605041  1
  H  H37  1  0.355708  0.542517  0.551976  1
  H  H38  1  0.065418  0.014475  0.740438  1
  H  H39  1  0.644292  0.042517  0.948024  1
  C  C40  1  0.250000  0.000000  0.994524  1
  C  C41  1  0.195783  0.273219  0.362751  1
  C  C42  1  0.868444  0.909529  0.326978  1
  C  C43  1  0.750000  0.000000  0.005476  1
  C  C44  1  0.304217  0.773219  0.862751  1
  C  C45  1  0.304217  0.726781  0.362751  1
  C  C46  1  0.195783  0.226781  0.862751  1
  C  C47  1  0.631556  0.409529  0.826978  1
  C  C48  1  0.695783  0.226781  0.137249  1
  C  C49  1  0.804217  0.726781  0.637249  1
  C  C50  1  0.131556  0.409529  0.173022  1
  C  C51  1  0.131556  0.090471  0.673022  1
  C  C52  1  0.695783  0.273219  0.637249  1
  C  C53  1  0.368444  0.909529  0.673022  1
  C  C54  1  0.250000  0.500000  0.494524  1
  C  C55  1  0.368444  0.590471  0.173022  1
  C  C56  1  0.750000  0.500000  0.505476  1
  C  C57  1  0.631556  0.090471  0.326978  1
  C  C58  1  0.868444  0.590471  0.826978  1
  C  C59  1  0.804217  0.773219  0.137249  1
  O  O60  1  0.250000  0.500000  0.103814  1
  O  O61  1  0.681713  0.626982  0.576828  1
  O  O62  1  0.818287  0.126982  0.076828  1
  O  O63  1  0.788081  0.778272  0.266159  1
  O  O64  1  0.318287  0.126982  0.923172  1
  O  O65  1  0.788081  0.721728  0.766159  1
  O  O66  1  0.250000  0.000000  0.603814  1
  O  O67  1  0.750000  0.000000  0.396186  1
  O  O68  1  0.318287  0.373018  0.423172  1
  O  O69  1  0.181713  0.626982  0.423172  1
  O  O70  1  0.750000  0.500000  0.896186  1
  O  O71  1  0.181713  0.873018  0.923172  1
  O  O72  1  0.288081  0.721728  0.233841  1
  O  O73  1  0.711919  0.278272  0.766159  1
  O  O74  1  0.288081  0.778272  0.733841  1
  O  O75  1  0.211919  0.278272  0.233841  1
  O  O76  1  0.818287  0.373018  0.576828  1
  O  O77  1  0.681713  0.873018  0.076828  1
  O  O78  1  0.711919  0.221728  0.266159  1
  O  O79  1  0.211919  0.221728  0.733841  1
