# generated using pymatgen
data_Ce3Si2BO10
_symmetry_space_group_name_H-M   'P 1'
_cell_length_a   7.22198535
_cell_length_b   9.93927085
_cell_length_c   23.42685527
_cell_angle_alpha   90.00000000
_cell_angle_beta   90.00000000
_cell_angle_gamma   90.00000000
_symmetry_Int_Tables_number   1
_chemical_formula_structural   Ce3Si2BO10
_chemical_formula_sum   'Ce24 Si16 B8 O80'
_cell_volume   1681.60938751
_cell_formula_units_Z   8
loop_
 _symmetry_equiv_pos_site_id
 _symmetry_equiv_pos_as_xyz
  1  'x, y, z'
loop_
 _atom_site_type_symbol
 _atom_site_label
 _atom_site_symmetry_multiplicity
 _atom_site_fract_x
 _atom_site_fract_y
 _atom_site_fract_z
 _atom_site_occupancy
  Ce  Ce0  1  0.907346  0.732173  0.817195  1
  Ce  Ce1  1  0.823223  0.365163  0.336463  1
  Ce  Ce2  1  0.092654  0.767827  0.317195  1
  Ce  Ce3  1  0.676777  0.865163  0.663537  1
  Ce  Ce4  1  0.092654  0.267827  0.182805  1
  Ce  Ce5  1  0.676777  0.365163  0.836463  1
  Ce  Ce6  1  0.137382  0.990782  0.572152  1
  Ce  Ce7  1  0.407346  0.767827  0.817195  1
  Ce  Ce8  1  0.823223  0.865163  0.163537  1
  Ce  Ce9  1  0.592654  0.232173  0.182805  1
  Ce  Ce10  1  0.176777  0.634837  0.663537  1
  Ce  Ce11  1  0.407346  0.267827  0.682805  1
  Ce  Ce12  1  0.362618  0.990782  0.072152  1
  Ce  Ce13  1  0.323223  0.634837  0.163537  1
  Ce  Ce14  1  0.637382  0.009218  0.927848  1
  Ce  Ce15  1  0.907346  0.232173  0.682805  1
  Ce  Ce16  1  0.637382  0.509218  0.572152  1
  Ce  Ce17  1  0.137382  0.490782  0.927848  1
  Ce  Ce18  1  0.176777  0.134837  0.836463  1
  Ce  Ce19  1  0.862618  0.009218  0.427848  1
  Ce  Ce20  1  0.862618  0.509218  0.072152  1
  Ce  Ce21  1  0.362618  0.490782  0.427848  1
  Ce  Ce22  1  0.592654  0.732173  0.317195  1
  Ce  Ce23  1  0.323223  0.134837  0.336463  1
  Si  Si24  1  0.142720  0.876250  0.921478  1
  Si  Si25  1  0.685683  0.561351  0.720564  1
  Si  Si26  1  0.857280  0.123750  0.078522  1
  Si  Si27  1  0.814317  0.061351  0.279436  1
  Si  Si28  1  0.142720  0.376250  0.578522  1
  Si  Si29  1  0.314317  0.938649  0.220564  1
  Si  Si30  1  0.857280  0.623750  0.421478  1
  Si  Si31  1  0.814317  0.561351  0.220564  1
  Si  Si32  1  0.642720  0.623750  0.921478  1
  Si  Si33  1  0.314317  0.438649  0.279436  1
  Si  Si34  1  0.357280  0.376250  0.078522  1
  Si  Si35  1  0.185683  0.938649  0.720564  1
  Si  Si36  1  0.642720  0.123750  0.578522  1
  Si  Si37  1  0.185683  0.438649  0.779436  1
  Si  Si38  1  0.357280  0.876250  0.421478  1
  Si  Si39  1  0.685683  0.061351  0.779436  1
  B  B40  1  0.657511  0.256208  0.472449  1
  B  B41  1  0.342489  0.243792  0.972449  1
  B  B42  1  0.157511  0.743792  0.027551  1
  B  B43  1  0.342489  0.743792  0.527551  1
  B  B44  1  0.842489  0.756208  0.527551  1
  B  B45  1  0.157511  0.243792  0.472449  1
  B  B46  1  0.842489  0.256208  0.972449  1
  B  B47  1  0.657511  0.756208  0.027551  1
  O  O48  1  0.537145  0.108013  0.828219  1
  O  O49  1  0.294548  0.103907  0.221161  1
  O  O50  1  0.337350  0.860411  0.491945  1
  O  O51  1  0.037712  0.038389  0.099251  1
  O  O52  1  0.037145  0.891987  0.671781  1
  O  O53  1  0.794548  0.396093  0.221161  1
  O  O54  1  0.824799  0.548374  0.894207  1
  O  O55  1  0.962288  0.961611  0.900749  1
  O  O56  1  0.735513  0.738678  0.080414  1
  O  O57  1  0.037712  0.538389  0.400749  1
  O  O58  1  0.162650  0.360411  0.508055  1
  O  O59  1  0.127549  0.346429  0.289338  1
  O  O60  1  0.354234  0.726615  0.390443  1
  O  O61  1  0.372451  0.846429  0.710662  1
  O  O62  1  0.764487  0.738678  0.580414  1
  O  O63  1  0.630497  0.097866  0.712499  1
  O  O64  1  0.854234  0.773385  0.390443  1
  O  O65  1  0.264487  0.761322  0.580414  1
  O  O66  1  0.205452  0.103907  0.721161  1
  O  O67  1  0.462288  0.538389  0.900749  1
  O  O68  1  0.537712  0.461611  0.099251  1
  O  O69  1  0.162650  0.860411  0.991945  1
  O  O70  1  0.794548  0.896092  0.278839  1
  O  O71  1  0.462288  0.038389  0.599251  1
  O  O72  1  0.369503  0.402134  0.212499  1
  O  O73  1  0.579902  0.872225  0.008605  1
  O  O74  1  0.420098  0.627775  0.508605  1
  O  O75  1  0.372451  0.346429  0.789338  1
  O  O76  1  0.145766  0.726615  0.890443  1
  O  O77  1  0.735513  0.238678  0.419586  1
  O  O78  1  0.630497  0.597866  0.787501  1
  O  O79  1  0.537712  0.961611  0.400749  1
  O  O80  1  0.462855  0.891987  0.171781  1
  O  O81  1  0.645766  0.773385  0.890443  1
  O  O82  1  0.962855  0.108013  0.328219  1
  O  O83  1  0.962288  0.461611  0.599251  1
  O  O84  1  0.824799  0.048374  0.605793  1
  O  O85  1  0.920098  0.372225  0.991395  1
  O  O86  1  0.145766  0.226615  0.609557  1
  O  O87  1  0.869503  0.097866  0.212499  1
  O  O88  1  0.872451  0.653571  0.710662  1
  O  O89  1  0.294548  0.603908  0.278839  1
  O  O90  1  0.675201  0.048374  0.105793  1
  O  O91  1  0.354234  0.226615  0.109557  1
  O  O92  1  0.872451  0.153571  0.789338  1
  O  O93  1  0.705452  0.396093  0.721161  1
  O  O94  1  0.920098  0.872225  0.508605  1
  O  O95  1  0.175201  0.951626  0.394207  1
  O  O96  1  0.675201  0.548374  0.394207  1
  O  O97  1  0.645766  0.273385  0.609557  1
  O  O98  1  0.962855  0.608013  0.171781  1
  O  O99  1  0.130497  0.402134  0.712499  1
  O  O100  1  0.235513  0.261322  0.419586  1
  O  O101  1  0.764487  0.238678  0.919586  1
  O  O102  1  0.420098  0.127775  0.991395  1
  O  O103  1  0.264487  0.261322  0.919586  1
  O  O104  1  0.854234  0.273385  0.109557  1
  O  O105  1  0.369503  0.902134  0.287501  1
  O  O106  1  0.705452  0.896092  0.778839  1
  O  O107  1  0.037145  0.391987  0.828219  1
  O  O108  1  0.579902  0.372225  0.491395  1
  O  O109  1  0.462855  0.391987  0.328219  1
  O  O110  1  0.324799  0.451626  0.605793  1
  O  O111  1  0.837350  0.139589  0.008055  1
  O  O112  1  0.079902  0.127775  0.491395  1
  O  O113  1  0.130497  0.902134  0.787501  1
  O  O114  1  0.537145  0.608013  0.671781  1
  O  O115  1  0.869503  0.597866  0.287501  1
  O  O116  1  0.205452  0.603908  0.778839  1
  O  O117  1  0.662650  0.139589  0.508055  1
  O  O118  1  0.175201  0.451626  0.105793  1
  O  O119  1  0.627549  0.653571  0.210662  1
  O  O120  1  0.127549  0.846429  0.210662  1
  O  O121  1  0.337350  0.360411  0.008055  1
  O  O122  1  0.235513  0.761322  0.080414  1
  O  O123  1  0.627549  0.153571  0.289338  1
  O  O124  1  0.324799  0.951626  0.894207  1
  O  O125  1  0.837350  0.639589  0.491945  1
  O  O126  1  0.662650  0.639589  0.991945  1
  O  O127  1  0.079902  0.627775  0.008605  1
