# generated using pymatgen
data_Na4U(MoO4)4
_symmetry_space_group_name_H-M   'P 1'
_cell_length_a   10.09601589
_cell_length_b   10.09601573
_cell_length_c   10.09601594
_cell_angle_alpha   106.70927796
_cell_angle_beta   110.86959812
_cell_angle_gamma   110.86959296
_symmetry_Int_Tables_number   1
_chemical_formula_structural   Na4U(MoO4)4
_chemical_formula_sum   'Na8 U2 Mo8 O32'
_cell_volume   790.81562932
_cell_formula_units_Z   2
loop_
 _symmetry_equiv_pos_site_id
 _symmetry_equiv_pos_as_xyz
  1  'x, y, z'
loop_
 _atom_site_type_symbol
 _atom_site_label
 _atom_site_symmetry_multiplicity
 _atom_site_fract_x
 _atom_site_fract_y
 _atom_site_fract_z
 _atom_site_occupancy
  Na  Na0  1  0.411166  0.682540  0.039600  1
  Na  Na1  1  0.088834  0.128434  0.271374  1
  Na  Na2  1  0.911166  0.871566  0.728626  1
  Na  Na3  1  0.642940  0.460400  0.371566  1
  Na  Na4  1  0.142940  0.771374  0.182540  1
  Na  Na5  1  0.857060  0.228626  0.817460  1
  Na  Na6  1  0.357060  0.539600  0.628434  1
  Na  Na7  1  0.588834  0.317460  0.960400  1
  U  U8  1  0.750000  0.125000  0.375000  1
  U  U9  1  0.250000  0.875000  0.625000  1
  Mo  Mo10  1  0.839991  0.780127  0.299781  1
  Mo  Mo11  1  0.980346  0.440136  0.280127  1
  Mo  Mo12  1  0.519654  0.799781  0.459790  1
  Mo  Mo13  1  0.339991  0.040210  0.059864  1
  Mo  Mo14  1  0.480346  0.200219  0.540210  1
  Mo  Mo15  1  0.019654  0.559864  0.719873  1
  Mo  Mo16  1  0.660009  0.959790  0.940136  1
  Mo  Mo17  1  0.160009  0.219873  0.700219  1
  O  O18  1  0.869994  0.352296  0.067141  1
  O  O19  1  0.801729  0.080868  0.158254  1
  O  O20  1  0.698271  0.856525  0.279138  1
  O  O21  1  0.369994  0.302853  0.517697  1
  O  O22  1  0.990143  0.851827  0.513273  1
  O  O23  1  0.838554  0.361684  0.351827  1
  O  O24  1  0.638617  0.297410  0.743182  1
  O  O25  1  0.509857  0.023130  0.861684  1
  O  O26  1  0.630006  0.697147  0.482303  1
  O  O27  1  0.130006  0.647704  0.932859  1
  O  O28  1  0.285155  0.432859  0.802853  1
  O  O29  1  0.361383  0.702590  0.256818  1
  O  O30  1  0.214845  0.017697  0.147704  1
  O  O31  1  0.009857  0.148173  0.486727  1
  O  O32  1  0.554229  0.756818  0.895435  1
  O  O33  1  0.445771  0.243182  0.104565  1
  O  O34  1  0.785155  0.982303  0.852296  1
  O  O35  1  0.422614  0.779138  0.580868  1
  O  O36  1  0.861383  0.604565  0.658793  1
  O  O37  1  0.054229  0.158793  0.797410  1
  O  O38  1  0.161446  0.638316  0.648173  1
  O  O39  1  0.661446  0.013273  0.523130  1
  O  O40  1  0.338554  0.986727  0.476870  1
  O  O41  1  0.301729  0.143475  0.720862  1
  O  O42  1  0.577386  0.220862  0.419132  1
  O  O43  1  0.945771  0.841207  0.202590  1
  O  O44  1  0.490143  0.976870  0.138316  1
  O  O45  1  0.138617  0.395435  0.341207  1
  O  O46  1  0.077386  0.658254  0.356525  1
  O  O47  1  0.714845  0.567141  0.197147  1
  O  O48  1  0.198271  0.919132  0.841746  1
  O  O49  1  0.922614  0.341746  0.643475  1
