# generated using pymatgen
data_BaTm2NiO5
_symmetry_space_group_name_H-M   'P 1'
_cell_length_a   5.67740082
_cell_length_b   7.01074891
_cell_length_c   12.24264992
_cell_angle_alpha   90.00000000
_cell_angle_beta   90.00000000
_cell_angle_gamma   90.00000000
_symmetry_Int_Tables_number   1
_chemical_formula_structural   BaTm2NiO5
_chemical_formula_sum   'Ba4 Tm8 Ni4 O20'
_cell_volume   487.29213323
_cell_formula_units_Z   4
loop_
 _symmetry_equiv_pos_site_id
 _symmetry_equiv_pos_as_xyz
  1  'x, y, z'
loop_
 _atom_site_type_symbol
 _atom_site_label
 _atom_site_symmetry_multiplicity
 _atom_site_fract_x
 _atom_site_fract_y
 _atom_site_fract_z
 _atom_site_occupancy
  Ba  Ba0  1  0.250000  0.923723  0.902229  1
  Ba  Ba1  1  0.750000  0.076277  0.097771  1
  Ba  Ba2  1  0.750000  0.423723  0.597771  1
  Ba  Ba3  1  0.250000  0.576277  0.402229  1
  Tm  Tm4  1  0.250000  0.120373  0.291567  1
  Tm  Tm5  1  0.750000  0.879627  0.708433  1
  Tm  Tm6  1  0.750000  0.620373  0.208433  1
  Tm  Tm7  1  0.250000  0.379627  0.791567  1
  Tm  Tm8  1  0.250000  0.398879  0.073827  1
  Tm  Tm9  1  0.750000  0.601121  0.926173  1
  Tm  Tm10  1  0.750000  0.898879  0.426173  1
  Tm  Tm11  1  0.250000  0.101121  0.573827  1
  Ni  Ni12  1  0.250000  0.696549  0.655676  1
  Ni  Ni13  1  0.750000  0.303451  0.344324  1
  Ni  Ni14  1  0.750000  0.196549  0.844324  1
  Ni  Ni15  1  0.250000  0.803451  0.155676  1
  O  O16  1  0.997708  0.165326  0.434339  1
  O  O17  1  0.497708  0.834674  0.565661  1
  O  O18  1  0.002292  0.665326  0.065661  1
  O  O19  1  0.502292  0.334674  0.934339  1
  O  O20  1  0.002292  0.834674  0.565661  1
  O  O21  1  0.502292  0.165326  0.434339  1
  O  O22  1  0.997708  0.334674  0.934339  1
  O  O23  1  0.497708  0.665326  0.065661  1
  O  O24  1  0.499594  0.362409  0.225342  1
  O  O25  1  0.999594  0.637591  0.774658  1
  O  O26  1  0.500406  0.862409  0.274658  1
  O  O27  1  0.000406  0.137591  0.725342  1
  O  O28  1  0.500406  0.637591  0.774658  1
  O  O29  1  0.000406  0.362409  0.225342  1
  O  O30  1  0.499594  0.137591  0.725342  1
  O  O31  1  0.999594  0.862409  0.274658  1
  O  O32  1  0.250000  0.076197  0.103697  1
  O  O33  1  0.750000  0.923803  0.896303  1
  O  O34  1  0.750000  0.576197  0.396303  1
  O  O35  1  0.250000  0.423803  0.603697  1
