# generated using pymatgen
data_Ca9Fe(PO4)7
_symmetry_space_group_name_H-M   'P 1'
_cell_length_a   13.87140283
_cell_length_b   13.87140275
_cell_length_c   13.87140227
_cell_angle_alpha   44.23604345
_cell_angle_beta   44.23604378
_cell_angle_gamma   44.23604299
_symmetry_Int_Tables_number   1
_chemical_formula_structural   Ca9Fe(PO4)7
_chemical_formula_sum   'Ca18 Fe2 P14 O56'
_cell_volume   1180.38391749
_cell_formula_units_Z   2
loop_
 _symmetry_equiv_pos_site_id
 _symmetry_equiv_pos_as_xyz
  1  'x, y, z'
loop_
 _atom_site_type_symbol
 _atom_site_label
 _atom_site_symmetry_multiplicity
 _atom_site_fract_x
 _atom_site_fract_y
 _atom_site_fract_z
 _atom_site_occupancy
  Ca  Ca0  1  0.081582  0.066731  0.656237  1
  Ca  Ca1  1  0.455938  0.474515  0.052771  1
  Ca  Ca2  1  0.908933  0.934474  0.357462  1
  Ca  Ca3  1  0.156237  0.566731  0.581582  1
  Ca  Ca4  1  0.857462  0.434474  0.408933  1
  Ca  Ca5  1  0.434474  0.408933  0.857462  1
  Ca  Ca6  1  0.974515  0.955938  0.552771  1
  Ca  Ca7  1  0.955938  0.552771  0.974515  1
  Ca  Ca8  1  0.052771  0.455938  0.474515  1
  Ca  Ca9  1  0.581582  0.156237  0.566731  1
  Ca  Ca10  1  0.066731  0.656237  0.081582  1
  Ca  Ca11  1  0.357462  0.908933  0.934474  1
  Ca  Ca12  1  0.552771  0.974515  0.955938  1
  Ca  Ca13  1  0.934474  0.357462  0.908933  1
  Ca  Ca14  1  0.656237  0.081582  0.066731  1
  Ca  Ca15  1  0.408933  0.857462  0.434474  1
  Ca  Ca16  1  0.474515  0.052771  0.455938  1
  Ca  Ca17  1  0.566731  0.581582  0.156237  1
  Fe  Fe18  1  0.002364  0.002364  0.002364  1
  Fe  Fe19  1  0.502364  0.502364  0.502364  1
  P  P20  1  0.689852  0.222019  0.187682  1
  P  P21  1  0.322815  0.778659  0.813090  1
  P  P22  1  0.187682  0.689852  0.222019  1
  P  P23  1  0.222019  0.187682  0.689852  1
  P  P24  1  0.722019  0.189852  0.687682  1
  P  P25  1  0.778659  0.813090  0.322815  1
  P  P26  1  0.771609  0.771609  0.771609  1
  P  P27  1  0.687682  0.722019  0.189852  1
  P  P28  1  0.278659  0.822815  0.313090  1
  P  P29  1  0.813090  0.322815  0.778659  1
  P  P30  1  0.313090  0.278659  0.822815  1
  P  P31  1  0.271609  0.271609  0.271609  1
  P  P32  1  0.189852  0.687682  0.722019  1
  P  P33  1  0.822815  0.313090  0.278659  1
  O  O34  1  0.405039  0.765631  0.859428  1
  O  O35  1  0.166278  0.356225  0.637651  1
  O  O36  1  0.856225  0.666278  0.137651  1
  O  O37  1  0.368790  0.615869  0.633148  1
  O  O38  1  0.615997  0.186928  0.176513  1
  O  O39  1  0.377136  0.642531  0.384523  1
  O  O40  1  0.765631  0.859428  0.405039  1
  O  O41  1  0.313086  0.313086  0.313086  1
  O  O42  1  0.265631  0.905039  0.359428  1
  O  O43  1  0.890533  0.337131  0.617104  1
  O  O44  1  0.666278  0.137651  0.856225  1
  O  O45  1  0.359428  0.265631  0.905039  1
  O  O46  1  0.093795  0.650716  0.394453  1
  O  O47  1  0.140289  0.357884  0.871855  1
  O  O48  1  0.593795  0.894453  0.150716  1
  O  O49  1  0.884523  0.142531  0.877136  1
  O  O50  1  0.133148  0.115869  0.868790  1
  O  O51  1  0.150716  0.593795  0.894453  1
  O  O52  1  0.115997  0.676513  0.686928  1
  O  O53  1  0.837131  0.390533  0.117104  1
  O  O54  1  0.390533  0.117104  0.837131  1
  O  O55  1  0.617104  0.890533  0.337131  1
  O  O56  1  0.186928  0.176513  0.615997  1
  O  O57  1  0.637651  0.166278  0.356225  1
  O  O58  1  0.115869  0.868790  0.133148  1
  O  O59  1  0.137651  0.856225  0.666278  1
  O  O60  1  0.142531  0.877136  0.884523  1
  O  O61  1  0.176513  0.615997  0.186928  1
  O  O62  1  0.650716  0.394453  0.093795  1
  O  O63  1  0.868790  0.133148  0.115869  1
  O  O64  1  0.859428  0.405039  0.765631  1
  O  O65  1  0.337131  0.617104  0.890533  1
  O  O66  1  0.394453  0.093795  0.650716  1
  O  O67  1  0.357884  0.871855  0.140289  1
  O  O68  1  0.611956  0.769391  0.894984  1
  O  O69  1  0.894984  0.611956  0.769391  1
  O  O70  1  0.769391  0.894984  0.611956  1
  O  O71  1  0.857884  0.640289  0.371855  1
  O  O72  1  0.384523  0.377136  0.642531  1
  O  O73  1  0.117104  0.837131  0.390533  1
  O  O74  1  0.615869  0.633148  0.368790  1
  O  O75  1  0.877136  0.884523  0.142531  1
  O  O76  1  0.371855  0.857884  0.640289  1
  O  O77  1  0.640289  0.371855  0.857884  1
  O  O78  1  0.813086  0.813086  0.813086  1
  O  O79  1  0.905039  0.359428  0.265631  1
  O  O80  1  0.871855  0.140289  0.357884  1
  O  O81  1  0.676513  0.686928  0.115997  1
  O  O82  1  0.111956  0.394984  0.269391  1
  O  O83  1  0.894453  0.150716  0.593795  1
  O  O84  1  0.394984  0.269391  0.111956  1
  O  O85  1  0.686928  0.115997  0.676513  1
  O  O86  1  0.633148  0.368790  0.615869  1
  O  O87  1  0.269391  0.111956  0.394984  1
  O  O88  1  0.356225  0.637651  0.166278  1
  O  O89  1  0.642531  0.384523  0.377136  1
