# generated using pymatgen
data_Sr8In4Cu3N5
_symmetry_space_group_name_H-M   'P 1'
_cell_length_a   3.85980576
_cell_length_b   11.55337862
_cell_length_c   11.55337866
_cell_angle_alpha   65.31263777
_cell_angle_beta   80.38410814
_cell_angle_gamma   80.38410368
_symmetry_Int_Tables_number   1
_chemical_formula_structural   Sr8In4Cu3N5
_chemical_formula_sum   'Sr8 In4 Cu3 N5'
_cell_volume   458.81286596
_cell_formula_units_Z   1
loop_
 _symmetry_equiv_pos_site_id
 _symmetry_equiv_pos_as_xyz
  1  'x, y, z'
loop_
 _atom_site_type_symbol
 _atom_site_label
 _atom_site_symmetry_multiplicity
 _atom_site_fract_x
 _atom_site_fract_y
 _atom_site_fract_z
 _atom_site_occupancy
  Sr  Sr0  1  0.289098  0.562689  0.859114  1
  Sr  Sr1  1  0.098362  0.749423  0.053852  1
  Sr  Sr2  1  0.710901  0.437311  0.140886  1
  Sr  Sr3  1  0.289098  0.859114  0.562689  1
  Sr  Sr4  1  0.710901  0.140886  0.437311  1
  Sr  Sr5  1  0.901638  0.250577  0.946148  1
  Sr  Sr6  1  0.098362  0.053852  0.749423  1
  Sr  Sr7  1  0.901638  0.946148  0.250577  1
  In  In8  1  0.500000  0.647745  0.352255  1
  In  In9  1  0.500000  0.352255  0.647745  1
  In  In10  1  0.083928  0.416072  0.416072  1
  In  In11  1  0.916072  0.583928  0.583928  1
  Cu  Cu12  1  0.307578  0.192422  0.192422  1
  Cu  Cu13  1  0.692422  0.807578  0.807578  1
  Cu  Cu14  1  0.500000  0.000000  0.000000  1
  N  N15  1  0.305703  0.345633  0.042961  1
  N  N16  1  0.694297  0.957039  0.654367  1
  N  N17  1  0.305703  0.042961  0.345633  1
  N  N18  1  0.000000  0.000000  0.000000  1
  N  N19  1  0.694297  0.654367  0.957039  1
