# generated using pymatgen
data_La3Si2S8Br
_symmetry_space_group_name_H-M   'P 1'
_cell_length_a   7.88709976
_cell_length_b   8.90111290
_cell_length_c   11.04724481
_cell_angle_alpha   96.55236728
_cell_angle_beta   90.00000000
_cell_angle_gamma   116.29801246
_symmetry_Int_Tables_number   1
_chemical_formula_structural   La3Si2S8Br
_chemical_formula_sum   'La6 Si4 S16 Br2'
_cell_volume   689.63591284
_cell_formula_units_Z   2
loop_
 _symmetry_equiv_pos_site_id
 _symmetry_equiv_pos_as_xyz
  1  'x, y, z'
loop_
 _atom_site_type_symbol
 _atom_site_label
 _atom_site_symmetry_multiplicity
 _atom_site_fract_x
 _atom_site_fract_y
 _atom_site_fract_z
 _atom_site_occupancy
  La  La0  1  0.686018  0.611589  0.816770  1
  La  La1  1  0.392761  0.000000  0.750000  1
  La  La2  1  0.925571  0.611589  0.316770  1
  La  La3  1  0.607239  0.000000  0.250000  1
  La  La4  1  0.313982  0.388411  0.183230  1
  La  La5  1  0.074429  0.388411  0.683230  1
  Si  Si6  1  0.306210  0.679933  0.969796  1
  Si  Si7  1  0.626277  0.320067  0.530204  1
  Si  Si8  1  0.373723  0.679933  0.469796  1
  Si  Si9  1  0.693790  0.320067  0.030204  1
  S  S10  1  0.445604  0.701762  0.658640  1
  S  S11  1  0.710385  0.564758  0.084944  1
  S  S12  1  0.599029  0.707700  0.355197  1
  S  S13  1  0.413274  0.133775  0.048067  1
  S  S14  1  0.854373  0.564758  0.584944  1
  S  S15  1  0.743841  0.298238  0.841360  1
  S  S16  1  0.586726  0.866225  0.951933  1
  S  S17  1  0.279500  0.866225  0.451933  1
  S  S18  1  0.108671  0.707700  0.855197  1
  S  S19  1  0.289615  0.435242  0.915056  1
  S  S20  1  0.145627  0.435242  0.415056  1
  S  S21  1  0.256159  0.701762  0.158640  1
  S  S22  1  0.720500  0.133775  0.548067  1
  S  S23  1  0.554396  0.298238  0.341359  1
  S  S24  1  0.891329  0.292300  0.144803  1
  S  S25  1  0.400971  0.292300  0.644803  1
  Br  Br26  1  0.005205  0.000000  0.250000  1
  Br  Br27  1  0.994795  0.000000  0.750000  1
