# generated using pymatgen
data_Ce3(AgSn)4
_symmetry_space_group_name_H-M   'P 1'
_cell_length_a   4.33722675
_cell_length_b   8.47715749
_cell_length_c   9.55778207
_cell_angle_alpha   116.32541413
_cell_angle_beta   103.11433768
_cell_angle_gamma   89.99999847
_symmetry_Int_Tables_number   1
_chemical_formula_structural   Ce3(AgSn)4
_chemical_formula_sum   'Ce3 Ag4 Sn4'
_cell_volume   304.70970308
_cell_formula_units_Z   1
loop_
 _symmetry_equiv_pos_site_id
 _symmetry_equiv_pos_as_xyz
  1  'x, y, z'
loop_
 _atom_site_type_symbol
 _atom_site_label
 _atom_site_symmetry_multiplicity
 _atom_site_fract_x
 _atom_site_fract_y
 _atom_site_fract_z
 _atom_site_occupancy
  Ce  Ce0  1  0.179902  0.179902  0.359805  1
  Ce  Ce1  1  0.820098  0.820098  0.640195  1
  Ce  Ce2  1  0.000000  0.500000  0.000000  1
  Ag  Ag3  1  0.377517  0.583352  0.755033  1
  Ag  Ag4  1  0.622483  0.828319  0.244967  1
  Ag  Ag5  1  0.622483  0.416648  0.244967  1
  Ag  Ag6  1  0.377517  0.171681  0.755033  1
  Sn  Sn7  1  0.811607  0.311607  0.623213  1
  Sn  Sn8  1  1.000000  0.159681  1.000000  1
  Sn  Sn9  1  0.000000  0.840319  0.000000  1
  Sn  Sn10  1  0.188393  0.688393  0.376787  1
