# generated using pymatgen
data_LiV3(TeO6)2
_symmetry_space_group_name_H-M   'P 1'
_cell_length_a   6.29984601
_cell_length_b   7.24955364
_cell_length_c   10.80606480
_cell_angle_alpha   91.47048372
_cell_angle_beta   93.28067169
_cell_angle_gamma   104.84366844
_symmetry_Int_Tables_number   1
_chemical_formula_structural   LiV3(TeO6)2
_chemical_formula_sum   'Li2 V6 Te4 O24'
_cell_volume   475.85712811
_cell_formula_units_Z   2
loop_
 _symmetry_equiv_pos_site_id
 _symmetry_equiv_pos_as_xyz
  1  'x, y, z'
loop_
 _atom_site_type_symbol
 _atom_site_label
 _atom_site_symmetry_multiplicity
 _atom_site_fract_x
 _atom_site_fract_y
 _atom_site_fract_z
 _atom_site_occupancy
  Li  Li0  1  0.789863  0.773746  0.109313  1
  Li  Li1  1  0.210137  0.226254  0.890687  1
  V  V2  1  0.382007  0.806115  0.578546  1
  V  V3  1  0.618897  0.229381  0.084240  1
  V  V4  1  0.381103  0.770619  0.915760  1
  V  V5  1  0.659224  0.211252  0.754836  1
  V  V6  1  0.617993  0.193885  0.421454  1
  V  V7  1  0.340776  0.788748  0.245164  1
  Te  Te8  1  0.166278  0.215387  0.592109  1
  Te  Te9  1  0.857470  0.817274  0.787886  1
  Te  Te10  1  0.833722  0.784613  0.407891  1
  Te  Te11  1  0.142530  0.182726  0.212114  1
  O  O12  1  0.091805  0.905796  0.214399  1
  O  O13  1  0.482017  0.843045  0.745847  1
  O  O14  1  0.379677  0.881335  0.408283  1
  O  O15  1  0.299677  0.222933  0.065250  1
  O  O16  1  0.700323  0.777067  0.934750  1
  O  O17  1  0.209883  0.593962  0.575220  1
  O  O18  1  0.181624  0.572448  0.243833  1
  O  O19  1  0.790117  0.406038  0.424780  1
  O  O20  1  0.853133  0.058239  0.405450  1
  O  O21  1  0.146867  0.941761  0.594550  1
  O  O22  1  0.267428  0.542410  0.904865  1
  O  O23  1  0.908195  0.094204  0.785601  1
  O  O24  1  0.517983  0.156955  0.254153  1
  O  O25  1  0.818376  0.427552  0.756167  1
  O  O26  1  0.620323  0.118665  0.591717  1
  O  O27  1  0.732572  0.457590  0.095135  1
  O  O28  1  0.625901  0.730735  0.267091  1
  O  O29  1  0.415083  0.838557  0.080852  1
  O  O30  1  0.857597  0.126498  0.117416  1
  O  O31  1  0.142403  0.873502  0.882584  1
  O  O32  1  0.374099  0.269265  0.732909  1
  O  O33  1  0.355179  0.265529  0.457528  1
  O  O34  1  0.644821  0.734471  0.542472  1
  O  O35  1  0.584917  0.161443  0.919148  1
