# generated using pymatgen
data_Ba2CoSi2O7
_symmetry_space_group_name_H-M   'P 1'
_cell_length_a   5.48559858
_cell_length_b   8.31916209
_cell_length_c   8.31916209
_cell_angle_alpha   90.00000000
_cell_angle_beta   90.00000000
_cell_angle_gamma   90.00000000
_symmetry_Int_Tables_number   1
_chemical_formula_structural   Ba2CoSi2O7
_chemical_formula_sum   'Ba4 Co2 Si4 O14'
_cell_volume   379.64981827
_cell_formula_units_Z   2
loop_
 _symmetry_equiv_pos_site_id
 _symmetry_equiv_pos_as_xyz
  1  'x, y, z'
loop_
 _atom_site_type_symbol
 _atom_site_label
 _atom_site_symmetry_multiplicity
 _atom_site_fract_x
 _atom_site_fract_y
 _atom_site_fract_z
 _atom_site_occupancy
  Ba  Ba0  1  0.009337  0.334178  0.165822  1
  Ba  Ba1  1  0.990663  0.165822  0.665822  1
  Ba  Ba2  1  0.990663  0.834178  0.334178  1
  Ba  Ba3  1  0.009337  0.665822  0.834178  1
  Co  Co4  1  0.500000  0.000000  0.000000  1
  Co  Co5  1  0.500000  0.500000  0.500000  1
  Si  Si6  1  0.541399  0.636280  0.136280  1
  Si  Si7  1  0.458601  0.136280  0.363720  1
  Si  Si8  1  0.458601  0.863720  0.636280  1
  Si  Si9  1  0.541399  0.363720  0.863720  1
  O  O10  1  0.638945  0.500000  0.000000  1
  O  O11  1  0.361055  0.000000  0.500000  1
  O  O12  1  0.676814  0.804217  0.078130  1
  O  O13  1  0.323186  0.078130  0.195783  1
  O  O14  1  0.323186  0.921870  0.804217  1
  O  O15  1  0.676814  0.195783  0.921870  1
  O  O16  1  0.323186  0.304217  0.421870  1
  O  O17  1  0.323186  0.695783  0.578130  1
  O  O18  1  0.676814  0.421870  0.695783  1
  O  O19  1  0.676814  0.578130  0.304217  1
  O  O20  1  0.246419  0.639074  0.139074  1
  O  O21  1  0.753582  0.139074  0.360926  1
  O  O22  1  0.753582  0.860926  0.639074  1
  O  O23  1  0.246419  0.360926  0.860926  1
