# generated using pymatgen
data_ZnBi6P2(O7F)2
_symmetry_space_group_name_H-M   'P 1'
_cell_length_a   5.69887055
_cell_length_b   8.96493698
_cell_length_c   16.51365404
_cell_angle_alpha   76.81589438
_cell_angle_beta   80.06568552
_cell_angle_gamma   71.46591019
_symmetry_Int_Tables_number   1
_chemical_formula_structural   ZnBi6P2(O7F)2
_chemical_formula_sum   'Zn2 Bi12 P4 O28 F4'
_cell_volume   774.25584595
_cell_formula_units_Z   2
loop_
 _symmetry_equiv_pos_site_id
 _symmetry_equiv_pos_as_xyz
  1  'x, y, z'
loop_
 _atom_site_type_symbol
 _atom_site_label
 _atom_site_symmetry_multiplicity
 _atom_site_fract_x
 _atom_site_fract_y
 _atom_site_fract_z
 _atom_site_occupancy
  Zn  Zn0  1  0.000000  0.000000  0.000000  1
  Zn  Zn1  1  0.000000  0.500000  0.500000  1
  Bi  Bi2  1  0.269690  0.761938  0.828621  1
  Bi  Bi3  1  0.860171  0.738039  0.671346  1
  Bi  Bi4  1  0.455547  0.542331  0.330381  1
  Bi  Bi5  1  0.730310  0.238062  0.171379  1
  Bi  Bi6  1  0.139829  0.261961  0.328654  1
  Bi  Bi7  1  0.973121  0.380183  0.825166  1
  Bi  Bi8  1  0.671917  0.042319  0.830418  1
  Bi  Bi9  1  0.328083  0.957681  0.169582  1
  Bi  Bi10  1  0.544453  0.457669  0.669619  1
  Bi  Bi11  1  0.178430  0.119869  0.674812  1
  Bi  Bi12  1  0.026879  0.619817  0.174834  1
  Bi  Bi13  1  0.821570  0.880131  0.325188  1
  P  P14  1  0.388674  0.263836  0.990716  1
  P  P15  1  0.611326  0.736164  0.009284  1
  P  P16  1  0.643146  0.236188  0.509310  1
  P  P17  1  0.356854  0.763812  0.490690  1
  O  O18  1  0.343541  0.772368  0.051173  1
  O  O19  1  0.868878  0.415512  0.242692  1
  O  O20  1  0.624421  0.693037  0.454648  1
  O  O21  1  0.635881  0.762618  0.913386  1
  O  O22  1  0.967819  0.026512  0.111951  1
  O  O23  1  0.131122  0.584488  0.757308  1
  O  O24  1  0.815621  0.250012  0.750010  1
  O  O25  1  0.227928  0.193136  0.954632  1
  O  O26  1  0.364119  0.237382  0.086614  1
  O  O27  1  0.641412  0.577320  0.759404  1
  O  O28  1  0.032181  0.973488  0.888049  1
  O  O29  1  0.375579  0.306963  0.545352  1
  O  O30  1  0.472847  0.915518  0.742652  1
  O  O31  1  0.688110  0.262576  0.413421  1
  O  O32  1  0.527153  0.084482  0.257348  1
  O  O33  1  0.167220  0.727640  0.448764  1
  O  O34  1  0.978092  0.922703  0.740597  1
  O  O35  1  0.772072  0.806864  0.045368  1
  O  O36  1  0.893540  0.526556  0.611940  1
  O  O37  1  0.832780  0.272360  0.551236  1
  O  O38  1  0.656458  0.227632  0.948827  1
  O  O39  1  0.021908  0.077297  0.259403  1
  O  O40  1  0.106460  0.473444  0.388060  1
  O  O41  1  0.358588  0.422680  0.240596  1
  O  O42  1  0.184379  0.749988  0.249990  1
  O  O43  1  0.298832  0.250030  0.749984  1
  O  O44  1  0.311890  0.737424  0.586579  1
  O  O45  1  0.701168  0.749970  0.250016  1
  F  F46  1  0.691046  0.043860  0.537491  1
  F  F47  1  0.727580  0.543825  0.037422  1
  F  F48  1  0.272420  0.456175  0.962578  1
  F  F49  1  0.308954  0.956140  0.462509  1
