# generated using pymatgen
data_Yb7Au3
_symmetry_space_group_name_H-M   'P 1'
_cell_length_a   10.41883884
_cell_length_b   10.41883842
_cell_length_c   6.39840483
_cell_angle_alpha   90.00000000
_cell_angle_beta   90.00000000
_cell_angle_gamma   120.00000133
_symmetry_Int_Tables_number   1
_chemical_formula_structural   Yb7Au3
_chemical_formula_sum   'Yb14 Au6'
_cell_volume   601.50738502
_cell_formula_units_Z   2
loop_
 _symmetry_equiv_pos_site_id
 _symmetry_equiv_pos_as_xyz
  1  'x, y, z'
loop_
 _atom_site_type_symbol
 _atom_site_label
 _atom_site_symmetry_multiplicity
 _atom_site_fract_x
 _atom_site_fract_y
 _atom_site_fract_z
 _atom_site_occupancy
  Yb  Yb0  1  0.127038  0.254077  0.080548  1
  Yb  Yb1  1  0.459737  0.540263  0.368244  1
  Yb  Yb2  1  0.080526  0.540263  0.368244  1
  Yb  Yb3  1  0.919474  0.459737  0.868244  1
  Yb  Yb4  1  0.872962  0.127038  0.580548  1
  Yb  Yb5  1  0.745923  0.872962  0.080548  1
  Yb  Yb6  1  0.540263  0.080526  0.868244  1
  Yb  Yb7  1  0.872962  0.745923  0.580548  1
  Yb  Yb8  1  0.666667  0.333333  0.350079  1
  Yb  Yb9  1  0.459737  0.919474  0.368244  1
  Yb  Yb10  1  0.540263  0.459737  0.868244  1
  Yb  Yb11  1  0.254077  0.127038  0.580548  1
  Yb  Yb12  1  0.127038  0.872962  0.080548  1
  Yb  Yb13  1  0.333333  0.666667  0.850079  1
  Au  Au14  1  0.812404  0.624809  0.131848  1
  Au  Au15  1  0.375191  0.187596  0.131848  1
  Au  Au16  1  0.624809  0.812404  0.631848  1
  Au  Au17  1  0.187596  0.812404  0.631848  1
  Au  Au18  1  0.187596  0.375191  0.631848  1
  Au  Au19  1  0.812404  0.187596  0.131848  1
