# generated using pymatgen
data_KAgCO3
_symmetry_space_group_name_H-M   'P 1'
_cell_length_a   5.85609207
_cell_length_b   6.06955589
_cell_length_c   11.19422641
_cell_angle_alpha   105.73239053
_cell_angle_beta   105.14520985
_cell_angle_gamma   89.98469914
_symmetry_Int_Tables_number   1
_chemical_formula_structural   KAgCO3
_chemical_formula_sum   'K4 Ag4 C4 O12'
_cell_volume   368.61067131
_cell_formula_units_Z   4
loop_
 _symmetry_equiv_pos_site_id
 _symmetry_equiv_pos_as_xyz
  1  'x, y, z'
loop_
 _atom_site_type_symbol
 _atom_site_label
 _atom_site_symmetry_multiplicity
 _atom_site_fract_x
 _atom_site_fract_y
 _atom_site_fract_z
 _atom_site_occupancy
  Ag  Ag0  1  0.249945  0.865331  -0.000024  1
  Ag  Ag1  1  0.750033  0.634625  1.000008  1
  Ag  Ag2  1  0.750055  0.134669  1.000024  1
  Ag  Ag3  1  0.249967  0.365375  -0.000008  1
  K  K4  1  0.180199  0.930236  0.360156  1
  K  K5  1  0.319786  0.569762  0.639830  1
  K  K6  1  0.819801  0.069764  0.639844  1
  K  K7  1  0.680214  0.430238  0.360170  1
  C  C8  1  0.872637  0.622661  0.745472  1
  C  C9  1  0.627349  0.877321  0.254480  1
  C  C10  1  0.127363  0.377339  0.254528  1
  C  C11  1  0.372651  0.122679  0.745520  1
  O  O12  1  0.810762  0.560690  0.621479  1
  O  O13  1  0.689268  0.939375  0.378504  1
  O  O14  1  0.189238  0.439310  0.378521  1
  O  O15  1  0.310732  0.060625  0.621496  1
  O  O16  1  0.041990  0.786554  0.805549  1
  O  O17  1  0.736689  0.713395  0.194460  1
  O  O18  1  0.457919  0.981120  0.194397  1
  O  O19  1  0.763297  0.518922  0.805540  1
  O  O20  1  0.958010  0.213446  0.194451  1
  O  O21  1  0.263311  0.286605  0.805540  1
  O  O22  1  0.542081  0.018880  0.805603  1
  O  O23  1  0.236703  0.481078  0.194460  1
