# generated using pymatgen
data_Nd5Ti4FeO17
_symmetry_space_group_name_H-M   'P 1'
_cell_length_a   5.51264261
_cell_length_b   7.70745842
_cell_length_c   32.30915720
_cell_angle_alpha   97.25239686
_cell_angle_beta   90.00000000
_cell_angle_gamma   90.00000000
_symmetry_Int_Tables_number   1
_chemical_formula_structural   Nd5Ti4FeO17
_chemical_formula_sum   'Nd20 Ti16 Fe4 O68'
_cell_volume   1361.78386846
_cell_formula_units_Z   4
loop_
 _symmetry_equiv_pos_site_id
 _symmetry_equiv_pos_as_xyz
  1  'x, y, z'
loop_
 _atom_site_type_symbol
 _atom_site_label
 _atom_site_symmetry_multiplicity
 _atom_site_fract_x
 _atom_site_fract_y
 _atom_site_fract_z
 _atom_site_occupancy
  Nd  Nd0  1  0.041709  0.644690  0.298692  1
  Nd  Nd1  1  0.999942  0.298147  0.096532  1
  Nd  Nd2  1  0.499942  0.701853  0.403468  1
  Nd  Nd3  1  0.482189  0.784719  0.577716  1
  Nd  Nd4  1  0.517811  0.215281  0.422284  1
  Nd  Nd5  1  0.541709  0.355310  0.201308  1
  Nd  Nd6  1  0.384774  0.142206  0.778199  1
  Nd  Nd7  1  0.500058  0.298147  0.596532  1
  Nd  Nd8  1  0.982189  0.215281  0.922284  1
  Nd  Nd9  1  0.884774  0.857794  0.721801  1
  Nd  Nd10  1  0.458291  0.644690  0.798692  1
  Nd  Nd11  1  0.989453  0.257023  0.509754  1
  Nd  Nd12  1  0.489453  0.742977  0.990246  1
  Nd  Nd13  1  0.958291  0.355310  0.701308  1
  Nd  Nd14  1  0.010547  0.742977  0.490246  1
  Nd  Nd15  1  0.510547  0.257023  0.009754  1
  Nd  Nd16  1  0.017811  0.784719  0.077716  1
  Nd  Nd17  1  0.115226  0.142206  0.278199  1
  Nd  Nd18  1  0.615226  0.857794  0.221801  1
  Nd  Nd19  1  0.000058  0.701853  0.903468  1
  Ti  Ti20  1  0.042630  0.076281  0.176078  1
  Ti  Ti21  1  0.017094  0.454341  0.403465  1
  Ti  Ti22  1  0.542630  0.923719  0.323922  1
  Ti  Ti23  1  0.014492  0.955839  0.406148  1
  Ti  Ti24  1  0.485508  0.955839  0.906148  1
  Ti  Ti25  1  0.982906  0.545659  0.596535  1
  Ti  Ti26  1  0.553122  0.406758  0.321261  1
  Ti  Ti27  1  0.985508  0.044161  0.593852  1
  Ti  Ti28  1  0.514492  0.044161  0.093852  1
  Ti  Ti29  1  0.957370  0.923719  0.823922  1
  Ti  Ti30  1  0.457370  0.076281  0.676078  1
  Ti  Ti31  1  0.517094  0.545659  0.096535  1
  Ti  Ti32  1  0.053122  0.593242  0.178739  1
  Ti  Ti33  1  0.446878  0.593242  0.678739  1
  Ti  Ti34  1  0.946878  0.406758  0.821261  1
  Ti  Ti35  1  0.482906  0.454341  0.903465  1
  Fe  Fe36  1  0.500000  0.500000  0.500000  1
  Fe  Fe37  1  0.000000  0.000000  0.000000  1
  Fe  Fe38  1  0.000000  0.500000  0.000000  1
  Fe  Fe39  1  0.500000  0.000000  0.500000  1
  O  O40  1  0.303397  0.030640  0.619212  1
  O  O41  1  0.839455  0.366852  0.296701  1
  O  O42  1  0.209027  0.970202  0.535974  1
  O  O43  1  0.282494  0.562248  0.033937  1
  O  O44  1  0.771388  0.484655  0.055389  1
  O  O45  1  0.690724  0.415699  0.381537  1
  O  O46  1  0.710655  0.129592  0.138000  1
  O  O47  1  0.114125  0.335745  0.170323  1
  O  O48  1  0.421686  0.289810  0.083067  1
  O  O49  1  0.809276  0.415699  0.881537  1
  O  O50  1  0.289345  0.870408  0.862000  1
  O  O51  1  0.790973  0.029798  0.464026  1
  O  O52  1  0.717199  0.065114  0.552562  1
  O  O53  1  0.187567  0.079945  0.710959  1
  O  O54  1  0.196603  0.030640  0.119212  1
  O  O55  1  0.586141  0.748790  0.502639  1
  O  O56  1  0.782494  0.437752  0.466063  1
  O  O57  1  0.782801  0.065114  0.052562  1
  O  O58  1  0.078314  0.289810  0.583067  1
  O  O59  1  0.660545  0.366852  0.796701  1
  O  O60  1  0.921085  0.794418  0.591966  1
  O  O61  1  0.687567  0.920055  0.789041  1
  O  O62  1  0.282801  0.934886  0.447438  1
  O  O63  1  0.312433  0.079945  0.210959  1
  O  O64  1  0.812433  0.920055  0.289041  1
  O  O65  1  0.078915  0.205582  0.408034  1
  O  O66  1  0.206323  0.494512  0.359378  1
  O  O67  1  0.173176  0.864887  0.779612  1
  O  O68  1  0.290973  0.970202  0.035974  1
  O  O69  1  0.309276  0.584301  0.618463  1
  O  O70  1  0.709027  0.029798  0.964026  1
  O  O71  1  0.793677  0.505488  0.640622  1
  O  O72  1  0.803397  0.969360  0.880788  1
  O  O73  1  0.578314  0.710190  0.916933  1
  O  O74  1  0.413859  0.251210  0.497361  1
  O  O75  1  0.086141  0.251210  0.997361  1
  O  O76  1  0.326824  0.864887  0.279612  1
  O  O77  1  0.210655  0.870408  0.362000  1
  O  O78  1  0.051127  0.165286  0.828241  1
  O  O79  1  0.578915  0.794418  0.091966  1
  O  O80  1  0.948873  0.834714  0.171759  1
  O  O81  1  0.653552  0.592172  0.726150  1
  O  O82  1  0.448873  0.165286  0.328241  1
  O  O83  1  0.228612  0.515345  0.944611  1
  O  O84  1  0.217199  0.934886  0.947438  1
  O  O85  1  0.921686  0.710190  0.416933  1
  O  O86  1  0.271388  0.515345  0.444611  1
  O  O87  1  0.385875  0.335745  0.670323  1
  O  O88  1  0.339455  0.633148  0.203299  1
  O  O89  1  0.789345  0.129592  0.638000  1
  O  O90  1  0.217506  0.562248  0.533937  1
  O  O91  1  0.293677  0.494512  0.859378  1
  O  O92  1  0.421085  0.205582  0.908034  1
  O  O93  1  0.717506  0.437752  0.966063  1
  O  O94  1  0.153552  0.407828  0.773850  1
  O  O95  1  0.551127  0.834714  0.671759  1
  O  O96  1  0.614125  0.664255  0.329677  1
  O  O97  1  0.696603  0.969360  0.380788  1
  O  O98  1  0.346448  0.407828  0.273850  1
  O  O99  1  0.728612  0.484655  0.555389  1
  O  O100  1  0.160545  0.633148  0.703299  1
  O  O101  1  0.913859  0.748790  0.002639  1
  O  O102  1  0.706323  0.505488  0.140622  1
  O  O103  1  0.826824  0.135113  0.220388  1
  O  O104  1  0.673176  0.135113  0.720388  1
  O  O105  1  0.885875  0.664255  0.829677  1
  O  O106  1  0.190724  0.584301  0.118463  1
  O  O107  1  0.846448  0.592172  0.226150  1
