# generated using pymatgen
data_KNd(WO4)2
_symmetry_space_group_name_H-M   'P 1'
_cell_length_a   7.53083106
_cell_length_b   7.53083026
_cell_length_c   7.59881698
_cell_angle_alpha   113.73305795
_cell_angle_beta   113.73305515
_cell_angle_gamma   92.78268850
_symmetry_Int_Tables_number   1
_chemical_formula_structural   KNd(WO4)2
_chemical_formula_sum   'K2 Nd2 W4 O16'
_cell_volume   349.56280029
_cell_formula_units_Z   2
loop_
 _symmetry_equiv_pos_site_id
 _symmetry_equiv_pos_as_xyz
  1  'x, y, z'
loop_
 _atom_site_type_symbol
 _atom_site_label
 _atom_site_symmetry_multiplicity
 _atom_site_fract_x
 _atom_site_fract_y
 _atom_site_fract_z
 _atom_site_occupancy
  K  K0  1  0.310913  0.310913  0.473590  1
  K  K1  1  0.689087  0.689087  0.526410  1
  Nd  Nd2  1  0.301278  0.698722  1.000000  1
  Nd  Nd3  1  0.698722  0.301278  0.000000  1
  W  W4  1  0.837740  0.162260  0.500000  1
  W  W5  1  0.796022  0.796022  0.056750  1
  W  W6  1  0.203978  0.203978  0.943250  1
  W  W7  1  0.162260  0.837740  0.500000  1
  O  O8  1  0.309433  0.782100  0.353840  1
  O  O9  1  0.573916  0.573916  0.892240  1
  O  O10  1  0.906331  0.653385  0.260512  1
  O  O11  1  0.016357  0.016357  0.344178  1
  O  O12  1  0.217900  0.690567  0.646160  1
  O  O13  1  0.093669  0.346615  0.739488  1
  O  O14  1  0.295337  0.040253  0.064653  1
  O  O15  1  0.983643  0.983643  0.655822  1
  O  O16  1  0.346615  0.093669  0.739488  1
  O  O17  1  0.690567  0.217900  0.646160  1
  O  O18  1  0.653385  0.906331  0.260512  1
  O  O19  1  0.426084  0.426084  0.107760  1
  O  O20  1  0.704663  0.959747  0.935347  1
  O  O21  1  0.040253  0.295337  0.064653  1
  O  O22  1  0.959747  0.704663  0.935347  1
  O  O23  1  0.782100  0.309433  0.353840  1
