# generated using pymatgen
data_Cs2UP2O9
_symmetry_space_group_name_H-M   'P 1'
_cell_length_a   6.33681468
_cell_length_b   12.76852041
_cell_length_c   12.94088725
_cell_angle_alpha   90.00000000
_cell_angle_beta   90.00000000
_cell_angle_gamma   90.00000000
_symmetry_Int_Tables_number   1
_chemical_formula_structural   Cs2UP2O9
_chemical_formula_sum   'Cs8 U4 P8 O36'
_cell_volume   1047.06980258
_cell_formula_units_Z   4
loop_
 _symmetry_equiv_pos_site_id
 _symmetry_equiv_pos_as_xyz
  1  'x, y, z'
loop_
 _atom_site_type_symbol
 _atom_site_label
 _atom_site_symmetry_multiplicity
 _atom_site_fract_x
 _atom_site_fract_y
 _atom_site_fract_z
 _atom_site_occupancy
  Cs  Cs0  1  0.514461  0.750000  0.573171  1
  Cs  Cs1  1  0.507494  0.428321  0.750000  1
  Cs  Cs2  1  0.485539  0.250000  0.426829  1
  Cs  Cs3  1  0.485539  0.250000  0.073171  1
  Cs  Cs4  1  0.492506  0.571679  0.250000  1
  Cs  Cs5  1  0.507494  0.071679  0.750000  1
  Cs  Cs6  1  0.514461  0.750000  0.926829  1
  Cs  Cs7  1  0.492506  0.928321  0.250000  1
  U  U8  1  0.000000  0.000000  0.500000  1
  U  U9  1  0.000000  0.500000  0.000000  1
  U  U10  1  0.000000  0.500000  0.500000  1
  U  U11  1  0.000000  0.000000  0.000000  1
  P  P12  1  0.991231  0.250000  0.867194  1
  P  P13  1  0.008769  0.750000  0.132806  1
  P  P14  1  0.014765  0.868982  0.750000  1
  P  P15  1  0.014765  0.631018  0.750000  1
  P  P16  1  0.985235  0.131018  0.250000  1
  P  P17  1  0.985235  0.368982  0.250000  1
  P  P18  1  0.008769  0.750000  0.367194  1
  P  P19  1  0.991231  0.250000  0.632806  1
  O  O20  1  0.754971  0.250000  0.866397  1
  O  O21  1  0.728313  0.454921  0.011565  1
  O  O22  1  0.083708  0.250000  0.250000  1
  O  O23  1  0.749004  0.132249  0.250000  1
  O  O24  1  0.903430  0.651343  0.415424  1
  O  O25  1  0.749004  0.367751  0.250000  1
  O  O26  1  0.910991  0.750000  0.250000  1
  O  O27  1  0.250996  0.867751  0.750000  1
  O  O28  1  0.096570  0.151343  0.584576  1
  O  O29  1  0.096570  0.348657  0.584576  1
  O  O30  1  0.090204  0.419469  0.346640  1
  O  O31  1  0.728313  0.045079  0.488435  1
  O  O32  1  0.909796  0.580531  0.846640  1
  O  O33  1  0.909796  0.580531  0.653360  1
  O  O34  1  0.090204  0.080531  0.346640  1
  O  O35  1  0.090204  0.080531  0.153360  1
  O  O36  1  0.903430  0.651343  0.084576  1
  O  O37  1  0.909796  0.919469  0.653360  1
  O  O38  1  0.728313  0.045079  0.011565  1
  O  O39  1  0.271687  0.954921  0.511565  1
  O  O40  1  0.250996  0.632249  0.750000  1
  O  O41  1  0.090204  0.419469  0.153360  1
  O  O42  1  0.271687  0.954921  0.988435  1
  O  O43  1  0.271687  0.545079  0.511565  1
  O  O44  1  0.245029  0.750000  0.366397  1
  O  O45  1  0.909796  0.919469  0.846640  1
  O  O46  1  0.903430  0.848657  0.415424  1
  O  O47  1  0.245029  0.750000  0.133603  1
  O  O48  1  0.728313  0.454921  0.488435  1
  O  O49  1  0.903430  0.848657  0.084576  1
  O  O50  1  0.096570  0.348657  0.915424  1
  O  O51  1  0.916292  0.750000  0.750000  1
  O  O52  1  0.089009  0.250000  0.750000  1
  O  O53  1  0.096570  0.151343  0.915424  1
  O  O54  1  0.754971  0.250000  0.633603  1
  O  O55  1  0.271687  0.545079  0.988435  1
