# generated using pymatgen
data_C4O5F6
_symmetry_space_group_name_H-M   'P 1'
_cell_length_a   5.07103361
_cell_length_b   7.81374475
_cell_length_c   20.93472048
_cell_angle_alpha   90.00000000
_cell_angle_beta   96.44106790
_cell_angle_gamma   90.00000000
_symmetry_Int_Tables_number   1
_chemical_formula_structural   C4O5F6
_chemical_formula_sum   'C16 O20 F24'
_cell_volume   824.27631145
_cell_formula_units_Z   4
loop_
 _symmetry_equiv_pos_site_id
 _symmetry_equiv_pos_as_xyz
  1  'x, y, z'
loop_
 _atom_site_type_symbol
 _atom_site_label
 _atom_site_symmetry_multiplicity
 _atom_site_fract_x
 _atom_site_fract_y
 _atom_site_fract_z
 _atom_site_occupancy
  C  C0  1  0.248852  0.188336  0.744210  1
  C  C1  1  0.968486  0.244358  0.149341  1
  C  C2  1  0.672282  0.249292  0.453911  1
  C  C3  1  0.479933  0.785616  0.156519  1
  C  C4  1  0.327718  0.749292  0.046089  1
  C  C5  1  0.031514  0.744358  0.350659  1
  C  C6  1  0.327718  0.750708  0.546089  1
  C  C7  1  0.751148  0.688336  0.755790  1
  C  C8  1  0.751148  0.811664  0.255790  1
  C  C9  1  0.520067  0.214384  0.843481  1
  C  C10  1  0.968486  0.255642  0.649341  1
  C  C11  1  0.520067  0.285616  0.343481  1
  C  C12  1  0.248852  0.311664  0.244210  1
  C  C13  1  0.031514  0.755642  0.850659  1
  C  C14  1  0.479933  0.714384  0.656519  1
  C  C15  1  0.672282  0.250708  0.953911  1
  O  O16  1  0.937850  0.705185  0.287121  1
  O  O17  1  0.937850  0.794815  0.787121  1
  O  O18  1  0.282614  0.851391  0.171416  1
  O  O19  1  0.708272  0.742943  0.195051  1
  O  O20  1  0.345770  0.437222  0.223705  1
  O  O21  1  0.717386  0.351391  0.328584  1
  O  O22  1  0.717386  0.148609  0.828584  1
  O  O23  1  0.282614  0.648609  0.671416  1
  O  O24  1  0.291728  0.242943  0.304949  1
  O  O25  1  0.345770  0.062778  0.723705  1
  O  O26  1  0.529829  0.731074  0.096697  1
  O  O27  1  0.470171  0.231074  0.403303  1
  O  O28  1  0.470171  0.268926  0.903303  1
  O  O29  1  0.654230  0.937222  0.276295  1
  O  O30  1  0.291728  0.257057  0.804949  1
  O  O31  1  0.654230  0.562778  0.776295  1
  O  O32  1  0.708272  0.757057  0.695051  1
  O  O33  1  0.062150  0.294815  0.712879  1
  O  O34  1  0.529829  0.768926  0.596697  1
  O  O35  1  0.062150  0.205185  0.212879  1
  F  F36  1  0.152937  0.897509  0.355872  1
  F  F37  1  0.836517  0.741757  0.389442  1
  F  F38  1  0.163483  0.258243  0.610558  1
  F  F39  1  0.110650  0.657669  0.055698  1
  F  F40  1  0.790276  0.378613  0.630387  1
  F  F41  1  0.571876  0.310467  0.006330  1
  F  F42  1  0.790276  0.121387  0.130387  1
  F  F43  1  0.257051  0.914509  0.036106  1
  F  F44  1  0.889350  0.342331  0.944302  1
  F  F45  1  0.836517  0.758243  0.889442  1
  F  F46  1  0.571876  0.189533  0.506330  1
  F  F47  1  0.163483  0.241757  0.110558  1
  F  F48  1  0.209724  0.621387  0.369613  1
  F  F49  1  0.847063  0.397509  0.144128  1
  F  F50  1  0.428124  0.689533  0.993670  1
  F  F51  1  0.847063  0.102491  0.644128  1
  F  F52  1  0.742949  0.414509  0.463894  1
  F  F53  1  0.428124  0.810467  0.493670  1
  F  F54  1  0.152937  0.602491  0.855872  1
  F  F55  1  0.209724  0.878613  0.869613  1
  F  F56  1  0.742949  0.085491  0.963894  1
  F  F57  1  0.257051  0.585491  0.536106  1
  F  F58  1  0.889350  0.157669  0.444302  1
  F  F59  1  0.110650  0.842331  0.555698  1
