# generated using pymatgen
data_SrBe2(BO3)2
_symmetry_space_group_name_H-M   'P 1'
_cell_length_a   4.53049265
_cell_length_b   9.33814519
_cell_length_c   11.68972827
_cell_angle_alpha   111.87195692
_cell_angle_beta   90.00000000
_cell_angle_gamma   90.00000000
_symmetry_Int_Tables_number   1
_chemical_formula_structural   SrBe2(BO3)2
_chemical_formula_sum   'Sr4 Be8 B8 O24'
_cell_volume   458.95192443
_cell_formula_units_Z   4
loop_
 _symmetry_equiv_pos_site_id
 _symmetry_equiv_pos_as_xyz
  1  'x, y, z'
loop_
 _atom_site_type_symbol
 _atom_site_label
 _atom_site_symmetry_multiplicity
 _atom_site_fract_x
 _atom_site_fract_y
 _atom_site_fract_z
 _atom_site_occupancy
  Sr  Sr0  1  0.472749  0.925014  0.154609  1
  Sr  Sr1  1  0.027251  0.425014  0.654609  1
  Sr  Sr2  1  0.527251  0.074986  0.845391  1
  Sr  Sr3  1  0.972749  0.574986  0.345391  1
  Be  Be4  1  0.438797  0.283921  0.192841  1
  Be  Be5  1  0.561203  0.716079  0.807159  1
  Be  Be6  1  0.403041  0.874765  0.452783  1
  Be  Be7  1  0.903041  0.625235  0.047217  1
  Be  Be8  1  0.061203  0.783921  0.692841  1
  Be  Be9  1  0.596959  0.125235  0.547217  1
  Be  Be10  1  0.938797  0.216079  0.307159  1
  Be  Be11  1  0.096959  0.374765  0.952783  1
  B  B12  1  0.561575  0.451125  0.855768  1
  B  B13  1  0.908211  0.206223  0.076084  1
  B  B14  1  0.091789  0.793777  0.923916  1
  B  B15  1  0.438425  0.548875  0.144232  1
  B  B16  1  0.938425  0.951125  0.355768  1
  B  B17  1  0.591789  0.706223  0.576084  1
  B  B18  1  0.408211  0.293777  0.423916  1
  B  B19  1  0.061575  0.048875  0.644232  1
  O  O20  1  0.008487  0.040087  0.288497  1
  O  O21  1  0.918127  0.758611  0.817814  1
  O  O22  1  0.991513  0.959913  0.711503  1
  O  O23  1  0.491513  0.540087  0.788497  1
  O  O24  1  0.581873  0.258611  0.317814  1
  O  O25  1  0.663385  0.973361  0.413773  1
  O  O26  1  0.127782  0.838196  0.359513  1
  O  O27  1  0.872218  0.161804  0.640487  1
  O  O28  1  0.120951  0.342947  0.420108  1
  O  O29  1  0.372218  0.338196  0.859513  1
  O  O30  1  0.488776  0.716727  0.469308  1
  O  O31  1  0.163385  0.526639  0.086227  1
  O  O32  1  0.336615  0.026639  0.586227  1
  O  O33  1  0.511224  0.283273  0.530692  1
  O  O34  1  0.011224  0.216727  0.969308  1
  O  O35  1  0.081873  0.241389  0.182186  1
  O  O36  1  0.508487  0.459913  0.211503  1
  O  O37  1  0.879049  0.657053  0.579892  1
  O  O38  1  0.418127  0.741389  0.682186  1
  O  O39  1  0.627782  0.661804  0.140487  1
  O  O40  1  0.988776  0.783273  0.030692  1
  O  O41  1  0.379049  0.842947  0.920108  1
  O  O42  1  0.836615  0.473361  0.913773  1
  O  O43  1  0.620951  0.157053  0.079892  1
