# generated using pymatgen
data_NaClO3
_symmetry_space_group_name_H-M   'P 1'
_cell_length_a   7.19075665
_cell_length_b   7.19075665
_cell_length_c   7.19075665
_cell_angle_alpha   90.00000000
_cell_angle_beta   90.00000000
_cell_angle_gamma   90.00000000
_symmetry_Int_Tables_number   1
_chemical_formula_structural   NaClO3
_chemical_formula_sum   'Na4 Cl4 O12'
_cell_volume   371.81231891
_cell_formula_units_Z   4
loop_
 _symmetry_equiv_pos_site_id
 _symmetry_equiv_pos_as_xyz
  1  'x, y, z'
loop_
 _atom_site_type_symbol
 _atom_site_label
 _atom_site_symmetry_multiplicity
 _atom_site_fract_x
 _atom_site_fract_y
 _atom_site_fract_z
 _atom_site_occupancy
  Na  Na0  1  0.080079  0.419921  0.580079  1
  Na  Na1  1  0.419921  0.580079  0.080079  1
  Na  Na2  1  0.919921  0.919921  0.919921  1
  Na  Na3  1  0.580079  0.080079  0.419921  1
  Cl  Cl4  1  0.268994  0.768994  0.731006  1
  Cl  Cl5  1  0.768994  0.731006  0.268994  1
  Cl  Cl6  1  0.731006  0.268994  0.768994  1
  Cl  Cl7  1  0.231006  0.231006  0.231006  1
  O  O8  1  0.254207  0.841324  0.927671  1
  O  O9  1  0.427671  0.245793  0.158676  1
  O  O10  1  0.745793  0.341324  0.572329  1
  O  O11  1  0.927671  0.254207  0.841324  1
  O  O12  1  0.072329  0.754207  0.658676  1
  O  O13  1  0.841324  0.927671  0.254207  1
  O  O14  1  0.341324  0.572329  0.745793  1
  O  O15  1  0.754207  0.658676  0.072329  1
  O  O16  1  0.658676  0.072329  0.754207  1
  O  O17  1  0.572329  0.745793  0.341324  1
  O  O18  1  0.158676  0.427671  0.245793  1
  O  O19  1  0.245793  0.158676  0.427671  1
