# generated using pymatgen
data_La2SiS5
_symmetry_space_group_name_H-M   'P 1'
_cell_length_a   7.65629070
_cell_length_b   7.94214155
_cell_length_c   12.69760175
_cell_angle_alpha   90.00000000
_cell_angle_beta   90.00000000
_cell_angle_gamma   101.38285445
_symmetry_Int_Tables_number   1
_chemical_formula_structural   La2SiS5
_chemical_formula_sum   'La8 Si4 S20'
_cell_volume   756.92030559
_cell_formula_units_Z   4
loop_
 _symmetry_equiv_pos_site_id
 _symmetry_equiv_pos_as_xyz
  1  'x, y, z'
loop_
 _atom_site_type_symbol
 _atom_site_label
 _atom_site_symmetry_multiplicity
 _atom_site_fract_x
 _atom_site_fract_y
 _atom_site_fract_z
 _atom_site_occupancy
  La  La0  1  0.260587  0.454756  0.594995  1
  La  La1  1  0.663833  0.632896  0.835127  1
  La  La2  1  0.260587  0.954756  0.905005  1
  La  La3  1  0.336167  0.867104  0.335127  1
  La  La4  1  0.739413  0.045244  0.094995  1
  La  La5  1  0.336167  0.367104  0.164873  1
  La  La6  1  0.663833  0.132896  0.664873  1
  La  La7  1  0.739413  0.545244  0.405005  1
  Si  Si8  1  0.170220  0.903748  0.616624  1
  Si  Si9  1  0.829780  0.096252  0.383376  1
  Si  Si10  1  0.829780  0.596252  0.116624  1
  Si  Si11  1  0.170220  0.403748  0.883376  1
  S  S12  1  0.976517  0.449145  0.773436  1
  S  S13  1  0.637822  0.496427  0.621328  1
  S  S14  1  0.627341  0.194060  0.297524  1
  S  S15  1  0.362178  0.503573  0.378672  1
  S  S16  1  0.637822  0.996427  0.878672  1
  S  S17  1  0.023483  0.050855  0.273436  1
  S  S18  1  0.324872  0.611409  0.970069  1
  S  S19  1  0.079748  0.217884  0.001177  1
  S  S20  1  0.675128  0.888591  0.470069  1
  S  S21  1  0.079748  0.717884  0.498823  1
  S  S22  1  0.372659  0.805940  0.702476  1
  S  S23  1  0.920252  0.782116  0.998823  1
  S  S24  1  0.976517  0.949145  0.726564  1
  S  S25  1  0.324872  0.111409  0.529931  1
  S  S26  1  0.023483  0.550855  0.226564  1
  S  S27  1  0.675128  0.388591  0.029931  1
  S  S28  1  0.920252  0.282116  0.501177  1
  S  S29  1  0.362178  0.003573  0.121328  1
  S  S30  1  0.372659  0.305940  0.797524  1
  S  S31  1  0.627341  0.694060  0.202476  1
