# generated using pymatgen
data_RbNb(BO3)2
_symmetry_space_group_name_H-M   'P 1'
_cell_length_a   7.52184023
_cell_length_b   9.62984548
_cell_length_c   20.22424027
_cell_angle_alpha   90.00000000
_cell_angle_beta   90.00000000
_cell_angle_gamma   90.03304422
_symmetry_Int_Tables_number   1
_chemical_formula_structural   RbNb(BO3)2
_chemical_formula_sum   'Rb10 Nb10 B20 O60'
_cell_volume   1464.92559475
_cell_formula_units_Z   10
loop_
 _symmetry_equiv_pos_site_id
 _symmetry_equiv_pos_as_xyz
  1  'x, y, z'
loop_
 _atom_site_type_symbol
 _atom_site_label
 _atom_site_symmetry_multiplicity
 _atom_site_fract_x
 _atom_site_fract_y
 _atom_site_fract_z
 _atom_site_occupancy
  Rb  Rb0  1  0.511746  0.894314  0.406906  1
  Rb  Rb1  1  0.011746  0.394314  0.593094  1
  Rb  Rb2  1  0.996868  0.399755  0.393324  1
  Rb  Rb3  1  0.002998  0.399395  0.993088  1
  Rb  Rb4  1  0.505895  0.894904  0.206707  1
  Rb  Rb5  1  0.502998  0.899395  0.006912  1
  Rb  Rb6  1  0.496868  0.899755  0.606676  1
  Rb  Rb7  1  0.013875  0.403021  0.193136  1
  Rb  Rb8  1  0.513875  0.903021  0.806864  1
  Rb  Rb9  1  0.005895  0.394904  0.793293  1
  Nb  Nb10  1  0.489068  0.499595  0.666098  1
  Nb  Nb11  1  0.502765  0.501060  0.267692  1
  Nb  Nb12  1  0.016021  -0.000094  0.533338  1
  Nb  Nb13  1  0.989068  0.999595  0.333902  1
  Nb  Nb14  1  0.500504  0.503014  0.068001  1
  Nb  Nb15  1  0.022764  0.002292  0.132938  1
  Nb  Nb16  1  1.000504  0.003014  0.931999  1
  Nb  Nb17  1  0.522764  0.502292  0.867062  1
  Nb  Nb18  1  0.002765  0.001060  0.732308  1
  Nb  Nb19  1  0.516021  0.499906  0.466662  1
  B  B20  1  0.148427  0.706158  0.702198  1
  B  B21  1  0.367222  0.206250  0.102646  1
  B  B22  1  0.349553  0.210151  0.494052  1
  B  B23  1  0.648427  0.206158  0.297802  1
  B  B24  1  0.654817  0.206363  0.907504  1
  B  B25  1  0.346245  0.206924  0.709612  1
  B  B26  1  0.178312  0.712349  0.490063  1
  B  B27  1  0.846245  0.706924  0.290388  1
  B  B28  1  0.319998  0.219761  0.310097  1
  B  B29  1  0.696524  0.225204  0.105978  1
  B  B30  1  0.849553  0.710151  0.505948  1
  B  B31  1  0.324474  0.224319  0.900385  1
  B  B32  1  0.176194  0.717142  0.304330  1
  B  B33  1  0.154817  0.706363  0.092496  1
  B  B34  1  0.678312  0.212349  0.509937  1
  B  B35  1  0.819998  0.719761  0.689903  1
  B  B36  1  0.824474  0.724319  0.099615  1
  B  B37  1  0.676194  0.217142  0.695670  1
  B  B38  1  0.196524  0.725204  0.894022  1
  B  B39  1  0.867222  0.706250  0.897354  1
  O  O40  1  0.287307  0.625853  0.066688  1
  O  O41  1  0.831921  0.150535  0.708657  1
  O  O42  1  0.678039  0.349401  0.671815  1
  O  O43  1  0.667332  0.657527  0.088667  1
  O  O44  1  0.687552  0.334161  0.881414  1
  O  O45  1  0.037904  0.648484  0.890034  1
  O  O46  1  0.792153  0.129705  0.315812  1
  O  O47  1  0.324756  0.360476  0.881969  1
  O  O48  1  0.012386  0.643958  0.492019  1
  O  O49  1  0.982451  0.648829  0.089806  1
  O  O50  1  0.198681  0.862513  0.910666  1
  O  O51  1  0.672544  0.648493  0.669492  1
  O  O52  1  0.537904  0.148484  0.109966  1
  O  O53  1  0.350498  0.657225  0.878897  1
  O  O54  1  0.698801  0.346527  0.489999  1
  O  O55  1  0.178039  0.849401  0.328185  1
  O  O56  1  0.981273  0.645675  0.690054  1
  O  O57  1  0.317977  0.637336  0.465385  1
  O  O58  1  0.167332  0.157527  0.911333  1
  O  O59  1  0.339146  0.332479  0.074121  1
  O  O60  1  0.816480  0.837644  0.313385  1
  O  O61  1  0.482451  0.148829  0.910194  1
  O  O62  1  0.458510  0.502706  0.179394  1
  O  O63  1  0.032581  0.004137  0.020785  1
  O  O64  1  0.712279  0.628189  0.263881  1
  O  O65  1  0.016685  0.645364  0.291063  1
  O  O66  1  0.187552  0.834161  0.118586  1
  O  O67  1  0.292153  0.629705  0.684188  1
  O  O68  1  0.231105  0.127346  0.126250  1
  O  O69  1  0.212279  0.128189  0.736119  1
  O  O70  1  0.810494  0.856194  0.707676  1
  O  O71  1  0.667425  0.333962  0.269895  1
  O  O72  1  0.462670  0.496688  0.576790  1
  O  O73  1  0.698341  0.639711  0.490826  1
  O  O74  1  0.481273  0.145675  0.309946  1
  O  O75  1  0.558145  0.502129  0.378101  1
  O  O76  1  0.824756  0.860476  0.118031  1
  O  O77  1  0.198801  0.846527  0.510001  1
  O  O78  1  0.698681  0.362513  0.089334  1
  O  O79  1  0.841051  0.839706  0.532726  1
  O  O80  1  0.787307  0.125853  0.933312  1
  O  O81  1  0.519542  0.497869  0.777450  1
  O  O82  1  0.341051  0.339706  0.467274  1
  O  O83  1  0.516685  0.145364  0.708937  1
  O  O84  1  0.532581  0.504137  0.979215  1
  O  O85  1  0.331921  0.650535  0.291343  1
  O  O86  1  0.512386  0.143958  0.507981  1
  O  O87  1  0.019542  0.997869  0.222550  1
  O  O88  1  0.839146  0.832479  0.925879  1
  O  O89  1  0.850498  0.157225  0.121103  1
  O  O90  1  0.817977  0.137336  0.534615  1
  O  O91  1  0.316480  0.337644  0.686615  1
  O  O92  1  0.962670  0.996688  0.423210  1
  O  O93  1  0.198341  0.139711  0.509174  1
  O  O94  1  0.731105  0.627346  0.873750  1
  O  O95  1  0.172544  0.148493  0.330508  1
  O  O96  1  0.167425  0.833962  0.730105  1
  O  O97  1  0.310494  0.356194  0.292324  1
  O  O98  1  0.058145  0.002129  0.621899  1
  O  O99  1  0.958510  0.002706  0.820606  1
