# generated using pymatgen
data_S
_symmetry_space_group_name_H-M   'P 1'
_cell_length_a   7.81767852
_cell_length_b   11.16927682
_cell_length_c   13.58251772
_cell_angle_alpha   91.46637688
_cell_angle_beta   90.00000000
_cell_angle_gamma   90.00000000
_symmetry_Int_Tables_number   1
_chemical_formula_structural   S
_chemical_formula_sum   S36
_cell_volume   1185.60737939
_cell_formula_units_Z   36
loop_
 _symmetry_equiv_pos_site_id
 _symmetry_equiv_pos_as_xyz
  1  'x, y, z'
loop_
 _atom_site_type_symbol
 _atom_site_label
 _atom_site_symmetry_multiplicity
 _atom_site_fract_x
 _atom_site_fract_y
 _atom_site_fract_z
 _atom_site_occupancy
  S  S0  1  0.471486  0.715808  0.552060  1
  S  S1  1  0.427040  0.302476  0.587939  1
  S  S2  1  0.518594  0.984465  0.339606  1
  S  S3  1  0.028514  0.215808  0.052060  1
  S  S4  1  0.981406  0.484465  0.839606  1
  S  S5  1  0.056431  0.308933  0.818132  1
  S  S6  1  0.961620  0.813605  0.647482  1
  S  S7  1  0.266108  0.989454  0.745891  1
  S  S8  1  0.461620  0.686395  0.852518  1
  S  S9  1  0.249440  0.115757  0.060871  1
  S  S10  1  0.572960  0.697524  0.412061  1
  S  S11  1  0.927040  0.197524  0.912061  1
  S  S12  1  0.053625  0.986527  0.653915  1
  S  S13  1  0.556431  0.191067  0.681868  1
  S  S14  1  0.548166  0.776009  0.977951  1
  S  S15  1  0.446375  0.486527  0.153915  1
  S  S16  1  0.072960  0.802476  0.087939  1
  S  S17  1  0.750560  0.884243  0.939129  1
  S  S18  1  0.538380  0.313605  0.147482  1
  S  S19  1  0.749440  0.384243  0.439129  1
  S  S20  1  0.018594  0.515535  0.160394  1
  S  S21  1  0.443569  0.808933  0.318132  1
  S  S22  1  0.528514  0.284192  0.447940  1
  S  S23  1  0.451834  0.223991  0.022049  1
  S  S24  1  0.481406  0.015535  0.660394  1
  S  S25  1  0.038380  0.186395  0.352518  1
  S  S26  1  0.946375  0.013473  0.346085  1
  S  S27  1  0.733892  0.010546  0.254109  1
  S  S28  1  0.233892  0.489454  0.245891  1
  S  S29  1  0.943569  0.691067  0.181868  1
  S  S30  1  0.250560  0.615757  0.560871  1
  S  S31  1  0.766108  0.510546  0.754109  1
  S  S32  1  0.048166  0.723991  0.522049  1
  S  S33  1  0.971486  0.784192  0.947940  1
  S  S34  1  0.553625  0.513473  0.846085  1
  S  S35  1  0.951834  0.276009  0.477951  1
