# generated using pymatgen
data_CsNO3
_symmetry_space_group_name_H-M   'P 1'
_cell_length_a   11.14280681
_cell_length_b   11.14280685
_cell_length_c   7.91995237
_cell_angle_alpha   90.00000000
_cell_angle_beta   90.00000000
_cell_angle_gamma   119.99999989
_symmetry_Int_Tables_number   1
_chemical_formula_structural   CsNO3
_chemical_formula_sum   'Cs9 N9 O27'
_cell_volume   851.61324146
_cell_formula_units_Z   9
loop_
 _symmetry_equiv_pos_site_id
 _symmetry_equiv_pos_as_xyz
  1  'x, y, z'
loop_
 _atom_site_type_symbol
 _atom_site_label
 _atom_site_symmetry_multiplicity
 _atom_site_fract_x
 _atom_site_fract_y
 _atom_site_fract_z
 _atom_site_occupancy
  Cs  Cs0  1  0.446514  0.554716  0.653256  1
  Cs  Cs1  1  0.783883  0.229285  0.635758  1
  Cs  Cs2  1  0.445284  0.891798  0.986589  1
  Cs  Cs3  1  0.445402  0.216117  0.302425  1
  Cs  Cs4  1  0.101675  0.880017  0.665360  1
  Cs  Cs5  1  0.778342  0.898325  0.332026  1
  Cs  Cs6  1  0.770715  0.554598  0.969091  1
  Cs  Cs7  1  0.119983  0.221658  0.998693  1
  Cs  Cs8  1  0.108202  0.553486  0.319923  1
  N  N9  1  0.797848  0.903543  0.860937  1
  N  N10  1  0.463465  0.228577  0.770606  1
  N  N11  1  0.765111  0.536535  0.437272  1
  N  N12  1  0.771423  0.234889  0.103939  1
  N  N13  1  0.096457  0.894305  0.194271  1
  N  N14  1  0.105695  0.202152  0.527604  1
  N  N15  1  0.130965  0.536891  0.827372  1
  N  N16  1  0.463109  0.594074  0.160705  1
  N  N17  1  0.405926  0.869035  0.494038  1
  O  O18  1  0.006174  0.772322  0.237972  1
  O  O19  1  0.679995  0.573071  0.386266  1
  O  O20  1  0.777848  0.445441  0.353506  1
  O  O21  1  0.223355  0.558461  0.937581  1
  O  O22  1  0.887789  0.890705  0.947050  1
  O  O23  1  0.227678  0.233853  0.571305  1
  O  O24  1  0.342255  0.892509  0.376329  1
  O  O25  1  0.536105  0.935487  0.502040  1
  O  O26  1  0.667593  0.222152  0.020173  1
  O  O27  1  0.441539  0.664894  0.270914  1
  O  O28  1  0.893075  0.320005  0.052933  1
  O  O29  1  0.742060  0.826660  0.734208  1
  O  O30  1  0.173340  0.915400  0.067542  1
  O  O31  1  0.766147  0.993826  0.904638  1
  O  O32  1  0.751766  0.163462  0.235324  1
  O  O33  1  0.335106  0.776645  0.604247  1
  O  O34  1  0.554559  0.332407  0.686840  1
  O  O35  1  0.109295  0.997085  0.280384  1
  O  O36  1  0.411696  0.248234  0.901991  1
  O  O37  1  0.399382  0.463895  0.168707  1
  O  O38  1  0.002915  0.112211  0.613717  1
  O  O39  1  0.084600  0.257940  0.400875  1
  O  O40  1  0.064513  0.600618  0.835374  1
  O  O41  1  0.426929  0.106925  0.719600  1
  O  O42  1  0.107491  0.449746  0.709663  1
  O  O43  1  0.550254  0.657745  0.042996  1
  O  O44  1  0.836538  0.588304  0.568657  1
