# generated using pymatgen
data_ZnS
_symmetry_space_group_name_H-M   'P 1'
_cell_length_a   3.85357189
_cell_length_b   3.85357178
_cell_length_c   63.00434165
_cell_angle_alpha   90.00000000
_cell_angle_beta   90.00000000
_cell_angle_gamma   120.00000084
_symmetry_Int_Tables_number   1
_chemical_formula_structural   ZnS
_chemical_formula_sum   'Zn20 S20'
_cell_volume   810.26676257
_cell_formula_units_Z   20
loop_
 _symmetry_equiv_pos_site_id
 _symmetry_equiv_pos_as_xyz
  1  'x, y, z'
loop_
 _atom_site_type_symbol
 _atom_site_label
 _atom_site_symmetry_multiplicity
 _atom_site_fract_x
 _atom_site_fract_y
 _atom_site_fract_z
 _atom_site_occupancy
  Zn  Zn0  1  0.000000  0.000000  0.399999  1
  Zn  Zn1  1  0.333333  0.666667  0.450009  1
  Zn  Zn2  1  0.333333  0.666667  0.349998  1
  Zn  Zn3  1  0.333333  0.666667  0.200000  1
  Zn  Zn4  1  0.666667  0.333333  0.800000  1
  Zn  Zn5  1  0.666667  0.333333  0.650000  1
  Zn  Zn6  1  0.000000  0.000000  0.599997  1
  Zn  Zn7  1  0.666667  0.333333  0.950000  1
  Zn  Zn8  1  0.666667  0.333333  0.100003  1
  Zn  Zn9  1  0.000000  0.000000  0.899997  1
  Zn  Zn10  1  0.333333  0.666667  0.550014  1
  Zn  Zn11  1  0.666667  0.333333  0.300003  1
  Zn  Zn12  1  0.000000  0.000000  0.000014  1
  Zn  Zn13  1  0.333333  0.666667  0.050003  1
  Zn  Zn14  1  0.000000  0.000000  0.149998  1
  Zn  Zn15  1  0.333333  0.666667  0.850014  1
  Zn  Zn16  1  0.000000  0.000000  0.250014  1
  Zn  Zn17  1  0.000000  0.000000  0.700014  1
  Zn  Zn18  1  0.666667  0.333333  0.499999  1
  Zn  Zn19  1  0.333333  0.666667  0.749998  1
  S  S20  1  0.000000  0.000000  0.637466  1
  S  S21  1  0.333333  0.666667  0.887494  1
  S  S22  1  0.666667  0.333333  0.837528  1
  S  S23  1  0.000000  0.000000  0.037495  1
  S  S24  1  0.000000  0.000000  0.437528  1
  S  S25  1  0.333333  0.666667  0.087497  1
  S  S26  1  0.333333  0.666667  0.237528  1
  S  S27  1  0.000000  0.000000  0.737494  1
  S  S28  1  0.000000  0.000000  0.287495  1
  S  S29  1  0.666667  0.333333  0.687528  1
  S  S30  1  0.666667  0.333333  0.987528  1
  S  S31  1  0.666667  0.333333  0.537528  1
  S  S32  1  0.666667  0.333333  0.337497  1
  S  S33  1  0.333333  0.666667  0.587494  1
  S  S34  1  0.333333  0.666667  0.487465  1
  S  S35  1  0.333333  0.666667  0.387467  1
  S  S36  1  0.666667  0.333333  0.137497  1
  S  S37  1  0.333333  0.666667  0.787466  1
  S  S38  1  0.000000  0.000000  0.937466  1
  S  S39  1  0.000000  0.000000  0.187467  1
