# generated using pymatgen
data_Na2TiF6
_symmetry_space_group_name_H-M   'P 1'
_cell_length_a   5.23774772
_cell_length_b   9.32216710
_cell_length_c   9.32362664
_cell_angle_alpha   120.00517933
_cell_angle_beta   90.00000000
_cell_angle_gamma   89.95146876
_symmetry_Int_Tables_number   1
_chemical_formula_structural   Na2TiF6
_chemical_formula_sum   'Na6 Ti3 F18'
_cell_volume   394.23401190
_cell_formula_units_Z   3
loop_
 _symmetry_equiv_pos_site_id
 _symmetry_equiv_pos_as_xyz
  1  'x, y, z'
loop_
 _atom_site_type_symbol
 _atom_site_label
 _atom_site_symmetry_multiplicity
 _atom_site_fract_x
 _atom_site_fract_y
 _atom_site_fract_z
 _atom_site_occupancy
  Na  Na0  1  0.999674  0.624524  0.002314  1
  Na  Na1  1  0.000326  0.375476  0.377790  1
  Na  Na2  1  0.499994  0.288943  0.001086  1
  Na  Na3  1  0.500000  0.000000  0.290560  1
  Na  Na4  1  0.500006  0.711057  0.712143  1
  Na  Na5  1  0.000000  0.000000  0.625094  1
  Ti  Ti6  1  0.506120  0.666234  0.334591  1
  Ti  Ti7  1  0.493880  0.333765  0.668356  1
  Ti  Ti8  1  0.000000  0.000000  0.001388  1
  F  F9  1  0.300780  0.473709  0.254656  1
  F  F10  1  0.793988  0.192332  0.108355  1
  F  F11  1  0.287294  0.453386  0.596878  1
  F  F12  1  0.700053  0.253087  0.475898  1
  F  F13  1  0.286625  0.143135  0.548758  1
  F  F14  1  0.206012  0.807668  0.916022  1
  F  F15  1  0.204772  0.085939  0.894549  1
  F  F16  1  0.795228  0.914061  0.808610  1
  F  F17  1  0.204738  0.107051  0.194187  1
  F  F18  1  0.700258  0.221534  0.748427  1
  F  F19  1  0.795262  0.892949  0.087136  1
  F  F20  1  0.713954  0.595418  0.454177  1
  F  F21  1  0.286046  0.404582  0.858759  1
  F  F22  1  0.299742  0.778466  0.526893  1
  F  F23  1  0.712706  0.546614  0.143493  1
  F  F24  1  0.713375  0.856865  0.405623  1
  F  F25  1  0.299947  0.746913  0.222811  1
  F  F26  1  0.699220  0.526291  0.780947  1
