# generated using pymatgen
data_NaCdH3(CO2)3
_symmetry_space_group_name_H-M   'P 1'
_cell_length_a   6.54026180
_cell_length_b   7.37633476
_cell_length_c   14.37064197
_cell_angle_alpha   90.00000000
_cell_angle_beta   90.00000000
_cell_angle_gamma   90.00000000
_symmetry_Int_Tables_number   1
_chemical_formula_structural   NaCdH3(CO2)3
_chemical_formula_sum   'Na4 Cd4 H12 C12 O24'
_cell_volume   693.28518640
_cell_formula_units_Z   4
loop_
 _symmetry_equiv_pos_site_id
 _symmetry_equiv_pos_as_xyz
  1  'x, y, z'
loop_
 _atom_site_type_symbol
 _atom_site_label
 _atom_site_symmetry_multiplicity
 _atom_site_fract_x
 _atom_site_fract_y
 _atom_site_fract_z
 _atom_site_occupancy
  Na  Na0  1  0.750000  0.500000  0.278998  1
  Na  Na1  1  0.250000  0.500000  0.221002  1
  Na  Na2  1  0.750000  0.500000  0.778998  1
  Na  Na3  1  0.250000  0.500000  0.721002  1
  Cd  Cd4  1  0.750000  0.000000  0.428428  1
  Cd  Cd5  1  0.250000  0.000000  0.571572  1
  Cd  Cd6  1  0.750000  0.000000  0.928428  1
  Cd  Cd7  1  0.250000  0.000000  0.071572  1
  H  H8  1  0.000000  0.950832  0.750000  1
  H  H9  1  0.000000  0.049168  0.250000  1
  H  H10  1  0.291990  0.331900  0.430233  1
  H  H11  1  0.500000  0.950832  0.250000  1
  H  H12  1  0.208010  0.668100  0.430233  1
  H  H13  1  0.791990  0.331900  0.569767  1
  H  H14  1  0.708010  0.668100  0.569767  1
  H  H15  1  0.500000  0.049168  0.750000  1
  H  H16  1  0.791990  0.668100  0.069767  1
  H  H17  1  0.291990  0.668100  0.930233  1
  H  H18  1  0.208010  0.331900  0.930233  1
  H  H19  1  0.708010  0.331900  0.069767  1
  C  C20  1  0.631870  0.704601  0.087012  1
  C  C21  1  0.000000  0.101314  0.750000  1
  C  C22  1  0.868130  0.295399  0.087012  1
  C  C23  1  0.500000  0.898686  0.750000  1
  C  C24  1  0.500000  0.101314  0.250000  1
  C  C25  1  0.631870  0.295399  0.587012  1
  C  C26  1  0.000000  0.898686  0.250000  1
  C  C27  1  0.368130  0.295399  0.912988  1
  C  C28  1  0.868130  0.704601  0.587012  1
  C  C29  1  0.368130  0.704601  0.412988  1
  C  C30  1  0.131870  0.295399  0.412988  1
  C  C31  1  0.131870  0.704601  0.912988  1
  O  O32  1  0.461475  0.385674  0.853167  1
  O  O33  1  0.440820  0.157927  0.957813  1
  O  O34  1  0.606151  0.182167  0.311456  1
  O  O35  1  0.059180  0.157927  0.457813  1
  O  O36  1  0.038525  0.614326  0.853167  1
  O  O37  1  0.940820  0.842073  0.542187  1
  O  O38  1  0.440820  0.842073  0.457813  1
  O  O39  1  0.606151  0.817833  0.811456  1
  O  O40  1  0.893849  0.182167  0.811456  1
  O  O41  1  0.559180  0.842073  0.042187  1
  O  O42  1  0.393849  0.817833  0.688544  1
  O  O43  1  0.961475  0.614326  0.646833  1
  O  O44  1  0.961475  0.385674  0.146833  1
  O  O45  1  0.106151  0.817833  0.188544  1
  O  O46  1  0.538525  0.385674  0.646833  1
  O  O47  1  0.106151  0.182167  0.688544  1
  O  O48  1  0.393849  0.182167  0.188544  1
  O  O49  1  0.559180  0.157927  0.542187  1
  O  O50  1  0.059180  0.842073  0.957813  1
  O  O51  1  0.538525  0.614326  0.146833  1
  O  O52  1  0.893849  0.817833  0.311456  1
  O  O53  1  0.940820  0.157927  0.042187  1
  O  O54  1  0.038525  0.385674  0.353167  1
  O  O55  1  0.461475  0.614326  0.353167  1
