# generated using pymatgen
data_TaP4S4Cl5
_symmetry_space_group_name_H-M   'P 1'
_cell_length_a   7.08650868
_cell_length_b   9.68681330
_cell_length_c   14.11726450
_cell_angle_alpha   101.23870533
_cell_angle_beta   93.10578531
_cell_angle_gamma   111.87100337
_symmetry_Int_Tables_number   1
_chemical_formula_structural   TaP4S4Cl5
_chemical_formula_sum   'Ta2 P8 S8 Cl10'
_cell_volume   873.49454212
_cell_formula_units_Z   2
loop_
 _symmetry_equiv_pos_site_id
 _symmetry_equiv_pos_as_xyz
  1  'x, y, z'
loop_
 _atom_site_type_symbol
 _atom_site_label
 _atom_site_symmetry_multiplicity
 _atom_site_fract_x
 _atom_site_fract_y
 _atom_site_fract_z
 _atom_site_occupancy
  Ta  Ta0  1  0.605253  0.736846  0.831913  1
  Ta  Ta1  1  0.394747  0.263154  0.168087  1
  P  P2  1  0.266692  0.384752  0.575249  1
  P  P3  1  0.733308  0.615248  0.424751  1
  P  P4  1  0.321405  0.439908  0.748727  1
  P  P5  1  0.678595  0.560092  0.251273  1
  P  P6  1  0.843753  0.916836  0.335488  1
  P  P7  1  0.113755  0.823459  0.329680  1
  P  P8  1  0.886245  0.176541  0.670320  1
  P  P9  1  0.156247  0.083164  0.664512  1
  S  S10  1  0.702152  0.828353  0.451952  1
  S  S11  1  0.378908  0.252696  0.777626  1
  S  S12  1  0.021665  0.375716  0.785127  1
  S  S13  1  0.621092  0.747304  0.222374  1
  S  S14  1  0.297848  0.171647  0.548048  1
  S  S15  1  0.941855  0.293220  0.555375  1
  S  S16  1  0.058145  0.706780  0.444625  1
  S  S17  1  0.978335  0.624284  0.214873  1
  Cl  Cl18  1  0.264997  0.377841  0.065443  1
  Cl  Cl19  1  0.159180  0.017026  0.115623  1
  Cl  Cl20  1  0.635126  0.252260  0.063754  1
  Cl  Cl21  1  0.735003  0.622159  0.934557  1
  Cl  Cl22  1  0.405955  0.781007  0.711103  1
  Cl  Cl23  1  0.594045  0.218993  0.288897  1
  Cl  Cl24  1  0.780932  0.657679  0.709859  1
  Cl  Cl25  1  0.219068  0.342321  0.290141  1
  Cl  Cl26  1  0.364874  0.747740  0.936246  1
  Cl  Cl27  1  0.840820  0.982974  0.884377  1
