# generated using pymatgen
data_Rb2Mo(IO3)6
_symmetry_space_group_name_H-M   'P 1'
_cell_length_a   7.86379635
_cell_length_b   7.86379613
_cell_length_c   7.86379581
_cell_angle_alpha   97.28936683
_cell_angle_beta   97.28936663
_cell_angle_gamma   97.28937912
_symmetry_Int_Tables_number   1
_chemical_formula_structural   Rb2Mo(IO3)6
_chemical_formula_sum   'Rb2 Mo1 I6 O18'
_cell_volume   473.38397049
_cell_formula_units_Z   1
loop_
 _symmetry_equiv_pos_site_id
 _symmetry_equiv_pos_as_xyz
  1  'x, y, z'
loop_
 _atom_site_type_symbol
 _atom_site_label
 _atom_site_symmetry_multiplicity
 _atom_site_fract_x
 _atom_site_fract_y
 _atom_site_fract_z
 _atom_site_occupancy
  Rb  Rb0  1  0.829796  0.829796  0.829796  1
  Rb  Rb1  1  0.170204  0.170204  0.170204  1
  Mo  Mo2  1  0.500000  0.500000  0.500000  1
  I  I3  1  0.669262  0.294301  0.867106  1
  I  I4  1  0.867106  0.669262  0.294301  1
  I  I5  1  0.132894  0.330738  0.705699  1
  I  I6  1  0.330738  0.705699  0.132894  1
  I  I7  1  0.294301  0.867106  0.669262  1
  I  I8  1  0.705699  0.132894  0.330738  1
  O  O9  1  0.094737  0.713213  0.610061  1
  O  O10  1  0.904363  0.309092  0.908628  1
  O  O11  1  0.905262  0.286787  0.389939  1
  O  O12  1  0.551514  0.300198  0.326897  1
  O  O13  1  0.448486  0.699802  0.673103  1
  O  O14  1  0.673103  0.448486  0.699802  1
  O  O15  1  0.713213  0.610061  0.094737  1
  O  O16  1  0.326897  0.551514  0.300198  1
  O  O17  1  0.286787  0.389939  0.905262  1
  O  O18  1  0.908628  0.904363  0.309092  1
  O  O19  1  0.610061  0.094737  0.713213  1
  O  O20  1  0.389939  0.905262  0.286787  1
  O  O21  1  0.309092  0.908628  0.904363  1
  O  O22  1  0.300198  0.326897  0.551514  1
  O  O23  1  0.091372  0.095637  0.690908  1
  O  O24  1  0.699802  0.673103  0.448486  1
  O  O25  1  0.095637  0.690908  0.091372  1
  O  O26  1  0.690908  0.091372  0.095637  1
