# generated using pymatgen
data_KPSe3
_symmetry_space_group_name_H-M   'P 1'
_cell_length_a   14.95111111
_cell_length_b   14.95111136
_cell_length_c   19.27501320
_cell_angle_alpha   90.00000000
_cell_angle_beta   90.00000000
_cell_angle_gamma   119.99999947
_symmetry_Int_Tables_number   1
_chemical_formula_structural   KPSe3
_chemical_formula_sum   'K24 P24 Se72'
_cell_volume   3731.40391897
_cell_formula_units_Z   24
loop_
 _symmetry_equiv_pos_site_id
 _symmetry_equiv_pos_as_xyz
  1  'x, y, z'
loop_
 _atom_site_type_symbol
 _atom_site_label
 _atom_site_symmetry_multiplicity
 _atom_site_fract_x
 _atom_site_fract_y
 _atom_site_fract_z
 _atom_site_occupancy
  K  K0  1  0.743070  0.884841  0.543006  1
  K  K1  1  0.641739  0.292433  0.205812  1
  K  K2  1  0.859550  0.150398  0.699536  1
  K  K3  1  0.358232  0.614855  0.696711  1
  K  K4  1  0.760354  0.144678  0.362448  1
  K  K5  1  0.141771  0.256930  0.209673  1
  K  K6  1  0.115159  0.858229  0.876340  1
  K  K7  1  0.855322  0.615676  0.695782  1
  K  K8  1  0.362884  0.151529  0.702236  1
  K  K9  1  0.707567  0.349306  0.539145  1
  K  K10  1  0.256624  0.641768  0.363377  1
  K  K11  1  0.384325  0.239646  0.029115  1
  K  K12  1  0.648395  0.862188  0.872015  1
  K  K13  1  0.241072  0.885450  0.546316  1
  K  K14  1  0.290849  0.140450  0.366202  1
  K  K15  1  0.137812  0.786208  0.205348  1
  K  K16  1  0.644378  0.758928  0.212983  1
  K  K17  1  0.114550  0.355622  0.879650  1
  K  K18  1  0.848471  0.211355  0.035570  1
  K  K19  1  0.788645  0.637116  0.368903  1
  K  K20  1  0.650694  0.358261  0.872479  1
  K  K21  1  0.849602  0.709151  0.032869  1
  K  K22  1  0.213792  0.351605  0.538681  1
  K  K23  1  0.385145  0.743376  0.030044  1
  P  P24  1  0.436598  0.967157  0.340724  1
  P  P25  1  0.533030  0.466983  0.673299  1
  P  P26  1  0.964448  0.425000  0.232620  1
  P  P27  1  0.462522  0.535137  0.898958  1
  P  P28  1  0.530559  0.563402  0.007391  1
  P  P29  1  0.533017  0.066048  0.006632  1
  P  P30  1  0.032843  0.469441  0.674058  1
  P  P31  1  0.039959  0.575489  0.006835  1
  P  P32  1  0.466480  0.436455  0.232272  1
  P  P33  1  0.575000  0.539448  0.565953  1
  P  P34  1  0.037731  0.965681  0.675942  1
  P  P35  1  0.067837  0.035781  0.567967  1
  P  P36  1  0.034319  0.072050  0.009275  1
  P  P37  1  0.535530  0.960041  0.673502  1
  P  P38  1  0.964219  0.032057  0.901301  1
  P  P39  1  0.464863  0.927385  0.232291  1
  P  P40  1  0.424511  0.464470  0.340168  1
  P  P41  1  0.969975  0.533520  0.898939  1
  P  P42  1  0.460552  0.035552  0.899287  1
  P  P43  1  0.933952  0.466970  0.339965  1
  P  P44  1  0.072615  0.537478  0.565624  1
  P  P45  1  0.563545  0.030025  0.565605  1
  P  P46  1  0.927950  0.962269  0.342608  1
  P  P47  1  0.967943  0.932163  0.234634  1
  Se  Se48  1  0.372439  0.848584  0.677656  1
  Se  Se49  1  0.090859  0.734444  0.032485  1
  Se  Se50  1  0.487223  0.120870  0.562864  1
  Se  Se51  1  0.094093  0.631766  0.729422  1
  Se  Se52  1  0.421871  0.044503  0.177959  1
  Se  Se53  1  0.606374  0.724342  0.036756  1
  Se  Se54  1  0.887762  0.117444  0.873916  1
  Se  Se55  1  0.080519  0.124464  0.731620  1
  Se  Se56  1  0.350311  0.872365  0.895379  1
  Se  Se57  1  0.368234  0.462327  0.062755  1
  Se  Se58  1  0.628221  0.978536  0.229885  1
  Se  Se59  1  0.970778  0.874092  0.511228  1
  Se  Se60  1  0.991350  0.126194  0.562638  1
  Se  Se61  1  0.537673  0.905907  0.396088  1
  Se  Se62  1  0.597942  0.626964  0.732061  1
  Se  Se63  1  0.903313  0.029222  0.177895  1
  Se  Se64  1  0.875536  0.956054  0.064953  1
  Se  Se65  1  0.979074  0.125487  0.343831  1
  Se  Se66  1  0.622632  0.578129  0.844626  1
  Se  Se67  1  0.366184  0.376858  0.677766  1
  Se  Se68  1  0.512057  0.134456  0.343366  1
  Se  Se69  1  0.350315  0.371779  0.896552  1
  Se  Se70  1  0.463194  0.380609  0.508898  1
  Se  Se71  1  0.857520  0.265457  0.207283  1
  Se  Se72  1  0.865544  0.377601  0.676700  1
  Se  Se73  1  0.522055  0.649689  0.562045  1
  Se  Se74  1  0.086562  0.230646  0.037087  1
  Se  Se75  1  0.617233  0.388787  0.699745  1
  Se  Se76  1  0.229681  0.112238  0.540582  1
  Se  Se77  1  0.619391  0.082584  0.842232  1
  Se  Se78  1  0.643585  0.909141  0.699152  1
  Se  Se79  1  0.131754  0.596002  0.842799  1
  Se  Se80  1  0.407937  0.142480  0.873950  1
  Se  Se81  1  0.892752  0.617799  0.870447  1
  Se  Se82  1  0.117967  0.393626  0.703423  1
  Se  Se83  1  0.476145  0.627561  0.344322  1
  Se  Se84  1  0.275658  0.882033  0.370089  1
  Se  Se85  1  0.955497  0.377368  0.511292  1
  Se  Se86  1  0.464248  0.868246  0.509465  1
  Se  Se87  1  0.010673  0.633816  0.344432  1
  Se  Se88  1  0.382201  0.274954  0.203780  1
  Se  Se89  1  0.771554  0.382767  0.366411  1
  Se  Se90  1  0.734543  0.592063  0.540616  1
  Se  Se91  1  0.146412  0.020926  0.010498  1
  Se  Se92  1  0.134844  0.008650  0.229305  1
  Se  Se93  1  0.029022  0.402058  0.398727  1
  Se  Se94  1  0.580918  0.118988  0.729908  1
  Se  Se95  1  0.879130  0.366353  0.896198  1
  Se  Se96  1  0.411486  0.642239  0.870973  1
  Se  Se97  1  0.043946  0.919481  0.398286  1
  Se  Se98  1  0.873806  0.865156  0.895972  1
  Se  Se99  1  0.882556  0.770319  0.207249  1
  Se  Se100  1  0.881012  0.461930  0.063241  1
  Se  Se101  1  0.622399  0.487943  0.010033  1
  Se  Se102  1  0.611213  0.228446  0.033078  1
  Se  Se103  1  0.151416  0.523855  0.010989  1
  Se  Se104  1  0.725046  0.107248  0.537113  1
  Se  Se105  1  0.769354  0.855917  0.370420  1
  Se  Se106  1  0.125908  0.096687  0.844562  1
  Se  Se107  1  0.265556  0.356415  0.365818  1
  Se  Se108  1  0.403998  0.535752  0.176132  1
  Se  Se109  1  0.127635  0.477945  0.228712  1
  Se  Se110  1  0.874513  0.853588  0.677164  1
  Se  Se111  1  0.917416  0.536806  0.175565  1
  Se  Se112  1  0.021464  0.649685  0.563218  1
  Se  Se113  1  0.357761  0.769247  0.204306  1
  Se  Se114  1  0.230753  0.588514  0.537639  1
  Se  Se115  1  0.623142  0.989327  0.011099  1
  Se  Se116  1  0.633647  0.512777  0.229531  1
  Se  Se117  1  0.538070  0.419082  0.396574  1
  Se  Se118  1  0.144083  0.913438  0.703754  1
  Se  Se119  1  0.373036  0.970978  0.065394  1
