# generated using pymatgen
data_S
_symmetry_space_group_name_H-M   'P 1'
_cell_length_a   9.65966852
_cell_length_b   10.06913362
_cell_length_c   11.85470281
_cell_angle_alpha   115.13100381
_cell_angle_beta   101.16570930
_cell_angle_gamma   90.00000446
_symmetry_Int_Tables_number   1
_chemical_formula_structural   S
_chemical_formula_sum   S32
_cell_volume   1019.73459958
_cell_formula_units_Z   32
loop_
 _symmetry_equiv_pos_site_id
 _symmetry_equiv_pos_as_xyz
  1  'x, y, z'
loop_
 _atom_site_type_symbol
 _atom_site_label
 _atom_site_symmetry_multiplicity
 _atom_site_fract_x
 _atom_site_fract_y
 _atom_site_fract_z
 _atom_site_occupancy
  S  S0  1  0.138538  0.034481  0.916469  1
  S  S1  1  0.307196  0.415644  0.926755  1
  S  S2  1  0.042514  0.757921  0.394188  1
  S  S3  1  0.077952  0.561520  0.252230  1
  S  S4  1  0.251310  0.467482  0.307621  1
  S  S5  1  0.313513  0.453595  0.589601  1
  S  S6  1  0.422048  0.809290  0.747770  1
  S  S7  1  0.686487  0.546405  0.410399  1
  S  S8  1  0.751310  0.340139  0.307621  1
  S  S9  1  0.577952  0.190710  0.252230  1
  S  S10  1  0.748690  0.532518  0.692379  1
  S  S11  1  0.361462  0.618012  0.083531  1
  S  S12  1  0.192804  0.988889  0.073245  1
  S  S13  1  0.529450  0.707536  0.044445  1
  S  S14  1  0.861462  0.965519  0.083531  1
  S  S15  1  0.922048  0.438480  0.747770  1
  S  S16  1  0.970550  0.163091  0.955555  1
  S  S17  1  0.638538  0.381988  0.916469  1
  S  S18  1  0.248690  0.659861  0.692379  1
  S  S19  1  0.692804  0.584356  0.073245  1
  S  S20  1  0.690486  0.990655  0.408714  1
  S  S21  1  0.813513  0.636006  0.589601  1
  S  S22  1  0.029450  0.836909  0.044445  1
  S  S23  1  0.186487  0.363994  0.410399  1
  S  S24  1  0.309514  0.009345  0.591286  1
  S  S25  1  0.807196  0.011111  0.926755  1
  S  S26  1  0.542514  0.136268  0.394188  1
  S  S27  1  0.809514  0.081941  0.591286  1
  S  S28  1  0.470550  0.292464  0.955555  1
  S  S29  1  0.457486  0.863732  0.605812  1
  S  S30  1  0.957486  0.242079  0.605812  1
  S  S31  1  0.190486  0.918059  0.408714  1
