# generated using pymatgen
data_Ba2SiS4
_symmetry_space_group_name_H-M   'P 1'
_cell_length_a   6.82581001
_cell_length_b   8.99828107
_cell_length_c   12.40971950
_cell_angle_alpha   90.00000000
_cell_angle_beta   90.00000000
_cell_angle_gamma   90.00000000
_symmetry_Int_Tables_number   1
_chemical_formula_structural   Ba2SiS4
_chemical_formula_sum   'Ba8 Si4 S16'
_cell_volume   762.21188391
_cell_formula_units_Z   4
loop_
 _symmetry_equiv_pos_site_id
 _symmetry_equiv_pos_as_xyz
  1  'x, y, z'
loop_
 _atom_site_type_symbol
 _atom_site_label
 _atom_site_symmetry_multiplicity
 _atom_site_fract_x
 _atom_site_fract_y
 _atom_site_fract_z
 _atom_site_occupancy
  Si  Si0  1  0.250000  0.230531  0.424346  1
  Si  Si1  1  0.250000  0.730531  0.075654  1
  Si  Si2  1  0.750000  0.269469  0.924346  1
  Si  Si3  1  0.750000  0.769469  0.575654  1
  S  S4  1  0.995098  0.823809  0.146240  1
  S  S5  1  0.495098  0.176191  0.853760  1
  S  S6  1  0.504902  0.323809  0.353760  1
  S  S7  1  0.004902  0.676191  0.646240  1
  S  S8  1  0.995098  0.323809  0.353760  1
  S  S9  1  0.004902  0.176191  0.853760  1
  S  S10  1  0.495098  0.676191  0.646240  1
  S  S11  1  0.504902  0.823809  0.146240  1
  S  S12  1  0.750000  0.004254  0.593114  1
  S  S13  1  0.250000  0.995746  0.406886  1
  S  S14  1  0.750000  0.504254  0.906886  1
  S  S15  1  0.250000  0.495746  0.093114  1
  S  S16  1  0.750000  0.690203  0.412709  1
  S  S17  1  0.250000  0.309797  0.587291  1
  S  S18  1  0.750000  0.190203  0.087291  1
  S  S19  1  0.250000  0.809797  0.912709  1
  Ba  Ba20  1  0.250000  0.481800  0.829681  1
  Ba  Ba21  1  0.750000  0.518200  0.170319  1
  Ba  Ba22  1  0.250000  0.981800  0.670319  1
  Ba  Ba23  1  0.750000  0.018200  0.329681  1
  Ba  Ba24  1  0.250000  0.130229  0.078774  1
  Ba  Ba25  1  0.750000  0.869771  0.921226  1
  Ba  Ba26  1  0.250000  0.630229  0.421226  1
  Ba  Ba27  1  0.750000  0.369771  0.578774  1
