# generated using pymatgen
data_Fe2BO4
_symmetry_space_group_name_H-M   'P 1'
_cell_length_a   6.34830208
_cell_length_b   9.47414203
_cell_length_c   9.37163539
_cell_angle_alpha   90.00000000
_cell_angle_beta   90.51438446
_cell_angle_gamma   90.00000000
_symmetry_Int_Tables_number   1
_chemical_formula_structural   Fe2BO4
_chemical_formula_sum   'Fe16 B8 O32'
_cell_volume   563.63162994
_cell_formula_units_Z   8
loop_
 _symmetry_equiv_pos_site_id
 _symmetry_equiv_pos_as_xyz
  1  'x, y, z'
loop_
 _atom_site_type_symbol
 _atom_site_label
 _atom_site_symmetry_multiplicity
 _atom_site_fract_x
 _atom_site_fract_y
 _atom_site_fract_z
 _atom_site_occupancy
  Fe  Fe0  1  0.665159  0.443802  0.493555  1
  Fe  Fe1  1  0.665159  0.556198  0.993555  1
  Fe  Fe2  1  0.413922  0.683805  0.271368  1
  Fe  Fe3  1  0.413922  0.316195  0.771368  1
  Fe  Fe4  1  0.166432  0.813141  0.500750  1
  Fe  Fe5  1  0.166432  0.186859  0.000750  1
  Fe  Fe6  1  0.915452  0.945273  0.786229  1
  Fe  Fe7  1  0.915452  0.054727  0.286229  1
  Fe  Fe8  1  0.165935  0.556408  0.999586  1
  Fe  Fe9  1  0.165935  0.443592  0.499586  1
  Fe  Fe10  1  0.915666  0.680601  0.270096  1
  Fe  Fe11  1  0.915666  0.319399  0.770096  1
  Fe  Fe12  1  0.664880  0.814603  0.505592  1
  Fe  Fe13  1  0.664880  0.185397  0.005592  1
  Fe  Fe14  1  0.414627  0.940800  0.785284  1
  Fe  Fe15  1  0.414627  0.059200  0.285284  1
  B  B16  1  0.156004  0.125638  0.554701  1
  B  B17  1  0.156004  0.874362  0.054701  1
  B  B18  1  0.677245  0.126819  0.553098  1
  B  B19  1  0.677245  0.873181  0.053098  1
  B  B20  1  0.909001  0.375925  0.225803  1
  B  B21  1  0.909001  0.624075  0.725803  1
  B  B22  1  0.421762  0.376190  0.224090  1
  B  B23  1  0.421762  0.623810  0.724090  1
  O  O24  1  0.906084  0.498917  0.145103  1
  O  O25  1  0.906084  0.501083  0.645103  1
  O  O26  1  0.425493  0.379879  0.370057  1
  O  O27  1  0.425493  0.620121  0.870057  1
  O  O28  1  0.663378  0.632528  0.411216  1
  O  O29  1  0.663378  0.367472  0.911216  1
  O  O30  1  0.169670  0.745445  0.120011  1
  O  O31  1  0.169670  0.254555  0.620011  1
  O  O32  1  0.416385  0.755163  0.654615  1
  O  O33  1  0.416385  0.244837  0.154615  1
  O  O34  1  0.913645  0.869038  0.382898  1
  O  O35  1  0.913645  0.130962  0.882898  1
  O  O36  1  0.149269  0.884083  0.908127  1
  O  O37  1  0.149269  0.115917  0.408127  1
  O  O38  1  0.680831  0.000502  0.632911  1
  O  O39  1  0.680831  -0.000502  0.132911  1
  O  O40  1  0.426027  0.500698  0.145458  1
  O  O41  1  0.426027  0.499302  0.645458  1
  O  O42  1  0.903888  0.382078  0.371544  1
  O  O43  1  0.903888  0.617922  0.871544  1
  O  O44  1  0.162086  0.633251  0.407477  1
  O  O45  1  0.162086  0.366749  0.907477  1
  O  O46  1  0.669352  0.743162  0.119091  1
  O  O47  1  0.669352  0.256838  0.619091  1
  O  O48  1  0.914734  0.756728  0.658235  1
  O  O49  1  0.914734  0.243272  0.158235  1
  O  O50  1  0.415699  0.869560  0.388830  1
  O  O51  1  0.415699  0.130440  0.888830  1
  O  O52  1  0.682063  0.882526  0.907407  1
  O  O53  1  0.682063  0.117474  0.407407  1
  O  O54  1  0.148191  -0.001607  0.633500  1
  O  O55  1  0.148191  0.001607  0.133500  1
