# generated using pymatgen
data_NdGaGe2O7
_symmetry_space_group_name_H-M   'P 1'
_cell_length_a   6.67053976
_cell_length_b   7.33698121
_cell_length_c   11.62996446
_cell_angle_alpha   96.43488740
_cell_angle_beta   90.00000000
_cell_angle_gamma   90.00000000
_symmetry_Int_Tables_number   1
_chemical_formula_structural   NdGaGe2O7
_chemical_formula_sum   'Nd4 Ga4 Ge8 O28'
_cell_volume   565.60338612
_cell_formula_units_Z   4
loop_
 _symmetry_equiv_pos_site_id
 _symmetry_equiv_pos_as_xyz
  1  'x, y, z'
loop_
 _atom_site_type_symbol
 _atom_site_label
 _atom_site_symmetry_multiplicity
 _atom_site_fract_x
 _atom_site_fract_y
 _atom_site_fract_z
 _atom_site_occupancy
  Nd  Nd0  1  0.645942  0.736298  0.975205  1
  Nd  Nd1  1  0.145942  0.763702  0.524795  1
  Nd  Nd2  1  0.854058  0.236298  0.475205  1
  Nd  Nd3  1  0.354058  0.263702  0.024795  1
  Ga  Ga4  1  0.398699  0.982304  0.768057  1
  Ga  Ga5  1  0.898699  0.517696  0.731943  1
  Ga  Ga6  1  0.601301  0.017696  0.231943  1
  Ga  Ga7  1  0.101301  0.482304  0.268057  1
  Ge  Ge8  1  0.341899  0.242047  0.455883  1
  Ge  Ge9  1  0.910727  0.079031  0.780240  1
  Ge  Ge10  1  0.158101  0.742047  0.955883  1
  Ge  Ge11  1  0.841899  0.257953  0.044117  1
  Ge  Ge12  1  0.658101  0.757953  0.544117  1
  Ge  Ge13  1  0.089273  0.920969  0.219760  1
  Ge  Ge14  1  0.410727  0.420969  0.719760  1
  Ge  Ge15  1  0.589273  0.579031  0.280240  1
  O  O16  1  0.825928  0.928175  0.519416  1
  O  O17  1  0.375173  0.238402  0.806128  1
  O  O18  1  0.051487  0.336056  0.127997  1
  O  O19  1  0.890852  0.060152  0.279405  1
  O  O20  1  0.109148  0.939848  0.720595  1
  O  O21  1  0.948513  0.663944  0.872003  1
  O  O22  1  0.187214  0.532469  0.685417  1
  O  O23  1  0.312786  0.032469  0.185417  1
  O  O24  1  0.174072  0.071825  0.480584  1
  O  O25  1  0.662365  0.088124  0.079350  1
  O  O26  1  0.551487  0.163944  0.372003  1
  O  O27  1  0.390852  0.439848  0.220595  1
  O  O28  1  0.837635  0.588124  0.579350  1
  O  O29  1  0.124827  0.738402  0.306128  1
  O  O30  1  0.624827  0.761598  0.193872  1
  O  O31  1  0.875173  0.261598  0.693872  1
  O  O32  1  0.812786  0.467531  0.314583  1
  O  O33  1  0.498368  0.325184  0.576548  1
  O  O34  1  0.162365  0.411876  0.420650  1
  O  O35  1  0.337635  0.911876  0.920650  1
  O  O36  1  0.501632  0.674816  0.423452  1
  O  O37  1  0.325928  0.571825  0.980584  1
  O  O38  1  0.998368  0.174816  0.923452  1
  O  O39  1  0.609148  0.560152  0.779405  1
  O  O40  1  0.448513  0.836056  0.627997  1
  O  O41  1  0.674072  0.428175  0.019416  1
  O  O42  1  0.687214  0.967531  0.814583  1
  O  O43  1  0.001632  0.825184  0.076548  1
