# generated using pymatgen
data_C2S3N2
_symmetry_space_group_name_H-M   'P 1'
_cell_length_a   4.60895194
_cell_length_b   10.25677947
_cell_length_c   13.32080891
_cell_angle_alpha   90.00000000
_cell_angle_beta   90.00000000
_cell_angle_gamma   90.00000000
_symmetry_Int_Tables_number   1
_chemical_formula_structural   C2S3N2
_chemical_formula_sum   'C8 S12 N8'
_cell_volume   629.71464804
_cell_formula_units_Z   4
loop_
 _symmetry_equiv_pos_site_id
 _symmetry_equiv_pos_as_xyz
  1  'x, y, z'
loop_
 _atom_site_type_symbol
 _atom_site_label
 _atom_site_symmetry_multiplicity
 _atom_site_fract_x
 _atom_site_fract_y
 _atom_site_fract_z
 _atom_site_occupancy
  S  S0  1  0.470274  0.515172  0.250000  1
  S  S1  1  0.970274  0.984828  0.750000  1
  S  S2  1  0.029726  0.015172  0.250000  1
  S  S3  1  0.529726  0.484828  0.750000  1
  S  S4  1  0.273306  0.433195  0.124668  1
  S  S5  1  0.773306  0.066805  0.875332  1
  S  S6  1  0.226694  0.933195  0.375332  1
  S  S7  1  0.726694  0.566805  0.624668  1
  S  S8  1  0.726694  0.566805  0.875332  1
  S  S9  1  0.226694  0.933195  0.124668  1
  S  S10  1  0.773306  0.066805  0.624668  1
  S  S11  1  0.273306  0.433195  0.375332  1
  C  C12  1  0.473565  0.296587  0.111560  1
  C  C13  1  0.973565  0.203413  0.888440  1
  C  C14  1  0.026435  0.796587  0.388440  1
  C  C15  1  0.526435  0.703413  0.611560  1
  C  C16  1  0.526435  0.703413  0.888440  1
  C  C17  1  0.026435  0.796587  0.111560  1
  C  C18  1  0.973565  0.203413  0.611560  1
  C  C19  1  0.473565  0.296587  0.388440  1
  N  N20  1  0.605369  0.199652  0.100744  1
  N  N21  1  0.105369  0.300348  0.899256  1
  N  N22  1  0.894631  0.699652  0.399256  1
  N  N23  1  0.394631  0.800348  0.600744  1
  N  N24  1  0.394631  0.800348  0.899256  1
  N  N25  1  0.894631  0.699652  0.100744  1
  N  N26  1  0.105369  0.300348  0.600744  1
  N  N27  1  0.605369  0.199652  0.399256  1
