# generated using pymatgen
data_Pr(Al4Co)2
_symmetry_space_group_name_H-M   'P 1'
_cell_length_a   4.05814093
_cell_length_b   12.65853588
_cell_length_c   14.43030706
_cell_angle_alpha   90.00000000
_cell_angle_beta   90.00000000
_cell_angle_gamma   90.00000000
_symmetry_Int_Tables_number   1
_chemical_formula_structural   Pr(Al4Co)2
_chemical_formula_sum   'Pr4 Al32 Co8'
_cell_volume   741.28664237
_cell_formula_units_Z   4
loop_
 _symmetry_equiv_pos_site_id
 _symmetry_equiv_pos_as_xyz
  1  'x, y, z'
loop_
 _atom_site_type_symbol
 _atom_site_label
 _atom_site_symmetry_multiplicity
 _atom_site_fract_x
 _atom_site_fract_y
 _atom_site_fract_z
 _atom_site_occupancy
  Pr  Pr0  1  -0.000000  0.660006  0.681999  1
  Pr  Pr1  1  0.000000  0.160006  0.818001  1
  Pr  Pr2  1  -0.000000  0.339994  0.318001  1
  Pr  Pr3  1  -0.000000  0.839994  0.181999  1
  Al  Al4  1  0.500000  0.168761  0.991624  1
  Al  Al5  1  -0.000000  0.596068  0.247567  1
  Al  Al6  1  0.500000  0.763718  0.828324  1
  Al  Al7  1  0.500000  0.831239  0.008376  1
  Al  Al8  1  0.500000  0.547025  0.820826  1
  Al  Al9  1  0.000000  -0.000000  -0.000000  1
  Al  Al10  1  0.500000  0.974272  0.868960  1
  Al  Al11  1  0.500000  0.452975  0.179174  1
  Al  Al12  1  0.500000  0.841119  0.620040  1
  Al  Al13  1  0.500000  0.736282  0.328324  1
  Al  Al14  1  0.500000  0.952975  0.320826  1
  Al  Al15  1  0.500000  0.025728  0.131040  1
  Al  Al16  1  0.500000  0.236282  0.171676  1
  Al  Al17  1  0.500000  0.668761  0.508376  1
  Al  Al18  1  0.000000  0.403932  0.752433  1
  Al  Al19  1  -0.000000  0.096068  0.252433  1
  Al  Al20  1  0.500000  0.525728  0.368960  1
  Al  Al21  1  0.500000  0.158881  0.379960  1
  Al  Al22  1  0.500000  0.658881  0.120040  1
  Al  Al23  1  0.500000  0.263718  0.671676  1
  Al  Al24  1  0.500000  0.047025  0.679174  1
  Al  Al25  1  0.500000  0.331239  0.491624  1
  Al  Al26  1  -0.000000  0.159087  0.544302  1
  Al  Al27  1  0.000000  0.500000  0.500000  1
  Al  Al28  1  0.000000  0.903932  0.747567  1
  Al  Al29  1  -0.000000  0.840913  0.455698  1
  Al  Al30  1  0.500000  0.341119  0.879960  1
  Al  Al31  1  0.500000  -0.000000  0.500000  1
  Al  Al32  1  0.500000  0.474272  0.631040  1
  Al  Al33  1  0.000000  0.659087  0.955698  1
  Al  Al34  1  0.500000  0.500000  -0.000000  1
  Al  Al35  1  0.000000  0.340913  0.044302  1
  Co  Co36  1  -0.000000  0.965329  0.594429  1
  Co  Co37  1  -0.000000  0.465329  0.905571  1
  Co  Co38  1  0.000000  0.034671  0.405571  1
  Co  Co39  1  -0.000000  0.152716  0.095653  1
  Co  Co40  1  0.000000  0.534671  0.094429  1
  Co  Co41  1  0.000000  0.847284  0.904347  1
  Co  Co42  1  0.000000  0.347284  0.595653  1
  Co  Co43  1  -0.000000  0.652716  0.404347  1
