# generated using pymatgen
data_Mg44Rh7
_symmetry_space_group_name_H-M   'P 1'
_cell_length_a   14.26550128
_cell_length_b   14.26550087
_cell_length_c   14.26550056
_cell_angle_alpha   59.99999840
_cell_angle_beta   59.99999934
_cell_angle_gamma   59.99999996
_symmetry_Int_Tables_number   1
_chemical_formula_structural   Mg44Rh7
_chemical_formula_sum   'Mg88 Rh14'
_cell_volume   2052.79731636
_cell_formula_units_Z   2
loop_
 _symmetry_equiv_pos_site_id
 _symmetry_equiv_pos_as_xyz
  1  'x, y, z'
loop_
 _atom_site_type_symbol
 _atom_site_label
 _atom_site_symmetry_multiplicity
 _atom_site_fract_x
 _atom_site_fract_y
 _atom_site_fract_z
 _atom_site_occupancy
  Mg  Mg0  1  0.480694  0.130153  0.480694  1
  Mg  Mg1  1  0.480694  0.908459  0.480694  1
  Mg  Mg2  1  0.719452  0.089188  0.719452  1
  Mg  Mg3  1  0.561616  0.561616  0.315151  1
  Mg  Mg4  1  0.355805  0.144195  0.355805  1
  Mg  Mg5  1  0.818041  0.181959  0.181959  1
  Mg  Mg6  1  0.908459  0.480694  0.480694  1
  Mg  Mg7  1  0.766934  0.337883  0.337883  1
  Mg  Mg8  1  0.480694  0.908459  0.130153  1
  Mg  Mg9  1  0.000239  0.215092  0.569577  1
  Mg  Mg10  1  0.334347  0.979506  0.706640  1
  Mg  Mg11  1  0.089188  0.719452  0.471907  1
  Mg  Mg12  1  0.480694  0.480694  0.130153  1
  Mg  Mg13  1  0.471907  0.719452  0.719452  1
  Mg  Mg14  1  0.130153  0.480694  0.480694  1
  Mg  Mg15  1  0.215092  0.215092  0.569577  1
  Mg  Mg16  1  0.130153  0.908459  0.480694  1
  Mg  Mg17  1  0.766934  0.337883  0.557300  1
  Mg  Mg18  1  0.181959  0.181959  0.818041  1
  Mg  Mg19  1  0.334347  0.979506  0.979506  1
  Mg  Mg20  1  0.569577  0.215092  0.000239  1
  Mg  Mg21  1  0.215092  0.000239  0.215092  1
  Mg  Mg22  1  0.719452  0.471907  0.719452  1
  Mg  Mg23  1  0.215092  0.215092  0.000239  1
  Mg  Mg24  1  0.000239  0.215092  0.215092  1
  Mg  Mg25  1  0.818041  0.181959  0.818041  1
  Mg  Mg26  1  0.818041  0.818041  0.181959  1
  Mg  Mg27  1  0.979506  0.979506  0.706640  1
  Mg  Mg28  1  0.719452  0.719452  0.471907  1
  Mg  Mg29  1  0.912356  0.695881  0.695881  1
  Mg  Mg30  1  0.215092  0.569577  0.215092  1
  Mg  Mg31  1  0.337883  0.337883  0.766934  1
  Mg  Mg32  1  0.695881  0.912356  0.695881  1
  Mg  Mg33  1  0.979506  0.706640  0.334347  1
  Mg  Mg34  1  0.500015  0.833328  0.833328  1
  Mg  Mg35  1  0.947678  0.947678  0.947678  1
  Mg  Mg36  1  0.908459  0.130153  0.480694  1
  Mg  Mg37  1  0.766934  0.557300  0.337883  1
  Mg  Mg38  1  0.557300  0.337883  0.337883  1
  Mg  Mg39  1  0.089188  0.471907  0.719452  1
  Mg  Mg40  1  0.337883  0.557300  0.766934  1
  Mg  Mg41  1  0.181959  0.818041  0.181959  1
  Mg  Mg42  1  0.334347  0.706640  0.979506  1
  Mg  Mg43  1  0.719452  0.471907  0.089188  1
  Mg  Mg44  1  0.561616  0.561616  0.561616  1
  Mg  Mg45  1  0.833328  0.500015  0.833328  1
  Mg  Mg46  1  0.355805  0.144195  0.144195  1
  Mg  Mg47  1  0.979506  0.334347  0.706640  1
  Mg  Mg48  1  0.557300  0.766934  0.337883  1
  Mg  Mg49  1  0.471907  0.089188  0.719452  1
  Mg  Mg50  1  0.833328  0.833328  0.833328  1
  Mg  Mg51  1  0.979506  0.979506  0.334347  1
  Mg  Mg52  1  0.561616  0.315151  0.561616  1
  Mg  Mg53  1  0.706640  0.979506  0.979506  1
  Mg  Mg54  1  0.480694  0.130153  0.908459  1
  Mg  Mg55  1  0.144195  0.355805  0.144195  1
  Mg  Mg56  1  0.156967  0.947678  0.947678  1
  Mg  Mg57  1  0.355805  0.355805  0.144195  1
  Mg  Mg58  1  0.706640  0.334347  0.979506  1
  Mg  Mg59  1  0.144195  0.144195  0.355805  1
  Mg  Mg60  1  0.130153  0.480694  0.908459  1
  Mg  Mg61  1  0.569577  0.000239  0.215092  1
  Mg  Mg62  1  0.719452  0.719452  0.089188  1
  Mg  Mg63  1  0.215092  0.569577  0.000239  1
  Mg  Mg64  1  0.480694  0.480694  0.908459  1
  Mg  Mg65  1  0.706640  0.979506  0.334347  1
  Mg  Mg66  1  0.337883  0.766934  0.557300  1
  Mg  Mg67  1  0.471907  0.719452  0.089188  1
  Mg  Mg68  1  0.315151  0.561616  0.561616  1
  Mg  Mg69  1  0.181959  0.818041  0.818041  1
  Mg  Mg70  1  0.833328  0.833328  0.500015  1
  Mg  Mg71  1  0.337883  0.337883  0.557300  1
  Mg  Mg72  1  0.557300  0.337883  0.766934  1
  Mg  Mg73  1  0.337883  0.557300  0.337883  1
  Mg  Mg74  1  0.979506  0.334347  0.979506  1
  Mg  Mg75  1  0.569577  0.215092  0.215092  1
  Mg  Mg76  1  0.908459  0.480694  0.130153  1
  Mg  Mg77  1  0.947678  0.947678  0.156967  1
  Mg  Mg78  1  0.695881  0.695881  0.695881  1
  Mg  Mg79  1  0.979506  0.706640  0.979506  1
  Mg  Mg80  1  0.215092  0.000239  0.569577  1
  Mg  Mg81  1  0.089188  0.719452  0.719452  1
  Mg  Mg82  1  0.000239  0.569577  0.215092  1
  Mg  Mg83  1  0.144195  0.355805  0.355805  1
  Mg  Mg84  1  0.947678  0.156967  0.947678  1
  Mg  Mg85  1  0.695881  0.695881  0.912356  1
  Mg  Mg86  1  0.337883  0.766934  0.337883  1
  Mg  Mg87  1  0.719452  0.089188  0.471907  1
  Rh  Rh88  1  0.586769  0.913231  0.586769  1
  Rh  Rh89  1  0.348889  0.953333  0.348889  1
  Rh  Rh90  1  0.082964  0.751107  0.082964  1
  Rh  Rh91  1  0.953333  0.348889  0.348889  1
  Rh  Rh92  1  0.751107  0.082964  0.082964  1
  Rh  Rh93  1  0.586769  0.913231  0.913231  1
  Rh  Rh94  1  0.348889  0.348889  0.348889  1
  Rh  Rh95  1  0.082964  0.082964  0.082964  1
  Rh  Rh96  1  0.913231  0.586769  0.586769  1
  Rh  Rh97  1  0.913231  0.586769  0.913231  1
  Rh  Rh98  1  0.348889  0.348889  0.953333  1
  Rh  Rh99  1  0.082964  0.082964  0.751107  1
  Rh  Rh100  1  0.586769  0.586769  0.913231  1
  Rh  Rh101  1  0.913231  0.913231  0.586769  1
