# generated using pymatgen
data_HoGe2Pt
_symmetry_space_group_name_H-M   'P 1'
_cell_length_a   4.32280795
_cell_length_b   8.76965669
_cell_length_c   9.60115699
_cell_angle_alpha   117.17243328
_cell_angle_beta   103.00850614
_cell_angle_gamma   90.00149628
_symmetry_Int_Tables_number   1
_chemical_formula_structural   HoGe2Pt
_chemical_formula_sum   'Ho4 Ge8 Pt4'
_cell_volume   313.26831250
_cell_formula_units_Z   4
loop_
 _symmetry_equiv_pos_site_id
 _symmetry_equiv_pos_as_xyz
  1  'x, y, z'
loop_
 _atom_site_type_symbol
 _atom_site_label
 _atom_site_symmetry_multiplicity
 _atom_site_fract_x
 _atom_site_fract_y
 _atom_site_fract_z
 _atom_site_occupancy
  Ho  Ho0  1  1.000013  0.735858  -0.000001  1
  Ho  Ho1  1  0.200534  0.700479  0.400971  1
  Ho  Ho2  1  0.799466  0.299521  0.599029  1
  Ho  Ho3  1  -0.000013  0.264142  1.000001  1
  Ge  Ge4  1  0.798604  0.648289  0.597135  1
  Ge  Ge5  1  0.426978  0.926950  0.853892  1
  Ge  Ge6  1  0.201447  0.051142  0.402864  1
  Ge  Ge7  1  0.201396  0.351711  0.402865  1
  Ge  Ge8  1  0.798553  0.948858  0.597136  1
  Ge  Ge9  1  0.425933  0.426096  0.852225  1
  Ge  Ge10  1  0.573022  0.073050  0.146108  1
  Ge  Ge11  1  0.574067  0.573904  0.147775  1
  Pt  Pt12  1  0.647226  0.396426  0.294579  1
  Pt  Pt13  1  0.352774  0.603574  0.705421  1
  Pt  Pt14  1  0.647323  0.898182  0.294607  1
  Pt  Pt15  1  0.352677  0.101818  0.705393  1
