# generated using pymatgen
data_ZnS
_symmetry_space_group_name_H-M   'P 1'
_cell_length_a   3.85201417
_cell_length_b   3.85201406
_cell_length_c   44.10315583
_cell_angle_alpha   90.00000000
_cell_angle_beta   90.00000000
_cell_angle_gamma   120.00000088
_symmetry_Int_Tables_number   1
_chemical_formula_structural   ZnS
_chemical_formula_sum   'Zn14 S14'
_cell_volume   566.72977989
_cell_formula_units_Z   14
loop_
 _symmetry_equiv_pos_site_id
 _symmetry_equiv_pos_as_xyz
  1  'x, y, z'
loop_
 _atom_site_type_symbol
 _atom_site_label
 _atom_site_symmetry_multiplicity
 _atom_site_fract_x
 _atom_site_fract_y
 _atom_site_fract_z
 _atom_site_occupancy
  Zn  Zn0  1  0.666667  0.333333  0.142864  1
  Zn  Zn1  1  0.333333  0.666667  0.785735  1
  Zn  Zn2  1  0.333333  0.666667  0.071433  1
  Zn  Zn3  1  0.666667  0.333333  0.571438  1
  Zn  Zn4  1  0.000000  0.000000  0.214286  1
  Zn  Zn5  1  0.666667  0.333333  0.714304  1
  Zn  Zn6  1  0.333333  0.666667  0.642867  1
  Zn  Zn7  1  0.000000  0.000000  0.357162  1
  Zn  Zn8  1  0.000000  0.000000  0.000020  1
  Zn  Zn9  1  0.666667  0.333333  0.428566  1
  Zn  Zn10  1  0.666667  0.333333  0.928568  1
  Zn  Zn11  1  0.333333  0.666667  0.285713  1
  Zn  Zn12  1  0.333333  0.666667  0.499991  1
  Zn  Zn13  1  0.000000  0.000000  0.857138  1
  S  S14  1  0.666667  0.333333  0.982181  1
  S  S15  1  0.666667  0.333333  0.196428  1
  S  S16  1  0.333333  0.666667  0.339326  1
  S  S17  1  0.333333  0.666667  0.696422  1
  S  S18  1  0.666667  0.333333  0.767897  1
  S  S19  1  0.000000  0.000000  0.910663  1
  S  S20  1  0.000000  0.000000  0.267810  1
  S  S21  1  0.333333  0.666667  0.553564  1
  S  S22  1  0.000000  0.000000  0.410704  1
  S  S23  1  0.000000  0.000000  0.053563  1
  S  S24  1  0.666667  0.333333  0.482091  1
  S  S25  1  0.666667  0.333333  0.624992  1
  S  S26  1  0.333333  0.666667  0.839278  1
  S  S27  1  0.333333  0.666667  0.124995  1
