# generated using pymatgen
data_AgTeO3
_symmetry_space_group_name_H-M   'P 1'
_cell_length_a   6.02456380
_cell_length_b   8.21685392
_cell_length_c   11.82669282
_cell_angle_alpha   90.00000000
_cell_angle_beta   90.00000000
_cell_angle_gamma   100.93502646
_symmetry_Int_Tables_number   1
_chemical_formula_structural   AgTeO3
_chemical_formula_sum   'Ag8 Te8 O24'
_cell_volume   574.82613825
_cell_formula_units_Z   8
loop_
 _symmetry_equiv_pos_site_id
 _symmetry_equiv_pos_as_xyz
  1  'x, y, z'
loop_
 _atom_site_type_symbol
 _atom_site_label
 _atom_site_symmetry_multiplicity
 _atom_site_fract_x
 _atom_site_fract_y
 _atom_site_fract_z
 _atom_site_occupancy
  Ag  Ag0  1  0.848434  0.276565  0.326598  1
  Ag  Ag1  1  0.422939  0.030448  0.354891  1
  Ag  Ag2  1  0.348434  0.776565  0.173402  1
  Ag  Ag3  1  0.077061  0.469552  0.854891  1
  Ag  Ag4  1  0.651566  0.223435  0.826598  1
  Ag  Ag5  1  0.577061  0.969552  0.645109  1
  Ag  Ag6  1  0.922939  0.530448  0.145109  1
  Ag  Ag7  1  0.151566  0.723435  0.673402  1
  Te  Te8  1  0.400351  0.491835  0.376687  1
  Te  Te9  1  0.620259  0.686200  0.924159  1
  Te  Te10  1  0.879741  0.813800  0.424159  1
  Te  Te11  1  0.099649  0.008165  0.876687  1
  Te  Te12  1  0.379741  0.313800  0.075841  1
  Te  Te13  1  0.120259  0.186200  0.575841  1
  Te  Te14  1  0.900351  0.991835  0.123313  1
  Te  Te15  1  0.599649  0.508165  0.623313  1
  O  O16  1  0.284719  0.516248  0.041927  1
  O  O17  1  0.918169  0.775813  0.852903  1
  O  O18  1  0.328186  0.555013  0.537192  1
  O  O19  1  0.828186  0.055013  0.962808  1
  O  O20  1  0.260111  0.236878  0.912315  1
  O  O21  1  0.081831  0.224187  0.147097  1
  O  O22  1  0.853521  0.438671  0.685356  1
  O  O23  1  0.760111  0.736878  0.587685  1
  O  O24  1  0.024487  0.911604  0.258980  1
  O  O25  1  0.239889  0.263122  0.412315  1
  O  O26  1  0.524487  0.411604  0.241020  1
  O  O27  1  0.215281  0.983752  0.541927  1
  O  O28  1  0.715281  0.483752  0.958073  1
  O  O29  1  0.975513  0.088396  0.741020  1
  O  O30  1  0.353521  0.938671  0.814644  1
  O  O31  1  0.171814  0.944987  0.037192  1
  O  O32  1  0.784719  0.016248  0.458073  1
  O  O33  1  0.146479  0.561329  0.314644  1
  O  O34  1  0.581831  0.724187  0.352903  1
  O  O35  1  0.739889  0.763122  0.087685  1
  O  O36  1  0.418169  0.275813  0.647097  1
  O  O37  1  0.646479  0.061329  0.185356  1
  O  O38  1  0.671814  0.444987  0.462808  1
  O  O39  1  0.475513  0.588396  0.758980  1
