# generated using pymatgen
data_Rb3Ta2S11
_symmetry_space_group_name_H-M   'P 1'
_cell_length_a   8.14989396
_cell_length_b   12.01370220
_cell_length_c   19.67654776
_cell_angle_alpha   103.25425324
_cell_angle_beta   90.00000000
_cell_angle_gamma   90.00000000
_symmetry_Int_Tables_number   1
_chemical_formula_structural   Rb3Ta2S11
_chemical_formula_sum   'Rb12 Ta8 S44'
_cell_volume   1875.21997172
_cell_formula_units_Z   4
loop_
 _symmetry_equiv_pos_site_id
 _symmetry_equiv_pos_as_xyz
  1  'x, y, z'
loop_
 _atom_site_type_symbol
 _atom_site_label
 _atom_site_symmetry_multiplicity
 _atom_site_fract_x
 _atom_site_fract_y
 _atom_site_fract_z
 _atom_site_occupancy
  Ta  Ta0  1  0.359100  0.211024  0.662801  1
  Ta  Ta1  1  0.859100  0.788976  0.837199  1
  Ta  Ta2  1  0.640900  0.788976  0.337199  1
  Ta  Ta3  1  0.140900  0.211024  0.162801  1
  Ta  Ta4  1  0.226998  0.303674  0.507964  1
  Ta  Ta5  1  0.726998  0.696326  0.992036  1
  Ta  Ta6  1  0.773002  0.696326  0.492036  1
  Ta  Ta7  1  0.273002  0.303674  0.007964  1
  S  S8  1  0.570411  0.267412  0.735385  1
  S  S9  1  0.070411  0.732588  0.764615  1
  S  S10  1  0.429589  0.732588  0.264615  1
  S  S11  1  0.929589  0.267412  0.235385  1
  S  S12  1  0.278830  0.024871  0.685550  1
  S  S13  1  0.778829  0.975129  0.814450  1
  S  S14  1  0.721171  0.975129  0.314450  1
  S  S15  1  0.221170  0.024871  0.185550  1
  S  S16  1  0.428308  0.016153  0.597979  1
  S  S17  1  0.928308  0.983847  0.902021  1
  S  S18  1  0.571692  0.983847  0.402021  1
  S  S19  1  0.071692  0.016153  0.097979  1
  S  S20  1  0.109000  0.296270  0.721072  1
  S  S21  1  0.609000  0.703730  0.778928  1
  S  S22  1  0.891000  0.703730  0.278928  1
  S  S23  1  0.391000  0.296270  0.221072  1
  S  S24  1  0.226582  0.393588  0.659305  1
  S  S25  1  0.726582  0.606412  0.840695  1
  S  S26  1  0.773418  0.606412  0.340695  1
  S  S27  1  0.273418  0.393588  0.159305  1
  S  S28  1  0.495129  0.245631  0.552265  1
  S  S29  1  0.995129  0.754369  0.947735  1
  S  S30  1  0.504871  0.754369  0.447735  1
  S  S31  1  0.004871  0.245631  0.052265  1
  S  S32  1  0.479475  0.417578  0.547681  1
  S  S33  1  0.979475  0.582422  0.952319  1
  S  S34  1  0.520525  0.582422  0.452319  1
  S  S35  1  0.020525  0.417578  0.047681  1
  S  S36  1  0.130354  0.131760  0.542979  1
  S  S37  1  0.630354  0.868240  0.957021  1
  S  S38  1  0.869646  0.868240  0.457021  1
  S  S39  1  0.369646  0.131760  0.042979  1
  S  S40  1  0.946873  0.249536  0.531701  1
  S  S41  1  0.446873  0.750464  0.968299  1
  S  S42  1  0.053127  0.750464  0.468299  1
  S  S43  1  0.553127  0.249536  0.031701  1
  S  S44  1  0.263545  0.242228  0.392705  1
  S  S45  1  0.763545  0.757772  0.107295  1
  S  S46  1  0.736455  0.757772  0.607295  1
  S  S47  1  0.236455  0.242228  0.892705  1
  S  S48  1  0.124711  0.501607  0.513500  1
  S  S49  1  0.624711  0.498393  0.986500  1
  S  S50  1  0.875289  0.498393  0.486500  1
  S  S51  1  0.375289  0.501607  0.013500  1
  Rb  Rb52  1  0.827011  0.501831  0.659766  1
  Rb  Rb53  1  0.327011  0.498169  0.840234  1
  Rb  Rb54  1  0.172989  0.498169  0.340234  1
  Rb  Rb55  1  0.672989  0.501831  0.159766  1
  Rb  Rb56  1  0.811860  0.268593  0.884955  1
  Rb  Rb57  1  0.311860  0.731407  0.615045  1
  Rb  Rb58  1  0.188140  0.731407  0.115045  1
  Rb  Rb59  1  0.688140  0.268593  0.384955  1
  Rb  Rb60  1  0.843856  0.039709  0.643250  1
  Rb  Rb61  1  0.343856  0.960291  0.856750  1
  Rb  Rb62  1  0.156144  0.960291  0.356750  1
  Rb  Rb63  1  0.656144  0.039709  0.143250  1
