# generated using pymatgen
data_CsBC3NOF9
_symmetry_space_group_name_H-M   'P 1'
_cell_length_a   7.45725170
_cell_length_b   9.31955195
_cell_length_c   15.46279111
_cell_angle_alpha   90.00000000
_cell_angle_beta   90.00000000
_cell_angle_gamma   112.30345464
_symmetry_Int_Tables_number   1
_chemical_formula_structural   CsBC3NOF9
_chemical_formula_sum   'Cs4 B4 C12 N4 O4 F36'
_cell_volume   994.23985831
_cell_formula_units_Z   4
loop_
 _symmetry_equiv_pos_site_id
 _symmetry_equiv_pos_as_xyz
  1  'x, y, z'
loop_
 _atom_site_type_symbol
 _atom_site_label
 _atom_site_symmetry_multiplicity
 _atom_site_fract_x
 _atom_site_fract_y
 _atom_site_fract_z
 _atom_site_occupancy
  Cs  Cs0  1  0.406945  0.307434  0.611524  1
  Cs  Cs1  1  0.093055  0.192566  0.111524  1
  Cs  Cs2  1  0.593055  0.692566  0.388476  1
  Cs  Cs3  1  0.906945  0.807434  0.888476  1
  B  B4  1  0.567087  0.166668  0.908260  1
  B  B5  1  0.932913  0.333332  0.408260  1
  B  B6  1  0.432913  0.833332  0.091740  1
  B  B7  1  0.067087  0.666668  0.591740  1
  C  C8  1  0.874032  0.417391  0.323775  1
  C  C9  1  0.909587  0.742038  0.624051  1
  C  C10  1  0.254110  0.808210  0.547132  1
  C  C11  1  0.745890  0.191790  0.452868  1
  C  C12  1  0.754110  0.308210  0.952868  1
  C  C13  1  0.590413  0.757962  0.124051  1
  C  C14  1  0.125968  0.582609  0.676225  1
  C  C15  1  0.625968  0.082609  0.823775  1
  C  C16  1  0.090413  0.257962  0.375949  1
  C  C17  1  0.374032  0.917391  0.176225  1
  C  C18  1  0.409587  0.242038  0.875949  1
  C  C19  1  0.245890  0.691790  0.047132  1
  N  N20  1  0.955113  0.538571  0.520397  1
  N  N21  1  0.544887  0.961429  0.020397  1
  N  N22  1  0.044887  0.461429  0.479603  1
  N  N23  1  0.455112  0.038571  0.979603  1
  O  O24  1  0.724140  0.992719  0.001113  1
  O  O25  1  0.775860  0.507281  0.501113  1
  O  O26  1  0.224140  0.492719  0.498887  1
  O  O27  1  0.275860  0.007281  0.998887  1
  F  F28  1  0.185342  0.906476  0.180662  1
  F  F29  1  0.904038  0.358374  0.245265  1
  F  F30  1  0.225332  0.546353  0.077821  1
  F  F31  1  0.516595  0.642735  0.185591  1
  F  F32  1  0.814658  0.093524  0.819338  1
  F  F33  1  0.095962  0.641626  0.754735  1
  F  F34  1  0.244984  0.135836  0.837471  1
  F  F35  1  0.755016  0.864164  0.162529  1
  F  F36  1  0.154107  0.189052  0.441404  1
  F  F37  1  0.566286  0.196835  0.441220  1
  F  F38  1  0.595962  0.141626  0.745265  1
  F  F39  1  0.345893  0.310948  0.941404  1
  F  F40  1  0.014219  0.425794  0.680074  1
  F  F41  1  0.933714  0.303165  0.941220  1
  F  F42  1  0.725332  0.046353  0.422179  1
  F  F43  1  0.731701  0.316100  0.041201  1
  F  F44  1  0.514219  0.925794  0.819926  1
  F  F45  1  0.483405  0.357265  0.814409  1
  F  F46  1  0.255016  0.364164  0.337471  1
  F  F47  1  0.274668  0.953647  0.577821  1
  F  F48  1  0.685342  0.406476  0.319338  1
  F  F49  1  0.404038  0.858374  0.254735  1
  F  F50  1  0.485781  0.074206  0.180074  1
  F  F51  1  0.314658  0.593524  0.680662  1
  F  F52  1  0.774668  0.453647  0.922179  1
  F  F53  1  0.744984  0.635836  0.662529  1
  F  F54  1  0.231701  0.816100  0.458799  1
  F  F55  1  0.985781  0.574206  0.319926  1
  F  F56  1  0.433714  0.803165  0.558780  1
  F  F57  1  0.066286  0.696835  0.058780  1
  F  F58  1  0.016595  0.142735  0.314409  1
  F  F59  1  0.268299  0.683900  0.958799  1
  F  F60  1  0.654107  0.689052  0.058596  1
  F  F61  1  0.845893  0.810948  0.558596  1
  F  F62  1  0.768299  0.183900  0.541201  1
  F  F63  1  0.983405  0.857265  0.685591  1
