# generated using pymatgen
data_NbCl3O
_symmetry_space_group_name_H-M   'P 1'
_cell_length_a   4.00107222
_cell_length_b   11.50113489
_cell_length_c   11.50113489
_cell_angle_alpha   90.00000000
_cell_angle_beta   90.00000000
_cell_angle_gamma   90.00000000
_symmetry_Int_Tables_number   1
_chemical_formula_structural   NbCl3O
_chemical_formula_sum   'Nb4 Cl12 O4'
_cell_volume   529.24624412
_cell_formula_units_Z   4
loop_
 _symmetry_equiv_pos_site_id
 _symmetry_equiv_pos_as_xyz
  1  'x, y, z'
loop_
 _atom_site_type_symbol
 _atom_site_label
 _atom_site_symmetry_multiplicity
 _atom_site_fract_x
 _atom_site_fract_y
 _atom_site_fract_z
 _atom_site_occupancy
  Nb  Nb0  1  0.695566  0.623008  0.123008  1
  Nb  Nb1  1  0.304434  0.123008  0.376992  1
  Nb  Nb2  1  0.695566  0.376992  0.876992  1
  Nb  Nb3  1  0.304434  0.876992  0.623008  1
  Cl  Cl4  1  0.237760  0.098358  0.598358  1
  Cl  Cl5  1  0.754891  0.820665  0.100402  1
  Cl  Cl6  1  0.754891  0.179335  0.899598  1
  Cl  Cl7  1  0.762240  0.401642  0.098358  1
  Cl  Cl8  1  0.237760  0.901642  0.401642  1
  Cl  Cl9  1  0.754891  0.600402  0.320665  1
  Cl  Cl10  1  0.754891  0.399598  0.679335  1
  Cl  Cl11  1  0.245109  0.899598  0.820665  1
  Cl  Cl12  1  0.762240  0.598358  0.901642  1
  Cl  Cl13  1  0.245109  0.679335  0.600402  1
  Cl  Cl14  1  0.245109  0.320665  0.399598  1
  Cl  Cl15  1  0.245109  0.100402  0.179335  1
  O  O16  1  0.752347  0.114818  0.385182  1
  O  O17  1  0.247653  0.614818  0.114818  1
  O  O18  1  0.247653  0.385182  0.885182  1
  O  O19  1  0.752347  0.885182  0.614818  1
