# generated using pymatgen
data_Ba2NiOsO6
_symmetry_space_group_name_H-M   'P 1'
_cell_length_a   5.80591237
_cell_length_b   5.81435104
_cell_length_c   14.26329348
_cell_angle_alpha   90.09192592
_cell_angle_beta   90.01187813
_cell_angle_gamma   119.94746259
_symmetry_Int_Tables_number   1
_chemical_formula_structural   Ba2NiOsO6
_chemical_formula_sum   'Ba6 Ni3 Os3 O18'
_cell_volume   417.20643154
_cell_formula_units_Z   3
loop_
 _symmetry_equiv_pos_site_id
 _symmetry_equiv_pos_as_xyz
  1  'x, y, z'
loop_
 _atom_site_type_symbol
 _atom_site_label
 _atom_site_symmetry_multiplicity
 _atom_site_fract_x
 _atom_site_fract_y
 _atom_site_fract_z
 _atom_site_occupancy
  Ba  Ba0  1  0.999711  0.999311  0.249607  1
  Ba  Ba1  1  -0.000013  0.999861  0.750457  1
  Ba  Ba2  1  0.333472  0.667063  0.090346  1
  Ba  Ba3  1  0.666777  0.333601  0.910108  1
  Ba  Ba4  1  0.333502  0.667060  0.403249  1
  Ba  Ba5  1  0.666531  0.333084  0.596452  1
  Ni  Ni6  1  0.999780  0.999520  0.000071  1
  Ni  Ni7  1  0.333330  0.666535  0.651305  1
  Ni  Ni8  1  0.666021  0.331756  0.348586  1
  Os  Os9  1  0.999938  0.999885  0.500101  1
  Os  Os10  1  0.333288  0.666446  0.841105  1
  Os  Os11  1  0.666651  0.333319  0.158916  1
  O  O12  1  0.514864  0.485886  0.245205  1
  O  O13  1  0.513244  0.026638  0.245172  1
  O  O14  1  0.971457  0.486350  0.245228  1
  O  O15  1  0.027870  0.514057  0.754720  1
  O  O16  1  0.485612  0.971075  0.755199  1
  O  O17  1  0.486234  0.514087  0.754734  1
  O  O18  1  0.827427  0.172691  0.083717  1
  O  O19  1  0.828467  0.657096  0.083563  1
  O  O20  1  0.344787  0.172237  0.083687  1
  O  O21  1  0.655786  0.828119  0.916498  1
  O  O22  1  0.172548  0.344955  0.916258  1
  O  O23  1  0.172271  0.828041  0.916409  1
  O  O24  1  0.840497  0.158404  0.422223  1
  O  O25  1  0.841986  0.684111  0.421374  1
  O  O26  1  0.317597  0.158231  0.422156  1
  O  O27  1  0.682024  0.841513  0.577787  1
  O  O28  1  0.158769  0.317483  0.577955  1
  O  O29  1  0.159571  0.841587  0.577811  1
