# generated using pymatgen
data_CoF3
_symmetry_space_group_name_H-M   'P 1'
_cell_length_a   5.35612947
_cell_length_b   5.35612947
_cell_length_c   5.35612947
_cell_angle_alpha   57.09422091
_cell_angle_beta   57.09422092
_cell_angle_gamma   57.09422091
_symmetry_Int_Tables_number   1
_chemical_formula_structural   CoF3
_chemical_formula_sum   'Co2 F6'
_cell_volume   101.37576988
_cell_formula_units_Z   2
loop_
 _symmetry_equiv_pos_site_id
 _symmetry_equiv_pos_as_xyz
  1  'x, y, z'
loop_
 _atom_site_type_symbol
 _atom_site_label
 _atom_site_symmetry_multiplicity
 _atom_site_fract_x
 _atom_site_fract_y
 _atom_site_fract_z
 _atom_site_occupancy
  F  F0  1  0.358756  0.750000  0.141244  1
  F  F1  1  0.750000  0.141244  0.358756  1
  F  F2  1  0.858756  0.641244  0.250000  1
  F  F3  1  0.250000  0.858756  0.641244  1
  F  F4  1  0.641244  0.250000  0.858756  1
  F  F5  1  0.141244  0.358756  0.750000  1
  Co  Co6  1  0.500000  0.500000  0.500000  1
  Co  Co7  1  0.000000  0.000000  0.000000  1
