# generated using pymatgen
data_RbZn4(BO3)3
_symmetry_space_group_name_H-M   'P 1'
_cell_length_a   5.06228893
_cell_length_b   6.97993492
_cell_length_c   12.91963352
_cell_angle_alpha   93.08277799
_cell_angle_beta   90.00000000
_cell_angle_gamma   90.00000000
_symmetry_Int_Tables_number   1
_chemical_formula_structural   RbZn4(BO3)3
_chemical_formula_sum   'Rb2 Zn8 B6 O18'
_cell_volume   455.84748768
_cell_formula_units_Z   2
loop_
 _symmetry_equiv_pos_site_id
 _symmetry_equiv_pos_as_xyz
  1  'x, y, z'
loop_
 _atom_site_type_symbol
 _atom_site_label
 _atom_site_symmetry_multiplicity
 _atom_site_fract_x
 _atom_site_fract_y
 _atom_site_fract_z
 _atom_site_occupancy
  Rb  Rb0  1  0.276331  0.000000  0.750000  1
  Rb  Rb1  1  0.723669  0.000000  0.250000  1
  Zn  Zn2  1  0.350069  0.511544  0.875370  1
  Zn  Zn3  1  0.350069  0.488456  0.624630  1
  Zn  Zn4  1  0.649931  0.488456  0.124630  1
  Zn  Zn5  1  0.649931  0.511544  0.375370  1
  Zn  Zn6  1  0.832875  0.791496  0.939198  1
  Zn  Zn7  1  0.832875  0.208504  0.560802  1
  Zn  Zn8  1  0.167125  0.208504  0.060802  1
  Zn  Zn9  1  0.167125  0.791496  0.439198  1
  B  B10  1  0.845106  0.500000  0.750000  1
  B  B11  1  0.154894  0.500000  0.250000  1
  B  B12  1  0.654823  0.809932  0.546003  1
  B  B13  1  0.654823  0.190068  0.953997  1
  B  B14  1  0.345177  0.190068  0.453997  1
  B  B15  1  0.345177  0.809932  0.046003  1
  O  O16  1  0.120577  0.500000  0.750000  1
  O  O17  1  0.879423  0.500000  0.250000  1
  O  O18  1  0.202535  0.724990  0.962798  1
  O  O19  1  0.202535  0.275010  0.537202  1
  O  O20  1  0.797465  0.275010  0.037202  1
  O  O21  1  0.797465  0.724990  0.462798  1
  O  O22  1  0.707823  0.593665  0.830361  1
  O  O23  1  0.707823  0.406335  0.669639  1
  O  O24  1  0.292177  0.406335  0.169639  1
  O  O25  1  0.292177  0.593665  0.330361  1
  O  O26  1  0.397406  0.736723  0.561793  1
  O  O27  1  0.397406  0.263277  0.938207  1
  O  O28  1  0.602594  0.263277  0.438207  1
  O  O29  1  0.602594  0.736723  0.061793  1
  O  O30  1  0.752066  0.956730  0.607397  1
  O  O31  1  0.752066  0.043270  0.892603  1
  O  O32  1  0.247934  0.043270  0.392603  1
  O  O33  1  0.247934  0.956730  0.107397  1
