# generated using pymatgen
data_H12Pd(N5O4)2
_symmetry_space_group_name_H-M   'P 1'
_cell_length_a   7.06901987
_cell_length_b   7.56417796
_cell_length_c   7.56632104
_cell_angle_alpha   97.03050691
_cell_angle_beta   117.65810287
_cell_angle_gamma   109.71553680
_symmetry_Int_Tables_number   1
_chemical_formula_structural   H12Pd(N5O4)2
_chemical_formula_sum   'H12 Pd1 N10 O8'
_cell_volume   317.89961343
_cell_formula_units_Z   1
loop_
 _symmetry_equiv_pos_site_id
 _symmetry_equiv_pos_as_xyz
  1  'x, y, z'
loop_
 _atom_site_type_symbol
 _atom_site_label
 _atom_site_symmetry_multiplicity
 _atom_site_fract_x
 _atom_site_fract_y
 _atom_site_fract_z
 _atom_site_occupancy
  H  H0  1  0.221279  0.792992  0.962472  1
  H  H1  1  0.828861  0.207714  0.770566  1
  H  H2  1  0.781151  0.063012  0.184659  1
  H  H3  1  0.975045  0.728548  0.727728  1
  H  H4  1  0.822930  0.030058  0.615726  1
  H  H5  1  0.218849  0.936988  0.815341  1
  Pd  Pd6  1  1.000000  1.000000  -0.000000  1
  H  H7  1  0.024955  0.271452  0.272272  1
  H  H8  1  0.171139  0.792286  0.229434  1
  H  H9  1  0.921121  0.768117  0.209992  1
  H  H10  1  0.177070  0.969942  0.384274  1
  H  H11  1  0.078879  0.231883  0.790008  1
  H  H12  1  0.778721  0.207008  0.037528  1
  N  N13  1  0.117333  0.846839  0.860671  1
  N  N14  1  0.317108  0.369933  0.622049  1
  N  N15  1  0.922728  0.130980  0.766779  1
  N  N16  1  0.370914  0.572336  0.681698  1
  N  N17  1  0.503685  0.674402  0.258698  1
  N  N18  1  0.682892  0.630067  0.377951  1
  N  N19  1  0.629087  0.427664  0.318303  1
  N  N20  1  0.882667  0.153161  0.139329  1
  N  N21  1  0.077272  0.869020  0.233221  1
  N  N22  1  0.496315  0.325598  0.741302  1
  O  O23  1  0.745571  0.379785  0.470279  1
  O  O24  1  0.429548  0.138942  0.701730  1
  O  O25  1  0.290171  0.551135  0.132148  1
  O  O26  1  0.709829  0.448865  0.867852  1
  O  O27  1  0.496003  0.315630  0.131439  1
  O  O28  1  0.570452  0.861058  0.298270  1
  O  O29  1  0.254429  0.620215  0.529721  1
  O  O30  1  0.503997  0.684370  0.868561  1
