# generated using pymatgen
data_V3S4
_symmetry_space_group_name_H-M   'P 1'
_cell_length_a   3.04969278
_cell_length_b   6.29227453
_cell_length_c   11.90379903
_cell_angle_alpha   95.08671094
_cell_angle_beta   82.64033454
_cell_angle_gamma   75.97552949
_symmetry_Int_Tables_number   1
_chemical_formula_structural   V3S4
_chemical_formula_sum   'V6 S8'
_cell_volume   218.08574199
_cell_formula_units_Z   2
loop_
 _symmetry_equiv_pos_site_id
 _symmetry_equiv_pos_as_xyz
  1  'x, y, z'
loop_
 _atom_site_type_symbol
 _atom_site_label
 _atom_site_symmetry_multiplicity
 _atom_site_fract_x
 _atom_site_fract_y
 _atom_site_fract_z
 _atom_site_occupancy
  V  V0  1  0.909773  0.950565  0.229889  1
  V  V1  1  0.908932  0.451389  0.730748  1
  V  V2  1  0.090574  0.549575  0.269277  1
  V  V3  1  0.091013  0.048259  0.769714  1
  V  V4  1  0.998095  0.004613  0.999196  1
  V  V5  1  0.001825  0.495590  0.500760  1
  S  S6  1  0.410402  0.807539  0.371657  1
  S  S7  1  0.410652  0.305772  0.872924  1
  S  S8  1  0.589852  0.692710  0.127585  1
  S  S9  1  0.589067  0.193800  0.628066  1
  S  S10  1  0.336992  0.187740  0.138276  1
  S  S11  1  0.338354  0.685421  0.637871  1
  S  S12  1  0.662788  0.312889  0.361534  1
  S  S13  1  0.661680  0.814138  0.862501  1
