# generated using pymatgen
data_K3SnIrCl8
_symmetry_space_group_name_H-M   'P 1'
_cell_length_a   8.04873293
_cell_length_b   9.73492023
_cell_length_c   9.68592083
_cell_angle_alpha   90.00000000
_cell_angle_beta   90.00000000
_cell_angle_gamma   90.00000000
_symmetry_Int_Tables_number   1
_chemical_formula_structural   K3SnIrCl8
_chemical_formula_sum   'K6 Sn2 Ir2 Cl16'
_cell_volume   758.92844226
_cell_formula_units_Z   2
loop_
 _symmetry_equiv_pos_site_id
 _symmetry_equiv_pos_as_xyz
  1  'x, y, z'
loop_
 _atom_site_type_symbol
 _atom_site_label
 _atom_site_symmetry_multiplicity
 _atom_site_fract_x
 _atom_site_fract_y
 _atom_site_fract_z
 _atom_site_occupancy
  K  K0  1  0.065180  0.626646  0.758981  1
  K  K1  1  0.565180  0.373354  0.741019  1
  K  K2  1  0.065180  0.626646  0.241019  1
  K  K3  1  0.996519  0.137776  0.000000  1
  K  K4  1  0.496519  0.862224  0.500000  1
  K  K5  1  0.565180  0.373354  0.258981  1
  Sn  Sn6  1  0.479515  0.903952  0.000000  1
  Sn  Sn7  1  0.979515  0.096048  0.500000  1
  Ir  Ir8  1  0.158533  0.310495  0.500000  1
  Ir  Ir9  1  0.658533  0.689505  0.000000  1
  Cl  Cl10  1  0.413834  0.188437  0.500000  1
  Cl  Cl11  1  0.784356  0.066913  0.312210  1
  Cl  Cl12  1  0.284356  0.933087  0.812210  1
  Cl  Cl13  1  0.817350  0.474099  0.000000  1
  Cl  Cl14  1  0.317350  0.525901  0.500000  1
  Cl  Cl15  1  0.163621  0.313794  0.253648  1
  Cl  Cl16  1  0.913834  0.811563  0.000000  1
  Cl  Cl17  1  0.902988  0.437403  0.500000  1
  Cl  Cl18  1  0.284356  0.933087  0.187790  1
  Cl  Cl19  1  0.573747  0.143182  0.000000  1
  Cl  Cl20  1  0.784356  0.066913  0.687790  1
  Cl  Cl21  1  0.402988  0.562597  0.000000  1
  Cl  Cl22  1  0.073747  0.856818  0.500000  1
  Cl  Cl23  1  0.163621  0.313794  0.746352  1
  Cl  Cl24  1  0.663621  0.686206  0.246352  1
  Cl  Cl25  1  0.663621  0.686206  0.753648  1
