# generated using pymatgen
data_MnP4O11
_symmetry_space_group_name_H-M   'P 1'
_cell_length_a   8.43457162
_cell_length_b   8.68579074
_cell_length_c   12.71020090
_cell_angle_alpha   90.00000000
_cell_angle_beta   90.00000000
_cell_angle_gamma   94.85126130
_symmetry_Int_Tables_number   1
_chemical_formula_structural   MnP4O11
_chemical_formula_sum   'Mn4 P16 O44'
_cell_volume   927.82526810
_cell_formula_units_Z   4
loop_
 _symmetry_equiv_pos_site_id
 _symmetry_equiv_pos_as_xyz
  1  'x, y, z'
loop_
 _atom_site_type_symbol
 _atom_site_label
 _atom_site_symmetry_multiplicity
 _atom_site_fract_x
 _atom_site_fract_y
 _atom_site_fract_z
 _atom_site_occupancy
  Mn  Mn0  1  0.771034  0.763664  0.467169  1
  Mn  Mn1  1  0.271034  0.263664  0.032831  1
  Mn  Mn2  1  0.228966  0.236336  0.532831  1
  Mn  Mn3  1  0.728966  0.736336  0.967169  1
  P  P4  1  0.247337  0.896940  0.153848  1
  P  P5  1  0.617949  0.266465  0.664929  1
  P  P6  1  0.882051  0.233535  0.164929  1
  P  P7  1  0.397050  0.398449  0.290182  1
  P  P8  1  0.818744  0.162033  0.496268  1
  P  P9  1  0.318744  0.662033  0.003732  1
  P  P10  1  0.252663  0.603060  0.653848  1
  P  P11  1  0.681256  0.337967  0.996268  1
  P  P12  1  0.602950  0.601551  0.709818  1
  P  P13  1  0.897050  0.898449  0.209818  1
  P  P14  1  0.752663  0.103060  0.846152  1
  P  P15  1  0.747337  0.396940  0.346152  1
  P  P16  1  0.382051  0.733535  0.335071  1
  P  P17  1  0.117949  0.766465  0.835071  1
  P  P18  1  0.102950  0.101551  0.790182  1
  P  P19  1  0.181256  0.837967  0.503732  1
  O  O20  1  0.371230  0.862548  0.245595  1
  O  O21  1  0.511382  0.294647  0.970818  1
  O  O22  1  0.251958  0.998590  0.487602  1
  O  O23  1  0.842331  0.814537  0.305916  1
  O  O24  1  0.342331  0.314537  0.194084  1
  O  O25  1  0.708032  0.237940  0.405472  1
  O  O26  1  0.592699  0.422109  0.282182  1
  O  O27  1  0.310849  0.025949  0.087328  1
  O  O28  1  0.151421  0.150696  0.898039  1
  O  O29  1  0.628770  0.137452  0.754405  1
  O  O30  1  0.248042  0.501410  0.987602  1
  O  O31  1  0.970623  0.742036  0.896182  1
  O  O32  1  0.092699  0.922109  0.217818  1
  O  O33  1  0.208032  0.737940  0.094528  1
  O  O34  1  0.810849  0.525949  0.412672  1
  O  O35  1  0.357763  0.578857  0.270083  1
  O  O36  1  0.857763  0.078857  0.229917  1
  O  O37  1  0.470623  0.242036  0.603818  1
  O  O38  1  0.348579  0.349304  0.398039  1
  O  O39  1  0.189151  0.474051  0.587328  1
  O  O40  1  0.988618  0.205353  0.470818  1
  O  O41  1  0.777593  0.266428  0.599688  1
  O  O42  1  0.848579  0.849304  0.101961  1
  O  O43  1  0.488618  0.705353  0.029182  1
  O  O44  1  0.407301  0.577891  0.717818  1
  O  O45  1  0.722407  0.233572  0.099688  1
  O  O46  1  0.748042  0.001410  0.512398  1
  O  O47  1  0.751958  0.498590  0.012398  1
  O  O48  1  0.871230  0.362548  0.254405  1
  O  O49  1  0.222407  0.733572  0.400312  1
  O  O50  1  0.529377  0.757964  0.396182  1
  O  O51  1  0.157669  0.185463  0.694084  1
  O  O52  1  0.029377  0.257964  0.103818  1
  O  O53  1  0.907301  0.077891  0.782182  1
  O  O54  1  0.651421  0.650696  0.601961  1
  O  O55  1  0.277593  0.766428  0.900312  1
  O  O56  1  0.291968  0.762060  0.594528  1
  O  O57  1  0.011382  0.794647  0.529182  1
  O  O58  1  0.791968  0.262060  0.905472  1
  O  O59  1  0.689151  0.974051  0.912672  1
  O  O60  1  0.657669  0.685463  0.805916  1
  O  O61  1  0.142237  0.921143  0.770083  1
  O  O62  1  0.642237  0.421143  0.729917  1
  O  O63  1  0.128770  0.637452  0.745595  1
