# generated using pymatgen
data_Si3PH27C9BrN2
_symmetry_space_group_name_H-M   'P 1'
_cell_length_a   9.20509958
_cell_length_b   9.74866427
_cell_length_c   12.67255359
_cell_angle_alpha   76.26109783
_cell_angle_beta   81.31903378
_cell_angle_gamma   62.87677231
_symmetry_Int_Tables_number   1
_chemical_formula_structural   Si3PH27C9BrN2
_chemical_formula_sum   'Si6 P2 H54 C18 Br2 N4'
_cell_volume   981.98528097
_cell_formula_units_Z   2
loop_
 _symmetry_equiv_pos_site_id
 _symmetry_equiv_pos_as_xyz
  1  'x, y, z'
loop_
 _atom_site_type_symbol
 _atom_site_label
 _atom_site_symmetry_multiplicity
 _atom_site_fract_x
 _atom_site_fract_y
 _atom_site_fract_z
 _atom_site_occupancy
  Si  Si0  1  0.211006  0.016888  0.766398  1
  Si  Si1  1  0.116599  0.552049  0.205410  1
  Si  Si2  1  0.230239  0.727022  0.333624  1
  Si  Si3  1  0.788994  0.983112  0.233602  1
  Si  Si4  1  0.883401  0.447951  0.794590  1
  Si  Si5  1  0.769761  0.272978  0.666376  1
  P  P6  1  0.098735  0.918863  0.062453  1
  P  P7  1  0.901265  0.081137  0.937547  1
  H  H8  1  0.255673  0.404706  0.056746  1
  H  H9  1  0.626300  0.508534  0.912339  1
  H  H10  1  0.850779  0.618576  0.607107  1
  H  H11  1  0.961233  0.033545  0.589195  1
  H  H12  1  0.368500  0.752943  0.725582  1
  H  H13  1  0.842004  0.186814  0.291026  1
  H  H14  1  0.785893  0.754956  0.373797  1
  H  H15  1  0.149221  0.381424  0.392893  1
  H  H16  1  0.147885  0.134552  0.569277  1
  H  H17  1  0.152042  0.017438  0.294204  1
  H  H18  1  0.655616  0.652611  0.673507  1
  H  H19  1  0.642242  0.938660  0.406653  1
  H  H20  1  0.344384  0.347389  0.326493  1
  H  H21  1  0.373700  0.491466  0.087661  1
  H  H22  1  0.443660  0.741806  0.190485  1
  H  H23  1  0.495123  0.925691  0.806803  1
  H  H24  1  0.556340  0.258194  0.809515  1
  H  H25  1  0.319764  0.600863  0.519622  1
  H  H26  1  0.374826  0.103823  0.854583  1
  H  H27  1  0.717079  0.530870  0.534962  1
  H  H28  1  0.282921  0.469130  0.465038  1
  H  H29  1  0.752453  0.082260  0.580416  1
  H  H30  1  0.221696  0.273865  0.285985  1
  H  H31  1  0.377746  0.924631  0.931008  1
  H  H32  1  0.157996  0.813186  0.708974  1
  H  H33  1  0.847958  0.982562  0.705796  1
  H  H34  1  0.835642  0.575881  0.265795  1
  H  H35  1  0.928060  0.458338  0.165156  1
  H  H36  1  0.504877  0.074309  0.193197  1
  H  H37  1  0.235189  0.745495  0.841047  1
  H  H38  1  0.200382  0.607157  0.007235  1
  H  H39  1  0.503458  0.456309  0.745610  1
  H  H40  1  0.842186  0.665525  0.126077  1
  H  H41  1  0.214107  0.245044  0.626203  1
  H  H42  1  0.625174  0.896177  0.145417  1
  H  H43  1  0.799618  0.392843  0.992765  1
  H  H44  1  0.071940  0.541662  0.834844  1
  H  H45  1  0.157814  0.334475  0.873923  1
  H  H46  1  0.778304  0.726135  0.714015  1
  H  H47  1  0.680236  0.399137  0.480378  1
  H  H48  1  0.116266  0.630543  0.512248  1
  H  H49  1  0.038767  0.966455  0.410805  1
  H  H50  1  0.764811  0.254505  0.158953  1
  H  H51  1  0.474823  0.330920  0.678308  1
  H  H52  1  0.631500  0.247057  0.274418  1
  H  H53  1  0.852115  0.865448  0.430723  1
  H  H54  1  0.883734  0.369457  0.487752  1
  H  H55  1  0.164358  0.424119  0.734205  1
  H  H56  1  0.496542  0.543691  0.254390  1
  H  H57  1  0.744327  0.595294  0.943254  1
  H  H58  1  0.525177  0.669080  0.321692  1
  H  H59  1  0.622254  0.075369  0.068992  1
  H  H60  1  0.247547  0.917740  0.419584  1
  H  H61  1  0.357758  0.061340  0.593347  1
  C  C62  1  0.622096  0.007769  0.151656  1
  C  C63  1  0.158147  0.926989  0.366202  1
  C  C64  1  0.762822  0.407050  0.530680  1
  C  C65  1  0.248691  0.511333  0.077199  1
  C  C66  1  0.910654  0.566360  0.189291  1
  C  C67  1  0.756340  0.185923  0.239991  1
  C  C68  1  0.556735  0.335704  0.730811  1
  C  C69  1  0.767653  0.874188  0.374199  1
  C  C70  1  0.232347  0.125812  0.625801  1
  C  C71  1  0.089346  0.433640  0.810709  1
  C  C72  1  0.377904  0.992231  0.848344  1
  C  C73  1  0.237178  0.592950  0.469320  1
  C  C74  1  0.782047  0.625895  0.685890  1
  C  C75  1  0.443265  0.664296  0.269189  1
  C  C76  1  0.217953  0.374105  0.314110  1
  C  C77  1  0.243660  0.814077  0.760009  1
  C  C78  1  0.751309  0.488667  0.922801  1
  C  C79  1  0.841853  0.073011  0.633798  1
  Br  Br80  1  0.133563  0.137872  0.082127  1
  Br  Br81  1  0.866437  0.862128  0.917873  1
  N  N82  1  0.007100  0.126812  0.823931  1
  N  N83  1  0.902535  0.275993  0.754640  1
  N  N84  1  0.992900  0.873188  0.176069  1
  N  N85  1  0.097465  0.724007  0.245360  1
