# generated using pymatgen
data_SrAg
_symmetry_space_group_name_H-M   'P 1'
_cell_length_a   4.84330253
_cell_length_b   6.42338372
_cell_length_c   41.56685435
_cell_angle_alpha   90.00000000
_cell_angle_beta   90.00000000
_cell_angle_gamma   90.00000000
_symmetry_Int_Tables_number   1
_chemical_formula_structural   SrAg
_chemical_formula_sum   'Sr20 Ag20'
_cell_volume   1293.16107577
_cell_formula_units_Z   20
loop_
 _symmetry_equiv_pos_site_id
 _symmetry_equiv_pos_as_xyz
  1  'x, y, z'
loop_
 _atom_site_type_symbol
 _atom_site_label
 _atom_site_symmetry_multiplicity
 _atom_site_fract_x
 _atom_site_fract_y
 _atom_site_fract_z
 _atom_site_occupancy
  Sr  Sr0  1  0.750000  0.866564  0.636078  1
  Sr  Sr1  1  0.750000  0.626639  0.336075  1
  Sr  Sr2  1  0.750000  0.632695  0.936003  1
  Sr  Sr3  1  0.750000  0.873361  0.836075  1
  Sr  Sr4  1  0.250000  0.133436  0.363922  1
  Sr  Sr5  1  0.250000  0.892576  0.264113  1
  Sr  Sr6  1  0.250000  0.132553  0.964070  1
  Sr  Sr7  1  0.250000  0.366564  0.863922  1
  Sr  Sr8  1  0.750000  0.392576  0.235887  1
  Sr  Sr9  1  0.250000  0.132695  0.563997  1
  Sr  Sr10  1  0.750000  0.867305  0.436003  1
  Sr  Sr11  1  0.250000  0.126639  0.163925  1
  Sr  Sr12  1  0.750000  0.633436  0.136078  1
  Sr  Sr13  1  0.250000  0.367305  0.063996  1
  Sr  Sr14  1  0.750000  0.632553  0.535930  1
  Sr  Sr15  1  0.750000  0.107424  0.735887  1
  Sr  Sr16  1  0.250000  0.373361  0.663925  1
  Sr  Sr17  1  0.250000  0.367447  0.464070  1
  Sr  Sr18  1  0.750000  0.867447  0.035930  1
  Sr  Sr19  1  0.250000  0.607424  0.764113  1
  Ag  Ag20  1  0.750000  0.376850  0.606926  1
  Ag  Ag21  1  0.250000  0.876705  0.493015  1
  Ag  Ag22  1  0.750000  0.136852  0.306975  1
  Ag  Ag23  1  0.750000  0.123295  0.506985  1
  Ag  Ag24  1  0.750000  0.616432  0.707163  1
  Ag  Ag25  1  0.250000  0.623909  0.592841  1
  Ag  Ag26  1  0.750000  0.363148  0.806975  1
  Ag  Ag27  1  0.250000  0.623295  0.993015  1
  Ag  Ag28  1  0.250000  0.383568  0.292837  1
  Ag  Ag29  1  0.750000  0.376091  0.407159  1
  Ag  Ag30  1  0.250000  0.876850  0.893074  1
  Ag  Ag31  1  0.750000  0.883568  0.207163  1
  Ag  Ag32  1  0.250000  0.116432  0.792837  1
  Ag  Ag33  1  0.750000  0.123909  0.907159  1
  Ag  Ag34  1  0.750000  0.376705  0.006985  1
  Ag  Ag35  1  0.750000  0.123150  0.106926  1
  Ag  Ag36  1  0.250000  0.863148  0.693025  1
  Ag  Ag37  1  0.250000  0.876091  0.092841  1
  Ag  Ag38  1  0.250000  0.623150  0.393074  1
  Ag  Ag39  1  0.250000  0.636852  0.193025  1
