# generated using pymatgen
data_HgH10C3I3N
_symmetry_space_group_name_H-M   'P 1'
_cell_length_a   8.91635696
_cell_length_b   9.29409443
_cell_length_c   15.95683608
_cell_angle_alpha   90.00000000
_cell_angle_beta   90.00000000
_cell_angle_gamma   90.44603728
_symmetry_Int_Tables_number   1
_chemical_formula_structural   HgH10C3I3N
_chemical_formula_sum   'Hg4 H40 C12 I12 N4'
_cell_volume   1322.29437702
_cell_formula_units_Z   4
loop_
 _symmetry_equiv_pos_site_id
 _symmetry_equiv_pos_as_xyz
  1  'x, y, z'
loop_
 _atom_site_type_symbol
 _atom_site_label
 _atom_site_symmetry_multiplicity
 _atom_site_fract_x
 _atom_site_fract_y
 _atom_site_fract_z
 _atom_site_occupancy
  Hg  Hg0  1  0.179484  0.757720  0.783555  1
  Hg  Hg1  1  0.320516  0.242280  0.283555  1
  Hg  Hg2  1  0.820516  0.242280  0.216445  1
  Hg  Hg3  1  0.679484  0.757720  0.716445  1
  H  H4  1  0.105347  0.914337  0.402244  1
  H  H5  1  0.036620  0.828419  0.495576  1
  H  H6  1  0.455530  0.270362  0.898727  1
  H  H7  1  0.044470  0.729638  0.398727  1
  H  H8  1  0.544470  0.729638  0.101273  1
  H  H9  1  0.868441  0.602719  0.975349  1
  H  H10  1  0.394653  0.085663  0.902244  1
  H  H11  1  0.963380  0.171581  0.504424  1
  H  H12  1  0.197592  0.156356  0.995442  1
  H  H13  1  0.955530  0.270362  0.601273  1
  H  H14  1  0.462142  0.721526  0.398661  1
  H  H15  1  0.463380  0.171581  0.995576  1
  H  H16  1  0.706915  0.541982  0.033317  1
  H  H17  1  0.894653  0.085663  0.597756  1
  H  H18  1  0.605347  0.914337  0.097756  1
  H  H19  1  0.802408  0.843644  0.004558  1
  H  H20  1  0.349751  0.854536  0.347077  1
  H  H21  1  0.650249  0.145464  0.652923  1
  H  H22  1  0.816130  0.358045  0.437338  1
  H  H23  1  0.701662  0.332630  0.659457  1
  H  H24  1  0.798338  0.667369  0.159457  1
  H  H25  1  0.793085  0.458018  0.533317  1
  H  H26  1  0.849751  0.854536  0.152923  1
  H  H27  1  0.150249  0.145464  0.847077  1
  H  H28  1  0.037858  0.278474  0.898661  1
  H  H29  1  0.298338  0.667369  0.340543  1
  H  H30  1  0.537858  0.278474  0.601339  1
  H  H31  1  0.316130  0.358045  0.062662  1
  H  H32  1  0.962142  0.721526  0.101339  1
  H  H33  1  0.302408  0.843644  0.495442  1
  H  H34  1  0.206915  0.541982  0.466683  1
  H  H35  1  0.183870  0.641955  0.562662  1
  H  H36  1  0.368441  0.602719  0.524651  1
  H  H37  1  0.697592  0.156356  0.504558  1
  H  H38  1  0.201662  0.332630  0.840543  1
  H  H39  1  0.631559  0.397281  0.475349  1
  H  H40  1  0.131559  0.397281  0.024651  1
  H  H41  1  0.536620  0.828419  0.004424  1
  H  H42  1  0.683870  0.641955  0.937338  1
  H  H43  1  0.293085  0.458018  0.966683  1
  C  C44  1  0.901337  0.187029  0.562952  1
  C  C45  1  0.348217  0.751329  0.380201  1
  C  C46  1  0.151783  0.248671  0.880201  1
  C  C47  1  0.252996  0.627623  0.506564  1
  C  C48  1  0.747004  0.372377  0.493436  1
  C  C49  1  0.752996  0.627623  0.993436  1
  C  C50  1  0.848217  0.751329  0.119799  1
  C  C51  1  0.098663  0.812971  0.437048  1
  C  C52  1  0.401337  0.187029  0.937048  1
  C  C53  1  0.598663  0.812971  0.062952  1
  C  C54  1  0.247004  0.372377  0.006564  1
  C  C55  1  0.651783  0.248671  0.619799  1
  I  I56  1  0.325947  0.188048  0.455478  1
  I  I57  1  0.550792  0.446553  0.232726  1
  I  I58  1  0.759739  0.029087  0.332870  1
  I  I59  1  0.050792  0.446553  0.267274  1
  I  I60  1  0.259739  0.029087  0.167130  1
  I  I61  1  0.949208  0.553447  0.732726  1
  I  I62  1  0.240261  0.970913  0.667130  1
  I  I63  1  0.449208  0.553447  0.767274  1
  I  I64  1  0.825947  0.188048  0.044522  1
  I  I65  1  0.174053  0.811952  0.955478  1
  I  I66  1  0.740261  0.970913  0.832870  1
  I  I67  1  0.674053  0.811952  0.544522  1
  N  N68  1  0.254365  0.764929  0.457540  1
  N  N69  1  0.745635  0.235071  0.542460  1
  N  N70  1  0.754365  0.764929  0.042460  1
  N  N71  1  0.245635  0.235071  0.957540  1
