# generated using pymatgen
data_Mn3As2
_symmetry_space_group_name_H-M   'P 1'
_cell_length_a   3.42879400
_cell_length_b   6.74731087
_cell_length_c   12.87303408
_cell_angle_alpha   90.00000000
_cell_angle_beta   90.00000000
_cell_angle_gamma   104.71943111
_symmetry_Int_Tables_number   1
_chemical_formula_structural   Mn3As2
_chemical_formula_sum   'Mn12 As8'
_cell_volume   288.04548720
_cell_formula_units_Z   4
loop_
 _symmetry_equiv_pos_site_id
 _symmetry_equiv_pos_as_xyz
  1  'x, y, z'
loop_
 _atom_site_type_symbol
 _atom_site_label
 _atom_site_symmetry_multiplicity
 _atom_site_fract_x
 _atom_site_fract_y
 _atom_site_fract_z
 _atom_site_occupancy
  Mn  Mn0  1  0.172697  0.345394  0.893357  1
  Mn  Mn1  1  0.558197  0.116394  0.132578  1
  Mn  Mn2  1  0.969609  0.939219  0.812987  1
  Mn  Mn3  1  0.233277  0.466554  0.178790  1
  Mn  Mn4  1  0.371120  0.742240  0.979908  1
  Mn  Mn5  1  0.766723  0.533446  0.678790  1
  Mn  Mn6  1  0.108881  0.217761  0.639218  1
  Mn  Mn7  1  0.628880  0.257760  0.479908  1
  Mn  Mn8  1  0.827303  0.654606  0.393357  1
  Mn  Mn9  1  0.030391  0.060781  0.312987  1
  Mn  Mn10  1  0.891119  0.782239  0.139218  1
  Mn  Mn11  1  0.441803  0.883606  0.632578  1
  As  As12  1  0.265083  0.530165  0.530642  1
  As  As13  1  0.734917  0.469835  0.030642  1
  As  As14  1  0.402947  0.805893  0.267954  1
  As  As15  1  0.337873  0.675747  0.797829  1
  As  As16  1  0.597053  0.194107  0.767954  1
  As  As17  1  0.009716  0.019432  0.996735  1
  As  As18  1  0.662127  0.324253  0.297829  1
  As  As19  1  0.990284  0.980568  0.496735  1
