# generated using pymatgen
data_Yb(CoGe)2
_symmetry_space_group_name_H-M   'P 1'
_cell_length_a   3.95706301
_cell_length_b   3.95706276
_cell_length_c   5.82897939
_cell_angle_alpha   109.84215738
_cell_angle_beta   109.84215602
_cell_angle_gamma   90.00000635
_symmetry_Int_Tables_number   1
_chemical_formula_structural   Yb(CoGe)2
_chemical_formula_sum   'Yb1 Co2 Ge2'
_cell_volume   80.06887472
_cell_formula_units_Z   1
loop_
 _symmetry_equiv_pos_site_id
 _symmetry_equiv_pos_as_xyz
  1  'x, y, z'
loop_
 _atom_site_type_symbol
 _atom_site_label
 _atom_site_symmetry_multiplicity
 _atom_site_fract_x
 _atom_site_fract_y
 _atom_site_fract_z
 _atom_site_occupancy
  Yb  Yb0  1  0.000000  -0.000000  -0.000000  1
  Co  Co1  1  0.250000  0.750000  0.500000  1
  Co  Co2  1  0.750000  0.250000  0.500000  1
  Ge  Ge3  1  0.370401  0.370401  0.740803  1
  Ge  Ge4  1  0.629599  0.629599  0.259197  1
