# generated using pymatgen
data_Ni(SbO3)2
_symmetry_space_group_name_H-M   'P 1'
_cell_length_a   4.71798497
_cell_length_b   4.71798497
_cell_length_c   9.36201841
_cell_angle_alpha   90.00000000
_cell_angle_beta   90.00000000
_cell_angle_gamma   90.00000000
_symmetry_Int_Tables_number   1
_chemical_formula_structural   Ni(SbO3)2
_chemical_formula_sum   'Ni2 Sb4 O12'
_cell_volume   208.39274574
_cell_formula_units_Z   2
loop_
 _symmetry_equiv_pos_site_id
 _symmetry_equiv_pos_as_xyz
  1  'x, y, z'
loop_
 _atom_site_type_symbol
 _atom_site_label
 _atom_site_symmetry_multiplicity
 _atom_site_fract_x
 _atom_site_fract_y
 _atom_site_fract_z
 _atom_site_occupancy
  O  O0  1  0.697004  0.697004  0.670812  1
  O  O1  1  0.302996  0.302996  0.670812  1
  O  O2  1  0.697004  0.697004  0.329188  1
  O  O3  1  0.197004  0.802996  0.170812  1
  O  O4  1  0.802996  0.197004  0.170812  1
  O  O5  1  0.802996  0.197004  0.829188  1
  O  O6  1  0.309539  0.309539  0.000000  1
  O  O7  1  0.190461  0.809539  0.500000  1
  O  O8  1  0.809539  0.190461  0.500000  1
  O  O9  1  0.690461  0.690461  0.000000  1
  O  O10  1  0.302996  0.302996  0.329188  1
  O  O11  1  0.197004  0.802996  0.829188  1
  Ni  Ni12  1  0.000000  0.000000  0.000000  1
  Ni  Ni13  1  0.500000  0.500000  0.500000  1
  Sb  Sb14  1  0.500000  0.500000  0.832324  1
  Sb  Sb15  1  0.000000  0.000000  0.332324  1
  Sb  Sb16  1  0.500000  0.500000  0.167676  1
  Sb  Sb17  1  0.000000  0.000000  0.667676  1
