# generated using pymatgen
data_KV(SO4)2
_symmetry_space_group_name_H-M   'P 1'
_cell_length_a   8.67817550
_cell_length_b   8.67713799
_cell_length_c   8.67755531
_cell_angle_alpha   32.72453834
_cell_angle_beta   32.72191202
_cell_angle_gamma   32.72259165
_symmetry_Int_Tables_number   1
_chemical_formula_structural   KV(SO4)2
_chemical_formula_sum   'K1 V1 S2 O8'
_cell_volume   169.85306512
_cell_formula_units_Z   1
loop_
 _symmetry_equiv_pos_site_id
 _symmetry_equiv_pos_as_xyz
  1  'x, y, z'
loop_
 _atom_site_type_symbol
 _atom_site_label
 _atom_site_symmetry_multiplicity
 _atom_site_fract_x
 _atom_site_fract_y
 _atom_site_fract_z
 _atom_site_occupancy
  K  K0  1  0.999986  0.999983  0.000041  1
  V  V1  1  0.499981  0.500005  0.499999  1
  S  S2  1  0.236484  0.236660  0.236633  1
  S  S3  1  0.763522  0.763369  0.763373  1
  O  O4  1  0.088081  0.513986  0.750029  1
  O  O5  1  0.485856  0.249887  0.912092  1
  O  O6  1  0.750225  0.087920  0.513970  1
  O  O7  1  0.911935  0.486046  0.249925  1
  O  O8  1  0.295785  0.295976  0.295890  1
  O  O9  1  0.249732  0.912099  0.486035  1
  O  O10  1  0.514181  0.750092  0.087896  1
  O  O11  1  0.704229  0.703979  0.704116  1
