# generated using pymatgen
data_Tb5SbAu2
_symmetry_space_group_name_H-M   'P 1'
_cell_length_a   7.41969163
_cell_length_b   7.41969160
_cell_length_c   10.17065023
_cell_angle_alpha   111.39281082
_cell_angle_beta   111.39281052
_cell_angle_gamma   90.00000261
_symmetry_Int_Tables_number   1
_chemical_formula_structural   Tb5SbAu2
_chemical_formula_sum   'Tb10 Sb2 Au4'
_cell_volume   479.66604145
_cell_formula_units_Z   2
loop_
 _symmetry_equiv_pos_site_id
 _symmetry_equiv_pos_as_xyz
  1  'x, y, z'
loop_
 _atom_site_type_symbol
 _atom_site_label
 _atom_site_symmetry_multiplicity
 _atom_site_fract_x
 _atom_site_fract_y
 _atom_site_fract_z
 _atom_site_occupancy
  Tb  Tb0  1  0.998553  0.498553  0.667598  1
  Tb  Tb1  1  0.001447  0.501447  0.332402  1
  Tb  Tb2  1  0.501447  0.330955  0.332402  1
  Tb  Tb3  1  0.830955  0.001447  0.332402  1
  Tb  Tb4  1  0.498553  0.669045  0.667598  1
  Tb  Tb5  1  0.669045  0.169045  0.667598  1
  Tb  Tb6  1  0.169045  0.998553  0.667598  1
  Tb  Tb7  1  0.000000  0.000000  0.000000  1
  Tb  Tb8  1  0.500000  0.500000  0.000000  1
  Tb  Tb9  1  0.330955  0.830955  0.332402  1
  Sb  Sb10  1  0.750000  0.750000  0.500000  1
  Sb  Sb11  1  0.250000  0.250000  0.500000  1
  Au  Au12  1  0.127100  0.627100  0.000000  1
  Au  Au13  1  0.372900  0.127100  0.000000  1
  Au  Au14  1  0.627100  0.872900  1.000000  1
  Au  Au15  1  0.872900  0.372900  1.000000  1
