# generated using pymatgen
data_Na2CaMg(PO4)2
_symmetry_space_group_name_H-M   'P 1'
_cell_length_a   5.23708110
_cell_length_b   9.23461356
_cell_length_c   13.53139765
_cell_angle_alpha   90.99733896
_cell_angle_beta   90.00000000
_cell_angle_gamma   90.00000000
_symmetry_Int_Tables_number   1
_chemical_formula_structural   Na2CaMg(PO4)2
_chemical_formula_sum   'Na8 Ca4 Mg4 P8 O32'
_cell_volume   654.31199826
_cell_formula_units_Z   4
loop_
 _symmetry_equiv_pos_site_id
 _symmetry_equiv_pos_as_xyz
  1  'x, y, z'
loop_
 _atom_site_type_symbol
 _atom_site_label
 _atom_site_symmetry_multiplicity
 _atom_site_fract_x
 _atom_site_fract_y
 _atom_site_fract_z
 _atom_site_occupancy
  Na  Na0  1  0.721631  0.418366  0.602463  1
  Na  Na1  1  0.278369  0.581634  0.397537  1
  Na  Na2  1  0.221631  0.581634  0.897537  1
  Na  Na3  1  0.722503  0.084337  0.909765  1
  Na  Na4  1  0.778369  0.418366  0.102463  1
  Na  Na5  1  0.777497  0.084337  0.409765  1
  Na  Na6  1  0.277497  0.915663  0.090235  1
  Na  Na7  1  0.222503  0.915663  0.590235  1
  Ca  Ca8  1  0.318769  0.235626  0.249126  1
  Ca  Ca9  1  0.818769  0.764374  0.250874  1
  Ca  Ca10  1  0.681231  0.764374  0.750874  1
  Ca  Ca11  1  0.181231  0.235626  0.749126  1
  Mg  Mg12  1  0.254555  0.253243  0.501791  1
  Mg  Mg13  1  0.754555  0.746757  0.998209  1
  Mg  Mg14  1  0.745445  0.746757  0.498209  1
  Mg  Mg15  1  0.245445  0.253243  0.001791  1
  P  P16  1  0.227332  0.586621  0.629955  1
  P  P17  1  0.729521  0.081144  0.634395  1
  P  P18  1  0.229521  0.918856  0.865605  1
  P  P19  1  0.727332  0.413379  0.870045  1
  P  P20  1  0.770479  0.081144  0.134395  1
  P  P21  1  0.772668  0.413379  0.370045  1
  P  P22  1  0.272668  0.586621  0.129955  1
  P  P23  1  0.270479  0.918856  0.365605  1
  O  O24  1  0.832789  0.399574  0.764524  1
  O  O25  1  0.579069  0.341738  0.441480  1
  O  O26  1  0.079069  0.658262  0.058520  1
  O  O27  1  0.167211  0.600426  0.235476  1
  O  O28  1  0.691294  0.077859  0.243523  1
  O  O29  1  0.692242  0.923107  0.594254  1
  O  O30  1  0.920931  0.341738  0.941480  1
  O  O31  1  0.807758  0.923107  0.094254  1
  O  O32  1  0.192242  0.076893  0.905746  1
  O  O33  1  0.522328  0.831946  0.380532  1
  O  O34  1  0.462644  0.335019  0.880511  1
  O  O35  1  0.332789  0.600426  0.735476  1
  O  O36  1  0.977672  0.831946  0.880532  1
  O  O37  1  0.808706  0.077859  0.743523  1
  O  O38  1  0.195698  0.423920  0.599854  1
  O  O39  1  0.037356  0.335019  0.380511  1
  O  O40  1  0.304302  0.423920  0.099854  1
  O  O41  1  0.022328  0.168054  0.119468  1
  O  O42  1  0.308706  0.922141  0.756477  1
  O  O43  1  0.667211  0.399574  0.264524  1
  O  O44  1  0.949043  0.153134  0.574707  1
  O  O45  1  0.695698  0.576080  0.900146  1
  O  O46  1  0.804302  0.576080  0.400146  1
  O  O47  1  0.962644  0.664981  0.619489  1
  O  O48  1  0.537356  0.664981  0.119489  1
  O  O49  1  0.477672  0.168054  0.619468  1
  O  O50  1  0.050957  0.846866  0.425293  1
  O  O51  1  0.191294  0.922141  0.256477  1
  O  O52  1  0.307758  0.076893  0.405746  1
  O  O53  1  0.420931  0.658262  0.558520  1
  O  O54  1  0.550957  0.153134  0.074707  1
  O  O55  1  0.449043  0.846866  0.925293  1
