# generated using pymatgen
data_Ba2FeO4
_symmetry_space_group_name_H-M   'P 1'
_cell_length_a   6.23265487
_cell_length_b   7.75555953
_cell_length_c   10.35229804
_cell_angle_alpha   90.00000000
_cell_angle_beta   94.22626033
_cell_angle_gamma   90.00000000
_symmetry_Int_Tables_number   1
_chemical_formula_structural   Ba2FeO4
_chemical_formula_sum   'Ba8 Fe4 O16'
_cell_volume   499.04584210
_cell_formula_units_Z   4
loop_
 _symmetry_equiv_pos_site_id
 _symmetry_equiv_pos_as_xyz
  1  'x, y, z'
loop_
 _atom_site_type_symbol
 _atom_site_label
 _atom_site_symmetry_multiplicity
 _atom_site_fract_x
 _atom_site_fract_y
 _atom_site_fract_z
 _atom_site_occupancy
  Ba  Ba0  1  0.755940  0.845449  0.075130  1
  Ba  Ba1  1  0.744060  0.345449  0.424870  1
  Ba  Ba2  1  0.244060  0.154551  0.924870  1
  Ba  Ba3  1  0.255940  0.654551  0.575130  1
  Ba  Ba4  1  0.220683  0.505846  0.197400  1
  Ba  Ba5  1  0.279317  0.005846  0.302600  1
  Ba  Ba6  1  0.779317  0.494154  0.802600  1
  Ba  Ba7  1  0.720683  0.994154  0.697400  1
  Fe  Fe8  1  0.742781  0.278962  0.083209  1
  Fe  Fe9  1  0.757219  0.778962  0.416791  1
  Fe  Fe10  1  0.257219  0.721038  0.916791  1
  Fe  Fe11  1  0.242781  0.221038  0.583209  1
  O  O12  1  0.705388  0.007363  0.403421  1
  O  O13  1  0.794612  0.507363  0.096579  1
  O  O14  1  0.294612  0.992637  0.596579  1
  O  O15  1  0.205388  0.492637  0.903421  1
  O  O16  1  0.496353  0.243440  0.162319  1
  O  O17  1  0.003647  0.743440  0.337681  1
  O  O18  1  0.503647  0.756560  0.837681  1
  O  O19  1  0.996353  0.256560  0.662319  1
  O  O20  1  0.001824  0.183263  0.132607  1
  O  O21  1  0.498176  0.683263  0.367393  1
  O  O22  1  0.998176  0.816737  0.867393  1
  O  O23  1  0.501824  0.316737  0.632607  1
  O  O24  1  0.683858  0.168773  0.927267  1
  O  O25  1  0.816142  0.668773  0.572733  1
  O  O26  1  0.316142  0.831227  0.072733  1
  O  O27  1  0.183858  0.331227  0.427267  1
