# generated using pymatgen
data_S
_symmetry_space_group_name_H-M   'P 1'
_cell_length_a   8.26149719
_cell_length_b   12.49819273
_cell_length_c   22.76662269
_cell_angle_alpha   90.00000000
_cell_angle_beta   90.00000000
_cell_angle_gamma   90.00000000
_symmetry_Int_Tables_number   1
_chemical_formula_structural   S
_chemical_formula_sum   S72
_cell_volume   2350.73994435
_cell_formula_units_Z   72
loop_
 _symmetry_equiv_pos_site_id
 _symmetry_equiv_pos_as_xyz
  1  'x, y, z'
loop_
 _atom_site_type_symbol
 _atom_site_label
 _atom_site_symmetry_multiplicity
 _atom_site_fract_x
 _atom_site_fract_y
 _atom_site_fract_z
 _atom_site_occupancy
  S  S0  1  0.270789  0.949438  0.016172  1
  S  S1  1  0.904858  0.712224  0.007583  1
  S  S2  1  0.127310  0.813798  0.855250  1
  S  S3  1  0.722174  0.816242  0.982582  1
  S  S4  1  0.404858  0.287776  0.492417  1
  S  S5  1  0.590293  0.946179  0.510619  1
  S  S6  1  0.595142  0.212224  0.992417  1
  S  S7  1  0.354685  0.049152  0.356607  1
  S  S8  1  0.377473  0.746054  0.406646  1
  S  S9  1  0.777826  0.316242  0.017418  1
  S  S10  1  0.720982  0.050955  0.684594  1
  S  S11  1  0.872690  0.686202  0.355250  1
  S  S12  1  0.779018  0.550955  0.315406  1
  S  S13  1  0.770789  0.050562  0.483828  1
  S  S14  1  0.909707  0.446179  0.489381  1
  S  S15  1  0.275450  0.663344  0.337558  1
  S  S16  1  0.593256  0.185909  0.847648  1
  S  S17  1  0.409894  0.579681  0.155311  1
  S  S18  1  0.569553  0.258941  0.192125  1
  S  S19  1  0.256912  0.928027  0.161134  1
  S  S20  1  0.775450  0.336656  0.162442  1
  S  S21  1  0.448860  0.505745  0.809160  1
  S  S22  1  0.090106  0.079681  0.844689  1
  S  S23  1  0.732297  0.312584  0.817780  1
  S  S24  1  0.627310  0.186202  0.644750  1
  S  S25  1  0.724550  0.836656  0.837558  1
  S  S26  1  0.279018  0.449045  0.184594  1
  S  S27  1  0.688603  0.123029  0.923724  1
  S  S28  1  0.090293  0.053821  0.989381  1
  S  S29  1  0.811397  0.623029  0.076276  1
  S  S30  1  0.095142  0.787776  0.507583  1
  S  S31  1  0.688135  0.858863  0.579258  1
  S  S32  1  0.363952  0.011329  0.093229  1
  S  S33  1  0.311865  0.641137  0.079258  1
  S  S34  1  0.743088  0.571973  0.661134  1
  S  S35  1  0.372690  0.313798  0.144750  1
  S  S36  1  0.229211  0.449438  0.983828  1
  S  S37  1  0.863952  0.988671  0.406771  1
  S  S38  1  0.243088  0.428027  0.838866  1
  S  S39  1  0.069553  0.741059  0.307875  1
  S  S40  1  0.188603  0.876971  0.576276  1
  S  S41  1  0.188135  0.141137  0.920742  1
  S  S42  1  0.145315  0.549152  0.643393  1
  S  S43  1  0.136048  0.511329  0.906771  1
  S  S44  1  0.311397  0.376971  0.423724  1
  S  S45  1  0.051140  0.005745  0.190840  1
  S  S46  1  0.948860  0.494255  0.690840  1
  S  S47  1  0.636048  0.488671  0.593229  1
  S  S48  1  0.220982  0.949045  0.815406  1
  S  S49  1  0.877473  0.253946  0.093354  1
  S  S50  1  0.122527  0.246054  0.593354  1
  S  S51  1  0.551140  0.994255  0.309160  1
  S  S52  1  0.767703  0.812584  0.182220  1
  S  S53  1  0.930447  0.758941  0.807875  1
  S  S54  1  0.409707  0.553821  0.010619  1
  S  S55  1  0.093256  0.814091  0.652352  1
  S  S56  1  0.232297  0.687416  0.682220  1
  S  S57  1  0.906744  0.685909  0.152352  1
  S  S58  1  0.811865  0.358863  0.420742  1
  S  S59  1  0.729211  0.550562  0.516172  1
  S  S60  1  0.267703  0.187416  0.317780  1
  S  S61  1  0.222174  0.183758  0.517418  1
  S  S62  1  0.277826  0.683758  0.482582  1
  S  S63  1  0.430447  0.241059  0.692125  1
  S  S64  1  0.909894  0.420319  0.344689  1
  S  S65  1  0.756912  0.071973  0.338866  1
  S  S66  1  0.645315  0.450848  0.856607  1
  S  S67  1  0.590106  0.920319  0.655311  1
  S  S68  1  0.406744  0.314091  0.347648  1
  S  S69  1  0.854685  0.950848  0.143393  1
  S  S70  1  0.224550  0.163344  0.662442  1
  S  S71  1  0.622527  0.753946  0.906646  1
