# generated using pymatgen
data_H13C4NF2
_symmetry_space_group_name_H-M   'P 1'
_cell_length_a   5.44215158
_cell_length_b   6.63455737
_cell_length_c   8.82561314
_cell_angle_alpha   90.00000000
_cell_angle_beta   90.00000000
_cell_angle_gamma   90.00000000
_symmetry_Int_Tables_number   1
_chemical_formula_structural   H13C4NF2
_chemical_formula_sum   'H26 C8 N2 F4'
_cell_volume   318.65994336
_cell_formula_units_Z   2
loop_
 _symmetry_equiv_pos_site_id
 _symmetry_equiv_pos_as_xyz
  1  'x, y, z'
loop_
 _atom_site_type_symbol
 _atom_site_label
 _atom_site_symmetry_multiplicity
 _atom_site_fract_x
 _atom_site_fract_y
 _atom_site_fract_z
 _atom_site_occupancy
  H  H0  1  0.990664  0.750000  0.012032  1
  H  H1  1  0.245298  0.113676  0.887629  1
  H  H2  1  0.245298  0.386324  0.612371  1
  H  H3  1  0.933266  0.566571  0.750000  1
  H  H4  1  0.300868  0.567733  0.352166  1
  H  H5  1  0.066734  0.433429  0.250000  1
  H  H6  1  0.699132  0.432267  0.852166  1
  H  H7  1  0.009336  0.250000  0.512032  1
  H  H8  1  0.933266  0.933429  0.750000  1
  H  H9  1  0.699132  0.067733  0.647834  1
  H  H10  1  0.699132  0.067733  0.852166  1
  H  H11  1  0.357738  0.750000  0.750000  1
  H  H12  1  0.300868  0.567733  0.147834  1
  H  H13  1  0.300868  0.932267  0.352166  1
  H  H14  1  0.009336  0.250000  0.987968  1
  H  H15  1  0.066734  0.066571  0.250000  1
  H  H16  1  0.699132  0.432267  0.647834  1
  H  H17  1  0.990664  0.750000  0.487968  1
  H  H18  1  0.754702  0.613676  0.112371  1
  H  H19  1  0.300868  0.932267  0.147834  1
  H  H20  1  0.245298  0.386324  0.887629  1
  H  H21  1  0.754702  0.613676  0.387629  1
  H  H22  1  0.245298  0.113676  0.612371  1
  H  H23  1  0.754702  0.886324  0.112371  1
  H  H24  1  0.642262  0.250000  0.250000  1
  H  H25  1  0.754702  0.886324  0.387629  1
  C  C26  1  0.868468  0.750000  0.110906  1
  C  C27  1  0.131532  0.250000  0.889094  1
  C  C28  1  0.186905  0.934170  0.250000  1
  C  C29  1  0.186905  0.565830  0.250000  1
  C  C30  1  0.813095  0.065830  0.750000  1
  C  C31  1  0.868468  0.750000  0.389094  1
  C  C32  1  0.813095  0.434170  0.750000  1
  C  C33  1  0.131532  0.250000  0.610906  1
  N  N34  1  0.972836  0.250000  0.750000  1
  N  N35  1  0.027164  0.750000  0.250000  1
  F  F36  1  0.353599  0.750000  0.619310  1
  F  F37  1  0.646401  0.250000  0.119310  1
  F  F38  1  0.353599  0.750000  0.880690  1
  F  F39  1  0.646401  0.250000  0.380690  1
