# generated using pymatgen
data_CeNiSnH2
_symmetry_space_group_name_H-M   'P 1'
_cell_length_a   4.37138881
_cell_length_b   7.56335814
_cell_length_c   8.36400853
_cell_angle_alpha   90.00222166
_cell_angle_beta   89.99999448
_cell_angle_gamma   90.00009698
_symmetry_Int_Tables_number   1
_chemical_formula_structural   CeNiSnH2
_chemical_formula_sum   'Ce4 Ni4 Sn4 H8'
_cell_volume   276.53402104
_cell_formula_units_Z   4
loop_
 _symmetry_equiv_pos_site_id
 _symmetry_equiv_pos_as_xyz
  1  'x, y, z'
loop_
 _atom_site_type_symbol
 _atom_site_label
 _atom_site_symmetry_multiplicity
 _atom_site_fract_x
 _atom_site_fract_y
 _atom_site_fract_z
 _atom_site_occupancy
  Ce  Ce0  1  0.250000  0.750000  0.000008  1
  Ce  Ce1  1  0.750000  0.250000  0.999992  1
  Ce  Ce2  1  0.750000  0.249988  0.500004  1
  Ce  Ce3  1  0.250000  0.750012  0.499996  1
  Ni  Ni4  1  0.249999  0.417254  0.250018  1
  Ni  Ni5  1  0.750001  0.582746  0.749982  1
  Ni  Ni6  1  0.750000  0.917251  0.250015  1
  Ni  Ni7  1  0.250000  0.082749  0.749985  1
  Sn  Sn8  1  0.250000  0.083630  0.250040  1
  Sn  Sn9  1  0.750000  0.916370  0.749960  1
  Sn  Sn10  1  0.750000  0.583614  0.250046  1
  Sn  Sn11  1  0.250000  0.416386  0.749954  1
  H  H12  1  0.250000  0.083243  0.943399  1
  H  H13  1  0.750000  0.916757  0.056601  1
  H  H14  1  0.750001  0.583243  0.556578  1
  H  H15  1  0.249999  0.416757  0.443422  1
  H  H16  1  0.250001  0.083194  0.556572  1
  H  H17  1  0.750000  0.916806  0.443428  1
  H  H18  1  0.750000  0.583191  0.943391  1
  H  H19  1  0.250000  0.416809  0.056609  1
