# generated using pymatgen
data_Cs2FeO4
_symmetry_space_group_name_H-M   'P 1'
_cell_length_a   6.38762382
_cell_length_b   8.58006369
_cell_length_c   11.35379932
_cell_angle_alpha   90.00000000
_cell_angle_beta   90.00000000
_cell_angle_gamma   90.00000000
_symmetry_Int_Tables_number   1
_chemical_formula_structural   Cs2FeO4
_chemical_formula_sum   'Cs8 Fe4 O16'
_cell_volume   622.25881432
_cell_formula_units_Z   4
loop_
 _symmetry_equiv_pos_site_id
 _symmetry_equiv_pos_as_xyz
  1  'x, y, z'
loop_
 _atom_site_type_symbol
 _atom_site_label
 _atom_site_symmetry_multiplicity
 _atom_site_fract_x
 _atom_site_fract_y
 _atom_site_fract_z
 _atom_site_occupancy
  O  O0  1  0.250000  0.042593  0.412981  1
  O  O1  1  0.750001  0.957407  0.587020  1
  O  O2  1  0.250000  0.542594  0.087020  1
  O  O3  1  0.750001  0.457407  0.912980  1
  O  O4  1  0.250000  0.794960  0.940266  1
  O  O5  1  0.750001  0.205039  0.059735  1
  O  O6  1  0.250000  0.294960  0.559734  1
  O  O7  1  0.750001  0.705039  0.440265  1
  O  O8  1  0.536474  0.194315  0.853633  1
  O  O9  1  0.036474  0.805685  0.146367  1
  O  O10  1  0.963525  0.694315  0.646367  1
  O  O11  1  0.463526  0.305685  0.353633  1
  O  O12  1  0.536474  0.694315  0.646367  1
  O  O13  1  0.036474  0.305685  0.353633  1
  O  O14  1  0.463526  0.805685  0.146367  1
  O  O15  1  0.963525  0.194315  0.853633  1
  Fe  Fe16  1  0.750001  0.264172  0.919471  1
  Fe  Fe17  1  0.250000  0.735827  0.080528  1
  Fe  Fe18  1  0.750001  0.764173  0.580529  1
  Fe  Fe19  1  0.250000  0.235827  0.419471  1
  Cs  Cs20  1  0.250000  0.166461  0.088851  1
  Cs  Cs21  1  0.750001  0.333539  0.588851  1
  Cs  Cs22  1  0.250000  0.666462  0.411150  1
  Cs  Cs23  1  0.750001  0.833539  0.911149  1
  Cs  Cs24  1  0.750001  0.512554  0.193453  1
  Cs  Cs25  1  0.250000  0.487445  0.806548  1
  Cs  Cs26  1  0.750001  0.012554  0.306547  1
  Cs  Cs27  1  0.250000  0.987445  0.693453  1
