# generated using pymatgen
data_Sb
_symmetry_space_group_name_H-M   'P 1'
_cell_length_a   4.42110042
_cell_length_b   4.52770014
_cell_length_c   6.49990015
_cell_angle_alpha   101.72180571
_cell_angle_beta   90.00000000
_cell_angle_gamma   90.00000000
_symmetry_Int_Tables_number   1
_chemical_formula_structural   Sb
_chemical_formula_sum   Sb4
_cell_volume   127.39781564
_cell_formula_units_Z   4
loop_
 _symmetry_equiv_pos_site_id
 _symmetry_equiv_pos_as_xyz
  1  'x, y, z'
loop_
 _atom_site_type_symbol
 _atom_site_label
 _atom_site_symmetry_multiplicity
 _atom_site_fract_x
 _atom_site_fract_y
 _atom_site_fract_z
 _atom_site_occupancy
  Sb  Sb0  1  0.750000  0.339930  0.683670  1
  Sb  Sb1  1  0.250000  0.936638  0.762758  1
  Sb  Sb2  1  0.750000  0.063362  0.237242  1
  Sb  Sb3  1  0.250000  0.660070  0.316330  1
