# generated using pymatgen
data_ZnS
_symmetry_space_group_name_H-M   'P 1'
_cell_length_a   3.85326947
_cell_length_b   3.85326937
_cell_length_c   125.91018516
_cell_angle_alpha   90.00000000
_cell_angle_beta   90.00000000
_cell_angle_gamma   120.00000095
_symmetry_Int_Tables_number   1
_chemical_formula_structural   ZnS
_chemical_formula_sum   'Zn40 S40'
_cell_volume   1619.01264921
_cell_formula_units_Z   40
loop_
 _symmetry_equiv_pos_site_id
 _symmetry_equiv_pos_as_xyz
  1  'x, y, z'
loop_
 _atom_site_type_symbol
 _atom_site_label
 _atom_site_symmetry_multiplicity
 _atom_site_fract_x
 _atom_site_fract_y
 _atom_site_fract_z
 _atom_site_occupancy
  Zn  Zn0  1  0.000000  0.000000  0.275004  1
  Zn  Zn1  1  0.000000  0.000000  0.825004  1
  Zn  Zn2  1  0.666667  0.333333  0.450000  1
  Zn  Zn3  1  0.333333  0.666667  0.324999  1
  Zn  Zn4  1  0.333333  0.666667  0.174999  1
  Zn  Zn5  1  0.333333  0.666667  0.100000  1
  Zn  Zn6  1  0.000000  0.000000  0.425000  1
  Zn  Zn7  1  0.000000  0.000000  0.950002  1
  Zn  Zn8  1  0.666667  0.333333  0.200001  1
  Zn  Zn9  1  0.666667  0.333333  0.524997  1
  Zn  Zn10  1  0.333333  0.666667  0.924999  1
  Zn  Zn11  1  0.333333  0.666667  0.475001  1
  Zn  Zn12  1  0.000000  0.000000  0.149999  1
  Zn  Zn13  1  0.666667  0.333333  0.974996  1
  Zn  Zn14  1  0.333333  0.666667  0.574997  1
  Zn  Zn15  1  0.000000  0.000000  0.550004  1
  Zn  Zn16  1  0.000000  0.000000  0.699997  1
  Zn  Zn17  1  0.666667  0.333333  0.725005  1
  Zn  Zn18  1  0.666667  0.333333  0.375000  1
  Zn  Zn19  1  0.666667  0.333333  0.049999  1
  Zn  Zn20  1  0.666667  0.333333  0.799997  1
  Zn  Zn21  1  0.000000  0.000000  0.224997  1
  Zn  Zn22  1  0.333333  0.666667  0.399999  1
  Zn  Zn23  1  0.666667  0.333333  0.299998  1
  Zn  Zn24  1  0.000000  0.000000  0.000004  1
  Zn  Zn25  1  0.000000  0.000000  0.774997  1
  Zn  Zn26  1  0.666667  0.333333  0.875001  1
  Zn  Zn27  1  0.333333  0.666667  0.024998  1
  Zn  Zn28  1  0.000000  0.000000  0.899998  1
  Zn  Zn29  1  0.000000  0.000000  0.074999  1
  Zn  Zn30  1  0.666667  0.333333  0.599999  1
  Zn  Zn31  1  0.333333  0.666667  0.849998  1
  Zn  Zn32  1  0.333333  0.666667  0.750000  1
  Zn  Zn33  1  0.000000  0.000000  0.499997  1
  Zn  Zn34  1  0.000000  0.000000  0.350000  1
  Zn  Zn35  1  0.666667  0.333333  0.124999  1
  Zn  Zn36  1  0.333333  0.666667  0.650001  1
  Zn  Zn37  1  0.666667  0.333333  0.674997  1
  Zn  Zn38  1  0.333333  0.666667  0.249997  1
  Zn  Zn39  1  0.000000  0.000000  0.624999  1
  S  S40  1  0.333333  0.666667  0.768752  1
  S  S41  1  0.000000  0.000000  0.968733  1
  S  S42  1  0.333333  0.666667  0.593750  1
  S  S43  1  0.333333  0.666667  0.493753  1
  S  S44  1  0.666667  0.333333  0.743749  1
  S  S45  1  0.333333  0.666667  0.043750  1
  S  S46  1  0.000000  0.000000  0.918736  1
  S  S47  1  0.666667  0.333333  0.218753  1
  S  S48  1  0.000000  0.000000  0.518735  1
  S  S49  1  0.666667  0.333333  0.818766  1
  S  S50  1  0.000000  0.000000  0.843749  1
  S  S51  1  0.333333  0.666667  0.118751  1
  S  S52  1  0.333333  0.666667  0.668753  1
  S  S53  1  0.666667  0.333333  0.468752  1
  S  S54  1  0.000000  0.000000  0.568747  1
  S  S55  1  0.666667  0.333333  0.618750  1
  S  S56  1  0.333333  0.666667  0.193751  1
  S  S57  1  0.000000  0.000000  0.293749  1
  S  S58  1  0.666667  0.333333  0.143751  1
  S  S59  1  0.000000  0.000000  0.168751  1
  S  S60  1  0.000000  0.000000  0.443751  1
  S  S61  1  0.000000  0.000000  0.368751  1
  S  S62  1  0.666667  0.333333  0.318750  1
  S  S63  1  0.000000  0.000000  0.018749  1
  S  S64  1  0.666667  0.333333  0.393751  1
  S  S65  1  0.333333  0.666667  0.418751  1
  S  S66  1  0.666667  0.333333  0.893753  1
  S  S67  1  0.000000  0.000000  0.093751  1
  S  S68  1  0.666667  0.333333  0.693735  1
  S  S69  1  0.000000  0.000000  0.793735  1
  S  S70  1  0.666667  0.333333  0.543766  1
  S  S71  1  0.000000  0.000000  0.243735  1
  S  S72  1  0.333333  0.666667  0.343751  1
  S  S73  1  0.666667  0.333333  0.993765  1
  S  S74  1  0.000000  0.000000  0.643751  1
  S  S75  1  0.333333  0.666667  0.868751  1
  S  S76  1  0.333333  0.666667  0.268766  1
  S  S77  1  0.333333  0.666667  0.943767  1
  S  S78  1  0.000000  0.000000  0.718766  1
  S  S79  1  0.666667  0.333333  0.068751  1
