# generated using pymatgen
data_Na3ErV2O8
_symmetry_space_group_name_H-M   'P 1'
_cell_length_a   5.57486928
_cell_length_b   7.28508778
_cell_length_c   9.84849085
_cell_angle_alpha   90.00000000
_cell_angle_beta   90.00000000
_cell_angle_gamma   93.19715559
_symmetry_Int_Tables_number   1
_chemical_formula_structural   Na3ErV2O8
_chemical_formula_sum   'Na6 Er2 V4 O16'
_cell_volume   399.35826078
_cell_formula_units_Z   2
loop_
 _symmetry_equiv_pos_site_id
 _symmetry_equiv_pos_as_xyz
  1  'x, y, z'
loop_
 _atom_site_type_symbol
 _atom_site_label
 _atom_site_symmetry_multiplicity
 _atom_site_fract_x
 _atom_site_fract_y
 _atom_site_fract_z
 _atom_site_occupancy
  Na  Na0  1  0.990365  0.291885  0.857091  1
  Na  Na1  1  0.000000  0.000000  0.500000  1
  Na  Na2  1  0.509635  0.208115  0.357091  1
  Na  Na3  1  0.009635  0.708115  0.142909  1
  Na  Na4  1  0.490365  0.791885  0.642909  1
  Na  Na5  1  0.500000  0.500000  0.000000  1
  Er  Er6  1  0.500000  0.000000  0.000000  1
  Er  Er7  1  0.000000  0.500000  0.500000  1
  V  V8  1  0.517146  0.723007  0.317732  1
  V  V9  1  0.982854  0.776993  0.817732  1
  V  V10  1  0.482854  0.276993  0.682268  1
  V  V11  1  0.017146  0.223007  0.182268  1
  O  O12  1  0.671822  0.531832  0.369115  1
  O  O13  1  0.328178  0.468168  0.630885  1
  O  O14  1  0.359977  0.091846  0.598261  1
  O  O15  1  0.828178  0.968168  0.869115  1
  O  O16  1  0.710857  0.195991  0.136359  1
  O  O17  1  0.060773  0.259425  0.358934  1
  O  O18  1  0.171822  0.031832  0.130885  1
  O  O19  1  0.140023  0.408154  0.098261  1
  O  O20  1  0.640023  0.908154  0.401739  1
  O  O21  1  0.439227  0.240575  0.858934  1
  O  O22  1  0.859977  0.591846  0.901739  1
  O  O23  1  0.210857  0.695991  0.363641  1
  O  O24  1  0.289143  0.804009  0.863641  1
  O  O25  1  0.789143  0.304009  0.636359  1
  O  O26  1  0.939227  0.740575  0.641066  1
  O  O27  1  0.560773  0.759425  0.141066  1
