# generated using pymatgen
data_TcBr4
_symmetry_space_group_name_H-M   'P 1'
_cell_length_a   6.48269259
_cell_length_b   13.64983077
_cell_length_c   15.99596561
_cell_angle_alpha   90.00000000
_cell_angle_beta   90.00000000
_cell_angle_gamma   90.00000000
_symmetry_Int_Tables_number   1
_chemical_formula_structural   TcBr4
_chemical_formula_sum   'Tc8 Br32'
_cell_volume   1415.44551488
_cell_formula_units_Z   8
loop_
 _symmetry_equiv_pos_site_id
 _symmetry_equiv_pos_as_xyz
  1  'x, y, z'
loop_
 _atom_site_type_symbol
 _atom_site_label
 _atom_site_symmetry_multiplicity
 _atom_site_fract_x
 _atom_site_fract_y
 _atom_site_fract_z
 _atom_site_occupancy
  Tc  Tc0  1  0.401950  0.629354  0.183023  1
  Tc  Tc1  1  0.598050  0.370646  0.816977  1
  Tc  Tc2  1  0.901950  0.870646  0.816977  1
  Tc  Tc3  1  0.598050  0.129354  0.316977  1
  Tc  Tc4  1  0.401950  0.870646  0.683023  1
  Tc  Tc5  1  0.098050  0.129354  0.183023  1
  Tc  Tc6  1  0.901950  0.629354  0.316977  1
  Tc  Tc7  1  0.098050  0.370646  0.683023  1
  Br  Br8  1  0.271312  0.474745  0.804445  1
  Br  Br9  1  0.760586  0.982340  0.919802  1
  Br  Br10  1  0.541262  0.758704  0.580005  1
  Br  Br11  1  0.076191  0.733605  0.196246  1
  Br  Br12  1  0.760586  0.517660  0.419802  1
  Br  Br13  1  0.239414  0.482340  0.580198  1
  Br  Br14  1  0.041262  0.741296  0.419995  1
  Br  Br15  1  0.239414  0.017660  0.080198  1
  Br  Br16  1  0.923809  0.233605  0.303754  1
  Br  Br17  1  0.958738  0.258704  0.580005  1
  Br  Br18  1  0.923809  0.266395  0.803754  1
  Br  Br19  1  0.076191  0.766395  0.696246  1
  Br  Br20  1  0.728688  0.525255  0.195555  1
  Br  Br21  1  0.458738  0.258704  0.919995  1
  Br  Br22  1  0.576191  0.733605  0.303754  1
  Br  Br23  1  0.260586  0.517660  0.080198  1
  Br  Br24  1  0.423809  0.233605  0.196246  1
  Br  Br25  1  0.458738  0.241296  0.419995  1
  Br  Br26  1  0.228688  0.974745  0.804445  1
  Br  Br27  1  0.541262  0.741296  0.080005  1
  Br  Br28  1  0.041262  0.758704  0.919995  1
  Br  Br29  1  0.739414  0.017660  0.419802  1
  Br  Br30  1  0.958738  0.241296  0.080005  1
  Br  Br31  1  0.271312  0.025255  0.304445  1
  Br  Br32  1  0.771312  0.474745  0.695555  1
  Br  Br33  1  0.576191  0.766395  0.803754  1
  Br  Br34  1  0.728688  0.974745  0.695555  1
  Br  Br35  1  0.771312  0.025255  0.195555  1
  Br  Br36  1  0.228688  0.525255  0.304445  1
  Br  Br37  1  0.260586  0.982340  0.580198  1
  Br  Br38  1  0.739414  0.482340  0.919802  1
  Br  Br39  1  0.423809  0.266395  0.696246  1
