# generated using pymatgen
data_Rb2Cd3H6S3O16
_symmetry_space_group_name_H-M   'P 1'
_cell_length_a   8.28025756
_cell_length_b   10.34965671
_cell_length_c   10.31832978
_cell_angle_alpha   90.00000000
_cell_angle_beta   113.65573485
_cell_angle_gamma   90.00000000
_symmetry_Int_Tables_number   1
_chemical_formula_structural   Rb2Cd3H6S3O16
_chemical_formula_sum   'Rb4 Cd6 H12 S6 O32'
_cell_volume   809.95669188
_cell_formula_units_Z   2
loop_
 _symmetry_equiv_pos_site_id
 _symmetry_equiv_pos_as_xyz
  1  'x, y, z'
loop_
 _atom_site_type_symbol
 _atom_site_label
 _atom_site_symmetry_multiplicity
 _atom_site_fract_x
 _atom_site_fract_y
 _atom_site_fract_z
 _atom_site_occupancy
  Cd  Cd0  1  0.628381  0.161781  0.186095  1
  Cd  Cd1  1  0.371619  0.661781  0.813905  1
  Cd  Cd2  1  0.557715  0.661781  0.186095  1
  Cd  Cd3  1  0.442285  0.161781  0.813905  1
  Cd  Cd4  1  0.818827  0.451778  1.000000  1
  Cd  Cd5  1  0.181173  0.951778  0.000000  1
  Rb  Rb6  1  0.856669  0.219449  0.625318  1
  Rb  Rb7  1  0.143331  0.719449  0.374682  1
  Rb  Rb8  1  0.768649  0.719449  0.625318  1
  Rb  Rb9  1  0.231351  0.219449  0.374682  1
  S  S10  1  0.478036  0.941968  0.357835  1
  S  S11  1  0.521964  0.441968  0.642165  1
  S  S12  1  0.879799  0.441968  0.357835  1
  S  S13  1  0.120201  0.941968  0.642165  1
  S  S14  1  0.804544  0.784245  1.000000  1
  S  S15  1  0.195456  0.284245  0.000000  1
  O  O16  1  0.561736  0.071954  0.363563  1
  O  O17  1  0.438264  0.571954  0.636437  1
  O  O18  1  0.801827  0.571954  0.363563  1
  O  O19  1  0.198173  0.071954  0.636437  1
  O  O20  1  0.291881  0.943693  0.247644  1
  O  O21  1  0.708119  0.443693  0.752356  1
  O  O22  1  0.955763  0.443693  0.247644  1
  O  O23  1  0.044237  0.943693  0.752356  1
  O  O24  1  0.583548  0.839472  0.327644  1
  O  O25  1  0.416452  0.339472  0.672356  1
  O  O26  1  0.744096  0.339472  0.327644  1
  O  O27  1  0.255904  0.839472  0.672356  1
  O  O28  1  0.469877  0.916472  0.496927  1
  O  O29  1  0.530123  0.416472  0.503073  1
  O  O30  1  0.027050  0.416472  0.496927  1
  O  O31  1  0.972950  0.916472  0.503073  1
  O  O32  1  0.909920  0.667273  1.000000  1
  O  O33  1  0.090080  0.167273  0.000000  1
  O  O34  1  0.907206  0.904696  1.000000  1
  O  O35  1  0.092794  0.404696  0.000000  1
  O  O36  1  0.766925  0.788916  0.129868  1
  O  O37  1  0.233075  0.288916  0.870132  1
  O  O38  1  0.362943  0.288916  0.129868  1
  O  O39  1  0.637057  0.788916  0.870132  1
  O  O40  1  0.538677  0.530213  1.000000  1
  O  O41  1  0.461323  0.030213  0.000000  1
  O  O42  1  0.660346  0.268775  1.000000  1
  O  O43  1  0.339654  0.768775  0.000000  1
  O  O44  1  0.902620  0.055764  0.268197  1
  O  O45  1  0.097380  0.555764  0.731803  1
  O  O46  1  0.365577  0.555764  0.268197  1
  O  O47  1  0.634423  0.055764  0.731803  1
  H  H48  1  0.451244  0.466653  0.000000  1
  H  H49  1  0.548756  0.966653  1.000000  1
  H  H50  1  0.572976  0.332401  0.000000  1
  H  H51  1  0.427024  0.832401  1.000000  1
  H  H52  1  0.920943  1.000488  0.353049  1
  H  H53  1  0.079057  0.500488  0.646951  1
  H  H54  1  0.432106  0.500488  0.353049  1
  H  H55  1  0.567894  1.000488  0.646951  1
  H  H56  1  0.904462  -0.003092  0.194160  1
  H  H57  1  0.095538  0.496908  0.805840  1
  H  H58  1  0.289698  0.496908  0.194160  1
  H  H59  1  0.710302  -0.003092  0.805840  1
