# generated using pymatgen
data_S
_symmetry_space_group_name_H-M   'P 1'
_cell_length_a   13.61825396
_cell_length_b   14.01928077
_cell_length_c   19.11073674
_cell_angle_alpha   108.77939699
_cell_angle_beta   90.00000000
_cell_angle_gamma   90.00000000
_symmetry_Int_Tables_number   1
_chemical_formula_structural   S
_chemical_formula_sum   S104
_cell_volume   3454.35386533
_cell_formula_units_Z   104
loop_
 _symmetry_equiv_pos_site_id
 _symmetry_equiv_pos_as_xyz
  1  'x, y, z'
loop_
 _atom_site_type_symbol
 _atom_site_label
 _atom_site_symmetry_multiplicity
 _atom_site_fract_x
 _atom_site_fract_y
 _atom_site_fract_z
 _atom_site_occupancy
  S  S0  1  0.197681  0.646300  0.267784  1
  S  S1  1  0.558122  0.400505  0.726255  1
  S  S2  1  0.336928  0.708733  0.881541  1
  S  S3  1  0.325754  0.040420  0.760294  1
  S  S4  1  0.700334  0.775138  0.379864  1
  S  S5  1  0.559143  0.263396  0.736972  1
  S  S6  1  0.350375  0.207014  0.105675  1
  S  S7  1  0.659391  0.079770  0.869998  1
  S  S8  1  0.391607  0.243350  0.013243  1
  S  S9  1  0.786919  0.534699  0.471358  1
  S  S10  1  0.954908  0.379571  0.909695  1
  S  S11  1  0.204791  0.534888  0.751142  1
  S  S12  1  0.369547  0.094039  0.558857  1
  S  S13  1  0.174246  0.040420  0.260294  1
  S  S14  1  0.994583  0.332316  0.993391  1
  S  S15  1  0.045092  0.620429  0.090305  1
  S  S16  1  0.401268  0.925527  0.782216  1
  S  S17  1  0.961956  0.274928  0.348977  1
  S  S18  1  0.299666  0.224862  0.620136  1
  S  S19  1  0.869547  0.905961  0.941143  1
  S  S20  1  0.058122  0.599495  0.773745  1
  S  S21  1  0.059143  0.736604  0.763028  1
  S  S22  1  0.820671  0.997448  0.260120  1
  S  S23  1  0.454908  0.620429  0.590305  1
  S  S24  1  0.320671  0.002552  0.239880  1
  S  S25  1  0.891607  0.756650  0.486757  1
  S  S26  1  0.538044  0.274928  0.848977  1
  S  S27  1  0.679329  0.997448  0.760120  1
  S  S28  1  0.840609  0.079770  0.369998  1
  S  S29  1  0.940857  0.263396  0.236972  1
  S  S30  1  0.302319  0.646300  0.767784  1
  S  S31  1  0.407315  0.105277  0.456780  1
  S  S32  1  0.545092  0.379571  0.409695  1
  S  S33  1  0.196760  0.316555  0.869966  1
  S  S34  1  0.104682  0.942900  0.393608  1
  S  S35  1  0.224407  0.452739  0.419440  1
  S  S36  1  0.901268  0.074473  0.717784  1
  S  S37  1  0.917058  0.603932  0.457466  1
  S  S38  1  0.330870  0.768089  0.117845  1
  S  S39  1  0.825754  0.959580  0.739706  1
  S  S40  1  0.149625  0.207014  0.605675  1
  S  S41  1  0.071266  0.343178  0.826154  1
  S  S42  1  0.200334  0.224862  0.120136  1
  S  S43  1  0.674246  0.959580  0.239706  1
  S  S44  1  0.697681  0.353700  0.232216  1
  S  S45  1  0.713081  0.534699  0.971358  1
  S  S46  1  0.608393  0.756650  0.986757  1
  S  S47  1  0.461956  0.725072  0.151023  1
  S  S48  1  0.038044  0.725072  0.651023  1
  S  S49  1  0.928733  0.656822  0.173846  1
  S  S50  1  0.696760  0.683445  0.630034  1
  S  S51  1  0.163072  0.708733  0.381541  1
  S  S52  1  0.169130  0.768089  0.617845  1
  S  S53  1  0.159391  0.920230  0.630002  1
  S  S54  1  0.098732  0.925527  0.282216  1
  S  S55  1  0.850375  0.792986  0.394325  1
  S  S56  1  0.505417  0.332316  0.493391  1
  S  S57  1  0.960120  0.177702  0.968403  1
  S  S58  1  0.795209  0.465112  0.248858  1
  S  S59  1  0.604682  0.057100  0.106392  1
  S  S60  1  0.571267  0.656822  0.673846  1
  S  S61  1  0.283230  0.852473  0.910668  1
  S  S62  1  0.775593  0.547261  0.580560  1
  S  S63  1  0.663072  0.291267  0.118459  1
  S  S64  1  0.592685  0.894723  0.543220  1
  S  S65  1  0.441878  0.599495  0.273745  1
  S  S66  1  0.830870  0.231911  0.382155  1
  S  S67  1  0.216770  0.852473  0.410668  1
  S  S68  1  0.941878  0.400505  0.226255  1
  S  S69  1  0.724407  0.547261  0.080560  1
  S  S70  1  0.716770  0.147527  0.089332  1
  S  S71  1  0.005417  0.667684  0.006609  1
  S  S72  1  0.460120  0.822298  0.531597  1
  S  S73  1  0.286919  0.465301  0.028642  1
  S  S74  1  0.039880  0.822298  0.031597  1
  S  S75  1  0.440857  0.736604  0.263028  1
  S  S76  1  0.213081  0.465301  0.528642  1
  S  S77  1  0.417058  0.396068  0.042534  1
  S  S78  1  0.428733  0.343178  0.326154  1
  S  S79  1  0.803240  0.683445  0.130034  1
  S  S80  1  0.092685  0.105277  0.956780  1
  S  S81  1  0.649625  0.792986  0.894325  1
  S  S82  1  0.108393  0.243350  0.513243  1
  S  S83  1  0.303240  0.316555  0.369966  1
  S  S84  1  0.630453  0.905961  0.441143  1
  S  S85  1  0.802319  0.353700  0.732216  1
  S  S86  1  0.340609  0.920230  0.130002  1
  S  S87  1  0.539880  0.177702  0.468403  1
  S  S88  1  0.295209  0.534888  0.251142  1
  S  S89  1  0.275593  0.452739  0.919440  1
  S  S90  1  0.130453  0.094039  0.058857  1
  S  S91  1  0.907315  0.894723  0.043220  1
  S  S92  1  0.179329  0.002552  0.739880  1
  S  S93  1  0.836928  0.291267  0.618459  1
  S  S94  1  0.783230  0.147527  0.589332  1
  S  S95  1  0.895318  0.057100  0.606392  1
  S  S96  1  0.669130  0.231911  0.882155  1
  S  S97  1  0.704791  0.465112  0.748858  1
  S  S98  1  0.395318  0.942900  0.893608  1
  S  S99  1  0.582942  0.603932  0.957466  1
  S  S100  1  0.598732  0.074473  0.217784  1
  S  S101  1  0.799666  0.775138  0.879864  1
  S  S102  1  0.082942  0.396068  0.542534  1
  S  S103  1  0.494583  0.667684  0.506609  1
