# generated using pymatgen
data_Ba2LaRuO6
_symmetry_space_group_name_H-M   'P 1'
_cell_length_a   6.10096128
_cell_length_b   6.11083762
_cell_length_c   6.15128764
_cell_angle_alpha   120.52812708
_cell_angle_beta   119.89381673
_cell_angle_gamma   89.85842751
_symmetry_Int_Tables_number   1
_chemical_formula_structural   Ba2LaRuO6
_chemical_formula_sum   'Ba2 La1 Ru1 O6'
_cell_volume   161.32074989
_cell_formula_units_Z   1
loop_
 _symmetry_equiv_pos_site_id
 _symmetry_equiv_pos_as_xyz
  1  'x, y, z'
loop_
 _atom_site_type_symbol
 _atom_site_label
 _atom_site_symmetry_multiplicity
 _atom_site_fract_x
 _atom_site_fract_y
 _atom_site_fract_z
 _atom_site_occupancy
  Ba  Ba0  1  0.250425  0.248110  0.002460  1
  Ba  Ba1  1  0.749575  0.751890  0.997540  1
  La  La2  1  0.500000  0.000000  0.500000  1
  Ru  Ru3  1  0.000000  0.500000  0.500000  1
  O  O4  1  0.780330  0.734991  0.456691  1
  O  O5  1  0.219670  0.265009  0.543309  1
  O  O6  1  0.201824  0.752349  0.957642  1
  O  O7  1  0.798176  0.247651  0.042358  1
  O  O8  1  0.735841  0.293981  0.486269  1
  O  O9  1  0.264159  0.706019  0.513731  1
