# generated using pymatgen
data_LiEu2Si3
_symmetry_space_group_name_H-M   'P 1'
_cell_length_a   4.48662960
_cell_length_b   7.83001907
_cell_length_c   7.98182811
_cell_angle_alpha   104.24028575
_cell_angle_beta   106.34774588
_cell_angle_gamma   89.97712288
_symmetry_Int_Tables_number   1
_chemical_formula_structural   LiEu2Si3
_chemical_formula_sum   'Li2 Eu4 Si6'
_cell_volume   260.08524952
_cell_formula_units_Z   2
loop_
 _symmetry_equiv_pos_site_id
 _symmetry_equiv_pos_as_xyz
  1  'x, y, z'
loop_
 _atom_site_type_symbol
 _atom_site_label
 _atom_site_symmetry_multiplicity
 _atom_site_fract_x
 _atom_site_fract_y
 _atom_site_fract_z
 _atom_site_occupancy
  Eu  Eu0  1  0.622099  0.935020  0.244284  1
  Eu  Eu1  1  0.386671  0.569198  0.773396  1
  Eu  Eu2  1  0.377901  0.064980  0.755716  1
  Eu  Eu3  1  0.613329  0.430802  0.226604  1
  Li  Li4  1  0.213352  0.265247  0.426723  1
  Li  Li5  1  0.786648  0.734753  0.573277  1
  Si  Si6  1  0.795623  0.284732  0.591609  1
  Si  Si7  1  0.954963  0.853499  0.911122  1
  Si  Si8  1  0.045037  0.146501  0.088878  1
  Si  Si9  1  0.953950  0.350641  0.908002  1
  Si  Si10  1  0.204377  0.715268  0.408391  1
  Si  Si11  1  0.046050  0.649359  0.091998  1
