# generated using pymatgen
data_Er4Si9Ir13
_symmetry_space_group_name_H-M   'P 1'
_cell_length_a   3.95045584
_cell_length_b   11.01239300
_cell_length_c   18.99887620
_cell_angle_alpha   90.00000000
_cell_angle_beta   90.00000000
_cell_angle_gamma   90.00000000
_symmetry_Int_Tables_number   1
_chemical_formula_structural   Er4Si9Ir13
_chemical_formula_sum   'Er8 Si18 Ir26'
_cell_volume   826.52658278
_cell_formula_units_Z   2
loop_
 _symmetry_equiv_pos_site_id
 _symmetry_equiv_pos_as_xyz
  1  'x, y, z'
loop_
 _atom_site_type_symbol
 _atom_site_label
 _atom_site_symmetry_multiplicity
 _atom_site_fract_x
 _atom_site_fract_y
 _atom_site_fract_z
 _atom_site_occupancy
  Er  Er0  1  0.750000  0.250000  0.519437  1
  Er  Er1  1  0.750000  0.750000  0.022121  1
  Er  Er2  1  0.250000  0.250000  0.977879  1
  Er  Er3  1  0.250000  0.750000  0.480563  1
  Er  Er4  1  0.750000  0.558806  0.207840  1
  Er  Er5  1  0.250000  0.441194  0.792160  1
  Er  Er6  1  0.250000  0.058806  0.792160  1
  Er  Er7  1  0.750000  0.941194  0.207840  1
  Si  Si8  1  0.250000  0.068281  0.585302  1
  Si  Si9  1  0.250000  0.750000  0.897886  1
  Si  Si10  1  0.750000  0.438394  0.919339  1
  Si  Si11  1  0.250000  0.376942  0.270744  1
  Si  Si12  1  0.750000  0.931719  0.414698  1
  Si  Si13  1  0.250000  0.123058  0.270744  1
  Si  Si14  1  0.250000  0.431719  0.585302  1
  Si  Si15  1  0.750000  0.623058  0.729256  1
  Si  Si16  1  0.250000  0.250000  0.397570  1
  Si  Si17  1  0.250000  0.938394  0.080661  1
  Si  Si18  1  0.750000  0.750000  0.602430  1
  Si  Si19  1  0.750000  0.568281  0.414698  1
  Si  Si20  1  0.250000  0.750000  0.267336  1
  Si  Si21  1  0.750000  0.876942  0.729256  1
  Si  Si22  1  0.750000  0.250000  0.102114  1
  Si  Si23  1  0.250000  0.561606  0.080661  1
  Si  Si24  1  0.750000  0.061606  0.919339  1
  Si  Si25  1  0.750000  0.250000  0.732664  1
  Ir  Ir26  1  0.250000  0.933547  0.335249  1
  Ir  Ir27  1  0.750000  0.049657  0.046621  1
  Ir  Ir28  1  0.750000  0.250000  0.227409  1
  Ir  Ir29  1  0.750000  0.122326  0.355397  1
  Ir  Ir30  1  0.750000  0.433547  0.664751  1
  Ir  Ir31  1  0.250000  0.622326  0.644603  1
  Ir  Ir32  1  0.250000  0.566453  0.335249  1
  Ir  Ir33  1  0.750000  0.625450  0.856568  1
  Ir  Ir34  1  0.250000  0.950343  0.953379  1
  Ir  Ir35  1  0.750000  0.377674  0.355397  1
  Ir  Ir36  1  0.750000  0.450343  0.046621  1
  Ir  Ir37  1  0.750000  0.066453  0.664751  1
  Ir  Ir38  1  0.750000  0.938810  0.539025  1
  Ir  Ir39  1  0.750000  0.250000  0.858378  1
  Ir  Ir40  1  0.250000  0.750000  0.141622  1
  Ir  Ir41  1  0.250000  0.250000  0.656888  1
  Ir  Ir42  1  0.250000  0.374550  0.143432  1
  Ir  Ir43  1  0.250000  0.877674  0.644603  1
  Ir  Ir44  1  0.750000  0.561190  0.539025  1
  Ir  Ir45  1  0.750000  0.750000  0.343112  1
  Ir  Ir46  1  0.250000  0.750000  0.772591  1
  Ir  Ir47  1  0.250000  0.549657  0.953379  1
  Ir  Ir48  1  0.250000  0.125450  0.143432  1
  Ir  Ir49  1  0.250000  0.438810  0.460975  1
  Ir  Ir50  1  0.250000  0.061190  0.460975  1
  Ir  Ir51  1  0.750000  0.874550  0.856568  1
