# generated using pymatgen
data_KCa2Nb3O10
_symmetry_space_group_name_H-M   'P 1'
_cell_length_a   7.80844310
_cell_length_b   7.85488076
_cell_length_c   15.19056053
_cell_angle_alpha   97.00606140
_cell_angle_beta   90.00000000
_cell_angle_gamma   90.00000000
_symmetry_Int_Tables_number   1
_chemical_formula_structural   KCa2Nb3O10
_chemical_formula_sum   'K4 Ca8 Nb12 O40'
_cell_volume   924.74695970
_cell_formula_units_Z   4
loop_
 _symmetry_equiv_pos_site_id
 _symmetry_equiv_pos_as_xyz
  1  'x, y, z'
loop_
 _atom_site_type_symbol
 _atom_site_label
 _atom_site_symmetry_multiplicity
 _atom_site_fract_x
 _atom_site_fract_y
 _atom_site_fract_z
 _atom_site_occupancy
  K  K0  1  0.250000  0.635859  0.522818  1
  K  K1  1  0.250000  0.130607  0.509569  1
  K  K2  1  0.750000  0.869393  0.490431  1
  K  K3  1  0.750000  0.364141  0.477182  1
  Ca  Ca4  1  0.250000  0.798302  0.149172  1
  Ca  Ca5  1  0.250000  0.292591  0.157993  1
  Ca  Ca6  1  0.750000  0.783955  0.149099  1
  Ca  Ca7  1  0.750000  0.201698  0.850828  1
  Ca  Ca8  1  0.750000  0.707409  0.842007  1
  Ca  Ca9  1  0.250000  0.711860  0.861918  1
  Ca  Ca10  1  0.250000  0.216045  0.850901  1
  Ca  Ca11  1  0.750000  0.288140  0.138082  1
  Nb  Nb12  1  0.505216  0.067669  0.285881  1
  Nb  Nb13  1  0.005216  0.932331  0.714119  1
  Nb  Nb14  1  0.494784  0.932331  0.714119  1
  Nb  Nb15  1  0.003318  0.428557  0.713308  1
  Nb  Nb16  1  0.503318  0.571443  0.286692  1
  Nb  Nb17  1  0.994784  0.067669  0.285881  1
  Nb  Nb18  1  0.996682  0.571443  0.286692  1
  Nb  Nb19  1  0.500000  0.500000  0.000000  1
  Nb  Nb20  1  0.496682  0.428557  0.713308  1
  Nb  Nb21  1  0.000000  0.000000  0.000000  1
  Nb  Nb22  1  0.000000  0.500000  0.000000  1
  Nb  Nb23  1  0.500000  0.000000  0.000000  1
  O  O24  1  0.510774  0.685003  0.731073  1
  O  O25  1  0.044927  0.916873  0.597053  1
  O  O26  1  0.512288  0.809367  0.245160  1
  O  O27  1  0.035724  0.500033  0.127872  1
  O  O28  1  0.489226  0.314997  0.268927  1
  O  O29  1  0.250000  0.452743  0.758073  1
  O  O30  1  0.987712  0.809367  0.245160  1
  O  O31  1  0.250000  0.048205  0.281347  1
  O  O32  1  0.566801  0.247164  0.988965  1
  O  O33  1  0.066801  0.752836  0.011035  1
  O  O34  1  0.750000  0.069817  0.236825  1
  O  O35  1  0.466868  0.388385  0.595180  1
  O  O36  1  0.989226  0.685003  0.731073  1
  O  O37  1  0.750000  0.547257  0.241927  1
  O  O38  1  0.250000  0.043878  0.968530  1
  O  O39  1  0.750000  0.415564  0.726081  1
  O  O40  1  0.533132  0.611615  0.404820  1
  O  O41  1  0.750000  0.563519  0.025429  1
  O  O42  1  0.033132  0.388385  0.595180  1
  O  O43  1  0.051010  0.057780  0.127148  1
  O  O44  1  0.250000  0.584436  0.273919  1
  O  O45  1  0.464276  0.500033  0.127872  1
  O  O46  1  0.955073  0.083127  0.402947  1
  O  O47  1  0.544927  0.083127  0.402947  1
  O  O48  1  0.012288  0.190633  0.754840  1
  O  O49  1  0.948990  0.942220  0.872852  1
  O  O50  1  0.487712  0.190633  0.754840  1
  O  O51  1  0.750000  0.951795  0.718653  1
  O  O52  1  0.010774  0.314997  0.268927  1
  O  O53  1  0.250000  0.436481  0.974571  1
  O  O54  1  0.964276  0.499967  0.872128  1
  O  O55  1  0.966868  0.611615  0.404820  1
  O  O56  1  0.750000  0.956122  0.031470  1
  O  O57  1  0.433199  0.752836  0.011035  1
  O  O58  1  0.448990  0.057780  0.127148  1
  O  O59  1  0.535724  0.499967  0.872128  1
  O  O60  1  0.551010  0.942220  0.872852  1
  O  O61  1  0.455073  0.916873  0.597053  1
  O  O62  1  0.933199  0.247164  0.988965  1
  O  O63  1  0.250000  0.930183  0.763175  1
