# generated using pymatgen
data_BaWO4
_symmetry_space_group_name_H-M   'P 1'
_cell_length_a   7.29019848
_cell_length_b   7.63204825
_cell_length_c   13.50054834
_cell_angle_alpha   94.30804636
_cell_angle_beta   90.00000000
_cell_angle_gamma   90.00000000
_symmetry_Int_Tables_number   1
_chemical_formula_structural   BaWO4
_chemical_formula_sum   'Ba8 W8 O32'
_cell_volume   749.03665835
_cell_formula_units_Z   8
loop_
 _symmetry_equiv_pos_site_id
 _symmetry_equiv_pos_as_xyz
  1  'x, y, z'
loop_
 _atom_site_type_symbol
 _atom_site_label
 _atom_site_symmetry_multiplicity
 _atom_site_fract_x
 _atom_site_fract_y
 _atom_site_fract_z
 _atom_site_occupancy
  Ba  Ba0  1  0.659233  0.157225  0.160009  1
  Ba  Ba1  1  0.159233  0.342775  0.339991  1
  Ba  Ba2  1  0.340767  0.842775  0.839991  1
  Ba  Ba3  1  0.840767  0.657225  0.660009  1
  Ba  Ba4  1  0.935807  0.639695  0.148626  1
  Ba  Ba5  1  0.435807  0.860305  0.351374  1
  Ba  Ba6  1  0.064193  0.360305  0.851374  1
  Ba  Ba7  1  0.564193  0.139695  0.648626  1
  W  W8  1  0.159608  0.090832  0.077823  1
  W  W9  1  0.659608  0.409168  0.422177  1
  W  W10  1  0.840392  0.909168  0.922177  1
  W  W11  1  0.340392  0.590832  0.577823  1
  W  W12  1  0.449398  0.662741  0.079030  1
  W  W13  1  0.949398  0.837259  0.420970  1
  W  W14  1  0.550602  0.337259  0.920970  1
  W  W15  1  0.050602  0.162741  0.579030  1
  O  O16  1  0.022691  0.289772  0.108632  1
  O  O17  1  0.522691  0.210228  0.391368  1
  O  O18  1  0.977309  0.710228  0.891368  1
  O  O19  1  0.477309  0.789772  0.608632  1
  O  O20  1  0.587050  0.793503  0.172211  1
  O  O21  1  0.087050  0.706497  0.327789  1
  O  O22  1  0.412950  0.206497  0.827789  1
  O  O23  1  0.912950  0.293503  0.672211  1
  O  O24  1  0.634716  0.473062  0.055080  1
  O  O25  1  0.134716  0.026938  0.444920  1
  O  O26  1  0.365284  0.526938  0.944920  1
  O  O27  1  0.865284  0.973062  0.555080  1
  O  O28  1  0.250865  0.069000  0.204494  1
  O  O29  1  0.750865  0.431000  0.295506  1
  O  O30  1  0.749135  0.931000  0.795506  1
  O  O31  1  0.249135  0.569000  0.704494  1
  O  O32  1  0.276187  0.834536  0.044508  1
  O  O33  1  0.776187  0.665464  0.455492  1
  O  O34  1  0.723813  0.165464  0.955492  1
  O  O35  1  0.223813  0.334536  0.544508  1
  O  O36  1  0.308161  0.552270  0.164720  1
  O  O37  1  0.808161  0.947730  0.335280  1
  O  O38  1  0.691839  0.447730  0.835280  1
  O  O39  1  0.191839  0.052270  0.664720  1
  O  O40  1  0.369727  0.193695  0.025373  1
  O  O41  1  0.869727  0.306305  0.474627  1
  O  O42  1  0.630273  0.806305  0.974627  1
  O  O43  1  0.130273  0.693695  0.525373  1
  O  O44  1  0.927010  0.948557  0.075459  1
  O  O45  1  0.427010  0.551443  0.424541  1
  O  O46  1  0.072990  0.051443  0.924541  1
  O  O47  1  0.572990  0.448557  0.575459  1
