# generated using pymatgen
data_Ge2S3Br2
_symmetry_space_group_name_H-M   'P 1'
_cell_length_a   9.43297297
_cell_length_b   10.57002016
_cell_length_c   10.73725966
_cell_angle_alpha   93.63496980
_cell_angle_beta   115.92241919
_cell_angle_gamma   90.03494708
_symmetry_Int_Tables_number   1
_chemical_formula_structural   Ge2S3Br2
_chemical_formula_sum   'Ge8 S12 Br8'
_cell_volume   960.44703985
_cell_formula_units_Z   4
loop_
 _symmetry_equiv_pos_site_id
 _symmetry_equiv_pos_as_xyz
  1  'x, y, z'
loop_
 _atom_site_type_symbol
 _atom_site_label
 _atom_site_symmetry_multiplicity
 _atom_site_fract_x
 _atom_site_fract_y
 _atom_site_fract_z
 _atom_site_occupancy
  Ge  Ge0  1  0.738585  0.817673  0.742779  1
  Ge  Ge1  1  0.261415  0.182327  0.257221  1
  Ge  Ge2  1  0.696222  0.514473  0.822700  1
  Ge  Ge3  1  0.303778  0.485527  0.177300  1
  Ge  Ge4  1  0.370681  0.696755  0.670160  1
  Ge  Ge5  1  0.629319  0.303245  0.329840  1
  Ge  Ge6  1  0.639221  0.770610  0.009030  1
  Ge  Ge7  1  0.360779  0.229390  0.990970  1
  S  S8  1  0.780850  0.905988  0.952036  1
  S  S9  1  0.219150  0.094012  0.047964  1
  S  S10  1  0.843212  0.626379  0.748464  1
  S  S11  1  0.156788  0.373621  0.251536  1
  S  S12  1  0.487929  0.825229  0.582358  1
  S  S13  1  0.512071  0.174771  0.417642  1
  S  S14  1  0.734599  0.574971  0.039533  1
  S  S15  1  0.265401  0.425029  0.960467  1
  S  S16  1  0.440973  0.494318  0.670375  1
  S  S17  1  0.559027  0.505682  0.329625  1
  S  S18  1  0.378786  0.773075  0.873326  1
  S  S19  1  0.621214  0.226925  0.126674  1
  Br  Br20  1  0.878447  0.949252  0.668838  1
  Br  Br21  1  0.121553  0.050748  0.331162  1
  Br  Br22  1  0.106448  0.692761  0.515369  1
  Br  Br23  1  0.893552  0.307239  0.484631  1
  Br  Br24  1  0.672169  0.847491  0.226785  1
  Br  Br25  1  0.327831  0.152509  0.773215  1
  Br  Br26  1  0.788108  0.311104  0.835935  1
  Br  Br27  1  0.211892  0.688896  0.164065  1
