# generated using pymatgen
data_Ga2PbO4
_symmetry_space_group_name_H-M   'P 1'
_cell_length_a   5.33816100
_cell_length_b   5.45174435
_cell_length_c   8.72008104
_cell_angle_alpha   89.70759927
_cell_angle_beta   89.97108482
_cell_angle_gamma   119.29484346
_symmetry_Int_Tables_number   1
_chemical_formula_structural   Ga2PbO4
_chemical_formula_sum   'Ga4 Pb2 O8'
_cell_volume   221.31576887
_cell_formula_units_Z   2
loop_
 _symmetry_equiv_pos_site_id
 _symmetry_equiv_pos_as_xyz
  1  'x, y, z'
loop_
 _atom_site_type_symbol
 _atom_site_label
 _atom_site_symmetry_multiplicity
 _atom_site_fract_x
 _atom_site_fract_y
 _atom_site_fract_z
 _atom_site_occupancy
  Ga  Ga0  1  0.709349  0.348253  0.058511  1
  Ga  Ga1  1  0.704251  0.336021  0.453959  1
  Ga  Ga2  1  0.364377  0.658061  0.954397  1
  Ga  Ga3  1  0.358234  0.644233  0.559826  1
  Pb  Pb4  1  0.027537  0.058165  0.256506  1
  Pb  Pb5  1  0.964292  0.935682  0.752296  1
  O  O6  1  0.675630  0.006080  0.000953  1
  O  O7  1  0.007767  0.637735  0.947451  1
  O  O8  1  0.365544  0.352523  0.451660  1
  O  O9  1  0.670095  0.988755  0.504368  1
  O  O10  1  0.001547  0.623834  0.564664  1
  O  O11  1  0.863227  0.379017  0.256527  1
  O  O12  1  0.478879  0.609377  0.757620  1
  O  O13  1  0.377770  0.376464  0.071262  1
