# generated using pymatgen
data_LaTaN2O
_symmetry_space_group_name_H-M   'P 1'
_cell_length_a   5.67029202
_cell_length_b   5.67031115
_cell_length_c   5.73464881
_cell_angle_alpha   60.99883332
_cell_angle_beta   60.99900908
_cell_angle_gamma   90.74234174
_symmetry_Int_Tables_number   1
_chemical_formula_structural   LaTaN2O
_chemical_formula_sum   'La2 Ta2 N4 O2'
_cell_volume   133.42305236
_cell_formula_units_Z   2
loop_
 _symmetry_equiv_pos_site_id
 _symmetry_equiv_pos_as_xyz
  1  'x, y, z'
loop_
 _atom_site_type_symbol
 _atom_site_label
 _atom_site_symmetry_multiplicity
 _atom_site_fract_x
 _atom_site_fract_y
 _atom_site_fract_z
 _atom_site_occupancy
  N  N0  1  0.231242  0.768803  1.000006  1
  La  La1  1  0.750391  0.750440  0.006910  1
  N  N2  1  0.674456  0.674409  0.531483  1
  Ta  Ta3  1  0.500060  0.999962  0.500059  1
  La  La4  1  0.249528  0.249572  0.993098  1
  O  O5  1  0.810915  0.189089  0.499989  1
  N  N6  1  0.768841  0.231192  1.000007  1
  O  O7  1  0.189101  0.810909  0.499992  1
  N  N8  1  0.325617  0.325569  0.468525  1
  Ta  Ta9  1  0.999850  0.500055  0.499931  1
