# generated using pymatgen
data_CrI2
_symmetry_space_group_name_H-M   'P 1'
_cell_length_a   4.12760505
_cell_length_b   4.07593846
_cell_length_c   14.51420552
_cell_angle_alpha   90.00000000
_cell_angle_beta   90.00000000
_cell_angle_gamma   120.42021197
_symmetry_Int_Tables_number   1
_chemical_formula_structural   CrI2
_chemical_formula_sum   'Cr2 I4'
_cell_volume   210.56931678
_cell_formula_units_Z   2
loop_
 _symmetry_equiv_pos_site_id
 _symmetry_equiv_pos_as_xyz
  1  'x, y, z'
loop_
 _atom_site_type_symbol
 _atom_site_label
 _atom_site_symmetry_multiplicity
 _atom_site_fract_x
 _atom_site_fract_y
 _atom_site_fract_z
 _atom_site_occupancy
  Cr  Cr0  1  0.664118  0.328235  0.620421  1
  Cr  Cr1  1  0.335882  0.671765  0.120421  1
  I  I2  1  0.990670  0.981339  0.508607  1
  I  I3  1  0.009330  0.018661  0.008607  1
  I  I4  1  0.337402  0.674803  0.731972  1
  I  I5  1  0.662598  0.325197  0.231972  1
