# generated using pymatgen
data_Na5Ca4P4O16F
_symmetry_space_group_name_H-M   'P 1'
_cell_length_a   5.47224728
_cell_length_b   8.74763816
_cell_length_c   8.74769629
_cell_angle_alpha   84.38539313
_cell_angle_beta   71.77168767
_cell_angle_gamma   71.77134489
_symmetry_Int_Tables_number   1
_chemical_formula_structural   Na5Ca4P4O16F
_chemical_formula_sum   'Na5 Ca4 P4 O16 F1'
_cell_volume   377.77201981
_cell_formula_units_Z   1
loop_
 _symmetry_equiv_pos_site_id
 _symmetry_equiv_pos_as_xyz
  1  'x, y, z'
loop_
 _atom_site_type_symbol
 _atom_site_label
 _atom_site_symmetry_multiplicity
 _atom_site_fract_x
 _atom_site_fract_y
 _atom_site_fract_z
 _atom_site_occupancy
  Na  Na0  1  0.621190  0.482187  0.294470  1
  Na  Na1  1  0.896626  0.705537  0.482183  1
  Na  Na2  1  0.084400  0.294495  0.517786  1
  Na  Na3  1  0.500004  0.999997  -0.000003  1
  Na  Na4  1  0.397866  0.517807  0.705496  1
  Ca  Ca5  1  0.197879  0.933036  0.709920  1
  Ca  Ca6  1  0.092213  0.709918  0.066965  1
  Ca  Ca7  1  0.869074  0.290079  0.933031  1
  Ca  Ca8  1  0.840841  0.066964  0.290079  1
  P  P9  1  0.385015  0.854804  0.354495  1
  P  P10  1  0.594278  0.145196  0.645517  1
  P  P11  1  0.760184  0.645511  0.854808  1
  P  P12  1  0.260511  0.354489  0.145202  1
  O  O13  1  0.860284  0.514496  0.720768  1
  O  O14  1  0.528558  0.254708  0.179427  1
  O  O15  1  0.683110  0.979529  0.563034  1
  O  O16  1  0.292004  0.179427  0.745295  1
  O  O17  1  0.337338  0.436961  0.979531  1
  O  O18  1  0.090674  0.242209  0.142777  1
  O  O19  1  0.216729  0.820584  0.254725  1
  O  O20  1  0.753798  0.563030  0.020481  1
  O  O21  1  0.418942  0.720756  0.485503  1
  O  O22  1  0.962709  0.745276  0.820590  1
  O  O23  1  0.625183  0.279245  0.514495  1
  O  O24  1  0.766541  0.142770  0.757781  1
  O  O25  1  0.475649  0.757801  0.857229  1
  O  O26  1  0.225712  0.020475  0.436965  1
  O  O27  1  0.667137  0.857215  0.242208  1
  O  O28  1  0.095550  0.485504  0.279246  1
  F  F29  1  0.000002  0.999997  0.999995  1
