# generated using pymatgen
data_Al(HO)3
_symmetry_space_group_name_H-M   'P 1'
_cell_length_a   6.65843302
_cell_length_b   7.62185165
_cell_length_c   8.09437817
_cell_angle_alpha   112.75297810
_cell_angle_beta   140.39450096
_cell_angle_gamma   87.82366061
_symmetry_Int_Tables_number   1
_chemical_formula_structural   Al(HO)3
_chemical_formula_sum   'Al4 H12 O12'
_cell_volume   216.59416627
_cell_formula_units_Z   4
loop_
 _symmetry_equiv_pos_site_id
 _symmetry_equiv_pos_as_xyz
  1  'x, y, z'
loop_
 _atom_site_type_symbol
 _atom_site_label
 _atom_site_symmetry_multiplicity
 _atom_site_fract_x
 _atom_site_fract_y
 _atom_site_fract_z
 _atom_site_occupancy
  Al  Al0  1  0.468725  0.828491  0.312866  1
  Al  Al1  1  0.494961  0.165163  0.676179  1
  Al  Al2  1  0.991235  0.667810  0.670988  1
  Al  Al3  1  0.972788  0.325038  0.317114  1
  H  H4  1  0.036473  0.033145  0.862152  1
  H  H5  1  0.901612  0.955664  0.106162  1
  H  H6  1  0.523570  0.523258  0.862542  1
  H  H7  1  0.390883  0.459705  0.095206  1
  H  H8  1  0.885272  0.653346  0.305937  1
  H  H9  1  0.833370  0.289829  0.530937  1
  H  H10  1  0.364139  0.155146  0.304202  1
  H  H11  1  0.346658  0.790097  0.540020  1
  H  H12  1  0.659929  0.904142  0.160678  1
  H  H13  1  0.300126  0.099921  0.826703  1
  H  H14  1  0.165097  0.402863  0.165906  1
  H  H15  1  0.801771  0.603107  0.830599  1
  O  O16  1  0.978791  0.931064  0.697747  1
  O  O17  1  0.985343  0.064591  0.285601  1
  O  O18  1  0.484046  0.429229  0.708463  1
  O  O19  1  0.482080  0.566283  0.279511  1
  O  O20  1  0.057056  0.621424  0.461925  1
  O  O21  1  0.935154  0.388501  0.538303  1
  O  O22  1  0.546611  0.123661  0.457874  1
  O  O23  1  0.437238  0.887052  0.538293  1
  O  O24  1  0.484701  0.788571  0.076193  1
  O  O25  1  0.488573  0.206421  0.914784  1
  O  O26  1  0.994592  0.283582  0.082531  1
  O  O27  1  0.982601  0.709101  0.910950  1
