# generated using pymatgen
data_Cs2Te10Mo9
_symmetry_space_group_name_H-M   'P 1'
_cell_length_a   14.54534775
_cell_length_b   14.54534792
_cell_length_c   14.54534817
_cell_angle_alpha   42.11405330
_cell_angle_beta   42.11405256
_cell_angle_gamma   42.11405228
_symmetry_Int_Tables_number   1
_chemical_formula_structural   Cs2Te10Mo9
_chemical_formula_sum   'Cs4 Te20 Mo18'
_cell_volume   1252.13814837
_cell_formula_units_Z   2
loop_
 _symmetry_equiv_pos_site_id
 _symmetry_equiv_pos_as_xyz
  1  'x, y, z'
loop_
 _atom_site_type_symbol
 _atom_site_label
 _atom_site_symmetry_multiplicity
 _atom_site_fract_x
 _atom_site_fract_y
 _atom_site_fract_z
 _atom_site_occupancy
  Cs  Cs0  1  0.698901  0.698901  0.698901  1
  Cs  Cs1  1  0.301099  0.301099  0.301099  1
  Cs  Cs2  1  0.575825  0.575825  0.575825  1
  Cs  Cs3  1  0.424175  0.424175  0.424175  1
  Te  Te4  1  0.797031  0.797031  0.797031  1
  Te  Te5  1  0.562733  0.821652  0.185489  1
  Te  Te6  1  0.203001  0.945201  0.586670  1
  Te  Te7  1  0.320099  0.068215  0.697700  1
  Te  Te8  1  0.945201  0.586670  0.203001  1
  Te  Te9  1  0.437267  0.178348  0.814511  1
  Te  Te10  1  0.679901  0.931785  0.302300  1
  Te  Te11  1  0.185489  0.562733  0.821652  1
  Te  Te12  1  0.821652  0.185489  0.562733  1
  Te  Te13  1  0.068215  0.697700  0.320099  1
  Te  Te14  1  0.796999  0.054799  0.413330  1
  Te  Te15  1  0.302300  0.679901  0.931785  1
  Te  Te16  1  0.054799  0.413330  0.796999  1
  Te  Te17  1  0.697700  0.320099  0.068215  1
  Te  Te18  1  0.586670  0.203001  0.945201  1
  Te  Te19  1  0.202969  0.202969  0.202969  1
  Te  Te20  1  0.814511  0.437267  0.178348  1
  Te  Te21  1  0.413330  0.796999  0.054799  1
  Te  Te22  1  0.178348  0.814511  0.437267  1
  Te  Te23  1  0.931785  0.302300  0.679901  1
  Mo  Mo24  1  0.931565  0.228705  0.102234  1
  Mo  Mo25  1  0.990945  0.871967  0.699336  1
  Mo  Mo26  1  0.988023  0.815176  0.107811  1
  Mo  Mo27  1  0.771295  0.897766  0.068435  1
  Mo  Mo28  1  0.011977  0.184824  0.892189  1
  Mo  Mo29  1  0.699336  0.990945  0.871967  1
  Mo  Mo30  1  0.815176  0.107811  0.988023  1
  Mo  Mo31  1  0.128033  0.300664  0.009055  1
  Mo  Mo32  1  0.228705  0.102234  0.931565  1
  Mo  Mo33  1  0.300664  0.009055  0.128033  1
  Mo  Mo34  1  0.892189  0.011977  0.184824  1
  Mo  Mo35  1  0.107811  0.988023  0.815176  1
  Mo  Mo36  1  0.184824  0.892189  0.011977  1
  Mo  Mo37  1  0.068435  0.771295  0.897766  1
  Mo  Mo38  1  0.009055  0.128033  0.300664  1
  Mo  Mo39  1  0.897766  0.068435  0.771295  1
  Mo  Mo40  1  0.871967  0.699336  0.990945  1
  Mo  Mo41  1  0.102234  0.931565  0.228705  1
