# generated using pymatgen
data_BaCaSiO4
_symmetry_space_group_name_H-M   'P 1'
_cell_length_a   11.37596120
_cell_length_b   11.37596090
_cell_length_c   7.30110473
_cell_angle_alpha   90.00000000
_cell_angle_beta   90.00000000
_cell_angle_gamma   120.00000089
_symmetry_Int_Tables_number   1
_chemical_formula_structural   BaCaSiO4
_chemical_formula_sum   'Ba8 Ca8 Si8 O32'
_cell_volume   818.26768176
_cell_formula_units_Z   8
loop_
 _symmetry_equiv_pos_site_id
 _symmetry_equiv_pos_as_xyz
  1  'x, y, z'
loop_
 _atom_site_type_symbol
 _atom_site_label
 _atom_site_symmetry_multiplicity
 _atom_site_fract_x
 _atom_site_fract_y
 _atom_site_fract_z
 _atom_site_occupancy
  Ba  Ba0  1  0.666063  0.833031  0.954814  1
  Ba  Ba1  1  0.333937  0.166969  0.454814  1
  Ba  Ba2  1  0.833031  0.166969  0.454814  1
  Ba  Ba3  1  0.166969  0.333937  0.954814  1
  Ba  Ba4  1  0.166969  0.833031  0.954814  1
  Ba  Ba5  1  0.666667  0.333333  0.142701  1
  Ba  Ba6  1  0.833031  0.666063  0.454814  1
  Ba  Ba7  1  0.333333  0.666667  0.642701  1
  Ca  Ca8  1  0.470846  0.941692  0.277670  1
  Ca  Ca9  1  0.529154  0.058308  0.777670  1
  Ca  Ca10  1  0.941692  0.470846  0.777670  1
  Ca  Ca11  1  0.000000  0.000000  0.251805  1
  Ca  Ca12  1  0.000000  0.000000  0.751805  1
  Ca  Ca13  1  0.470846  0.529154  0.277670  1
  Ca  Ca14  1  0.058308  0.529154  0.277670  1
  Ca  Ca15  1  0.529154  0.470846  0.777670  1
  Si  Si16  1  0.342651  0.171326  0.005473  1
  Si  Si17  1  0.171326  0.828674  0.505473  1
  Si  Si18  1  0.333333  0.666667  0.070188  1
  Si  Si19  1  0.828674  0.171326  0.005473  1
  Si  Si20  1  0.657349  0.828674  0.505473  1
  Si  Si21  1  0.171326  0.342651  0.505473  1
  Si  Si22  1  0.828674  0.657349  0.005473  1
  Si  Si23  1  0.666667  0.333333  0.570188  1
  O  O24  1  0.373933  0.186967  0.787861  1
  O  O25  1  0.813033  0.626067  0.787861  1
  O  O26  1  0.186967  0.813033  0.287861  1
  O  O27  1  0.587925  0.175851  0.488131  1
  O  O28  1  0.587925  0.412075  0.488131  1
  O  O29  1  0.912705  0.825410  0.039533  1
  O  O30  1  0.912705  0.087295  0.039533  1
  O  O31  1  0.914397  0.590458  0.099374  1
  O  O32  1  0.590458  0.914397  0.599374  1
  O  O33  1  0.174590  0.087295  0.039533  1
  O  O34  1  0.666667  0.333333  0.792621  1
  O  O35  1  0.323939  0.409542  0.599374  1
  O  O36  1  0.333333  0.666667  0.292621  1
  O  O37  1  0.825410  0.912705  0.539533  1
  O  O38  1  0.676061  0.085603  0.099374  1
  O  O39  1  0.626067  0.813033  0.287861  1
  O  O40  1  0.676061  0.590458  0.099374  1
  O  O41  1  0.412075  0.587925  0.988131  1
  O  O42  1  0.409542  0.085603  0.099374  1
  O  O43  1  0.914397  0.323939  0.099374  1
  O  O44  1  0.323939  0.914397  0.599374  1
  O  O45  1  0.813033  0.186967  0.787861  1
  O  O46  1  0.087295  0.174590  0.539533  1
  O  O47  1  0.175851  0.587925  0.988131  1
  O  O48  1  0.085603  0.409542  0.599374  1
  O  O49  1  0.085603  0.676061  0.599374  1
  O  O50  1  0.824149  0.412075  0.488131  1
  O  O51  1  0.087295  0.912705  0.539533  1
  O  O52  1  0.186967  0.373933  0.287861  1
  O  O53  1  0.590458  0.676061  0.599374  1
  O  O54  1  0.412075  0.824149  0.988131  1
  O  O55  1  0.409542  0.323939  0.099374  1
