# generated using pymatgen
data_VP3(HO5)2
_symmetry_space_group_name_H-M   'P 1'
_cell_length_a   7.56760479
_cell_length_b   8.98563114
_cell_length_c   11.92440886
_cell_angle_alpha   90.00000000
_cell_angle_beta   103.47074195
_cell_angle_gamma   90.00000000
_symmetry_Int_Tables_number   1
_chemical_formula_structural   VP3(HO5)2
_chemical_formula_sum   'V4 P12 H8 O40'
_cell_volume   788.54882239
_cell_formula_units_Z   4
loop_
 _symmetry_equiv_pos_site_id
 _symmetry_equiv_pos_as_xyz
  1  'x, y, z'
loop_
 _atom_site_type_symbol
 _atom_site_label
 _atom_site_symmetry_multiplicity
 _atom_site_fract_x
 _atom_site_fract_y
 _atom_site_fract_z
 _atom_site_occupancy
  V  V0  1  0.462330  0.072408  0.207995  1
  V  V1  1  0.037670  0.572408  0.292005  1
  V  V2  1  0.537670  0.927592  0.792005  1
  V  V3  1  0.962330  0.427592  0.707995  1
  P  P4  1  0.280215  0.391296  0.135569  1
  P  P5  1  0.219785  0.891296  0.364431  1
  P  P6  1  0.719785  0.608704  0.864431  1
  P  P7  1  0.780215  0.108704  0.635569  1
  P  P8  1  0.648312  0.392613  0.292482  1
  P  P9  1  0.851688  0.892613  0.207518  1
  P  P10  1  0.351688  0.607387  0.707518  1
  P  P11  1  0.148312  0.107387  0.792482  1
  P  P12  1  0.728548  0.119131  0.023697  1
  P  P13  1  0.771452  0.619131  0.476303  1
  P  P14  1  0.271452  0.880869  0.976303  1
  P  P15  1  0.228548  0.380869  0.523697  1
  O  O16  1  0.474981  0.459673  0.204917  1
  O  O17  1  0.025019  0.959673  0.295083  1
  O  O18  1  0.525019  0.540327  0.795083  1
  O  O19  1  0.974981  0.040327  0.704917  1
  O  O20  1  0.796263  0.082776  0.508752  1
  O  O21  1  0.703737  0.582776  0.991248  1
  O  O22  1  0.203737  0.917224  0.491248  1
  O  O23  1  0.296263  0.417224  0.008752  1
  O  O24  1  0.652490  0.480405  0.408790  1
  O  O25  1  0.847510  0.980405  0.091210  1
  O  O26  1  0.347510  0.519595  0.591210  1
  O  O27  1  0.152490  0.019595  0.908790  1
  O  O28  1  0.368133  0.988054  0.337663  1
  O  O29  1  0.131867  0.488054  0.162337  1
  O  O30  1  0.631867  0.011946  0.662337  1
  O  O31  1  0.868133  0.511946  0.837663  1
  O  O32  1  0.269380  0.228323  0.166794  1
  O  O33  1  0.230620  0.728323  0.333206  1
  O  O34  1  0.730620  0.771677  0.833206  1
  O  O35  1  0.769380  0.271677  0.666794  1
  O  O36  1  0.568342  0.143498  0.077550  1
  O  O37  1  0.931658  0.643498  0.422450  1
  O  O38  1  0.431658  0.856502  0.922450  1
  O  O39  1  0.068342  0.356502  0.577550  1
  O  O40  1  0.617331  0.229766  0.317403  1
  O  O41  1  0.882669  0.729766  0.182597  1
  O  O42  1  0.382669  0.770234  0.682597  1
  O  O43  1  0.117331  0.270234  0.817403  1
  O  O44  1  0.816027  0.424807  0.247758  1
  O  O45  1  0.683973  0.924807  0.252242  1
  O  O46  1  0.183973  0.575193  0.752242  1
  O  O47  1  0.316027  0.075193  0.747758  1
  O  O48  1  0.188314  0.418860  0.397658  1
  O  O49  1  0.311686  0.918860  0.102342  1
  O  O50  1  0.811686  0.581140  0.602342  1
  O  O51  1  0.688314  0.081140  0.897658  1
  O  O52  1  0.859640  0.256277  0.042547  1
  O  O53  1  0.640360  0.756277  0.457453  1
  O  O54  1  0.140360  0.743723  0.957453  1
  O  O55  1  0.359640  0.243723  0.542547  1
  H  H56  1  0.720487  0.144842  0.446209  1
  H  H57  1  0.779513  0.644842  0.053791  1
  H  H58  1  0.279513  0.855158  0.553791  1
  H  H59  1  0.220487  0.355158  0.946209  1
  H  H60  1  0.854007  0.320302  0.109082  1
  H  H61  1  0.645993  0.820302  0.390918  1
  H  H62  1  0.145993  0.679698  0.890918  1
  H  H63  1  0.354007  0.179698  0.609082  1
