# generated using pymatgen
data_SiO2
_symmetry_space_group_name_H-M   'P 1'
_cell_length_a   15.36322372
_cell_length_b   15.36322422
_cell_length_c   15.36322439
_cell_angle_alpha   109.55551737
_cell_angle_beta   109.09060638
_cell_angle_gamma   109.76827648
_symmetry_Int_Tables_number   1
_chemical_formula_structural   SiO2
_chemical_formula_sum   'Si16 O32'
_cell_volume   2791.31817769
_cell_formula_units_Z   16
loop_
 _symmetry_equiv_pos_site_id
 _symmetry_equiv_pos_as_xyz
  1  'x, y, z'
loop_
 _atom_site_type_symbol
 _atom_site_label
 _atom_site_symmetry_multiplicity
 _atom_site_fract_x
 _atom_site_fract_y
 _atom_site_fract_z
 _atom_site_occupancy
  Si  Si0  1  0.305223  0.467407  0.772631  1
  Si  Si1  1  0.000709  0.707022  0.547976  1
  Si  Si2  1  0.999291  0.547267  0.706313  1
  Si  Si3  1  0.840954  0.547267  0.547976  1
  Si  Si4  1  0.499392  0.300224  0.959234  1
  Si  Si5  1  0.159046  0.707022  0.706313  1
  Si  Si6  1  0.304879  0.095960  0.791082  1
  Si  Si7  1  0.659010  0.459842  0.959234  1
  Si  Si8  1  0.694777  0.467407  0.162184  1
  Si  Si9  1  0.196686  0.910963  0.714277  1
  Si  Si10  1  0.695121  0.486203  0.791082  1
  Si  Si11  1  0.340990  0.300224  0.800832  1
  Si  Si12  1  0.803314  0.517590  0.714277  1
  Si  Si13  1  0.804412  0.540942  0.345354  1
  Si  Si14  1  0.195588  0.540942  0.736529  1
  Si  Si15  1  0.500608  0.459842  0.800832  1
  O  O16  1  0.771561  0.531120  0.608257  1
  O  O17  1  0.423846  0.170338  0.897875  1
  O  O18  1  0.772357  0.493898  0.418831  1
  O  O19  1  0.788338  0.595727  0.807389  1
  O  O20  1  0.075067  0.493898  0.721541  1
  O  O21  1  0.922864  0.531120  0.759559  1
  O  O22  1  0.727537  0.474029  0.897875  1
  O  O23  1  0.272463  0.170338  0.746492  1
  O  O24  1  0.917822  0.675411  0.593234  1
  O  O25  1  0.077136  0.836696  0.608257  1
  O  O26  1  0.082178  0.675411  0.757589  1
  O  O27  1  0.709978  0.407788  0.697810  1
  O  O28  1  0.211662  0.019051  0.807389  1
  O  O29  1  0.213223  0.448292  0.661516  1
  O  O30  1  0.227643  0.646474  0.721541  1
  O  O31  1  0.924933  0.646474  0.418831  1
  O  O32  1  0.786777  0.448292  0.235069  1
  O  O33  1  0.272864  0.361412  0.786885  1
  O  O34  1  0.917178  0.496061  0.578883  1
  O  O35  1  0.290022  0.987832  0.697810  1
  O  O36  1  0.576154  0.474029  0.746492  1
  O  O37  1  0.582448  0.331858  0.914306  1
  O  O38  1  0.574528  0.361412  0.088548  1
  O  O39  1  0.727136  0.514021  0.088548  1
  O  O40  1  0.425472  0.514021  0.786885  1
  O  O41  1  0.287665  0.560148  0.847813  1
  O  O42  1  0.582990  0.511149  0.928159  1
  O  O43  1  0.417552  0.331858  0.749409  1
  O  O44  1  0.228439  0.836696  0.759559  1
  O  O45  1  0.082822  0.661705  0.578883  1
  O  O46  1  0.417010  0.345169  0.928159  1
  O  O47  1  0.712335  0.560148  0.272483  1
