# generated using pymatgen
data_BaV4As4O19
_symmetry_space_group_name_H-M   'P 1'
_cell_length_a   7.78455116
_cell_length_b   11.29341158
_cell_length_c   17.78606497
_cell_angle_alpha   90.00000000
_cell_angle_beta   90.00000000
_cell_angle_gamma   90.00000000
_symmetry_Int_Tables_number   1
_chemical_formula_structural   BaV4As4O19
_chemical_formula_sum   'Ba4 V16 As16 O76'
_cell_volume   1563.64660965
_cell_formula_units_Z   4
loop_
 _symmetry_equiv_pos_site_id
 _symmetry_equiv_pos_as_xyz
  1  'x, y, z'
loop_
 _atom_site_type_symbol
 _atom_site_label
 _atom_site_symmetry_multiplicity
 _atom_site_fract_x
 _atom_site_fract_y
 _atom_site_fract_z
 _atom_site_occupancy
  Ba  Ba0  1  0.750000  0.872592  0.263239  1
  Ba  Ba1  1  0.250000  0.372592  0.236761  1
  Ba  Ba2  1  0.750000  0.627408  0.763239  1
  Ba  Ba3  1  0.250000  0.127408  0.736761  1
  V  V4  1  0.551953  0.896454  0.878898  1
  V  V5  1  0.548781  0.142318  0.384119  1
  V  V6  1  0.948047  0.896454  0.878898  1
  V  V7  1  0.048781  0.857682  0.615881  1
  V  V8  1  0.448047  0.396454  0.621102  1
  V  V9  1  0.948047  0.603546  0.378898  1
  V  V10  1  0.051953  0.396454  0.621102  1
  V  V11  1  0.551953  0.603546  0.378898  1
  V  V12  1  0.951219  0.357682  0.884119  1
  V  V13  1  0.951219  0.142318  0.384119  1
  V  V14  1  0.048781  0.642318  0.115881  1
  V  V15  1  0.448047  0.103546  0.121102  1
  V  V16  1  0.451219  0.642318  0.115881  1
  V  V17  1  0.051953  0.103546  0.121102  1
  V  V18  1  0.451219  0.857682  0.615881  1
  V  V19  1  0.548781  0.357682  0.884119  1
  As  As20  1  0.250000  0.763826  0.775703  1
  As  As21  1  0.750000  0.625445  0.969041  1
  As  As22  1  0.250000  0.374555  0.030959  1
  As  As23  1  0.750000  0.126152  0.980271  1
  As  As24  1  0.750000  0.991026  0.720474  1
  As  As25  1  0.250000  0.008974  0.279526  1
  As  As26  1  0.750000  0.263826  0.724297  1
  As  As27  1  0.250000  0.491026  0.779526  1
  As  As28  1  0.250000  0.125445  0.530959  1
  As  As29  1  0.250000  0.736174  0.275703  1
  As  As30  1  0.750000  0.874555  0.469041  1
  As  As31  1  0.750000  0.236174  0.224297  1
  As  As32  1  0.250000  0.873848  0.019729  1
  As  As33  1  0.750000  0.508974  0.220474  1
  As  As34  1  0.250000  0.626152  0.519729  1
  As  As35  1  0.750000  0.373848  0.480271  1
  O  O36  1  0.250000  0.000764  0.589674  1
  O  O37  1  0.434710  0.739637  0.326705  1
  O  O38  1  0.943464  0.747126  0.160039  1
  O  O39  1  0.056326  0.002113  0.837237  1
  O  O40  1  0.943674  0.997887  0.162763  1
  O  O41  1  0.556536  0.747126  0.160039  1
  O  O42  1  0.443674  0.002113  0.837237  1
  O  O43  1  0.934710  0.260363  0.673295  1
  O  O44  1  0.750000  0.886929  0.793145  1
  O  O45  1  0.250000  0.496734  0.574004  1
  O  O46  1  0.934548  0.994602  0.669693  1
  O  O47  1  0.936114  0.623628  0.019303  1
  O  O48  1  0.750000  0.256694  0.928072  1
  O  O49  1  0.565452  0.994602  0.669693  1
  O  O50  1  0.563886  0.623628  0.019303  1
  O  O51  1  0.056536  0.247126  0.339961  1
  O  O52  1  0.934710  0.239637  0.173295  1
  O  O53  1  0.250000  0.633192  0.203277  1
  O  O54  1  0.443464  0.247126  0.339961  1
  O  O55  1  0.936114  0.876372  0.519303  1
  O  O56  1  0.556326  0.997887  0.162763  1
  O  O57  1  0.556536  0.752874  0.660039  1
  O  O58  1  0.250000  0.003266  0.074004  1
  O  O59  1  0.250000  0.743306  0.071928  1
  O  O60  1  0.434710  0.760363  0.826705  1
  O  O61  1  0.558266  0.373225  0.524981  1
  O  O62  1  0.250000  0.386929  0.706855  1
  O  O63  1  0.443674  0.497887  0.337237  1
  O  O64  1  0.434548  0.005398  0.330307  1
  O  O65  1  0.943674  0.502113  0.662763  1
  O  O66  1  0.941734  0.373225  0.524981  1
  O  O67  1  0.934548  0.505398  0.169693  1
  O  O68  1  0.441734  0.873225  0.975019  1
  O  O69  1  0.250000  0.625717  0.728020  1
  O  O70  1  0.750000  0.500764  0.910326  1
  O  O71  1  0.250000  0.250960  0.090988  1
  O  O72  1  0.941734  0.126775  0.024981  1
  O  O73  1  0.750000  0.366808  0.796723  1
  O  O74  1  0.750000  0.374283  0.271979  1
  O  O75  1  0.065452  0.005398  0.330307  1
  O  O76  1  0.750000  0.243306  0.428072  1
  O  O77  1  0.750000  0.503266  0.425996  1
  O  O78  1  0.436114  0.376372  0.980697  1
  O  O79  1  0.565290  0.239637  0.173295  1
  O  O80  1  0.750000  0.613071  0.293145  1
  O  O81  1  0.563886  0.876372  0.519303  1
  O  O82  1  0.943464  0.752874  0.660039  1
  O  O83  1  0.558266  0.126775  0.024981  1
  O  O84  1  0.063886  0.123628  0.480697  1
  O  O85  1  0.063886  0.376372  0.980697  1
  O  O86  1  0.250000  0.874283  0.228020  1
  O  O87  1  0.250000  0.866808  0.703277  1
  O  O88  1  0.750000  0.996734  0.925996  1
  O  O89  1  0.065290  0.739637  0.326705  1
  O  O90  1  0.250000  0.499236  0.089674  1
  O  O91  1  0.058266  0.873225  0.975019  1
  O  O92  1  0.056326  0.497887  0.337237  1
  O  O93  1  0.434548  0.494602  0.830307  1
  O  O94  1  0.565290  0.260363  0.673295  1
  O  O95  1  0.250000  0.113071  0.206855  1
  O  O96  1  0.065290  0.760363  0.826705  1
  O  O97  1  0.065452  0.494602  0.830307  1
  O  O98  1  0.565452  0.505398  0.169693  1
  O  O99  1  0.250000  0.756694  0.571928  1
  O  O100  1  0.056536  0.252874  0.839961  1
  O  O101  1  0.750000  0.125717  0.771980  1
  O  O102  1  0.750000  0.133192  0.296723  1
  O  O103  1  0.750000  0.999236  0.410326  1
  O  O104  1  0.250000  0.249040  0.590988  1
  O  O105  1  0.441734  0.626775  0.475019  1
  O  O106  1  0.443464  0.252874  0.839961  1
  O  O107  1  0.058266  0.626775  0.475019  1
  O  O108  1  0.556326  0.502113  0.662763  1
  O  O109  1  0.750000  0.749040  0.909012  1
  O  O110  1  0.436114  0.123628  0.480697  1
  O  O111  1  0.750000  0.750960  0.409012  1
