# generated using pymatgen
data_NdFeSb3
_symmetry_space_group_name_H-M   'P 1'
_cell_length_a   6.23706552
_cell_length_b   12.70923776
_cell_length_c   18.49192709
_cell_angle_alpha   90.00000000
_cell_angle_beta   90.00000000
_cell_angle_gamma   90.00000000
_symmetry_Int_Tables_number   1
_chemical_formula_structural   NdFeSb3
_chemical_formula_sum   'Nd12 Fe12 Sb36'
_cell_volume   1465.82452320
_cell_formula_units_Z   12
loop_
 _symmetry_equiv_pos_site_id
 _symmetry_equiv_pos_as_xyz
  1  'x, y, z'
loop_
 _atom_site_type_symbol
 _atom_site_label
 _atom_site_symmetry_multiplicity
 _atom_site_fract_x
 _atom_site_fract_y
 _atom_site_fract_z
 _atom_site_occupancy
  Nd  Nd0  1  0.980528  0.700514  0.417156  1
  Nd  Nd1  1  0.952297  0.307118  0.250000  1
  Nd  Nd2  1  0.480528  0.299486  0.417156  1
  Nd  Nd3  1  0.019472  0.299486  0.917157  1
  Nd  Nd4  1  0.452297  0.692882  0.250000  1
  Nd  Nd5  1  0.047703  0.692882  0.750000  1
  Nd  Nd6  1  0.519472  0.700514  0.917157  1
  Nd  Nd7  1  0.980528  0.700514  0.082844  1
  Nd  Nd8  1  0.480528  0.299486  0.082844  1
  Nd  Nd9  1  0.519472  0.700514  0.582843  1
  Nd  Nd10  1  0.019472  0.299486  0.582843  1
  Nd  Nd11  1  0.547703  0.307118  0.750000  1
  Fe  Fe12  1  0.817214  0.898741  0.821437  1
  Fe  Fe13  1  0.317213  0.101259  0.678563  1
  Fe  Fe14  1  0.682786  0.898741  0.178563  1
  Fe  Fe15  1  0.750000  0.105002  0.500000  1
  Fe  Fe16  1  0.182786  0.101259  0.321437  1
  Fe  Fe17  1  0.182786  0.101259  0.178563  1
  Fe  Fe18  1  0.682786  0.898741  0.321437  1
  Fe  Fe19  1  0.750000  0.105002  0.000000  1
  Fe  Fe20  1  0.250000  0.894998  0.000000  1
  Fe  Fe21  1  0.250000  0.894998  0.500000  1
  Fe  Fe22  1  0.317213  0.101259  0.821437  1
  Fe  Fe23  1  0.817214  0.898741  0.678563  1
  Sb  Sb24  1  0.282993  0.496849  0.834367  1
  Sb  Sb25  1  0.533046  0.970813  0.587775  1
  Sb  Sb26  1  0.332571  0.941223  0.250000  1
  Sb  Sb27  1  0.541633  0.782019  0.750000  1
  Sb  Sb28  1  0.466954  0.029187  0.412225  1
  Sb  Sb29  1  0.217007  0.496849  0.334367  1
  Sb  Sb30  1  0.717007  0.503151  0.334367  1
  Sb  Sb31  1  0.458367  0.217981  0.250000  1
  Sb  Sb32  1  0.483850  0.779333  0.084568  1
  Sb  Sb33  1  0.016150  0.779333  0.915432  1
  Sb  Sb34  1  0.782993  0.503151  0.834367  1
  Sb  Sb35  1  0.250000  0.502748  0.000000  1
  Sb  Sb36  1  0.750000  0.497252  0.000000  1
  Sb  Sb37  1  0.483850  0.779333  0.415432  1
  Sb  Sb38  1  0.966954  0.970813  0.412225  1
  Sb  Sb39  1  0.033046  0.029187  0.587775  1
  Sb  Sb40  1  0.250000  0.502748  0.500000  1
  Sb  Sb41  1  0.016150  0.779333  0.584568  1
  Sb  Sb42  1  0.958367  0.782019  0.250000  1
  Sb  Sb43  1  0.041633  0.217981  0.750000  1
  Sb  Sb44  1  0.750000  0.497252  0.500000  1
  Sb  Sb45  1  0.466954  0.029187  0.087775  1
  Sb  Sb46  1  0.717007  0.503151  0.165633  1
  Sb  Sb47  1  0.033046  0.029187  0.912225  1
  Sb  Sb48  1  0.966954  0.970813  0.087775  1
  Sb  Sb49  1  0.167429  0.941223  0.750000  1
  Sb  Sb50  1  0.782993  0.503151  0.665633  1
  Sb  Sb51  1  0.667429  0.058777  0.750000  1
  Sb  Sb52  1  0.983850  0.220667  0.415432  1
  Sb  Sb53  1  0.983850  0.220667  0.084568  1
  Sb  Sb54  1  0.832571  0.058777  0.250000  1
  Sb  Sb55  1  0.217007  0.496849  0.165633  1
  Sb  Sb56  1  0.516150  0.220667  0.915432  1
  Sb  Sb57  1  0.533046  0.970813  0.912225  1
  Sb  Sb58  1  0.516150  0.220667  0.584568  1
  Sb  Sb59  1  0.282993  0.496849  0.665633  1
