# generated using pymatgen
data_SrZn(SeO3)2
_symmetry_space_group_name_H-M   'P 1'
_cell_length_a   4.58023442
_cell_length_b   9.53453742
_cell_length_c   15.17288940
_cell_angle_alpha   90.00000000
_cell_angle_beta   90.00000000
_cell_angle_gamma   95.35493817
_symmetry_Int_Tables_number   1
_chemical_formula_structural   SrZn(SeO3)2
_chemical_formula_sum   'Sr4 Zn4 Se8 O24'
_cell_volume   659.71456721
_cell_formula_units_Z   4
loop_
 _symmetry_equiv_pos_site_id
 _symmetry_equiv_pos_as_xyz
  1  'x, y, z'
loop_
 _atom_site_type_symbol
 _atom_site_label
 _atom_site_symmetry_multiplicity
 _atom_site_fract_x
 _atom_site_fract_y
 _atom_site_fract_z
 _atom_site_occupancy
  Sr  Sr0  1  0.253242  0.540779  0.883336  1
  Sr  Sr1  1  0.753242  0.040779  0.616664  1
  Sr  Sr2  1  0.746758  0.459221  0.116664  1
  Sr  Sr3  1  0.246758  0.959221  0.383336  1
  Zn  Zn4  1  0.269364  0.777335  0.151320  1
  Zn  Zn5  1  0.769364  0.277335  0.348680  1
  Zn  Zn6  1  0.230636  0.722665  0.651320  1
  Zn  Zn7  1  0.730636  0.222665  0.848680  1
  Se  Se8  1  0.796237  0.436492  0.697648  1
  Se  Se9  1  0.247257  0.220539  0.994798  1
  Se  Se10  1  0.703763  0.063508  0.197648  1
  Se  Se11  1  0.296237  0.936492  0.802352  1
  Se  Se12  1  0.752743  0.779461  0.005202  1
  Se  Se13  1  0.747257  0.720539  0.505202  1
  Se  Se14  1  0.252743  0.279461  0.494798  1
  Se  Se15  1  0.203763  0.563508  0.302352  1
  O  O16  1  0.300161  0.573872  0.189937  1
  O  O17  1  0.399605  0.771178  0.812473  1
  O  O18  1  0.377682  0.779518  0.019810  1
  O  O19  1  0.367827  0.961489  0.209534  1
  O  O20  1  0.199839  0.926128  0.689937  1
  O  O21  1  0.726193  0.889474  0.465676  1
  O  O22  1  0.600395  0.228822  0.187527  1
  O  O23  1  0.773807  0.610526  0.965676  1
  O  O24  1  0.273807  0.110526  0.534324  1
  O  O25  1  0.663833  0.743497  0.616551  1
  O  O26  1  0.622318  0.220482  0.980190  1
  O  O27  1  0.867827  0.461489  0.290466  1
  O  O28  1  0.226193  0.389474  0.034324  1
  O  O29  1  0.800161  0.073872  0.310063  1
  O  O30  1  0.699839  0.426128  0.810063  1
  O  O31  1  0.122318  0.720482  0.519810  1
  O  O32  1  0.877682  0.279518  0.480190  1
  O  O33  1  0.632173  0.038511  0.790466  1
  O  O34  1  0.163833  0.243497  0.883449  1
  O  O35  1  0.336167  0.256503  0.383449  1
  O  O36  1  0.899605  0.271178  0.687527  1
  O  O37  1  0.836167  0.756503  0.116551  1
  O  O38  1  0.132173  0.538511  0.709534  1
  O  O39  1  0.100395  0.728822  0.312473  1
