# generated using pymatgen
data_NdCu3Se2ClO8
_symmetry_space_group_name_H-M   'P 1'
_cell_length_a   6.44001968
_cell_length_b   7.18149763
_cell_length_c   9.72641336
_cell_angle_alpha   90.00000000
_cell_angle_beta   90.00000000
_cell_angle_gamma   90.00000000
_symmetry_Int_Tables_number   1
_chemical_formula_structural   NdCu3Se2ClO8
_chemical_formula_sum   'Nd2 Cu6 Se4 Cl2 O16'
_cell_volume   449.83675599
_cell_formula_units_Z   2
loop_
 _symmetry_equiv_pos_site_id
 _symmetry_equiv_pos_as_xyz
  1  'x, y, z'
loop_
 _atom_site_type_symbol
 _atom_site_label
 _atom_site_symmetry_multiplicity
 _atom_site_fract_x
 _atom_site_fract_y
 _atom_site_fract_z
 _atom_site_occupancy
  Nd  Nd0  1  0.250000  0.263182  0.250000  1
  Nd  Nd1  1  0.750000  0.736818  0.750000  1
  Cu  Cu2  1  0.500000  -0.000000  0.500000  1
  Cu  Cu3  1  0.250000  0.794593  0.250000  1
  Cu  Cu4  1  0.000000  0.000000  -0.000000  1
  Cu  Cu5  1  0.750000  0.205407  0.750000  1
  Cu  Cu6  1  0.000000  -0.000000  0.500000  1
  Cu  Cu7  1  0.500000  0.000000  0.000000  1
  Se  Se8  1  0.750000  0.401464  0.442854  1
  Se  Se9  1  0.250000  0.598536  0.557146  1
  Se  Se10  1  0.250000  0.598536  0.942854  1
  Se  Se11  1  0.750000  0.401464  0.057146  1
  Cl  Cl12  1  0.250000  0.159451  0.750000  1
  Cl  Cl13  1  0.750000  0.840549  0.250000  1
  O  O14  1  0.750000  0.422688  0.879627  1
  O  O15  1  0.039378  0.745431  0.584452  1
  O  O16  1  0.460622  0.745431  0.584452  1
  O  O17  1  0.539378  0.254569  0.415548  1
  O  O18  1  0.960622  0.254569  0.084452  1
  O  O19  1  0.750000  0.422688  0.620373  1
  O  O20  1  0.039378  0.745431  0.915548  1
  O  O21  1  0.750000  0.011794  0.610534  1
  O  O22  1  0.750000  0.011794  0.889466  1
  O  O23  1  0.960622  0.254569  0.415548  1
  O  O24  1  0.250000  0.577312  0.379627  1
  O  O25  1  0.539378  0.254569  0.084452  1
  O  O26  1  0.460622  0.745431  0.915548  1
  O  O27  1  0.250000  0.577312  0.120373  1
  O  O28  1  0.250000  0.988206  0.389466  1
  O  O29  1  0.250000  0.988206  0.110534  1
