# generated using pymatgen
data_Nb3Te8I7O
_symmetry_space_group_name_H-M   'P 1'
_cell_length_a   9.21300665
_cell_length_b   16.60345021
_cell_length_c   20.40071897
_cell_angle_alpha   90.00000000
_cell_angle_beta   101.45923818
_cell_angle_gamma   90.00000000
_symmetry_Int_Tables_number   1
_chemical_formula_structural   Nb3Te8I7O
_chemical_formula_sum   'Nb12 Te32 I28 O4'
_cell_volume   3058.44485832
_cell_formula_units_Z   4
loop_
 _symmetry_equiv_pos_site_id
 _symmetry_equiv_pos_as_xyz
  1  'x, y, z'
loop_
 _atom_site_type_symbol
 _atom_site_label
 _atom_site_symmetry_multiplicity
 _atom_site_fract_x
 _atom_site_fract_y
 _atom_site_fract_z
 _atom_site_occupancy
  Nb  Nb0  1  0.562612  0.143689  0.379150  1
  Nb  Nb1  1  0.784147  0.794451  0.051202  1
  Nb  Nb2  1  0.937388  0.643689  0.120850  1
  Nb  Nb3  1  0.715853  0.294451  0.448798  1
  Nb  Nb4  1  0.972934  0.869383  0.176412  1
  Nb  Nb5  1  0.437388  0.856311  0.620850  1
  Nb  Nb6  1  0.472934  0.630617  0.676412  1
  Nb  Nb7  1  0.027066  0.130617  0.823588  1
  Nb  Nb8  1  0.284147  0.705549  0.551202  1
  Nb  Nb9  1  0.215853  0.205549  0.948798  1
  Nb  Nb10  1  0.527066  0.369383  0.323588  1
  Nb  Nb11  1  0.062612  0.356311  0.879150  1
  Te  Te12  1  0.169628  0.628922  0.244501  1
  Te  Te13  1  0.897018  0.796592  0.294832  1
  Te  Te14  1  0.368253  0.868560  0.753983  1
  Te  Te15  1  0.729432  0.136160  0.510088  1
  Te  Te16  1  0.131747  0.368560  0.746017  1
  Te  Te17  1  0.669628  0.871078  0.744501  1
  Te  Te18  1  0.330372  0.128922  0.255499  1
  Te  Te19  1  0.156964  0.615637  0.647536  1
  Te  Te20  1  0.820906  0.966655  0.072270  1
  Te  Te21  1  0.102982  0.203408  0.705168  1
  Te  Te22  1  0.631747  0.131440  0.246017  1
  Te  Te23  1  0.320906  0.533345  0.572270  1
  Te  Te24  1  0.343036  0.115637  0.852464  1
  Te  Te25  1  0.879022  0.159956  0.409201  1
  Te  Te26  1  0.397018  0.703408  0.794832  1
  Te  Te27  1  0.270568  0.863840  0.489912  1
  Te  Te28  1  0.698269  0.706270  0.784298  1
  Te  Te29  1  0.830372  0.371078  0.755499  1
  Te  Te30  1  0.229432  0.363840  0.010088  1
  Te  Te31  1  0.868253  0.631440  0.253983  1
  Te  Te32  1  0.602982  0.296592  0.205168  1
  Te  Te33  1  0.198269  0.793730  0.284298  1
  Te  Te34  1  0.679094  0.466655  0.427730  1
  Te  Te35  1  0.770568  0.636160  0.989912  1
  Te  Te36  1  0.301731  0.293730  0.215702  1
  Te  Te37  1  0.179094  0.033345  0.927730  1
  Te  Te38  1  0.379022  0.340044  0.909201  1
  Te  Te39  1  0.843036  0.384363  0.352464  1
  Te  Te40  1  0.620978  0.659956  0.090799  1
  Te  Te41  1  0.801731  0.206270  0.715702  1
  Te  Te42  1  0.120978  0.840044  0.590799  1
  Te  Te43  1  0.656964  0.884363  0.147536  1
  I  I44  1  0.326350  0.126134  0.443646  1
  I  I45  1  0.463632  0.270947  0.751208  1
  I  I46  1  0.011109  0.984602  0.284657  1
  I  I47  1  0.826350  0.373866  0.943646  1
  I  I48  1  0.929069  0.475780  0.153882  1
  I  I49  1  0.983600  0.333504  0.539257  1
  I  I50  1  0.466810  0.676720  0.460397  1
  I  I51  1  0.281391  0.422925  0.370538  1
  I  I52  1  0.070931  0.524220  0.846118  1
  I  I53  1  0.966810  0.823280  0.960397  1
  I  I54  1  0.533190  0.323280  0.539603  1
  I  I55  1  0.570931  0.975780  0.346118  1
  I  I56  1  0.036368  0.770947  0.748792  1
  I  I57  1  0.483600  0.166496  0.039257  1
  I  I58  1  0.781391  0.077075  0.870538  1
  I  I59  1  0.536368  0.729053  0.248792  1
  I  I60  1  0.016400  0.666496  0.460743  1
  I  I61  1  0.516400  0.833504  0.960743  1
  I  I62  1  0.218609  0.922925  0.129462  1
  I  I63  1  0.033190  0.176720  0.039603  1
  I  I64  1  0.963632  0.229053  0.251208  1
  I  I65  1  0.173650  0.626134  0.056354  1
  I  I66  1  0.511109  0.515398  0.784657  1
  I  I67  1  0.718609  0.577075  0.629462  1
  I  I68  1  0.488891  0.484602  0.215343  1
  I  I69  1  0.988891  0.015398  0.715343  1
  I  I70  1  0.429069  0.024220  0.653882  1
  I  I71  1  0.673650  0.873866  0.556354  1
  O  O72  1  0.456832  0.738698  0.635522  1
  O  O73  1  0.543168  0.261302  0.364478  1
  O  O74  1  0.956832  0.761302  0.135522  1
  O  O75  1  0.043168  0.238698  0.864478  1
