# generated using pymatgen
data_TeC6(ClF7)2
_symmetry_space_group_name_H-M   'P 1'
_cell_length_a   8.38769802
_cell_length_b   9.40709802
_cell_length_c   10.98895059
_cell_angle_alpha   115.34755704
_cell_angle_beta   104.48894787
_cell_angle_gamma   89.99264098
_symmetry_Int_Tables_number   1
_chemical_formula_structural   TeC6(ClF7)2
_chemical_formula_sum   'Te2 C12 Cl4 F28'
_cell_volume   752.98230775
_cell_formula_units_Z   2
loop_
 _symmetry_equiv_pos_site_id
 _symmetry_equiv_pos_as_xyz
  1  'x, y, z'
loop_
 _atom_site_type_symbol
 _atom_site_label
 _atom_site_symmetry_multiplicity
 _atom_site_fract_x
 _atom_site_fract_y
 _atom_site_fract_z
 _atom_site_occupancy
  Te  Te0  1  0.250009  0.361348  0.999980  1
  Te  Te1  1  0.749991  0.638652  0.000020  1
  C  C2  1  0.308974  0.118021  0.709699  1
  C  C3  1  0.784063  0.621082  0.576396  1
  C  C4  1  0.285083  0.108818  0.842603  1
  C  C5  1  0.691026  0.881979  0.290301  1
  C  C6  1  0.715912  0.044610  0.423632  1
  C  C7  1  0.190993  0.408158  0.290240  1
  C  C8  1  0.714917  0.891182  0.157397  1
  C  C9  1  0.809007  0.591842  0.709760  1
  C  C10  1  0.215937  0.378918  0.423604  1
  C  C11  1  0.785080  0.733848  0.842725  1
  C  C12  1  0.214920  0.266152  0.157275  1
  C  C13  1  0.284088  0.955391  0.576368  1
  Cl  Cl14  1  0.446388  0.603248  0.885640  1
  Cl  Cl15  1  0.946389  0.282416  0.885618  1
  Cl  Cl16  1  0.053611  0.717584  0.114382  1
  Cl  Cl17  1  0.553612  0.396752  0.114360  1
  F  F18  1  0.081534  0.155252  0.097217  1
  F  F19  1  0.112872  0.250500  0.393310  1
  F  F20  1  0.851267  0.991847  0.191013  1
  F  F21  1  0.819449  0.492979  0.473137  1
  F  F22  1  0.418441  0.057880  0.902589  1
  F  F23  1  0.034406  0.446386  0.257958  1
  F  F24  1  0.351242  0.199063  0.190861  1
  F  F25  1  0.301845  0.535081  0.324059  1
  F  F26  1  0.648758  0.800937  0.809139  1
  F  F27  1  0.148733  0.008153  0.808987  1
  F  F28  1  0.612816  0.142683  0.393276  1
  F  F29  1  0.534393  0.811490  0.257927  1
  F  F30  1  0.387184  0.857317  0.606724  1
  F  F31  1  0.801798  0.788807  0.324084  1
  F  F32  1  0.626336  0.644822  0.530396  1
  F  F33  1  0.373664  0.355178  0.469604  1
  F  F34  1  0.887128  0.749500  0.606690  1
  F  F35  1  0.198202  0.211193  0.675916  1
  F  F36  1  0.680557  0.019929  0.526957  1
  F  F37  1  0.965594  0.553614  0.742042  1
  F  F38  1  0.180551  0.507021  0.526863  1
  F  F39  1  0.465608  0.188510  0.742073  1
  F  F40  1  0.698155  0.464919  0.675941  1
  F  F41  1  0.581559  0.942120  0.097411  1
  F  F42  1  0.126358  0.885624  0.530409  1
  F  F43  1  0.873642  0.114376  0.469591  1
  F  F44  1  0.319443  0.980071  0.473043  1
  F  F45  1  0.918466  0.844748  0.902783  1
