# generated using pymatgen
data_CdI2
_symmetry_space_group_name_H-M   'P 1'
_cell_length_a   4.33183596
_cell_length_b   4.33183622
_cell_length_c   74.39011934
_cell_angle_alpha   90.00000000
_cell_angle_beta   90.00000000
_cell_angle_gamma   119.99999799
_symmetry_Int_Tables_number   1
_chemical_formula_structural   CdI2
_chemical_formula_sum   'Cd10 I20'
_cell_volume   1208.89874482
_cell_formula_units_Z   10
loop_
 _symmetry_equiv_pos_site_id
 _symmetry_equiv_pos_as_xyz
  1  'x, y, z'
loop_
 _atom_site_type_symbol
 _atom_site_label
 _atom_site_symmetry_multiplicity
 _atom_site_fract_x
 _atom_site_fract_y
 _atom_site_fract_z
 _atom_site_occupancy
  Cd  Cd0  1  0.000000  0.000000  0.725016  1
  Cd  Cd1  1  0.000000  0.000000  0.924984  1
  Cd  Cd2  1  0.666667  0.333333  0.425010  1
  Cd  Cd3  1  0.666667  0.333333  0.025007  1
  Cd  Cd4  1  0.000000  0.000000  0.225016  1
  Cd  Cd5  1  0.000000  0.000000  0.324995  1
  Cd  Cd6  1  0.000000  0.000000  0.524981  1
  Cd  Cd7  1  0.000000  0.000000  0.124997  1
  Cd  Cd8  1  0.000000  0.000000  0.824998  1
  Cd  Cd9  1  0.000000  0.000000  0.624989  1
  I  I10  1  0.000000  0.000000  0.401810  1
  I  I11  1  0.333333  0.666667  0.448211  1
  I  I12  1  0.333333  0.666667  0.348202  1
  I  I13  1  0.666667  0.333333  0.101789  1
  I  I14  1  0.666667  0.333333  0.901777  1
  I  I15  1  0.333333  0.666667  0.948185  1
  I  I16  1  0.666667  0.333333  0.701813  1
  I  I17  1  0.666667  0.333333  0.801795  1
  I  I18  1  0.333333  0.666667  0.048212  1
  I  I19  1  0.666667  0.333333  0.301792  1
  I  I20  1  0.000000  0.000000  0.001805  1
  I  I21  1  0.333333  0.666667  0.548180  1
  I  I22  1  0.666667  0.333333  0.601777  1
  I  I23  1  0.333333  0.666667  0.148207  1
  I  I24  1  0.333333  0.666667  0.248224  1
  I  I25  1  0.666667  0.333333  0.501782  1
  I  I26  1  0.333333  0.666667  0.848206  1
  I  I27  1  0.333333  0.666667  0.648202  1
  I  I28  1  0.666667  0.333333  0.201814  1
  I  I29  1  0.333333  0.666667  0.748223  1
