# generated using pymatgen
data_K4Cu4Cl10O
_symmetry_space_group_name_H-M   'P 1'
_cell_length_a   9.03490001
_cell_length_b   10.57722313
_cell_length_c   10.57722327
_cell_angle_alpha   90.66119132
_cell_angle_beta   100.05816733
_cell_angle_gamma   100.05816688
_symmetry_Int_Tables_number   1
_chemical_formula_structural   K4Cu4Cl10O
_chemical_formula_sum   'K8 Cu8 Cl20 O2'
_cell_volume   979.05015077
_cell_formula_units_Z   2
loop_
 _symmetry_equiv_pos_site_id
 _symmetry_equiv_pos_as_xyz
  1  'x, y, z'
loop_
 _atom_site_type_symbol
 _atom_site_label
 _atom_site_symmetry_multiplicity
 _atom_site_fract_x
 _atom_site_fract_y
 _atom_site_fract_z
 _atom_site_occupancy
  K  K0  1  0.136280  0.557257  0.704762  1
  K  K1  1  0.875876  0.030640  0.286882  1
  K  K2  1  0.375876  0.286882  0.030640  1
  K  K3  1  0.363720  0.295238  0.442743  1
  K  K4  1  0.636280  0.704762  0.557257  1
  K  K5  1  0.624124  0.713118  0.969360  1
  K  K6  1  0.863720  0.442743  0.295238  1
  K  K7  1  0.124124  0.969360  0.713118  1
  Cu  Cu8  1  0.114752  0.768255  0.048227  1
  Cu  Cu9  1  0.885248  0.231745  0.951773  1
  Cu  Cu10  1  0.127326  0.772416  0.352995  1
  Cu  Cu11  1  0.372674  0.647005  0.227584  1
  Cu  Cu12  1  0.627326  0.352995  0.772416  1
  Cu  Cu13  1  0.872674  0.227584  0.647005  1
  Cu  Cu14  1  0.385248  0.951773  0.231745  1
  Cu  Cu15  1  0.614752  0.048227  0.768255  1
  Cl  Cl16  1  0.958864  0.734382  0.853824  1
  Cl  Cl17  1  0.250000  0.978747  0.021253  1
  Cl  Cl18  1  0.541136  0.146176  0.265618  1
  Cl  Cl19  1  0.776365  0.011290  0.601288  1
  Cl  Cl20  1  0.481320  0.505317  0.738671  1
  Cl  Cl21  1  0.723635  0.398712  0.988710  1
  Cl  Cl22  1  0.918490  0.722640  0.174196  1
  Cl  Cl23  1  0.750000  0.411876  0.588124  1
  Cl  Cl24  1  0.981320  0.738671  0.505317  1
  Cl  Cl25  1  0.750000  0.021253  0.978747  1
  Cl  Cl26  1  0.418490  0.174196  0.722640  1
  Cl  Cl27  1  0.276365  0.601288  0.011290  1
  Cl  Cl28  1  0.041136  0.265618  0.146176  1
  Cl  Cl29  1  0.518680  0.494683  0.261329  1
  Cl  Cl30  1  0.223635  0.988710  0.398712  1
  Cl  Cl31  1  0.581510  0.825804  0.277360  1
  Cl  Cl32  1  0.081510  0.277360  0.825804  1
  Cl  Cl33  1  0.250000  0.588124  0.411876  1
  Cl  Cl34  1  0.458864  0.853824  0.734382  1
  Cl  Cl35  1  0.018680  0.261329  0.494683  1
  O  O36  1  0.750000  0.219072  0.780928  1
  O  O37  1  0.250000  0.780928  0.219072  1
