# generated using pymatgen
data_Li7V4P9O32
_symmetry_space_group_name_H-M   'P 1'
_cell_length_a   13.91207573
_cell_length_b   13.91207573
_cell_length_c   6.41839467
_cell_angle_alpha   90.00000000
_cell_angle_beta   90.00000000
_cell_angle_gamma   90.00000000
_symmetry_Int_Tables_number   1
_chemical_formula_structural   Li7V4P9O32
_chemical_formula_sum   'Li14 V8 P18 O64'
_cell_volume   1242.25365921
_cell_formula_units_Z   2
loop_
 _symmetry_equiv_pos_site_id
 _symmetry_equiv_pos_as_xyz
  1  'x, y, z'
loop_
 _atom_site_type_symbol
 _atom_site_label
 _atom_site_symmetry_multiplicity
 _atom_site_fract_x
 _atom_site_fract_y
 _atom_site_fract_z
 _atom_site_occupancy
  Li  Li0  1  0.000000  0.000000  0.000000  1
  Li  Li1  1  0.000000  0.500000  0.135794  1
  Li  Li2  1  0.000000  0.500000  0.635792  1
  Li  Li3  1  0.107481  0.743076  0.810605  1
  Li  Li4  1  0.243076  0.607480  0.310604  1
  Li  Li5  1  0.256924  0.107481  0.189396  1
  Li  Li6  1  0.392520  0.243076  0.689396  1
  Li  Li7  1  0.500000  0.000000  0.364207  1
  Li  Li8  1  0.500000  0.000000  0.864207  1
  Li  Li9  1  0.500000  0.500000  0.500000  1
  Li  Li10  1  0.607480  0.756924  0.689396  1
  Li  Li11  1  0.743076  0.892519  0.189396  1
  Li  Li12  1  0.756924  0.392520  0.310604  1
  Li  Li13  1  0.892519  0.256924  0.810605  1
  O  O14  1  0.003876  0.727618  0.172326  1
  O  O15  1  0.013446  0.742541  0.573229  1
  O  O16  1  0.061680  0.063409  0.648585  1
  O  O17  1  0.063409  0.938321  0.351415  1
  O  O18  1  0.055933  0.583420  0.388020  1
  O  O19  1  0.083420  0.555933  0.888020  1
  O  O20  1  0.106977  0.188049  0.934300  1
  O  O21  1  0.141372  0.180752  0.311660  1
  O  O22  1  0.158884  0.336900  0.622291  1
  O  O23  1  0.163100  0.341116  0.122290  1
  O  O24  1  0.162151  0.730168  0.349451  1
  O  O25  1  0.180752  0.858628  0.688340  1
  O  O26  1  0.188049  0.893023  0.065701  1
  O  O27  1  0.227619  0.503876  0.672326  1
  O  O28  1  0.230168  0.662151  0.849451  1
  O  O29  1  0.242541  0.513446  0.073229  1
  O  O30  1  0.257459  0.013446  0.426771  1
  O  O31  1  0.269832  0.162151  0.650548  1
  O  O32  1  0.272382  0.003876  0.827674  1
  O  O33  1  0.311951  0.393022  0.434299  1
  O  O34  1  0.319249  0.358629  0.811660  1
  O  O35  1  0.337849  0.230168  0.150550  1
  O  O36  1  0.336900  0.841116  0.377708  1
  O  O37  1  0.341116  0.836899  0.877709  1
  O  O38  1  0.358629  0.680751  0.188340  1
  O  O39  1  0.393022  0.688049  0.565701  1
  O  O40  1  0.416580  0.055933  0.611980  1
  O  O41  1  0.444067  0.083420  0.111980  1
  O  O42  1  0.436591  0.438320  0.148585  1
  O  O43  1  0.438320  0.563409  0.851415  1
  O  O44  1  0.486554  0.242541  0.926772  1
  O  O45  1  0.496124  0.227619  0.327673  1
  O  O46  1  0.503876  0.772382  0.327673  1
  O  O47  1  0.513446  0.757459  0.926772  1
  O  O48  1  0.561680  0.436591  0.851415  1
  O  O49  1  0.563409  0.561680  0.148585  1
  O  O50  1  0.555933  0.916580  0.111980  1
  O  O51  1  0.583420  0.944067  0.611980  1
  O  O52  1  0.606977  0.311951  0.565701  1
  O  O53  1  0.641371  0.319249  0.188340  1
  O  O54  1  0.658884  0.163100  0.877709  1
  O  O55  1  0.663100  0.158884  0.377708  1
  O  O56  1  0.662151  0.769832  0.150550  1
  O  O57  1  0.680751  0.641371  0.811660  1
  O  O58  1  0.688049  0.606977  0.434299  1
  O  O59  1  0.727618  0.996125  0.827674  1
  O  O60  1  0.730168  0.837849  0.650548  1
  O  O61  1  0.742541  0.986554  0.426771  1
  O  O62  1  0.757459  0.486554  0.073229  1
  O  O63  1  0.769832  0.337849  0.849451  1
  O  O64  1  0.772382  0.496124  0.672326  1
  O  O65  1  0.811951  0.106977  0.065701  1
  O  O66  1  0.819248  0.141372  0.688340  1
  O  O67  1  0.837849  0.269832  0.349451  1
  O  O68  1  0.836899  0.658884  0.122290  1
  O  O69  1  0.841116  0.663100  0.622291  1
  O  O70  1  0.858628  0.819248  0.311660  1
  O  O71  1  0.893023  0.811951  0.934300  1
  O  O72  1  0.916580  0.444067  0.888020  1
  O  O73  1  0.944067  0.416580  0.388020  1
  O  O74  1  0.936591  0.061680  0.351415  1
  O  O75  1  0.938321  0.936591  0.648585  1
  O  O76  1  0.986554  0.257459  0.573229  1
  O  O77  1  0.996125  0.272382  0.172326  1
  P  P78  1  0.000000  0.000000  0.500000  1
  P  P79  1  0.059042  0.692073  0.383957  1
  P  P80  1  0.107945  0.247089  0.133430  1
  P  P81  1  0.192073  0.559042  0.883957  1
  P  P82  1  0.247089  0.892055  0.866571  1
  P  P83  1  0.252911  0.392055  0.633428  1
  P  P84  1  0.307926  0.059042  0.616042  1
  P  P85  1  0.392055  0.747088  0.366571  1
  P  P86  1  0.440958  0.192073  0.116042  1
  P  P87  1  0.500000  0.500000  0.000000  1
  P  P88  1  0.559042  0.807927  0.116042  1
  P  P89  1  0.607945  0.252911  0.366571  1
  P  P90  1  0.692073  0.940958  0.616042  1
  P  P91  1  0.747088  0.607945  0.633428  1
  P  P92  1  0.752912  0.107945  0.866571  1
  P  P93  1  0.807927  0.440958  0.883957  1
  P  P94  1  0.892055  0.752912  0.133430  1
  P  P95  1  0.940958  0.307926  0.383957  1
  V  V96  1  0.121451  0.195596  0.621765  1
  V  V97  1  0.195596  0.878549  0.378234  1
  V  V98  1  0.304404  0.378549  0.121767  1
  V  V99  1  0.378549  0.695596  0.878234  1
  V  V100  1  0.621451  0.304404  0.878234  1
  V  V101  1  0.695596  0.621451  0.121767  1
  V  V102  1  0.804404  0.121451  0.378234  1
  V  V103  1  0.878549  0.804404  0.621765  1
