# generated using pymatgen
data_KV3Cd4O12
_symmetry_space_group_name_H-M   'P 1'
_cell_length_a   7.20575150
_cell_length_b   9.52290465
_cell_length_c   9.52290446
_cell_angle_alpha   92.45774035
_cell_angle_beta   107.11334635
_cell_angle_gamma   107.11334701
_symmetry_Int_Tables_number   1
_chemical_formula_structural   KV3Cd4O12
_chemical_formula_sum   'K2 V6 Cd8 O24'
_cell_volume   590.84854433
_cell_formula_units_Z   2
loop_
 _symmetry_equiv_pos_site_id
 _symmetry_equiv_pos_as_xyz
  1  'x, y, z'
loop_
 _atom_site_type_symbol
 _atom_site_label
 _atom_site_symmetry_multiplicity
 _atom_site_fract_x
 _atom_site_fract_y
 _atom_site_fract_z
 _atom_site_occupancy
  K  K0  1  0.248970  0.031313  0.967522  1
  K  K1  1  0.748970  0.967522  0.031313  1
  V  V2  1  0.863021  0.652875  0.869634  1
  V  V3  1  0.636501  0.120806  0.344916  1
  V  V4  1  0.749228  0.701212  0.295437  1
  V  V5  1  0.136501  0.344916  0.120806  1
  V  V6  1  0.249228  0.295437  0.701212  1
  V  V7  1  0.363021  0.869634  0.652875  1
  Cd  Cd8  1  0.742388  0.261529  0.731187  1
  Cd  Cd9  1  0.962074  0.510753  0.523617  1
  Cd  Cd10  1  0.242388  0.731187  0.261529  1
  Cd  Cd11  1  0.647216  0.377732  0.061681  1
  Cd  Cd12  1  0.462074  0.523617  0.510753  1
  Cd  Cd13  1  0.853390  0.937199  0.615953  1
  Cd  Cd14  1  0.353390  0.615953  0.937199  1
  Cd  Cd15  1  0.147216  0.061681  0.377732  1
  O  O16  1  0.620527  0.169058  0.170476  1
  O  O17  1  0.211211  0.480752  0.278346  1
  O  O18  1  0.291946  0.703108  0.522785  1
  O  O19  1  0.376304  0.825589  0.827890  1
  O  O20  1  0.468788  0.267024  0.817572  1
  O  O21  1  0.598090  0.003038  0.668873  1
  O  O22  1  0.728342  0.711874  0.476179  1
  O  O23  1  0.791946  0.522785  0.703108  1
  O  O24  1  0.320327  0.390400  0.031675  1
  O  O25  1  0.968788  0.817572  0.267024  1
  O  O26  1  0.098090  0.668873  0.003038  1
  O  O27  1  0.228342  0.476179  0.711874  1
  O  O28  1  0.399206  0.987642  0.329929  1
  O  O29  1  0.120527  0.170476  0.169058  1
  O  O30  1  0.273528  0.282421  0.523646  1
  O  O31  1  0.675402  0.600180  0.953209  1
  O  O32  1  0.030142  0.177782  0.727183  1
  O  O33  1  0.175402  0.953209  0.600180  1
  O  O34  1  0.876304  0.827890  0.825589  1
  O  O35  1  0.773528  0.523646  0.282421  1
  O  O36  1  0.820327  0.031675  0.390400  1
  O  O37  1  0.899206  0.329929  0.987642  1
  O  O38  1  0.530142  0.727183  0.177782  1
  O  O39  1  0.711211  0.278346  0.480752  1
