# generated using pymatgen
data_V2Te2O9
_symmetry_space_group_name_H-M   'P 1'
_cell_length_a   7.36433758
_cell_length_b   9.75361641
_cell_length_c   10.25448455
_cell_angle_alpha   90.00000000
_cell_angle_beta   95.15976290
_cell_angle_gamma   90.00000000
_symmetry_Int_Tables_number   1
_chemical_formula_structural   V2Te2O9
_chemical_formula_sum   'V8 Te8 O36'
_cell_volume   733.58386795
_cell_formula_units_Z   4
loop_
 _symmetry_equiv_pos_site_id
 _symmetry_equiv_pos_as_xyz
  1  'x, y, z'
loop_
 _atom_site_type_symbol
 _atom_site_label
 _atom_site_symmetry_multiplicity
 _atom_site_fract_x
 _atom_site_fract_y
 _atom_site_fract_z
 _atom_site_occupancy
  O  O0  1  0.649319  0.548837  0.097157  1
  O  O1  1  0.350682  0.048838  0.402843  1
  O  O2  1  0.350681  0.451162  0.902842  1
  O  O3  1  0.649319  0.951163  0.597158  1
  O  O4  1  0.444401  0.045389  0.148043  1
  O  O5  1  0.555599  0.545389  0.351958  1
  O  O6  1  0.555599  0.954611  0.851957  1
  O  O7  1  0.444401  0.454611  0.648043  1
  O  O8  1  0.919012  0.359212  0.925238  1
  O  O9  1  0.080988  0.859211  0.574762  1
  O  O10  1  0.080988  0.640789  0.074761  1
  O  O11  1  0.919012  0.140789  0.425238  1
  O  O12  1  0.805179  0.141253  0.052732  1
  O  O13  1  0.194822  0.641252  0.447267  1
  O  O14  1  0.194822  0.858747  0.947267  1
  O  O15  1  0.805178  0.358747  0.552733  1
  O  O16  1  0.934797  0.134782  0.691174  1
  O  O17  1  0.065203  0.634782  0.808826  1
  O  O18  1  0.065203  0.865218  0.308826  1
  O  O19  1  0.934798  0.365218  0.191174  1
  O  O20  1  0.165684  0.151464  0.930757  1
  O  O21  1  0.834316  0.651464  0.569243  1
  O  O22  1  0.834316  0.848537  0.069243  1
  O  O23  1  0.165683  0.348537  0.430757  1
  O  O24  1  0.905278  0.938308  0.826629  1
  O  O25  1  0.094722  0.438309  0.673371  1
  O  O26  1  0.587340  0.303285  0.217402  1
  O  O27  1  0.905279  0.561691  0.326630  1
  O  O28  1  0.237826  0.194442  0.625902  1
  O  O29  1  0.762174  0.694442  0.874098  1
  O  O30  1  0.762174  0.805558  0.374097  1
  O  O31  1  0.237827  0.305558  0.125902  1
  O  O32  1  0.587339  0.196715  0.717402  1
  O  O33  1  0.412661  0.696715  0.782598  1
  O  O34  1  0.412661  0.803285  0.282599  1
  O  O35  1  0.094722  0.061691  0.173370  1
  V  V36  1  0.994878  0.251764  0.040704  1
  V  V37  1  0.005122  0.751764  0.459296  1
  V  V38  1  0.005122  0.748236  0.959296  1
  V  V39  1  0.994878  0.248235  0.540704  1
  V  V40  1  0.707850  0.466756  0.231928  1
  V  V41  1  0.292149  0.966756  0.268072  1
  V  V42  1  0.292150  0.533244  0.768071  1
  V  V43  1  0.707850  0.033245  0.731929  1
  Te  Te44  1  0.447505  0.221723  0.063069  1
  Te  Te45  1  0.552496  0.721723  0.436931  1
  Te  Te46  1  0.552495  0.778277  0.936930  1
  Te  Te47  1  0.447505  0.278277  0.563070  1
  Te  Te48  1  0.136306  0.481343  0.290894  1
  Te  Te49  1  0.863695  0.981344  0.209105  1
  Te  Te50  1  0.863695  0.518656  0.709106  1
  Te  Te51  1  0.136305  0.018656  0.790894  1
