# generated using pymatgen
data_CuH8C2Br3NO
_symmetry_space_group_name_H-M   'P 1'
_cell_length_a   6.49513598
_cell_length_b   8.42661758
_cell_length_c   8.97404061
_cell_angle_alpha   68.47096951
_cell_angle_beta   79.87585480
_cell_angle_gamma   76.94177530
_symmetry_Int_Tables_number   1
_chemical_formula_structural   CuH8C2Br3NO
_chemical_formula_sum   'Cu2 H16 C4 Br6 N2 O2'
_cell_volume   442.74109731
_cell_formula_units_Z   2
loop_
 _symmetry_equiv_pos_site_id
 _symmetry_equiv_pos_as_xyz
  1  'x, y, z'
loop_
 _atom_site_type_symbol
 _atom_site_label
 _atom_site_symmetry_multiplicity
 _atom_site_fract_x
 _atom_site_fract_y
 _atom_site_fract_z
 _atom_site_occupancy
  Cu  Cu0  1  0.260885  0.067549  0.392045  1
  Cu  Cu1  1  0.739115  0.932451  0.607955  1
  H  H2  1  0.852754  0.198056  0.059539  1
  H  H3  1  0.354774  0.629292  0.724350  1
  H  H4  1  0.691313  0.534818  0.602969  1
  H  H5  1  0.873848  0.467521  0.848135  1
  H  H6  1  0.126152  0.532479  0.151865  1
  H  H7  1  0.456276  0.635946  0.290011  1
  H  H8  1  0.543724  0.364054  0.709989  1
  H  H9  1  0.308687  0.465182  0.397031  1
  H  H10  1  0.922941  0.293212  0.771262  1
  H  H11  1  0.077059  0.706788  0.228738  1
  H  H12  1  0.666811  0.155039  0.979566  1
  H  H13  1  0.609103  0.321681  0.051994  1
  H  H14  1  0.333189  0.844961  0.020434  1
  H  H15  1  0.147246  0.801944  0.940461  1
  H  H16  1  0.645226  0.370708  0.275650  1
  H  H17  1  0.390897  0.678319  0.948006  1
  C  C18  1  0.622304  0.460848  0.723090  1
  C  C19  1  0.198935  0.627803  0.171496  1
  C  C20  1  0.377696  0.539152  0.276910  1
  C  C21  1  0.801065  0.372197  0.828504  1
  Br  Br22  1  0.625967  0.909714  0.366561  1
  Br  Br23  1  0.919314  0.244944  0.437206  1
  Br  Br24  1  0.080686  0.755056  0.562794  1
  Br  Br25  1  0.374033  0.090286  0.633439  1
  Br  Br26  1  0.781545  0.885706  0.886966  1
  Br  Br27  1  0.218455  0.114294  0.113034  1
  N  N28  1  0.274759  0.745234  0.009976  1
  N  N29  1  0.725241  0.254766  0.990024  1
  O  O30  1  0.527729  0.426060  0.206561  1
  O  O31  1  0.472271  0.573940  0.793439  1
