# generated using pymatgen
data_Ga2RhC4Cl7O4
_symmetry_space_group_name_H-M   'P 1'
_cell_length_a   10.03503582
_cell_length_b   10.04579199
_cell_length_c   10.61041985
_cell_angle_alpha   76.40843406
_cell_angle_beta   76.82887554
_cell_angle_gamma   65.69231317
_symmetry_Int_Tables_number   1
_chemical_formula_structural   Ga2RhC4Cl7O4
_chemical_formula_sum   'Ga4 Rh2 C8 Cl14 O8'
_cell_volume   937.07259317
_cell_formula_units_Z   2
loop_
 _symmetry_equiv_pos_site_id
 _symmetry_equiv_pos_as_xyz
  1  'x, y, z'
loop_
 _atom_site_type_symbol
 _atom_site_label
 _atom_site_symmetry_multiplicity
 _atom_site_fract_x
 _atom_site_fract_y
 _atom_site_fract_z
 _atom_site_occupancy
  Ga  Ga0  1  0.804976  0.166909  0.175831  1
  Ga  Ga1  1  0.567015  0.704063  0.577801  1
  Ga  Ga2  1  0.195024  0.833091  0.824169  1
  Ga  Ga3  1  0.432985  0.295936  0.422199  1
  Rh  Rh4  1  0.000000  0.500000  0.500000  1
  Rh  Rh5  1  0.500000  0.000000  0.000000  1
  C  C6  1  0.007820  0.694519  0.488043  1
  C  C7  1  0.971280  0.471518  0.692066  1
  C  C8  1  0.360900  0.206592  0.981247  1
  C  C9  1  0.643539  0.059790  0.865554  1
  C  C10  1  0.028720  0.528482  0.307934  1
  C  C11  1  0.992180  0.305481  0.511957  1
  C  C12  1  0.356461  0.940210  0.134446  1
  C  C13  1  0.639100  0.793408  0.018753  1
  Cl  Cl14  1  0.655624  0.808997  0.678781  1
  Cl  Cl15  1  0.344376  0.191003  0.321219  1
  Cl  Cl16  1  0.382162  0.528334  0.343836  1
  Cl  Cl17  1  0.635452  0.743323  0.366718  1
  Cl  Cl18  1  0.884810  0.935573  0.155863  1
  Cl  Cl19  1  0.364548  0.256677  0.633282  1
  Cl  Cl20  1  0.312290  0.829509  0.601960  1
  Cl  Cl21  1  0.687710  0.170491  0.398040  1
  Cl  Cl22  1  0.023805  0.753652  0.824036  1
  Cl  Cl23  1  0.115191  0.064427  0.844137  1
  Cl  Cl24  1  0.359625  0.686785  0.947165  1
  Cl  Cl25  1  0.640375  0.313215  0.052835  1
  Cl  Cl26  1  0.976195  0.246348  0.175964  1
  Cl  Cl27  1  0.617838  0.471666  0.656164  1
  O  O28  1  0.987168  0.191827  0.521900  1
  O  O29  1  0.280855  0.327369  0.968112  1
  O  O30  1  0.725689  0.095819  0.786235  1
  O  O31  1  0.274311  0.904181  0.213765  1
  O  O32  1  0.012832  0.808173  0.478100  1
  O  O33  1  0.719145  0.672631  0.031888  1
  O  O34  1  0.954453  0.452031  0.804084  1
  O  O35  1  0.045547  0.547969  0.195916  1
