# generated using pymatgen
data_Ba7B4Se13
_symmetry_space_group_name_H-M   'P 1'
_cell_length_a   10.67042512
_cell_length_b   10.66299933
_cell_length_c   13.84256585
_cell_angle_alpha   89.99341396
_cell_angle_beta   67.33300530
_cell_angle_gamma   89.97847055
_symmetry_Int_Tables_number   1
_chemical_formula_structural   Ba7B4Se13
_chemical_formula_sum   'Ba14 B8 Se26'
_cell_volume   1453.33771581
_cell_formula_units_Z   2
loop_
 _symmetry_equiv_pos_site_id
 _symmetry_equiv_pos_as_xyz
  1  'x, y, z'
loop_
 _atom_site_type_symbol
 _atom_site_label
 _atom_site_symmetry_multiplicity
 _atom_site_fract_x
 _atom_site_fract_y
 _atom_site_fract_z
 _atom_site_occupancy
  Ba  Ba0  1  0.064312  0.027797  0.657625  1
  Ba  Ba1  1  0.277892  0.472176  0.657621  1
  Ba  Ba2  1  0.451190  0.856590  0.653313  1
  Ba  Ba3  1  0.332347  0.750022  0.335351  1
  Ba  Ba4  1  0.667653  0.249978  0.664649  1
  Ba  Ba5  1  0.548810  0.143410  0.346687  1
  Ba  Ba6  1  0.996247  0.249960  0.007531  1
  Ba  Ba7  1  0.935688  0.972203  0.342375  1
  Ba  Ba8  1  0.895302  0.643341  0.653372  1
  Ba  Ba9  1  0.003753  0.750040  0.992469  1
  Ba  Ba10  1  0.104698  0.356659  0.346628  1
  Ba  Ba11  1  0.503890  0.750029  0.992127  1
  Ba  Ba12  1  0.496110  0.249971  0.007873  1
  Ba  Ba13  1  0.722108  0.527824  0.342379  1
  B  B14  1  0.516981  0.568266  0.766683  1
  B  B15  1  0.067237  0.649486  0.224589  1
  B  B16  1  0.483019  0.431734  0.233317  1
  B  B17  1  0.932763  0.350514  0.775411  1
  B  B18  1  0.283741  0.068325  0.233383  1
  B  B19  1  0.291819  0.149317  0.775358  1
  B  B20  1  0.716259  0.931675  0.766617  1
  B  B21  1  0.708181  0.850683  0.224642  1
  Se  Se22  1  0.376455  0.152900  0.618828  1
  Se  Se23  1  0.205623  0.749972  0.588265  1
  Se  Se24  1  0.341122  0.650737  0.841207  1
  Se  Se25  1  0.596984  0.562717  0.610617  1
  Se  Se26  1  0.207740  0.062886  0.389436  1
  Se  Se27  1  0.658878  0.349263  0.158793  1
  Se  Se28  1  0.817386  0.849136  0.841287  1
  Se  Se29  1  0.321538  0.298089  0.846813  1
  Se  Se30  1  0.794377  0.250028  0.411735  1
  Se  Se31  1  0.828101  0.989428  0.150688  1
  Se  Se32  1  0.466819  0.999241  0.162570  1
  Se  Se33  1  0.978651  0.489102  0.849510  1
  Se  Se34  1  0.021349  0.510898  0.150490  1
  Se  Se35  1  0.629204  0.499271  0.837575  1
  Se  Se36  1  0.831695  0.201738  0.846915  1
  Se  Se37  1  0.678462  0.701911  0.153187  1
  Se  Se38  1  0.004578  0.346898  0.618885  1
  Se  Se39  1  0.403016  0.437283  0.389383  1
  Se  Se40  1  0.533181  0.000759  0.837430  1
  Se  Se41  1  0.995422  0.653102  0.381115  1
  Se  Se42  1  0.168305  0.798262  0.153085  1
  Se  Se43  1  0.623545  0.847100  0.381172  1
  Se  Se44  1  0.370796  0.500729  0.162425  1
  Se  Se45  1  0.171899  0.010572  0.849312  1
  Se  Se46  1  0.182614  0.150864  0.158713  1
  Se  Se47  1  0.792260  0.937114  0.610564  1
