# generated using pymatgen
data_NpAgSeO5
_symmetry_space_group_name_H-M   'P 1'
_cell_length_a   7.21154185
_cell_length_b   8.45458595
_cell_length_c   8.45853215
_cell_angle_alpha   89.34535514
_cell_angle_beta   77.35197278
_cell_angle_gamma   77.09283998
_symmetry_Int_Tables_number   1
_chemical_formula_structural   NpAgSeO5
_chemical_formula_sum   'Np4 Ag4 Se4 O20'
_cell_volume   490.11156877
_cell_formula_units_Z   4
loop_
 _symmetry_equiv_pos_site_id
 _symmetry_equiv_pos_as_xyz
  1  'x, y, z'
loop_
 _atom_site_type_symbol
 _atom_site_label
 _atom_site_symmetry_multiplicity
 _atom_site_fract_x
 _atom_site_fract_y
 _atom_site_fract_z
 _atom_site_occupancy
  Np  Np0  1  0.503586  0.243983  0.743056  1
  Np  Np1  1  0.386961  0.282200  0.262708  1
  Np  Np2  1  0.613039  0.717800  0.737292  1
  Np  Np3  1  0.496414  0.756017  0.256944  1
  Ag  Ag4  1  0.810581  0.974622  0.992500  1
  Ag  Ag5  1  0.189419  0.025378  0.007500  1
  Ag  Ag6  1  0.882780  0.905395  0.399987  1
  Ag  Ag7  1  0.117220  0.094605  0.600013  1
  Se  Se8  1  0.094260  0.631250  0.116980  1
  Se  Se9  1  0.905740  0.368750  0.883020  1
  Se  Se10  1  0.848709  0.287506  0.346730  1
  Se  Se11  1  0.151291  0.712494  0.653270  1
  O  O12  1  0.411643  0.293914  0.035674  1
  O  O13  1  0.147417  0.254772  0.827415  1
  O  O14  1  0.204526  0.785423  0.159299  1
  O  O15  1  0.795474  0.214577  0.840701  1
  O  O16  1  0.366373  0.264821  0.490070  1
  O  O17  1  0.219106  0.827093  0.484822  1
  O  O18  1  0.885659  0.488669  0.720694  1
  O  O19  1  0.522120  0.017202  0.770607  1
  O  O20  1  0.852583  0.745228  0.172585  1
  O  O21  1  0.633627  0.735179  0.509930  1
  O  O22  1  0.261643  0.790352  0.788337  1
  O  O23  1  0.087595  0.179659  0.279250  1
  O  O24  1  0.492941  0.467469  0.723449  1
  O  O25  1  0.477880  0.982798  0.229393  1
  O  O26  1  0.507059  0.532531  0.276551  1
  O  O27  1  0.912405  0.820341  0.720750  1
  O  O28  1  0.588357  0.706086  0.964326  1
  O  O29  1  0.780894  0.172907  0.515178  1
  O  O30  1  0.114341  0.511331  0.279306  1
  O  O31  1  0.738357  0.209648  0.211663  1
