# generated using pymatgen
data_ZnS
_symmetry_space_group_name_H-M   'P 1'
_cell_length_a   3.85369985
_cell_length_b   3.85369975
_cell_length_c   62.98738203
_cell_angle_alpha   90.00000000
_cell_angle_beta   90.00000000
_cell_angle_gamma   120.00000095
_symmetry_Int_Tables_number   1
_chemical_formula_structural   ZnS
_chemical_formula_sum   'Zn20 S20'
_cell_volume   810.10245148
_cell_formula_units_Z   20
loop_
 _symmetry_equiv_pos_site_id
 _symmetry_equiv_pos_as_xyz
  1  'x, y, z'
loop_
 _atom_site_type_symbol
 _atom_site_label
 _atom_site_symmetry_multiplicity
 _atom_site_fract_x
 _atom_site_fract_y
 _atom_site_fract_z
 _atom_site_occupancy
  Zn  Zn0  1  0.333333  0.666667  0.450014  1
  Zn  Zn1  1  0.333333  0.666667  0.949998  1
  Zn  Zn2  1  0.000000  0.000000  0.849999  1
  Zn  Zn3  1  0.666667  0.333333  0.400000  1
  Zn  Zn4  1  0.666667  0.333333  0.900014  1
  Zn  Zn5  1  0.000000  0.000000  0.300003  1
  Zn  Zn6  1  0.333333  0.666667  0.349998  1
  Zn  Zn7  1  0.666667  0.333333  0.699998  1
  Zn  Zn8  1  0.666667  0.333333  0.100002  1
  Zn  Zn9  1  0.666667  0.333333  0.550003  1
  Zn  Zn10  1  0.000000  0.000000  0.650003  1
  Zn  Zn11  1  0.333333  0.666667  0.050014  1
  Zn  Zn12  1  0.000000  0.000000  1.000000  1
  Zn  Zn13  1  0.333333  0.666667  0.200003  1
  Zn  Zn14  1  0.000000  0.000000  0.150003  1
  Zn  Zn15  1  0.333333  0.666667  0.600003  1
  Zn  Zn16  1  0.000000  0.000000  0.500002  1
  Zn  Zn17  1  0.666667  0.333333  0.250003  1
  Zn  Zn18  1  0.666667  0.333333  0.800009  1
  Zn  Zn19  1  0.333333  0.666667  0.750000  1
  S  S20  1  0.000000  0.000000  0.337497  1
  S  S21  1  0.666667  0.333333  0.837465  1
  S  S22  1  0.666667  0.333333  0.137496  1
  S  S23  1  0.333333  0.666667  0.637496  1
  S  S24  1  0.666667  0.333333  0.587498  1
  S  S25  1  0.333333  0.666667  0.987466  1
  S  S26  1  0.000000  0.000000  0.037528  1
  S  S27  1  0.333333  0.666667  0.087496  1
  S  S28  1  0.666667  0.333333  0.737467  1
  S  S29  1  0.666667  0.333333  0.937495  1
  S  S30  1  0.666667  0.333333  0.437528  1
  S  S31  1  0.666667  0.333333  0.287497  1
  S  S32  1  0.333333  0.666667  0.237497  1
  S  S33  1  0.000000  0.000000  0.537496  1
  S  S34  1  0.000000  0.000000  0.887528  1
  S  S35  1  0.333333  0.666667  0.487495  1
  S  S36  1  0.333333  0.666667  0.387467  1
  S  S37  1  0.333333  0.666667  0.787528  1
  S  S38  1  0.000000  0.000000  0.687497  1
  S  S39  1  0.000000  0.000000  0.187496  1
