# generated using pymatgen
data_CdSO3
_symmetry_space_group_name_H-M   'P 1'
_cell_length_a   5.65376875
_cell_length_b   8.75328908
_cell_length_c   12.82371036
_cell_angle_alpha   90.00000000
_cell_angle_beta   90.00000000
_cell_angle_gamma   100.21986305
_symmetry_Int_Tables_number   1
_chemical_formula_structural   CdSO3
_chemical_formula_sum   'Cd8 S8 O24'
_cell_volume   624.56453376
_cell_formula_units_Z   8
loop_
 _symmetry_equiv_pos_site_id
 _symmetry_equiv_pos_as_xyz
  1  'x, y, z'
loop_
 _atom_site_type_symbol
 _atom_site_label
 _atom_site_symmetry_multiplicity
 _atom_site_fract_x
 _atom_site_fract_y
 _atom_site_fract_z
 _atom_site_occupancy
  Cd  Cd0  1  0.679497  0.884877  0.419654  1
  Cd  Cd1  1  0.132998  0.653559  0.254062  1
  Cd  Cd2  1  0.320503  0.615123  0.919654  1
  Cd  Cd3  1  0.867002  0.346441  0.745938  1
  Cd  Cd4  1  0.867002  0.846441  0.754062  1
  Cd  Cd5  1  0.320503  0.115123  0.580346  1
  Cd  Cd6  1  0.679497  0.384877  0.080346  1
  Cd  Cd7  1  0.132998  0.153559  0.245938  1
  S  S8  1  0.538514  0.483952  0.325674  1
  S  S9  1  0.538514  0.983952  0.174326  1
  S  S10  1  0.461486  0.016048  0.825674  1
  S  S11  1  0.461486  0.516048  0.674326  1
  S  S12  1  0.096800  0.247247  0.978940  1
  S  S13  1  0.096800  0.747247  0.521060  1
  S  S14  1  0.903200  0.752753  0.021060  1
  S  S15  1  0.903200  0.252753  0.478940  1
  O  O16  1  0.995408  0.245573  0.091669  1
  O  O17  1  0.311882  0.919425  0.240892  1
  O  O18  1  0.917764  0.837912  0.576712  1
  O  O19  1  0.688118  0.080575  0.759108  1
  O  O20  1  0.311882  0.419425  0.259108  1
  O  O21  1  0.508127  0.348314  0.656740  1
  O  O22  1  0.336392  0.365858  0.978175  1
  O  O23  1  0.249369  0.004002  0.745655  1
  O  O24  1  0.491873  0.651686  0.343260  1
  O  O25  1  0.004592  0.754427  0.908331  1
  O  O26  1  0.663608  0.634142  0.021825  1
  O  O27  1  0.249369  0.504002  0.754345  1
  O  O28  1  0.995408  0.745573  0.408331  1
  O  O29  1  0.491873  0.151686  0.156740  1
  O  O30  1  0.508127  0.848314  0.843260  1
  O  O31  1  0.750631  0.495998  0.245655  1
  O  O32  1  0.688118  0.580575  0.740892  1
  O  O33  1  0.082236  0.662088  0.076712  1
  O  O34  1  0.917764  0.337912  0.923288  1
  O  O35  1  0.004592  0.254427  0.591669  1
  O  O36  1  0.336392  0.865858  0.521825  1
  O  O37  1  0.750631  0.995998  0.254345  1
  O  O38  1  0.663608  0.134142  0.478175  1
  O  O39  1  0.082236  0.162088  0.423288  1
