# generated using pymatgen
data_K2Ni4P4O15
_symmetry_space_group_name_H-M   'P 1'
_cell_length_a   8.65821005
_cell_length_b   8.65821028
_cell_length_c   18.36510872
_cell_angle_alpha   97.86238469
_cell_angle_beta   97.86238492
_cell_angle_gamma   105.92503612
_symmetry_Int_Tables_number   1
_chemical_formula_structural   K2Ni4P4O15
_chemical_formula_sum   'K8 Ni16 P16 O60'
_cell_volume   1289.30289882
_cell_formula_units_Z   4
loop_
 _symmetry_equiv_pos_site_id
 _symmetry_equiv_pos_as_xyz
  1  'x, y, z'
loop_
 _atom_site_type_symbol
 _atom_site_label
 _atom_site_symmetry_multiplicity
 _atom_site_fract_x
 _atom_site_fract_y
 _atom_site_fract_z
 _atom_site_occupancy
  K  K0  1  0.664257  0.447276  0.955494  1
  K  K1  1  0.590234  0.093053  0.797020  1
  K  K2  1  0.335743  0.552724  0.044506  1
  K  K3  1  0.447276  0.664257  0.455494  1
  K  K4  1  0.906947  0.409766  0.702980  1
  K  K5  1  0.409766  0.906947  0.202980  1
  K  K6  1  0.093053  0.590234  0.297020  1
  K  K7  1  0.552724  0.335743  0.544506  1
  Ni  Ni8  1  0.849069  0.957559  0.931940  1
  Ni  Ni9  1  0.912163  0.268257  0.068851  1
  Ni  Ni10  1  0.087837  0.731743  0.931149  1
  Ni  Ni11  1  0.175778  0.824222  0.750000  1
  Ni  Ni12  1  0.731743  0.087837  0.431149  1
  Ni  Ni13  1  0.824222  0.175778  0.250000  1
  Ni  Ni14  1  0.042441  0.150931  0.568060  1
  Ni  Ni15  1  0.268257  0.912163  0.568851  1
  Ni  Ni16  1  0.150931  0.042441  0.068060  1
  Ni  Ni17  1  0.536974  0.463026  0.250000  1
  Ni  Ni18  1  0.957559  0.849069  0.431940  1
  Ni  Ni19  1  0.500000  0.000000  0.000000  1
  Ni  Ni20  1  0.046168  0.953832  0.250000  1
  Ni  Ni21  1  0.000000  0.500000  0.500000  1
  Ni  Ni22  1  0.463026  0.536974  0.750000  1
  Ni  Ni23  1  0.953832  0.046168  0.750000  1
  P  P24  1  0.841047  0.718333  0.820090  1
  P  P25  1  0.993209  0.688402  0.098624  1
  P  P26  1  0.688402  0.993209  0.598624  1
  P  P27  1  0.776442  0.894869  0.098429  1
  P  P28  1  0.281667  0.158953  0.679910  1
  P  P29  1  0.105131  0.223558  0.401571  1
  P  P30  1  0.445219  0.764903  0.880166  1
  P  P31  1  0.894869  0.776442  0.598429  1
  P  P32  1  0.235097  0.554781  0.619834  1
  P  P33  1  0.223558  0.105131  0.901571  1
  P  P34  1  0.006790  0.311598  0.901376  1
  P  P35  1  0.311598  0.006790  0.401376  1
  P  P36  1  0.554781  0.235097  0.119834  1
  P  P37  1  0.158953  0.281667  0.179910  1
  P  P38  1  0.718333  0.841047  0.320090  1
  P  P39  1  0.764903  0.445219  0.380166  1
  O  O40  1  0.582221  0.707634  0.265575  1
  O  O41  1  0.278064  0.185690  0.419470  1
  O  O42  1  0.013906  0.701131  0.812591  1
  O  O43  1  0.183750  0.612994  0.692609  1
  O  O44  1  0.750346  0.062055  0.681640  1
  O  O45  1  0.775623  0.332912  0.440368  1
  O  O46  1  0.986094  0.298869  0.187409  1
  O  O47  1  0.491469  0.045913  0.428626  1
  O  O48  1  0.707634  0.582221  0.765575  1
  O  O49  1  0.954087  0.508531  0.071374  1
  O  O50  1  0.405296  0.139035  0.927386  1
  O  O51  1  0.721936  0.814310  0.580530  1
  O  O52  1  0.106640  0.173932  0.685360  1
  O  O53  1  0.393500  0.096991  0.078807  1
  O  O54  1  0.096991  0.393500  0.578807  1
  O  O55  1  0.161275  0.288127  0.093931  1
  O  O56  1  0.838725  0.711873  0.906069  1
  O  O57  1  0.185690  0.278064  0.919470  1
  O  O58  1  0.224377  0.667088  0.559632  1
  O  O59  1  0.062055  0.750346  0.181639  1
  O  O60  1  0.884619  0.005987  0.051491  1
  O  O61  1  0.894026  0.210789  0.948853  1
  O  O62  1  0.534357  0.406897  0.137644  1
  O  O63  1  0.937945  0.249654  0.818360  1
  O  O64  1  0.105974  0.789211  0.051147  1
  O  O65  1  0.789211  0.105974  0.551147  1
  O  O66  1  0.292366  0.417779  0.234425  1
  O  O67  1  0.249654  0.937945  0.318360  1
  O  O68  1  0.005987  0.884619  0.551491  1
  O  O69  1  0.994013  0.115381  0.448509  1
  O  O70  1  0.210789  0.894026  0.448853  1
  O  O71  1  0.903009  0.606500  0.421193  1
  O  O72  1  0.173932  0.106640  0.185360  1
  O  O73  1  0.139035  0.405296  0.427386  1
  O  O74  1  0.606500  0.903009  0.921193  1
  O  O75  1  0.465643  0.593103  0.862356  1
  O  O76  1  0.045913  0.491469  0.928626  1
  O  O77  1  0.667088  0.224377  0.059632  1
  O  O78  1  0.039778  0.165313  0.317736  1
  O  O79  1  0.960222  0.834687  0.682264  1
  O  O80  1  0.860965  0.594704  0.572614  1
  O  O81  1  0.417779  0.292366  0.734425  1
  O  O82  1  0.387006  0.816250  0.807391  1
  O  O83  1  0.814310  0.721936  0.080530  1
  O  O84  1  0.593103  0.465643  0.362356  1
  O  O85  1  0.594704  0.860965  0.072614  1
  O  O86  1  0.288127  0.161275  0.593931  1
  O  O87  1  0.612994  0.183750  0.192609  1
  O  O88  1  0.332912  0.775623  0.940368  1
  O  O89  1  0.701131  0.013906  0.312591  1
  O  O90  1  0.165313  0.039778  0.817736  1
  O  O91  1  0.406897  0.534357  0.637644  1
  O  O92  1  0.115381  0.994013  0.948509  1
  O  O93  1  0.711873  0.838725  0.406070  1
  O  O94  1  0.834687  0.960222  0.182264  1
  O  O95  1  0.508531  0.954087  0.571374  1
  O  O96  1  0.298869  0.986094  0.687409  1
  O  O97  1  0.826068  0.893360  0.814640  1
  O  O98  1  0.893360  0.826068  0.314640  1
  O  O99  1  0.816250  0.387006  0.307391  1
