# generated using pymatgen
data_MnH8(BrO2)2
_symmetry_space_group_name_H-M   'P 1'
_cell_length_a   6.33394734
_cell_length_b   9.89757286
_cell_length_c   11.61537318
_cell_angle_alpha   90.00000000
_cell_angle_beta   98.48405929
_cell_angle_gamma   90.00000000
_symmetry_Int_Tables_number   1
_chemical_formula_structural   MnH8(BrO2)2
_chemical_formula_sum   'Mn4 H32 Br8 O16'
_cell_volume   720.20747050
_cell_formula_units_Z   4
loop_
 _symmetry_equiv_pos_site_id
 _symmetry_equiv_pos_as_xyz
  1  'x, y, z'
loop_
 _atom_site_type_symbol
 _atom_site_label
 _atom_site_symmetry_multiplicity
 _atom_site_fract_x
 _atom_site_fract_y
 _atom_site_fract_z
 _atom_site_occupancy
  Mn  Mn0  1  0.017123  0.831268  0.764164  1
  Mn  Mn1  1  0.482877  0.331268  0.735836  1
  Mn  Mn2  1  0.982877  0.168732  0.235836  1
  Mn  Mn3  1  0.517123  0.668732  0.264164  1
  H  H4  1  0.618869  0.851521  0.621831  1
  H  H5  1  0.881131  0.351521  0.878169  1
  H  H6  1  0.381131  0.148479  0.378169  1
  H  H7  1  0.118869  0.648479  0.121831  1
  H  H8  1  0.634952  0.979064  0.701551  1
  H  H9  1  0.865048  0.479064  0.798449  1
  H  H10  1  0.365048  0.020936  0.298449  1
  H  H11  1  0.134952  0.520936  0.201551  1
  H  H12  1  0.393401  0.797962  0.916708  1
  H  H13  1  0.106599  0.297962  0.583292  1
  H  H14  1  0.606599  0.202038  0.083292  1
  H  H15  1  0.893401  0.702038  0.416708  1
  H  H16  1  0.468063  0.804348  0.792657  1
  H  H17  1  0.031937  0.304348  0.707343  1
  H  H18  1  0.531937  0.195652  0.207343  1
  H  H19  1  0.968063  0.695652  0.292657  1
  H  H20  1  0.175961  0.067075  0.888173  1
  H  H21  1  0.324039  0.567075  0.611827  1
  H  H22  1  0.824039  0.932925  0.111827  1
  H  H23  1  0.675961  0.432925  0.388173  1
  H  H24  1  0.926512  0.064125  0.898685  1
  H  H25  1  0.573488  0.564125  0.601315  1
  H  H26  1  0.073488  0.935875  0.101315  1
  H  H27  1  0.426512  0.435875  0.398685  1
  H  H28  1  0.193035  0.935747  0.566406  1
  H  H29  1  0.306965  0.435747  0.933594  1
  H  H30  1  0.806965  0.064253  0.433594  1
  H  H31  1  0.693035  0.564253  0.066406  1
  H  H32  1  0.139160  0.063734  0.641235  1
  H  H33  1  0.360840  0.563734  0.858765  1
  H  H34  1  0.860840  0.936266  0.358765  1
  H  H35  1  0.639160  0.436266  0.141235  1
  Br  Br36  1  0.909100  0.685912  0.941081  1
  Br  Br37  1  0.590900  0.185912  0.558919  1
  Br  Br38  1  0.090900  0.314088  0.058919  1
  Br  Br39  1  0.409100  0.814088  0.441081  1
  Br  Br40  1  0.961080  0.633305  0.610850  1
  Br  Br41  1  0.538920  0.133305  0.889150  1
  Br  Br42  1  0.038920  0.366695  0.389150  1
  Br  Br43  1  0.461080  0.866695  0.110850  1
  O  O44  1  0.664230  0.881014  0.703613  1
  O  O45  1  0.835770  0.381014  0.796387  1
  O  O46  1  0.335770  0.118986  0.296387  1
  O  O47  1  0.164230  0.618986  0.203613  1
  O  O48  1  0.353472  0.769199  0.834584  1
  O  O49  1  0.146528  0.269199  0.665416  1
  O  O50  1  0.646528  0.230801  0.165416  1
  O  O51  1  0.853472  0.730801  0.334584  1
  O  O52  1  0.040226  0.019168  0.863991  1
  O  O53  1  0.459774  0.519168  0.636009  1
  O  O54  1  0.959774  0.980832  0.136009  1
  O  O55  1  0.540226  0.480832  0.363991  1
  O  O56  1  0.121791  0.965204  0.631726  1
  O  O57  1  0.378209  0.465204  0.868274  1
  O  O58  1  0.878209  0.034796  0.368274  1
  O  O59  1  0.621791  0.534796  0.131726  1
