# generated using pymatgen
data_Fe2PO4F
_symmetry_space_group_name_H-M   'P 1'
_cell_length_a   6.60436213
_cell_length_b   7.37008991
_cell_length_c   9.57975873
_cell_angle_alpha   70.79316001
_cell_angle_beta   69.83627199
_cell_angle_gamma   63.38125353
_symmetry_Int_Tables_number   1
_chemical_formula_structural   Fe2PO4F
_chemical_formula_sum   'Fe8 P4 O16 F4'
_cell_volume   382.76321422
_cell_formula_units_Z   4
loop_
 _symmetry_equiv_pos_site_id
 _symmetry_equiv_pos_as_xyz
  1  'x, y, z'
loop_
 _atom_site_type_symbol
 _atom_site_label
 _atom_site_symmetry_multiplicity
 _atom_site_fract_x
 _atom_site_fract_y
 _atom_site_fract_z
 _atom_site_occupancy
  O  O0  1  0.429887  0.228478  0.697832  1
  O  O1  1  0.570112  0.771522  0.302169  1
  O  O2  1  0.856197  0.271522  0.802169  1
  O  O3  1  0.143803  0.728479  0.197831  1
  O  O4  1  0.853187  0.098925  0.136027  1
  O  O5  1  0.588141  0.401075  0.363973  1
  O  O6  1  0.146812  0.901075  0.863972  1
  O  O7  1  0.411859  0.598926  0.636027  1
  O  O8  1  0.041628  0.987237  0.355822  1
  O  O9  1  0.277846  0.031643  0.081091  1
  O  O10  1  0.958373  0.012762  0.644178  1
  O  O11  1  0.115315  0.487238  0.855822  1
  O  O12  1  0.109418  0.531643  0.581091  1
  O  O13  1  0.722153  0.968356  0.918908  1
  O  O14  1  0.890583  0.468357  0.418909  1
  O  O15  1  0.884686  0.512761  0.144178  1
  F  F16  1  0.592024  0.640125  0.894495  1
  F  F17  1  0.626643  0.859874  0.605506  1
  F  F18  1  0.407977  0.359874  0.105506  1
  F  F19  1  0.373356  0.140126  0.394494  1
  P  P20  1  0.080576  0.959929  0.193717  1
  P  P21  1  0.734221  0.540072  0.306283  1
  P  P22  1  0.919424  0.040071  0.806284  1
  P  P23  1  0.265780  0.459929  0.693716  1
  Fe  Fe24  1  0.444982  0.957528  0.858508  1
  Fe  Fe25  1  0.238983  0.457529  0.358508  1
  Fe  Fe26  1  0.555019  0.042473  0.141491  1
  Fe  Fe27  1  0.761017  0.542472  0.641491  1
  Fe  Fe28  1  0.282511  0.884852  0.493428  1
  Fe  Fe29  1  0.160792  0.615149  0.006572  1
  Fe  Fe30  1  0.717488  0.115148  0.506572  1
  Fe  Fe31  1  0.839208  0.384852  0.993427  1
