# generated using pymatgen
data_KV4Ag11O16
_symmetry_space_group_name_H-M   'P 1'
_cell_length_a   10.53504582
_cell_length_b   10.77793038
_cell_length_c   17.22442957
_cell_angle_alpha   90.00000000
_cell_angle_beta   90.00000000
_cell_angle_gamma   90.00000000
_symmetry_Int_Tables_number   1
_chemical_formula_structural   KV4Ag11O16
_chemical_formula_sum   'K4 V16 Ag44 O64'
_cell_volume   1955.76491457
_cell_formula_units_Z   4
loop_
 _symmetry_equiv_pos_site_id
 _symmetry_equiv_pos_as_xyz
  1  'x, y, z'
loop_
 _atom_site_type_symbol
 _atom_site_label
 _atom_site_symmetry_multiplicity
 _atom_site_fract_x
 _atom_site_fract_y
 _atom_site_fract_z
 _atom_site_occupancy
  K  K0  1  0.500000  0.000000  0.500000  1
  K  K1  1  0.500000  0.500000  0.000000  1
  K  K2  1  0.000000  0.500000  0.500000  1
  K  K3  1  0.000000  0.000000  0.000000  1
  V  V4  1  0.258095  0.234137  0.998070  1
  V  V5  1  0.741905  0.265863  0.498070  1
  V  V6  1  0.499308  0.982480  0.735428  1
  V  V7  1  0.999308  0.517520  0.735428  1
  V  V8  1  0.741905  0.765863  0.001930  1
  V  V9  1  0.000692  0.482480  0.264572  1
  V  V10  1  0.000692  0.982480  0.235428  1
  V  V11  1  0.999308  0.017520  0.764572  1
  V  V12  1  0.499308  0.482480  0.764572  1
  V  V13  1  0.500692  0.017520  0.264572  1
  V  V14  1  0.241905  0.234137  0.498070  1
  V  V15  1  0.258095  0.734137  0.501930  1
  V  V16  1  0.241905  0.734137  0.001930  1
  V  V17  1  0.758095  0.765863  0.501930  1
  V  V18  1  0.758095  0.265863  0.998070  1
  V  V19  1  0.500692  0.517520  0.235428  1
  Ag  Ag20  1  0.524693  0.723879  0.364175  1
  Ag  Ag21  1  0.214602  0.474305  0.121198  1
  Ag  Ag22  1  0.531286  0.209769  0.865613  1
  Ag  Ag23  1  0.213338  0.989463  0.623059  1
  Ag  Ag24  1  0.785398  0.025695  0.621198  1
  Ag  Ag25  1  0.475307  0.776121  0.864175  1
  Ag  Ag26  1  0.975307  0.723879  0.864175  1
  Ag  Ag27  1  0.713338  0.510537  0.623059  1
  Ag  Ag28  1  0.285398  0.974305  0.878802  1
  Ag  Ag29  1  0.524693  0.223879  0.135825  1
  Ag  Ag30  1  0.247875  0.760340  0.245111  1
  Ag  Ag31  1  0.713338  0.010537  0.876941  1
  Ag  Ag32  1  0.752125  0.239660  0.754889  1
  Ag  Ag33  1  0.285398  0.474305  0.621198  1
  Ag  Ag34  1  0.975307  0.223879  0.635825  1
  Ag  Ag35  1  0.531286  0.709769  0.634387  1
  Ag  Ag36  1  0.024693  0.276121  0.135825  1
  Ag  Ag37  1  0.714602  0.025695  0.121198  1
  Ag  Ag38  1  0.968714  0.209769  0.365613  1
  Ag  Ag39  1  0.031286  0.290231  0.865613  1
  Ag  Ag40  1  0.024693  0.776121  0.364175  1
  Ag  Ag41  1  0.786662  0.010537  0.376941  1
  Ag  Ag42  1  0.475307  0.276121  0.635825  1
  Ag  Ag43  1  0.752125  0.739660  0.745111  1
  Ag  Ag44  1  0.785398  0.525695  0.878802  1
  Ag  Ag45  1  0.000000  0.000000  0.500000  1
  Ag  Ag46  1  0.747875  0.739660  0.245111  1
  Ag  Ag47  1  0.786662  0.510537  0.123059  1
  Ag  Ag48  1  0.468714  0.790231  0.134387  1
  Ag  Ag49  1  0.500000  0.000000  0.000000  1
  Ag  Ag50  1  0.031286  0.790231  0.634387  1
  Ag  Ag51  1  0.252125  0.760340  0.745111  1
  Ag  Ag52  1  0.468714  0.290231  0.365613  1
  Ag  Ag53  1  0.968714  0.709769  0.134387  1
  Ag  Ag54  1  0.714602  0.525695  0.378802  1
  Ag  Ag55  1  0.252125  0.260340  0.754889  1
  Ag  Ag56  1  0.286662  0.989463  0.123059  1
  Ag  Ag57  1  0.500000  0.500000  0.500000  1
  Ag  Ag58  1  0.213338  0.489463  0.876941  1
  Ag  Ag59  1  0.286662  0.489463  0.376941  1
  Ag  Ag60  1  0.214602  0.974305  0.378802  1
  Ag  Ag61  1  0.247875  0.260340  0.254889  1
  Ag  Ag62  1  0.747875  0.239660  0.254889  1
  Ag  Ag63  1  0.000000  0.500000  0.000000  1
  O  O64  1  0.319063  0.675519  0.083956  1
  O  O65  1  0.259213  0.897145  0.502493  1
  O  O66  1  0.418375  0.182702  0.999267  1
  O  O67  1  0.392008  0.887806  0.684386  1
  O  O68  1  0.081401  0.926085  0.829077  1
  O  O69  1  0.581625  0.817298  0.000733  1
  O  O70  1  0.081625  0.682702  0.000733  1
  O  O71  1  0.088088  0.582621  0.202300  1
  O  O72  1  0.418599  0.426085  0.170923  1
  O  O73  1  0.392008  0.387806  0.815614  1
  O  O74  1  0.259213  0.397145  0.997507  1
  O  O75  1  0.819063  0.824481  0.083956  1
  O  O76  1  0.107363  0.616194  0.788888  1
  O  O77  1  0.179449  0.176432  0.080103  1
  O  O78  1  0.918375  0.317298  0.999267  1
  O  O79  1  0.581625  0.317298  0.499267  1
  O  O80  1  0.740787  0.102855  0.497507  1
  O  O81  1  0.911912  0.917379  0.702300  1
  O  O82  1  0.320551  0.676432  0.919897  1
  O  O83  1  0.240787  0.397145  0.497507  1
  O  O84  1  0.180937  0.675519  0.583956  1
  O  O85  1  0.107363  0.116194  0.711112  1
  O  O86  1  0.107992  0.387806  0.315614  1
  O  O87  1  0.607363  0.383806  0.711112  1
  O  O88  1  0.820551  0.823568  0.919897  1
  O  O89  1  0.918599  0.073915  0.170923  1
  O  O90  1  0.588088  0.417379  0.297700  1
  O  O91  1  0.320551  0.176432  0.580103  1
  O  O92  1  0.418599  0.926085  0.329077  1
  O  O93  1  0.319063  0.175519  0.416044  1
  O  O94  1  0.581401  0.573915  0.829077  1
  O  O95  1  0.392637  0.616194  0.288888  1
  O  O96  1  0.918375  0.817298  0.500733  1
  O  O97  1  0.819063  0.324481  0.416044  1
  O  O98  1  0.759213  0.102855  0.997507  1
  O  O99  1  0.581401  0.073915  0.670923  1
  O  O100  1  0.680937  0.324481  0.916044  1
  O  O101  1  0.759213  0.602855  0.502493  1
  O  O102  1  0.588088  0.917379  0.202300  1
  O  O103  1  0.607992  0.612194  0.184386  1
  O  O104  1  0.418375  0.682702  0.500733  1
  O  O105  1  0.088088  0.082621  0.297700  1
  O  O106  1  0.892008  0.612194  0.684386  1
  O  O107  1  0.911912  0.417379  0.797700  1
  O  O108  1  0.411912  0.582621  0.702300  1
  O  O109  1  0.607363  0.883806  0.788888  1
  O  O110  1  0.081625  0.182702  0.499267  1
  O  O111  1  0.679449  0.323568  0.080103  1
  O  O112  1  0.892637  0.883806  0.288888  1
  O  O113  1  0.680937  0.824481  0.583956  1
  O  O114  1  0.392637  0.116194  0.211112  1
  O  O115  1  0.179449  0.676432  0.419897  1
  O  O116  1  0.180937  0.175519  0.916044  1
  O  O117  1  0.240787  0.897145  0.002493  1
  O  O118  1  0.892008  0.112194  0.815614  1
  O  O119  1  0.918599  0.573915  0.329077  1
  O  O120  1  0.740787  0.602855  0.002493  1
  O  O121  1  0.081401  0.426085  0.670923  1
  O  O122  1  0.892637  0.383806  0.211112  1
  O  O123  1  0.820551  0.323568  0.580103  1
  O  O124  1  0.679449  0.823568  0.419897  1
  O  O125  1  0.411912  0.082621  0.797700  1
  O  O126  1  0.607992  0.112194  0.315614  1
  O  O127  1  0.107992  0.887806  0.184386  1
