# generated using pymatgen
data_CsLi5(BO3)2
_symmetry_space_group_name_H-M   'P 1'
_cell_length_a   7.63089892
_cell_length_b   7.63089862
_cell_length_c   7.68897283
_cell_angle_alpha   110.34273446
_cell_angle_beta   115.45439296
_cell_angle_gamma   102.51269338
_symmetry_Int_Tables_number   1
_chemical_formula_structural   CsLi5(BO3)2
_chemical_formula_sum   'Cs2 Li10 B4 O12'
_cell_volume   341.79028255
_cell_formula_units_Z   2
loop_
 _symmetry_equiv_pos_site_id
 _symmetry_equiv_pos_as_xyz
  1  'x, y, z'
loop_
 _atom_site_type_symbol
 _atom_site_label
 _atom_site_symmetry_multiplicity
 _atom_site_fract_x
 _atom_site_fract_y
 _atom_site_fract_z
 _atom_site_occupancy
  Cs  Cs0  1  0.941721  0.691721  0.250000  1
  Cs  Cs1  1  0.058279  0.308279  0.750000  1
  Li  Li2  1  0.504574  0.529899  0.770770  1
  Li  Li3  1  0.468959  0.703800  0.539529  1
  Li  Li4  1  0.495426  0.470101  0.229230  1
  Li  Li5  1  0.259129  0.733803  0.729230  1
  Li  Li6  1  0.000000  0.000000  0.000000  1
  Li  Li7  1  0.531041  0.296200  0.460471  1
  Li  Li8  1  0.740871  0.266197  0.270770  1
  Li  Li9  1  0.335729  0.070570  0.039529  1
  Li  Li10  1  0.500000  0.000000  0.500000  1
  Li  Li11  1  0.664271  0.929430  0.960471  1
  B  B12  1  0.500501  0.831464  0.188637  1
  B  B13  1  0.857173  0.688136  0.688637  1
  B  B14  1  0.499499  0.168536  0.811363  1
  B  B15  1  0.142827  0.311864  0.311363  1
  O  O16  1  0.931680  0.167096  0.201721  1
  O  O17  1  0.549297  0.044331  0.284321  1
  O  O18  1  0.450703  0.955669  0.715679  1
  O  O19  1  0.534625  0.270041  0.701721  1
  O  O20  1  0.739991  0.735024  0.784321  1
  O  O21  1  0.260009  0.264976  0.215679  1
  O  O22  1  0.762421  0.504776  0.493022  1
  O  O23  1  0.068320  0.832904  0.798279  1
  O  O24  1  0.488246  0.730601  0.993022  1
  O  O25  1  0.511754  0.269399  0.006978  1
  O  O26  1  0.237579  0.495224  0.506978  1
  O  O27  1  0.465375  0.729959  0.298279  1
