# generated using pymatgen
data_Nd6Nb5S16
_symmetry_space_group_name_H-M   'P 1'
_cell_length_a   5.77097135
_cell_length_b   8.90151591
_cell_length_c   22.94816967
_cell_angle_alpha   90.00000000
_cell_angle_beta   90.00000000
_cell_angle_gamma   108.91448942
_symmetry_Int_Tables_number   1
_chemical_formula_structural   Nd6Nb5S16
_chemical_formula_sum   'Nd12 Nb10 S32'
_cell_volume   1115.20227466
_cell_formula_units_Z   2
loop_
 _symmetry_equiv_pos_site_id
 _symmetry_equiv_pos_as_xyz
  1  'x, y, z'
loop_
 _atom_site_type_symbol
 _atom_site_label
 _atom_site_symmetry_multiplicity
 _atom_site_fract_x
 _atom_site_fract_y
 _atom_site_fract_z
 _atom_site_occupancy
  Nd  Nd0  1  0.930301  0.000000  0.329220  1
  Nd  Nd1  1  0.621877  0.332773  0.326378  1
  Nd  Nd2  1  0.796119  0.665119  0.827314  1
  Nd  Nd3  1  0.289103  0.667227  0.673622  1
  Nd  Nd4  1  0.131001  0.334881  0.827314  1
  Nd  Nd5  1  0.131001  0.334881  0.172686  1
  Nd  Nd6  1  0.796119  0.665119  0.172686  1
  Nd  Nd7  1  0.930301  0.000000  0.670780  1
  Nd  Nd8  1  0.621877  0.332773  0.673622  1
  Nd  Nd9  1  0.289103  0.667227  0.326378  1
  Nd  Nd10  1  0.438799  0.000000  0.826277  1
  Nd  Nd11  1  0.438799  0.000000  0.173723  1
  Nb  Nb12  1  0.272055  0.798486  0.500000  1
  Nb  Nb13  1  0.473569  0.201514  0.500000  1
  Nb  Nb14  1  0.676121  0.601923  0.500000  1
  Nb  Nb15  1  0.627747  0.201005  0.000000  1
  Nb  Nb16  1  0.867559  0.000000  0.500000  1
  Nb  Nb17  1  0.231790  0.397855  0.000000  1
  Nb  Nb18  1  0.426743  0.798995  0.000000  1
  Nb  Nb19  1  0.025944  0.000000  0.000000  1
  Nb  Nb20  1  0.833935  0.602145  0.000000  1
  Nb  Nb21  1  0.074198  0.398077  0.500000  1
  S  S22  1  0.442255  0.000000  0.700249  1
  S  S23  1  0.786384  0.666751  0.700769  1
  S  S24  1  0.203659  0.000000  0.567416  1
  S  S25  1  0.409197  0.404552  0.568694  1
  S  S26  1  0.290913  0.667184  0.799288  1
  S  S27  1  0.119633  0.333249  0.299231  1
  S  S28  1  0.947093  0.000000  0.798409  1
  S  S29  1  0.096844  0.805002  0.929840  1
  S  S30  1  0.409197  0.404552  0.431306  1
  S  S31  1  0.623729  0.332816  0.799288  1
  S  S32  1  0.898262  0.401113  0.068592  1
  S  S33  1  0.606863  0.799332  0.429792  1
  S  S34  1  0.096844  0.805002  0.070160  1
  S  S35  1  0.119633  0.333249  0.700769  1
  S  S36  1  0.606863  0.799332  0.570208  1
  S  S37  1  0.898262  0.401113  0.931408  1
  S  S38  1  0.807531  0.200668  0.570208  1
  S  S39  1  0.786384  0.666751  0.299231  1
  S  S40  1  0.442255  0.000000  0.299751  1
  S  S41  1  0.291843  0.194998  0.070160  1
  S  S42  1  0.290913  0.667184  0.200712  1
  S  S43  1  0.694368  0.000000  0.932065  1
  S  S44  1  0.623729  0.332816  0.200712  1
  S  S45  1  0.807531  0.200668  0.429792  1
  S  S46  1  0.497150  0.598887  0.931408  1
  S  S47  1  0.203659  0.000000  0.432584  1
  S  S48  1  0.947093  0.000000  0.201591  1
  S  S49  1  0.497150  0.598887  0.068592  1
  S  S50  1  0.291843  0.194998  0.929840  1
  S  S51  1  0.004645  0.595448  0.431306  1
  S  S52  1  0.004645  0.595448  0.568694  1
  S  S53  1  0.694368  0.000000  0.067935  1
