# generated using pymatgen
data_Rb2Li14Pb3O14
_symmetry_space_group_name_H-M   'P 1'
_cell_length_a   7.38409266
_cell_length_b   8.09903947
_cell_length_c   8.52000328
_cell_angle_alpha   118.37859634
_cell_angle_beta   115.67962615
_cell_angle_gamma   90.00000222
_symmetry_Int_Tables_number   1
_chemical_formula_structural   Rb2Li14Pb3O14
_chemical_formula_sum   'Rb2 Li14 Pb3 O14'
_cell_volume   390.15277987
_cell_formula_units_Z   1
loop_
 _symmetry_equiv_pos_site_id
 _symmetry_equiv_pos_as_xyz
  1  'x, y, z'
loop_
 _atom_site_type_symbol
 _atom_site_label
 _atom_site_symmetry_multiplicity
 _atom_site_fract_x
 _atom_site_fract_y
 _atom_site_fract_z
 _atom_site_occupancy
  Pb  Pb0  1  0.728370  0.728370  0.456740  1
  Pb  Pb1  1  0.271630  0.271630  0.543260  1
  Pb  Pb2  1  0.000000  0.000000  0.000000  1
  Rb  Rb3  1  0.234579  0.500000  0.000000  1
  Rb  Rb4  1  0.765421  0.500000  1.000000  1
  Li  Li5  1  0.500000  0.842039  0.000000  1
  Li  Li6  1  0.500000  0.157961  1.000000  1
  Li  Li7  1  0.769583  0.415234  0.539166  1
  Li  Li8  1  0.230417  0.584766  0.460834  1
  Li  Li9  1  0.230417  0.876069  0.460834  1
  Li  Li10  1  0.769583  0.123931  0.539166  1
  Li  Li11  1  0.593386  0.708636  0.730165  1
  Li  Li12  1  0.863221  0.291364  0.269835  1
  Li  Li13  1  0.406614  0.978472  0.269835  1
  Li  Li14  1  0.136779  0.021528  0.730165  1
  Li  Li15  1  0.406614  0.291364  0.269835  1
  Li  Li16  1  0.136779  0.708636  0.730165  1
  Li  Li17  1  0.593386  0.021528  0.730165  1
  Li  Li18  1  0.863221  0.978472  0.269835  1
  O  O19  1  0.040784  0.749115  0.498230  1
  O  O20  1  0.542553  0.250885  0.501770  1
  O  O21  1  0.959216  0.250885  0.501770  1
  O  O22  1  0.457447  0.749115  0.498230  1
  O  O23  1  0.705105  0.000000  0.000000  1
  O  O24  1  0.294895  1.000000  1.000000  1
  O  O25  1  0.872910  0.686243  0.745821  1
  O  O26  1  0.127090  0.313757  0.254179  1
  O  O27  1  0.127090  0.940422  0.254179  1
  O  O28  1  0.872910  0.059578  0.745821  1
  O  O29  1  0.629258  0.411164  0.258515  1
  O  O30  1  0.370742  0.588835  0.741485  1
  O  O31  1  0.370742  0.152649  0.741485  1
  O  O32  1  0.629258  0.847351  0.258515  1
