# generated using pymatgen
data_SrCoO3
_symmetry_space_group_name_H-M   'P 1'
_cell_length_a   4.92884755
_cell_length_b   5.50023746
_cell_length_c   9.63170488
_cell_angle_alpha   90.35869226
_cell_angle_beta   95.74437707
_cell_angle_gamma   89.90167177
_symmetry_Int_Tables_number   1
_chemical_formula_structural   SrCoO3
_chemical_formula_sum   'Sr4 Co4 O12'
_cell_volume   259.79743026
_cell_formula_units_Z   4
loop_
 _symmetry_equiv_pos_site_id
 _symmetry_equiv_pos_as_xyz
  1  'x, y, z'
loop_
 _atom_site_type_symbol
 _atom_site_label
 _atom_site_symmetry_multiplicity
 _atom_site_fract_x
 _atom_site_fract_y
 _atom_site_fract_z
 _atom_site_occupancy
  Sr  Sr0  1  0.532820  0.252460  0.656218  1
  Sr  Sr1  1  0.465891  0.747404  0.343241  1
  Sr  Sr2  1  0.020917  0.750217  0.653678  1
  Sr  Sr3  1  0.977897  0.249513  0.346767  1
  Co  Co4  1  0.500253  1.000036  -0.000017  1
  Co  Co5  1  0.002686  0.249460  0.997181  1
  Co  Co6  1  0.500284  0.499925  -0.000006  1
  Co  Co7  1  0.998439  0.750563  0.002886  1
  O  O8  1  0.190441  0.001301  0.105616  1
  O  O9  1  0.685613  0.754377  0.103603  1
  O  O10  1  0.695266  0.248553  0.100199  1
  O  O11  1  0.486079  0.249393  0.394193  1
  O  O12  1  0.814141  0.500099  0.896852  1
  O  O13  1  0.305567  0.751436  0.899872  1
  O  O14  1  0.186651  0.499827  0.103191  1
  O  O15  1  0.512503  0.750767  0.605427  1
  O  O16  1  0.810395  0.998702  0.894432  1
  O  O17  1  0.315284  0.245600  0.896518  1
  O  O18  1  0.020984  0.256870  0.604824  1
  O  O19  1  0.977887  0.743495  0.395326  1
