# generated using pymatgen
data_K2Mn2Zn4Si4O15
_symmetry_space_group_name_H-M   'P 1'
_cell_length_a   5.27917861
_cell_length_b   9.19033494
_cell_length_c   9.56840937
_cell_angle_alpha   118.70018444
_cell_angle_beta   106.01350809
_cell_angle_gamma   90.00069109
_symmetry_Int_Tables_number   1
_chemical_formula_structural   K2Mn2Zn4Si4O15
_chemical_formula_sum   'K2 Mn2 Zn4 Si4 O15'
_cell_volume   386.53722491
_cell_formula_units_Z   1
loop_
 _symmetry_equiv_pos_site_id
 _symmetry_equiv_pos_as_xyz
  1  'x, y, z'
loop_
 _atom_site_type_symbol
 _atom_site_label
 _atom_site_symmetry_multiplicity
 _atom_site_fract_x
 _atom_site_fract_y
 _atom_site_fract_z
 _atom_site_occupancy
  K  K0  1  0.679885  0.616773  0.233381  1
  K  K1  1  0.446158  0.383219  0.766564  1
  Mn  Mn2  1  0.610447  0.158808  0.000024  1
  Mn  Mn3  1  0.610450  0.841196  0.999981  1
  Zn  Zn4  1  0.785319  0.995639  0.613852  1
  Zn  Zn5  1  0.785302  0.618218  0.613847  1
  Zn  Zn6  1  0.171518  0.381785  0.386154  1
  Zn  Zn7  1  0.171504  0.004348  0.386130  1
  Si  Si8  1  0.056328  0.671416  0.999981  1
  Si  Si9  1  0.686194  0.194264  0.388507  1
  Si  Si10  1  0.297632  0.805753  0.611510  1
  Si  Si11  1  0.056330  0.328543  0.000003  1
  O  O12  1  0.359613  0.675970  0.000006  1
  O  O13  1  0.394506  0.214389  0.428770  1
  O  O14  1  0.831704  0.666439  0.839127  1
  O  O15  1  0.385736  0.909572  0.524443  1
  O  O16  1  0.451953  0.906187  0.812361  1
  O  O17  1  0.831722  0.172671  0.839147  1
  O  O18  1  0.958177  0.499951  0.999926  1
  O  O19  1  0.861325  0.385150  0.475560  1
  O  O20  1  0.992576  0.333611  0.160894  1
  O  O21  1  0.359614  0.324041  0.000027  1
  O  O22  1  0.965695  0.785639  0.571252  1
  O  O23  1  0.385731  0.614875  0.524445  1
  O  O24  1  0.861370  0.090455  0.475585  1
  O  O25  1  0.992569  0.827261  0.160865  1
  O  O26  1  0.639641  0.093824  0.187657  1
