# generated using pymatgen
data_WS2(NCl)3
_symmetry_space_group_name_H-M   'P 1'
_cell_length_a   7.79546071
_cell_length_b   9.56363044
_cell_length_c   11.52804591
_cell_angle_alpha   90.00000000
_cell_angle_beta   95.49095153
_cell_angle_gamma   90.00000000
_symmetry_Int_Tables_number   1
_chemical_formula_structural   WS2(NCl)3
_chemical_formula_sum   'W4 S8 N12 Cl12'
_cell_volume   855.50557992
_cell_formula_units_Z   4
loop_
 _symmetry_equiv_pos_site_id
 _symmetry_equiv_pos_as_xyz
  1  'x, y, z'
loop_
 _atom_site_type_symbol
 _atom_site_label
 _atom_site_symmetry_multiplicity
 _atom_site_fract_x
 _atom_site_fract_y
 _atom_site_fract_z
 _atom_site_occupancy
  W  W0  1  0.398786  0.130796  0.412764  1
  W  W1  1  0.101214  0.630796  0.087236  1
  W  W2  1  0.601214  0.869204  0.587236  1
  W  W3  1  0.898786  0.369204  0.912764  1
  S  S4  1  0.874257  0.908662  0.116261  1
  S  S5  1  0.213727  0.810560  0.468957  1
  S  S6  1  0.713727  0.689440  0.968957  1
  S  S7  1  0.286273  0.310560  0.031043  1
  S  S8  1  0.786273  0.189440  0.531043  1
  S  S9  1  0.374257  0.591338  0.616261  1
  S  S10  1  0.125743  0.091338  0.883739  1
  S  S11  1  0.625743  0.408662  0.383739  1
  N  N12  1  0.617941  0.091677  0.506148  1
  N  N13  1  0.033332  0.801683  0.130948  1
  N  N14  1  0.117941  0.408323  0.006148  1
  N  N15  1  0.533332  0.698317  0.630948  1
  N  N16  1  0.225816  0.664259  0.530812  1
  N  N17  1  0.725816  0.835741  0.030812  1
  N  N18  1  0.966668  0.198317  0.869052  1
  N  N19  1  0.882059  0.591677  0.993852  1
  N  N20  1  0.774184  0.335741  0.469188  1
  N  N21  1  0.274184  0.164259  0.969188  1
  N  N22  1  0.466668  0.301683  0.369052  1
  N  N23  1  0.382059  0.908323  0.493852  1
  Cl  Cl24  1  0.109544  0.099117  0.327848  1
  Cl  Cl25  1  0.767827  0.288151  0.076223  1
  Cl  Cl26  1  0.977337  0.484798  0.746801  1
  Cl  Cl27  1  0.477337  0.015202  0.246801  1
  Cl  Cl28  1  0.890456  0.900883  0.672152  1
  Cl  Cl29  1  0.390456  0.599117  0.172152  1
  Cl  Cl30  1  0.267827  0.211849  0.576223  1
  Cl  Cl31  1  0.232173  0.711849  0.923777  1
  Cl  Cl32  1  0.522663  0.984798  0.753199  1
  Cl  Cl33  1  0.732173  0.788151  0.423777  1
  Cl  Cl34  1  0.609544  0.400883  0.827848  1
  Cl  Cl35  1  0.022663  0.515202  0.253199  1
