# generated using pymatgen
data_CsAl3(P3O10)2
_symmetry_space_group_name_H-M   'P 1'
_cell_length_a   8.44241854
_cell_length_b   8.44241886
_cell_length_c   12.33334538
_cell_angle_alpha   89.99999903
_cell_angle_beta   90.00000099
_cell_angle_gamma   106.08040778
_symmetry_Int_Tables_number   1
_chemical_formula_structural   CsAl3(P3O10)2
_chemical_formula_sum   'Cs2 Al6 P12 O40'
_cell_volume   844.65834269
_cell_formula_units_Z   2
loop_
 _symmetry_equiv_pos_site_id
 _symmetry_equiv_pos_as_xyz
  1  'x, y, z'
loop_
 _atom_site_type_symbol
 _atom_site_label
 _atom_site_symmetry_multiplicity
 _atom_site_fract_x
 _atom_site_fract_y
 _atom_site_fract_z
 _atom_site_occupancy
  Cs  Cs0  1  0.000036  0.000036  0.000000  1
  Cs  Cs1  1  0.500035  0.500035  0.500000  1
  Al  Al2  1  0.820964  0.277320  0.720970  1
  Al  Al3  1  0.880112  0.880112  0.500000  1
  Al  Al4  1  0.777320  0.320965  0.220970  1
  Al  Al5  1  0.380112  0.380112  0.000000  1
  Al  Al6  1  0.320965  0.777320  0.779030  1
  Al  Al7  1  0.277320  0.820964  0.279029  1
  P  P8  1  0.379128  0.224893  0.219485  1
  P  P9  1  0.379327  0.753046  0.042345  1
  P  P10  1  0.224893  0.379128  0.780515  1
  P  P11  1  0.637731  0.903876  0.195098  1
  P  P12  1  0.879129  0.724894  0.280515  1
  P  P13  1  0.903876  0.637731  0.804902  1
  P  P14  1  0.753046  0.379327  0.957655  1
  P  P15  1  0.137731  0.403876  0.304902  1
  P  P16  1  0.403876  0.137731  0.695098  1
  P  P17  1  0.253046  0.879327  0.542345  1
  P  P18  1  0.724894  0.879129  0.719485  1
  P  P19  1  0.879327  0.253046  0.457655  1
  O  O20  1  0.051828  0.345992  0.740820  1
  O  O21  1  0.814494  0.782268  0.803836  1
  O  O22  1  0.585463  0.217477  0.700067  1
  O  O23  1  0.282268  0.314494  0.303836  1
  O  O24  1  0.345992  0.051828  0.259180  1
  O  O25  1  0.847951  0.302929  0.570517  1
  O  O26  1  0.314494  0.282268  0.696164  1
  O  O27  1  0.506655  0.820690  0.275469  1
  O  O28  1  0.302929  0.847951  0.429483  1
  O  O29  1  0.085463  0.717477  0.799933  1
  O  O30  1  0.056546  0.829077  0.277971  1
  O  O31  1  0.293495  0.764805  0.625903  1
  O  O32  1  0.347951  0.802930  0.929483  1
  O  O33  1  0.845992  0.551827  0.240820  1
  O  O34  1  0.361918  0.068086  0.573230  1
  O  O35  1  0.264805  0.793495  0.125903  1
  O  O36  1  0.072506  0.883013  0.550938  1
  O  O37  1  0.320690  0.006655  0.775469  1
  O  O38  1  0.829077  0.056546  0.722029  1
  O  O39  1  0.556547  0.329077  0.222029  1
  O  O40  1  0.329077  0.556547  0.777971  1
  O  O41  1  0.782268  0.814494  0.196164  1
  O  O42  1  0.568086  0.861918  0.073230  1
  O  O43  1  0.383013  0.572506  0.050938  1
  O  O44  1  0.764805  0.293495  0.374097  1
  O  O45  1  0.304755  0.235818  0.105271  1
  O  O46  1  0.804755  0.735818  0.394729  1
  O  O47  1  0.572506  0.383013  0.949062  1
  O  O48  1  0.735818  0.804755  0.605271  1
  O  O49  1  0.820690  0.506655  0.724531  1
  O  O50  1  0.717477  0.085463  0.200067  1
  O  O51  1  0.861918  0.568086  0.926770  1
  O  O52  1  0.883013  0.072506  0.449062  1
  O  O53  1  0.793495  0.264805  0.874097  1
  O  O54  1  0.802930  0.347951  0.070517  1
  O  O55  1  0.551827  0.845992  0.759180  1
  O  O56  1  0.235818  0.304755  0.894729  1
  O  O57  1  0.217477  0.585463  0.299933  1
  O  O58  1  0.068086  0.361918  0.426770  1
  O  O59  1  0.006655  0.320690  0.224531  1
