# generated using pymatgen
data_Na2Ce2TiSi(CO6)2
_symmetry_space_group_name_H-M   'P 1'
_cell_length_a   5.06886265
_cell_length_b   7.62174065
_cell_length_c   14.06938109
_cell_angle_alpha   94.14789393
_cell_angle_beta   100.56623813
_cell_angle_gamma   109.24087425
_symmetry_Int_Tables_number   1
_chemical_formula_structural   Na2Ce2TiSi(CO6)2
_chemical_formula_sum   'Na4 Ce4 Ti2 Si2 C4 O24'
_cell_volume   499.29884521
_cell_formula_units_Z   2
loop_
 _symmetry_equiv_pos_site_id
 _symmetry_equiv_pos_as_xyz
  1  'x, y, z'
loop_
 _atom_site_type_symbol
 _atom_site_label
 _atom_site_symmetry_multiplicity
 _atom_site_fract_x
 _atom_site_fract_y
 _atom_site_fract_z
 _atom_site_occupancy
  Na  Na0  1  0.700934  0.862351  0.526509  1
  Na  Na1  1  0.500000  0.000000  0.000000  1
  Na  Na2  1  0.000000  0.500000  0.500000  1
  Na  Na3  1  0.299066  0.137649  0.473491  1
  Ce  Ce4  1  0.811972  0.343016  0.217271  1
  Ce  Ce5  1  0.473616  0.219040  0.782134  1
  Ce  Ce6  1  0.526384  0.780960  0.217866  1
  Ce  Ce7  1  0.188028  0.656984  0.782729  1
  Ti  Ti8  1  0.802355  0.604194  0.000312  1
  Ti  Ti9  1  0.197645  0.395806  0.999688  1
  Si  Si10  1  0.950824  0.961295  0.858385  1
  Si  Si11  1  0.049176  0.038705  0.141615  1
  C  C12  1  0.114199  0.792164  0.352415  1
  C  C13  1  0.885801  0.207836  0.647585  1
  C  C14  1  0.407251  0.398823  0.346340  1
  C  C15  1  0.592749  0.601177  0.653660  1
  O  O16  1  0.621125  0.956786  0.843037  1
  O  O17  1  0.940468  0.066705  0.243728  1
  O  O18  1  0.942332  0.809429  0.405469  1
  O  O19  1  0.606247  0.543504  0.740223  1
  O  O20  1  0.785379  0.599319  0.606988  1
  O  O21  1  0.804250  0.837668  0.083694  1
  O  O22  1  0.609010  0.334384  0.376150  1
  O  O23  1  0.989975  0.208704  0.083855  1
  O  O24  1  0.057668  0.190571  0.594531  1
  O  O25  1  0.580397  0.447066  0.081649  1
  O  O26  1  0.378875  0.043214  0.156963  1
  O  O27  1  0.009725  0.693403  0.263901  1
  O  O28  1  0.610338  0.129188  0.621034  1
  O  O29  1  0.844857  0.401696  0.917557  1
  O  O30  1  0.389662  0.870812  0.378966  1
  O  O31  1  0.155143  0.598304  0.082443  1
  O  O32  1  0.990275  0.306597  0.736099  1
  O  O33  1  0.393753  0.456496  0.259777  1
  O  O34  1  0.195750  0.162332  0.916306  1
  O  O35  1  0.214621  0.400681  0.393012  1
  O  O36  1  0.059532  0.933295  0.756272  1
  O  O37  1  0.010025  0.791296  0.916145  1
  O  O38  1  0.419603  0.552934  0.918351  1
  O  O39  1  0.390990  0.665616  0.623850  1
