# generated using pymatgen
data_BaYFe2O5
_symmetry_space_group_name_H-M   'P 1'
_cell_length_a   3.98350603
_cell_length_b   7.75044610
_cell_length_c   7.94366008
_cell_angle_alpha   90.00000000
_cell_angle_beta   90.00000000
_cell_angle_gamma   90.00000000
_symmetry_Int_Tables_number   1
_chemical_formula_structural   BaYFe2O5
_chemical_formula_sum   'Ba2 Y2 Fe4 O10'
_cell_volume   245.25215439
_cell_formula_units_Z   2
loop_
 _symmetry_equiv_pos_site_id
 _symmetry_equiv_pos_as_xyz
  1  'x, y, z'
loop_
 _atom_site_type_symbol
 _atom_site_label
 _atom_site_symmetry_multiplicity
 _atom_site_fract_x
 _atom_site_fract_y
 _atom_site_fract_z
 _atom_site_occupancy
  O  O0  1  0.499999  0.682266  0.494107  1
  O  O1  1  0.499999  0.317733  0.505893  1
  O  O2  1  0.499999  0.682266  0.005892  1
  O  O3  1  0.499999  0.317733  0.994107  1
  O  O4  1  0.000000  0.683800  0.750000  1
  O  O5  1  0.000000  0.316201  0.250000  1
  O  O6  1  0.000000  0.683840  0.250000  1
  O  O7  1  0.000000  0.316161  0.750000  1
  O  O8  1  0.499999  0.984895  0.250000  1
  O  O9  1  0.499999  0.015106  0.750000  1
  Fe  Fe10  1  0.499999  0.737410  0.250000  1
  Fe  Fe11  1  0.499999  0.262589  0.750000  1
  Fe  Fe12  1  0.499999  0.278625  0.250000  1
  Fe  Fe13  1  0.499999  0.721374  0.750000  1
  Y  Y14  1  0.000000  0.500000  0.000000  1
  Y  Y15  1  0.000000  0.500000  0.500000  1
  Ba  Ba16  1  0.000000  0.000000  0.500000  1
  Ba  Ba17  1  0.000000  0.000000  0.000000  1
