# generated using pymatgen
data_Ba14MnSb11
_symmetry_space_group_name_H-M   'P 1'
_cell_length_a   17.92246388
_cell_length_b   17.92246449
_cell_length_c   17.92246478
_cell_angle_alpha   94.37919897
_cell_angle_beta   117.50162922
_cell_angle_gamma   117.50778312
_symmetry_Int_Tables_number   1
_chemical_formula_structural   Ba14MnSb11
_chemical_formula_sum   'Ba56 Mn4 Sb44'
_cell_volume   4211.01321391
_cell_formula_units_Z   4
loop_
 _symmetry_equiv_pos_site_id
 _symmetry_equiv_pos_as_xyz
  1  'x, y, z'
loop_
 _atom_site_type_symbol
 _atom_site_label
 _atom_site_symmetry_multiplicity
 _atom_site_fract_x
 _atom_site_fract_y
 _atom_site_fract_z
 _atom_site_occupancy
  Ba  Ba0  1  0.144409  0.749566  0.892591  1
  Ba  Ba1  1  0.030979  0.745547  0.627948  1
  Ba  Ba2  1  0.025064  0.782501  0.397411  1
  Ba  Ba3  1  0.089662  0.524518  0.751915  1
  Ba  Ba4  1  0.354433  0.979303  0.874728  1
  Ba  Ba5  1  0.117375  0.371685  0.902458  1
  Ba  Ba6  1  0.104434  0.125364  0.979449  1
  Ba  Ba7  1  0.143662  0.893663  0.250000  1
  Ba  Ba8  1  0.145916  0.625364  0.520931  1
  Ba  Ba9  1  0.411476  0.748868  0.974566  1
  Ba  Ba10  1  0.469227  0.871685  0.754310  1
  Ba  Ba11  1  0.355669  0.875116  0.478305  1
  Ba  Ba12  1  0.356275  0.606275  0.750000  1
  Ba  Ba13  1  0.225081  0.974636  0.061983  1
  Ba  Ba14  1  0.272602  0.337746  0.748085  1
  Ba  Ba15  1  0.226867  0.751281  0.162775  1
  Ba  Ba16  1  0.104575  0.479303  0.124870  1
  Ba  Ba17  1  0.274301  0.436910  0.525434  1
  Ba  Ba18  1  0.144696  0.021941  0.625059  1
  Ba  Ba19  1  0.604434  0.624985  0.979069  1
  Ba  Ba20  1  0.088505  0.064091  0.337225  1
  Ba  Ba21  1  0.117599  0.245547  0.214568  1
  Ba  Ba22  1  0.589662  0.837746  0.565144  1
  Ba  Ba23  1  0.617375  0.714917  0.745690  1
  Ba  Ba24  1  0.356975  0.251818  0.607409  1
  Ba  Ba25  1  0.396882  0.521941  0.377245  1
  Ba  Ba26  1  0.530979  0.903031  0.285432  1
  Ba  Ba27  1  0.617599  0.403031  0.872052  1
  Ba  Ba28  1  0.385372  0.603168  0.128092  1
  Ba  Ba29  1  0.475076  0.103168  0.717796  1
  Ba  Ba30  1  0.604575  0.479705  0.625272  1
  Ba  Ba31  1  0.644409  0.751818  0.394843  1
  Ba  Ba32  1  0.385090  0.282501  0.257437  1
  Ba  Ba33  1  0.412653  0.163098  0.438017  1
  Ba  Ba34  1  0.885372  0.757279  0.782204  1
  Ba  Ba35  1  0.911476  0.936910  0.662609  1
  Ba  Ba36  1  0.396811  0.375116  0.019447  1
  Ba  Ba37  1  0.854433  0.979705  0.375130  1
  Ba  Ba38  1  0.726867  0.564091  0.475586  1
  Ba  Ba39  1  0.896882  0.519637  0.874941  1
  Ba  Ba40  1  0.774301  0.248868  0.837391  1
  Ba  Ba41  1  0.725081  0.663098  0.250445  1
  Ba  Ba42  1  0.772602  0.024518  0.934856  1
  Ba  Ba43  1  0.643663  0.393663  0.250000  1
  Ba  Ba44  1  0.645916  0.124985  0.520551  1
  Ba  Ba45  1  0.525064  0.127653  0.242563  1
  Ba  Ba46  1  0.588505  0.251281  0.024414  1
  Ba  Ba47  1  0.855669  0.377364  0.480553  1
  Ba  Ba48  1  0.856275  0.106275  0.750000  1
  Ba  Ba49  1  0.896811  0.877364  0.021695  1
  Ba  Ba50  1  0.885090  0.627653  0.102589  1
  Ba  Ba51  1  0.644696  0.019637  0.122755  1
  Ba  Ba52  1  0.912653  0.474636  0.249555  1
  Ba  Ba53  1  0.969227  0.214917  0.597542  1
  Ba  Ba54  1  0.975076  0.257279  0.371908  1
  Ba  Ba55  1  0.856975  0.249566  0.105157  1
  Mn  Mn56  1  0.250012  0.125288  0.874836  1
  Mn  Mn57  1  0.250452  0.625288  0.375276  1
  Mn  Mn58  1  0.750012  0.875176  0.124724  1
  Mn  Mn59  1  0.750452  0.375176  0.625164  1
  Sb  Sb60  1  0.121742  0.935980  0.819511  1
  Sb  Sb61  1  0.157821  0.585739  0.979290  1
  Sb  Sb62  1  0.249995  0.743504  0.756395  1
  Sb  Sb63  1  0.250087  0.881947  0.618141  1
  Sb  Sb64  1  0.106652  0.427992  0.585438  1
  Sb  Sb65  1  0.115691  0.180351  0.801219  1
  Sb  Sb66  1  0.007748  0.753827  0.003831  1
  Sb  Sb67  1  0.121316  0.685517  0.301596  1
  Sb  Sb68  1  0.342554  0.521214  0.914562  1
  Sb  Sb69  1  0.116470  0.435980  0.314238  1
  Sb  Sb70  1  0.106449  0.178531  0.520710  1
  Sb  Sb71  1  0.392766  0.979162  0.320819  1
  Sb  Sb72  1  0.379132  0.680351  0.564660  1
  Sb  Sb73  1  0.615691  0.814472  0.935340  1
  Sb  Sb74  1  0.379536  0.199446  0.814774  1
  Sb  Sb75  1  0.487109  0.493600  0.743605  1
  Sb  Sb76  1  0.384673  0.699446  0.319910  1
  Sb  Sb77  1  0.392512  0.913852  0.071899  1
  Sb  Sb78  1  0.341952  0.320613  0.428101  1
  Sb  Sb79  1  0.249996  0.003917  0.496169  1
  Sb  Sb80  1  0.263805  0.381947  0.131860  1
  Sb  Sb81  1  0.842554  0.927992  0.821340  1
  Sb  Sb82  1  0.158342  0.071946  0.179181  1
  Sb  Sb83  1  0.749995  0.993600  0.506491  1
  Sb  Sb84  1  0.763805  0.631946  0.881859  1
  Sb  Sb85  1  0.657821  0.678531  0.572082  1
  Sb  Sb86  1  0.606449  0.085739  0.927918  1
  Sb  Sb87  1  0.616470  0.302231  0.680489  1
  Sb  Sb88  1  0.507748  0.503917  0.253921  1
  Sb  Sb89  1  0.621742  0.802231  0.185762  1
  Sb  Sb90  1  0.383921  0.185517  0.064201  1
  Sb  Sb91  1  0.621316  0.319719  0.435799  1
  Sb  Sb92  1  0.606652  0.021214  0.678660  1
  Sb  Sb93  1  0.892512  0.820613  0.478660  1
  Sb  Sb94  1  0.884673  0.564763  0.685226  1
  Sb  Sb95  1  0.658342  0.479162  0.086396  1
  Sb  Sb96  1  0.879132  0.314472  0.698781  1
  Sb  Sb97  1  0.987109  0.243504  0.993509  1
  Sb  Sb98  1  0.883921  0.819719  0.198404  1
  Sb  Sb99  1  0.892766  0.571947  0.413604  1
  Sb  Sb100  1  0.750087  0.131946  0.368140  1
  Sb  Sb101  1  0.749996  0.253827  0.246079  1
  Sb  Sb102  1  0.841952  0.413852  0.021340  1
  Sb  Sb103  1  0.879536  0.064763  0.180090  1
