# generated using pymatgen
data_ZnAg2C4(SN)4
_symmetry_space_group_name_H-M   'P 1'
_cell_length_a   7.93520220
_cell_length_b   8.29809416
_cell_length_c   10.67963399
_cell_angle_alpha   95.80385292
_cell_angle_beta   111.80883413
_cell_angle_gamma   89.99999969
_symmetry_Int_Tables_number   1
_chemical_formula_structural   ZnAg2C4(SN)4
_chemical_formula_sum   'Zn2 Ag4 C8 S8 N8'
_cell_volume   649.00752973
_cell_formula_units_Z   2
loop_
 _symmetry_equiv_pos_site_id
 _symmetry_equiv_pos_as_xyz
  1  'x, y, z'
loop_
 _atom_site_type_symbol
 _atom_site_label
 _atom_site_symmetry_multiplicity
 _atom_site_fract_x
 _atom_site_fract_y
 _atom_site_fract_z
 _atom_site_occupancy
  Zn  Zn0  1  0.667144  0.750000  0.000000  1
  Zn  Zn1  1  0.332856  0.250000  1.000000  1
  Ag  Ag2  1  0.892051  0.735675  0.596414  1
  Ag  Ag3  1  0.107949  0.264325  0.403586  1
  Ag  Ag4  1  0.295637  0.764325  0.403586  1
  Ag  Ag5  1  0.704363  0.235675  0.596414  1
  C  C6  1  0.340627  0.832247  0.744508  1
  C  C7  1  0.984867  0.041595  0.834771  1
  C  C8  1  0.015133  0.958405  0.165229  1
  C  C9  1  0.150096  0.458405  0.165229  1
  C  C10  1  0.403880  0.332247  0.744508  1
  C  C11  1  0.596120  0.667753  0.255492  1
  C  C12  1  0.849904  0.541595  0.834771  1
  C  C13  1  0.659373  0.167753  0.255492  1
  S  S14  1  0.187724  0.868365  0.597973  1
  S  S15  1  0.218025  0.023219  0.270532  1
  S  S16  1  0.410249  0.368365  0.597973  1
  S  S17  1  0.589751  0.631635  0.402027  1
  S  S18  1  0.812276  0.131635  0.402027  1
  S  S19  1  0.947493  0.476781  0.729468  1
  S  S20  1  0.052507  0.523219  0.270532  1
  S  S21  1  0.781975  0.976781  0.729468  1
  N  N22  1  0.868788  0.912807  0.088986  1
  N  N23  1  0.452227  0.812523  0.850556  1
  N  N24  1  0.779802  0.587193  0.911014  1
  N  N25  1  0.220198  0.412807  0.088986  1
  N  N26  1  0.398328  0.312523  0.850556  1
  N  N27  1  0.131212  0.087193  0.911014  1
  N  N28  1  0.547773  0.187477  0.149444  1
  N  N29  1  0.601672  0.687477  0.149444  1
