# generated using pymatgen
data_Mg2B4Ru5
_symmetry_space_group_name_H-M   'P 1'
_cell_length_a   2.96324423
_cell_length_b   8.43703872
_cell_length_c   10.06579296
_cell_angle_alpha   90.00000000
_cell_angle_beta   90.00000000
_cell_angle_gamma   90.00000000
_symmetry_Int_Tables_number   1
_chemical_formula_structural   Mg2B4Ru5
_chemical_formula_sum   'Mg4 B8 Ru10'
_cell_volume   251.65495326
_cell_formula_units_Z   2
loop_
 _symmetry_equiv_pos_site_id
 _symmetry_equiv_pos_as_xyz
  1  'x, y, z'
loop_
 _atom_site_type_symbol
 _atom_site_label
 _atom_site_symmetry_multiplicity
 _atom_site_fract_x
 _atom_site_fract_y
 _atom_site_fract_z
 _atom_site_occupancy
  Ru  Ru0  1  0.000000  0.395592  0.738117  1
  Ru  Ru1  1  0.000000  0.604408  0.261883  1
  Ru  Ru2  1  0.000000  0.895592  0.761883  1
  Ru  Ru3  1  0.000000  0.104408  0.238117  1
  Ru  Ru4  1  0.000000  0.000000  0.500000  1
  Ru  Ru5  1  0.000000  0.500000  0.000000  1
  Ru  Ru6  1  0.000000  0.655895  0.547961  1
  Ru  Ru7  1  0.000000  0.344105  0.452039  1
  Ru  Ru8  1  0.000000  0.155895  0.952039  1
  Ru  Ru9  1  0.000000  0.844105  0.047961  1
  Mg  Mg10  1  0.500000  0.648702  0.815452  1
  Mg  Mg11  1  0.500000  0.351298  0.184548  1
  Mg  Mg12  1  0.500000  0.148702  0.684548  1
  Mg  Mg13  1  0.500000  0.851298  0.315452  1
  B  B14  1  0.500000  0.852130  0.602533  1
  B  B15  1  0.500000  0.147870  0.397467  1
  B  B16  1  0.500000  0.352130  0.897467  1
  B  B17  1  0.500000  0.647870  0.102533  1
  B  B18  1  0.500000  0.959816  0.911275  1
  B  B19  1  0.500000  0.040184  0.088725  1
  B  B20  1  0.500000  0.459816  0.588725  1
  B  B21  1  0.500000  0.540184  0.411275  1
