# generated using pymatgen
data_AsC2S2(OF3)3
_symmetry_space_group_name_H-M   'P 1'
_cell_length_a   7.75723321
_cell_length_b   7.95647217
_cell_length_c   16.79459703
_cell_angle_alpha   90.00000000
_cell_angle_beta   90.00000000
_cell_angle_gamma   90.00000000
_symmetry_Int_Tables_number   1
_chemical_formula_structural   AsC2S2(OF3)3
_chemical_formula_sum   'As4 C8 S8 O12 F36'
_cell_volume   1036.56605810
_cell_formula_units_Z   4
loop_
 _symmetry_equiv_pos_site_id
 _symmetry_equiv_pos_as_xyz
  1  'x, y, z'
loop_
 _atom_site_type_symbol
 _atom_site_label
 _atom_site_symmetry_multiplicity
 _atom_site_fract_x
 _atom_site_fract_y
 _atom_site_fract_z
 _atom_site_occupancy
  As  As0  1  0.871267  0.750000  0.383060  1
  As  As1  1  0.628733  0.250000  0.883060  1
  As  As2  1  0.371267  0.750000  0.116940  1
  As  As3  1  0.128733  0.250000  0.616940  1
  C  C4  1  0.846174  0.411163  0.119485  1
  C  C5  1  0.153826  0.911163  0.880515  1
  C  C6  1  0.653826  0.588837  0.619485  1
  C  C7  1  0.346174  0.411163  0.380515  1
  C  C8  1  0.653826  0.911163  0.619485  1
  C  C9  1  0.846174  0.088837  0.119485  1
  C  C10  1  0.153826  0.588837  0.880515  1
  C  C11  1  0.346174  0.088837  0.380515  1
  S  S12  1  0.522352  0.250000  0.355956  1
  S  S13  1  0.191635  0.250000  0.430211  1
  S  S14  1  0.022352  0.250000  0.144044  1
  S  S15  1  0.477648  0.750000  0.644044  1
  S  S16  1  0.977648  0.750000  0.855956  1
  S  S17  1  0.808365  0.750000  0.569789  1
  S  S18  1  0.308365  0.750000  0.930211  1
  S  S19  1  0.691635  0.250000  0.069789  1
  O  O20  1  0.649008  0.250000  0.418116  1
  O  O21  1  0.731317  0.750000  0.484832  1
  O  O22  1  0.940798  0.750000  0.772227  1
  O  O23  1  0.149008  0.250000  0.081884  1
  O  O24  1  0.850992  0.750000  0.918116  1
  O  O25  1  0.440798  0.750000  0.727773  1
  O  O26  1  0.350992  0.750000  0.581884  1
  O  O27  1  0.268683  0.250000  0.515168  1
  O  O28  1  0.768683  0.250000  0.984832  1
  O  O29  1  0.231317  0.750000  0.015168  1
  O  O30  1  0.559202  0.250000  0.272227  1
  O  O31  1  0.059202  0.250000  0.227773  1
  F  F32  1  0.002929  0.905553  0.427351  1
  F  F33  1  0.392166  0.971699  0.432503  1
  F  F34  1  0.497071  0.094447  0.927351  1
  F  F35  1  0.513888  0.250000  0.794332  1
  F  F36  1  0.892166  0.528301  0.067497  1
  F  F37  1  0.222127  0.521825  0.815110  1
  F  F38  1  0.277873  0.478175  0.315110  1
  F  F39  1  0.277873  0.021825  0.315110  1
  F  F40  1  0.726172  0.905649  0.352037  1
  F  F41  1  0.226172  0.594351  0.147963  1
  F  F42  1  0.002929  0.594447  0.427351  1
  F  F43  1  0.722127  0.521825  0.684890  1
  F  F44  1  0.502929  0.905553  0.072649  1
  F  F45  1  0.777873  0.021825  0.184890  1
  F  F46  1  0.502929  0.594447  0.072649  1
  F  F47  1  0.226172  0.905649  0.147963  1
  F  F48  1  0.013888  0.250000  0.705668  1
  F  F49  1  0.773828  0.405649  0.852037  1
  F  F50  1  0.773828  0.094351  0.852037  1
  F  F51  1  0.607834  0.471699  0.567497  1
  F  F52  1  0.222127  0.978175  0.815110  1
  F  F53  1  0.722127  0.978175  0.684890  1
  F  F54  1  0.497071  0.405553  0.927351  1
  F  F55  1  0.392166  0.528301  0.432503  1
  F  F56  1  0.273828  0.094351  0.647963  1
  F  F57  1  0.986112  0.750000  0.294332  1
  F  F58  1  0.486112  0.750000  0.205668  1
  F  F59  1  0.997071  0.094447  0.572649  1
  F  F60  1  0.607834  0.028301  0.567497  1
  F  F61  1  0.107834  0.471699  0.932503  1
  F  F62  1  0.892166  0.971699  0.067497  1
  F  F63  1  0.726172  0.594351  0.352037  1
  F  F64  1  0.777873  0.478175  0.184890  1
  F  F65  1  0.107834  0.028301  0.932503  1
  F  F66  1  0.273828  0.405649  0.647963  1
  F  F67  1  0.997071  0.405553  0.572649  1
