# generated using pymatgen
data_Co(PO3)2
_symmetry_space_group_name_H-M   'P 1'
_cell_length_a   7.28721205
_cell_length_b   7.28947328
_cell_length_c   9.87579914
_cell_angle_alpha   98.58818703
_cell_angle_beta   109.76451577
_cell_angle_gamma   109.86902062
_symmetry_Int_Tables_number   1
_chemical_formula_structural   Co(PO3)2
_chemical_formula_sum   'Co4 P8 O24'
_cell_volume   443.12982239
_cell_formula_units_Z   4
loop_
 _symmetry_equiv_pos_site_id
 _symmetry_equiv_pos_as_xyz
  1  'x, y, z'
loop_
 _atom_site_type_symbol
 _atom_site_label
 _atom_site_symmetry_multiplicity
 _atom_site_fract_x
 _atom_site_fract_y
 _atom_site_fract_z
 _atom_site_occupancy
  Co  Co0  1  0.199888  0.450536  0.250205  1
  Co  Co1  1  0.800112  0.549464  0.749795  1
  Co  Co2  1  0.000000  0.000000  0.000000  1
  Co  Co3  1  0.000000  0.500000  0.500000  1
  P  P4  1  0.293082  0.752197  0.022990  1
  P  P5  1  0.729302  0.769838  0.476952  1
  P  P6  1  0.706918  0.247803  0.977010  1
  P  P7  1  0.270698  0.230162  0.523048  1
  O  O8  1  0.249287  0.585683  0.092664  1
  O  O9  1  0.493010  0.656218  0.407974  1
  O  O10  1  0.750713  0.414317  0.907336  1
  O  O11  1  0.506990  0.343782  0.592026  1
  O  O12  1  0.107170  0.786840  0.918798  1
  O  O13  1  0.868654  0.688204  0.580767  1
  O  O14  1  0.892830  0.213160  0.081202  1
  O  O15  1  0.131346  0.311796  0.419233  1
  O  O16  1  0.462332  0.964618  0.153618  1
  O  O17  1  0.810231  0.808844  0.345963  1
  O  O18  1  0.537668  0.035382  0.846382  1
  O  O19  1  0.189769  0.191156  0.654037  1
  P  P20  1  0.508690  0.202527  0.195928  1
  P  P21  1  0.006001  0.812987  0.303733  1
  P  P22  1  0.491310  0.797473  0.804072  1
  P  P23  1  0.993999  0.187013  0.696267  1
  O  O24  1  0.693345  0.306304  0.345490  1
  O  O25  1  0.960263  0.847882  0.154166  1
  O  O26  1  0.306655  0.693696  0.654510  1
  O  O27  1  0.039737  0.152118  0.845834  1
  O  O28  1  0.298932  0.218531  0.175970  1
  O  O29  1  0.042058  0.623323  0.323844  1
  O  O30  1  0.701068  0.781469  0.824030  1
  O  O31  1  0.957942  0.376677  0.676156  1
  O  O32  1  0.565347  0.281145  0.064675  1
  O  O33  1  0.215966  0.001053  0.434911  1
  O  O34  1  0.434653  0.718855  0.935325  1
  O  O35  1  0.784034  0.998946  0.565089  1
