# generated using pymatgen
data_Mg2SiO4
_symmetry_space_group_name_H-M   'P 1'
_cell_length_a   4.82891715
_cell_length_b   6.01327356
_cell_length_c   6.01581196
_cell_angle_alpha   119.98604918
_cell_angle_beta   90.00573131
_cell_angle_gamma   89.99999996
_symmetry_Int_Tables_number   1
_chemical_formula_structural   Mg2SiO4
_chemical_formula_sum   'Mg4 Si2 O8'
_cell_volume   151.30268413
_cell_formula_units_Z   2
loop_
 _symmetry_equiv_pos_site_id
 _symmetry_equiv_pos_as_xyz
  1  'x, y, z'
loop_
 _atom_site_type_symbol
 _atom_site_label
 _atom_site_symmetry_multiplicity
 _atom_site_fract_x
 _atom_site_fract_y
 _atom_site_fract_z
 _atom_site_occupancy
  Mg  Mg0  1  0.500000  0.500000  0.500000  1
  Mg  Mg1  1  0.500000  0.500000  0.000000  1
  Mg  Mg2  1  0.000000  0.000000  0.000000  1
  Mg  Mg3  1  0.500000  0.000000  0.500000  1
  Si  Si4  1  0.926838  0.333408  0.666816  1
  Si  Si5  1  0.073162  0.666592  0.333184  1
  O  O6  1  0.264727  0.333391  0.666782  1
  O  O7  1  0.223244  0.377154  0.188568  1
  O  O8  1  0.735273  0.666609  0.333218  1
  O  O9  1  0.223244  0.811413  0.188568  1
  O  O10  1  0.223199  0.811268  0.622537  1
  O  O11  1  0.776756  0.622846  0.811432  1
  O  O12  1  0.776756  0.188587  0.811432  1
  O  O13  1  0.776801  0.188731  0.377463  1
