# generated using pymatgen
data_Fe3Se4
_symmetry_space_group_name_H-M   'P 1'
_cell_length_a   3.55602182
_cell_length_b   3.51567828
_cell_length_c   11.74084582
_cell_angle_alpha   89.67637887
_cell_angle_beta   90.00000003
_cell_angle_gamma   120.38033788
_symmetry_Int_Tables_number   1
_chemical_formula_structural   Fe3Se4
_chemical_formula_sum   'Fe3 Se4'
_cell_volume   126.62428644
_cell_formula_units_Z   1
loop_
 _symmetry_equiv_pos_site_id
 _symmetry_equiv_pos_as_xyz
  1  'x, y, z'
loop_
 _atom_site_type_symbol
 _atom_site_label
 _atom_site_symmetry_multiplicity
 _atom_site_fract_x
 _atom_site_fract_y
 _atom_site_fract_z
 _atom_site_occupancy
  Fe  Fe0  1  0.000000  0.000000  0.500000  1
  Fe  Fe1  1  0.001033  0.002066  0.250491  1
  Fe  Fe2  1  0.998967  0.997934  0.749509  1
  Se  Se3  1  0.336040  0.672079  0.371828  1
  Se  Se4  1  0.663960  0.327921  0.628172  1
  Se  Se5  1  0.333309  0.666618  0.857609  1
  Se  Se6  1  0.666691  0.333382  0.142391  1
