# generated using pymatgen
data_GdAl3(BO3)4
_symmetry_space_group_name_H-M   'P 1'
_cell_length_a   5.94564964
_cell_length_b   5.94564947
_cell_length_c   16.34000306
_cell_angle_alpha   90.43234447
_cell_angle_beta   90.43234449
_cell_angle_gamma   104.35299914
_symmetry_Int_Tables_number   1
_chemical_formula_structural   GdAl3(BO3)4
_chemical_formula_sum   'Gd3 Al9 B12 O36'
_cell_volume   559.55927501
_cell_formula_units_Z   3
loop_
 _symmetry_equiv_pos_site_id
 _symmetry_equiv_pos_as_xyz
  1  'x, y, z'
loop_
 _atom_site_type_symbol
 _atom_site_label
 _atom_site_symmetry_multiplicity
 _atom_site_fract_x
 _atom_site_fract_y
 _atom_site_fract_z
 _atom_site_occupancy
  Gd  Gd0  1  0.171695  0.168348  0.168113  1
  Gd  Gd1  1  0.831652  0.828305  0.831887  1
  Gd  Gd2  1  0.930935  0.069065  0.500000  1
  Al  Al3  1  0.427665  0.979934  0.981492  1
  Al  Al4  1  0.086317  0.655359  0.647762  1
  Al  Al5  1  0.378220  0.621780  0.500000  1
  Al  Al6  1  0.344641  0.913683  0.352238  1
  Al  Al7  1  0.020066  0.572335  0.018508  1
  Al  Al8  1  0.679640  0.245046  0.685438  1
  Al  Al9  1  0.754954  0.320360  0.314562  1
  Al  Al10  1  0.722946  0.611275  0.165670  1
  Al  Al11  1  0.388725  0.277054  0.834330  1
  B  B12  1  0.909574  0.350269  0.852248  1
  B  B13  1  0.450450  0.143220  0.518473  1
  B  B14  1  0.605100  0.728912  0.663266  1
  B  B15  1  0.500812  0.499188  0.000000  1
  B  B16  1  0.244193  0.685096  0.185435  1
  B  B17  1  0.649731  0.090426  0.147752  1
  B  B18  1  0.161240  0.171150  0.669760  1
  B  B19  1  0.314904  0.755807  0.814565  1
  B  B20  1  0.944589  0.055411  0.000000  1
  B  B21  1  0.828850  0.838760  0.330240  1
  B  B22  1  0.856780  0.549550  0.481527  1
  B  B23  1  0.271088  0.394900  0.336734  1
  O  O24  1  0.364295  0.223559  0.715854  1
  O  O25  1  0.015287  0.262504  0.042229  1
  O  O26  1  0.324846  0.598685  0.382326  1
  O  O27  1  0.045147  0.635464  0.136440  1
  O  O28  1  0.448026  0.599604  0.825617  1
  O  O29  1  0.937045  0.529977  0.907698  1
  O  O30  1  0.094548  0.969359  0.623343  1
  O  O31  1  0.701801  0.683464  0.493873  1
  O  O32  1  0.699733  0.549323  0.049267  1
  O  O33  1  0.450677  0.300267  0.950733  1
  O  O34  1  0.064090  0.214669  0.841379  1
  O  O35  1  0.400396  0.551974  0.174383  1
  O  O36  1  0.695640  0.288979  0.197140  1
  O  O37  1  0.470023  0.062955  0.092302  1
  O  O38  1  0.421708  0.249141  0.332221  1
  O  O39  1  0.316536  0.298199  0.506127  1
  O  O40  1  0.135324  0.728313  0.759065  1
  O  O41  1  0.785331  0.935910  0.158621  1
  O  O42  1  0.827112  0.370452  0.425794  1
  O  O43  1  0.352549  0.647451  1.000000  1
  O  O44  1  0.404673  0.943538  0.469759  1
  O  O45  1  0.068673  0.327776  0.290874  1
  O  O46  1  0.737496  0.984713  0.957771  1
  O  O47  1  0.056462  0.595327  0.530241  1
  O  O48  1  0.776441  0.635705  0.284146  1
  O  O49  1  0.678028  0.984525  0.334360  1
  O  O50  1  0.015475  0.321972  0.665640  1
  O  O51  1  0.030641  0.905452  0.376657  1
  O  O52  1  0.629548  0.172888  0.574206  1
  O  O53  1  0.711021  0.304360  0.802860  1
  O  O54  1  0.750859  0.578292  0.667779  1
  O  O55  1  0.672224  0.931327  0.709126  1
  O  O56  1  0.092849  0.907151  1.000000  1
  O  O57  1  0.401315  0.675154  0.617674  1
  O  O58  1  0.271687  0.864676  0.240935  1
  O  O59  1  0.364536  0.954853  0.863560  1
