# generated using pymatgen
data_CsMn4Cl9
_symmetry_space_group_name_H-M   'P 1'
_cell_length_a   9.87932900
_cell_length_b   9.87932963
_cell_length_c   9.87932947
_cell_angle_alpha   106.45194635
_cell_angle_beta   106.45194733
_cell_angle_gamma   115.69483256
_symmetry_Int_Tables_number   1
_chemical_formula_structural   CsMn4Cl9
_chemical_formula_sum   'Cs2 Mn8 Cl18'
_cell_volume   735.62891628
_cell_formula_units_Z   2
loop_
 _symmetry_equiv_pos_site_id
 _symmetry_equiv_pos_as_xyz
  1  'x, y, z'
loop_
 _atom_site_type_symbol
 _atom_site_label
 _atom_site_symmetry_multiplicity
 _atom_site_fract_x
 _atom_site_fract_y
 _atom_site_fract_z
 _atom_site_occupancy
  Cs  Cs0  1  0.625000  0.875000  0.750000  1
  Cs  Cs1  1  0.375000  0.125000  0.250000  1
  Mn  Mn2  1  0.235207  0.586741  0.059544  1
  Mn  Mn3  1  0.324337  0.264793  0.851534  1
  Mn  Mn4  1  0.086741  0.527197  0.351534  1
  Mn  Mn5  1  0.764793  0.413259  0.940456  1
  Mn  Mn6  1  0.972803  0.824337  0.559544  1
  Mn  Mn7  1  0.027197  0.175663  0.440456  1
  Mn  Mn8  1  0.913259  0.472803  0.648466  1
  Mn  Mn9  1  0.675663  0.735207  0.148466  1
  Cl  Cl10  1  0.917460  0.972658  0.159856  1
  Cl  Cl11  1  0.844747  0.287318  0.368962  1
  Cl  Cl12  1  0.975786  0.344747  0.057430  1
  Cl  Cl13  1  0.875000  0.625000  0.250000  1
  Cl  Cl14  1  0.787318  0.918356  0.442570  1
  Cl  Cl15  1  0.581644  0.524214  0.868962  1
  Cl  Cl16  1  0.742397  0.582540  0.555198  1
  Cl  Cl17  1  0.312801  0.757603  0.340144  1
  Cl  Cl18  1  0.082540  0.027342  0.840144  1
  Cl  Cl19  1  0.155253  0.712682  0.631038  1
  Cl  Cl20  1  0.472658  0.812801  0.055198  1
  Cl  Cl21  1  0.527342  0.187199  0.944802  1
  Cl  Cl22  1  0.257603  0.417460  0.444802  1
  Cl  Cl23  1  0.687199  0.242397  0.659856  1
  Cl  Cl24  1  0.024214  0.655253  0.942570  1
  Cl  Cl25  1  0.418356  0.475786  0.131038  1
  Cl  Cl26  1  0.212682  0.081644  0.557430  1
  Cl  Cl27  1  0.125000  0.375000  0.750000  1
