# generated using pymatgen
data_Ba3V4PbO14
_symmetry_space_group_name_H-M   'P 1'
_cell_length_a   7.45393423
_cell_length_b   7.50830562
_cell_length_c   13.56911298
_cell_angle_alpha   99.40877487
_cell_angle_beta   93.23492262
_cell_angle_gamma   92.08852253
_symmetry_Int_Tables_number   1
_chemical_formula_structural   Ba3V4PbO14
_chemical_formula_sum   'Ba6 V8 Pb2 O28'
_cell_volume   747.20008200
_cell_formula_units_Z   2
loop_
 _symmetry_equiv_pos_site_id
 _symmetry_equiv_pos_as_xyz
  1  'x, y, z'
loop_
 _atom_site_type_symbol
 _atom_site_label
 _atom_site_symmetry_multiplicity
 _atom_site_fract_x
 _atom_site_fract_y
 _atom_site_fract_z
 _atom_site_occupancy
  Ba  Ba0  1  0.770573  0.742982  0.341085  1
  Ba  Ba1  1  0.920868  0.164869  0.159187  1
  Ba  Ba2  1  0.338209  0.792339  0.138626  1
  Ba  Ba3  1  0.079132  0.835131  0.840813  1
  Ba  Ba4  1  0.661791  0.207661  0.861374  1
  Ba  Ba5  1  0.229427  0.257018  0.658915  1
  V  V6  1  0.564962  0.687574  0.881950  1
  V  V7  1  0.156542  0.313595  0.920760  1
  V  V8  1  0.843458  0.686405  0.079240  1
  V  V9  1  0.177107  0.706202  0.584311  1
  V  V10  1  0.234718  0.918117  0.392378  1
  V  V11  1  0.765282  0.081883  0.607622  1
  V  V12  1  0.822893  0.293798  0.415689  1
  V  V13  1  0.435038  0.312426  0.118050  1
  Pb  Pb14  1  0.650076  0.615594  0.628070  1
  Pb  Pb15  1  0.349924  0.384406  0.371930  1
  O  O16  1  0.405324  0.789777  0.346104  1
  O  O17  1  0.994834  0.385050  0.357848  1
  O  O18  1  0.476478  0.519190  0.789108  1
  O  O19  1  0.600394  0.195312  0.057855  1
  O  O20  1  0.286969  0.169419  0.845919  1
  O  O21  1  0.298580  0.170947  0.173636  1
  O  O22  1  0.670104  0.464093  0.449271  1
  O  O23  1  0.701258  0.573477  0.968678  1
  O  O24  1  0.091029  0.934202  0.291962  1
  O  O25  1  0.701420  0.829053  0.826364  1
  O  O26  1  0.298742  0.426523  0.031322  1
  O  O27  1  0.011633  0.822765  0.043689  1
  O  O28  1  0.687100  0.869416  0.546872  1
  O  O29  1  0.523522  0.480810  0.210892  1
  O  O30  1  0.594676  0.210223  0.653896  1
  O  O31  1  0.312900  0.130584  0.453128  1
  O  O32  1  0.005166  0.614950  0.642152  1
  O  O33  1  0.063538  0.456806  0.849632  1
  O  O34  1  0.329896  0.535907  0.550729  1
  O  O35  1  0.713031  0.830581  0.154081  1
  O  O36  1  0.099116  0.800022  0.473713  1
  O  O37  1  0.715186  0.130460  0.330520  1
  O  O38  1  0.936462  0.543194  0.150368  1
  O  O39  1  0.399606  0.804688  0.942145  1
  O  O40  1  0.988367  0.177235  0.956311  1
  O  O41  1  0.908971  0.065798  0.708038  1
  O  O42  1  0.900884  0.199978  0.526287  1
  O  O43  1  0.284814  0.869540  0.669480  1
