# generated using pymatgen
data_Ba3NaRu2O9
_symmetry_space_group_name_H-M   'P 1'
_cell_length_a   11.92612284
_cell_length_b   11.91036496
_cell_length_c   14.60253563
_cell_angle_alpha   90.00000000
_cell_angle_beta   90.00000000
_cell_angle_gamma   120.04377545
_symmetry_Int_Tables_number   1
_chemical_formula_structural   Ba3NaRu2O9
_chemical_formula_sum   'Ba24 Na8 Ru16 O72'
_cell_volume   1795.52523430
_cell_formula_units_Z   8
loop_
 _symmetry_equiv_pos_site_id
 _symmetry_equiv_pos_as_xyz
  1  'x, y, z'
loop_
 _atom_site_type_symbol
 _atom_site_label
 _atom_site_symmetry_multiplicity
 _atom_site_fract_x
 _atom_site_fract_y
 _atom_site_fract_z
 _atom_site_occupancy
  Ba  Ba0  1  0.998684  0.997368  0.750000  1
  Ba  Ba1  1  0.001316  0.002632  0.250000  1
  Ba  Ba2  1  0.661841  0.823892  0.596220  1
  Ba  Ba3  1  0.831998  0.663996  0.414356  1
  Ba  Ba4  1  0.162051  0.823892  0.596220  1
  Ba  Ba5  1  0.994822  0.491444  0.750000  1
  Ba  Ba6  1  0.162051  0.823892  0.903780  1
  Ba  Ba7  1  0.661841  0.823892  0.903780  1
  Ba  Ba8  1  0.498506  0.997013  0.750000  1
  Ba  Ba9  1  0.338159  0.176108  0.096220  1
  Ba  Ba10  1  0.332035  0.664070  0.084695  1
  Ba  Ba11  1  0.837949  0.176108  0.096220  1
  Ba  Ba12  1  0.168002  0.336004  0.914356  1
  Ba  Ba13  1  0.501494  0.002987  0.250000  1
  Ba  Ba14  1  0.005178  0.508556  0.250000  1
  Ba  Ba15  1  0.837949  0.176108  0.403780  1
  Ba  Ba16  1  0.667965  0.335930  0.584695  1
  Ba  Ba17  1  0.831998  0.663996  0.085644  1
  Ba  Ba18  1  0.332035  0.664070  0.415305  1
  Ba  Ba19  1  0.667965  0.335930  0.915305  1
  Ba  Ba20  1  0.496621  0.491444  0.750000  1
  Ba  Ba21  1  0.503379  0.508556  0.250000  1
  Ba  Ba22  1  0.338159  0.176108  0.403780  1
  Ba  Ba23  1  0.168002  0.336004  0.585644  1
  Na  Na24  1  0.500000  0.500000  0.000000  1
  Na  Na25  1  0.000000  0.000000  0.000000  1
  Na  Na26  1  0.000000  0.500000  0.500000  1
  Na  Na27  1  0.000000  0.000000  0.500000  1
  Na  Na28  1  0.500000  0.000000  0.000000  1
  Na  Na29  1  0.000000  0.500000  0.000000  1
  Na  Na30  1  0.500000  0.000000  0.500000  1
  Na  Na31  1  0.500000  0.500000  0.500000  1
  Ru  Ru32  1  0.830988  0.161872  0.653758  1
  Ru  Ru33  1  0.168934  0.337867  0.336630  1
  Ru  Ru34  1  0.669117  0.838128  0.153758  1
  Ru  Ru35  1  0.668818  0.337635  0.336541  1
  Ru  Ru36  1  0.168934  0.337867  0.163370  1
  Ru  Ru37  1  0.169012  0.838128  0.346242  1
  Ru  Ru38  1  0.668818  0.337635  0.163459  1
  Ru  Ru39  1  0.331182  0.662365  0.836541  1
  Ru  Ru40  1  0.330883  0.161872  0.846242  1
  Ru  Ru41  1  0.831066  0.662133  0.836630  1
  Ru  Ru42  1  0.669117  0.838128  0.346242  1
  Ru  Ru43  1  0.831066  0.662133  0.663370  1
  Ru  Ru44  1  0.330883  0.161872  0.653758  1
  Ru  Ru45  1  0.331182  0.662365  0.663459  1
  Ru  Ru46  1  0.830988  0.161872  0.846242  1
  Ru  Ru47  1  0.169012  0.838128  0.153758  1
  O  O48  1  0.094482  0.683758  0.414409  1
  O  O49  1  0.592225  0.415887  0.406358  1
  O  O50  1  0.589275  0.683758  0.414409  1
  O  O51  1  0.174364  0.087752  0.591434  1
  O  O52  1  0.913388  0.087752  0.591434  1
  O  O53  1  0.490537  0.745067  0.750000  1
  O  O54  1  0.748015  0.496029  0.250000  1
  O  O55  1  0.176338  0.584113  0.593642  1
  O  O56  1  0.406977  0.813954  0.589687  1
  O  O57  1  0.589275  0.683758  0.085591  1
  O  O58  1  0.907398  0.584479  0.907381  1
  O  O59  1  0.247720  0.257661  0.250000  1
  O  O60  1  0.407775  0.584113  0.906358  1
  O  O61  1  0.322919  0.415521  0.407381  1
  O  O62  1  0.823662  0.415887  0.093642  1
  O  O63  1  0.407982  0.081866  0.907920  1
  O  O64  1  0.407982  0.081866  0.592080  1
  O  O65  1  0.737536  0.759787  0.250000  1
  O  O66  1  0.745470  0.254933  0.250000  1
  O  O67  1  0.746011  0.986178  0.250000  1
  O  O68  1  0.407775  0.584113  0.593642  1
  O  O69  1  0.326116  0.918134  0.092080  1
  O  O70  1  0.907398  0.584479  0.592619  1
  O  O71  1  0.825636  0.912248  0.091434  1
  O  O72  1  0.240166  0.986178  0.250000  1
  O  O73  1  0.406977  0.813954  0.910313  1
  O  O74  1  0.253989  0.013822  0.750000  1
  O  O75  1  0.758277  0.235703  0.750000  1
  O  O76  1  0.593023  0.186046  0.410313  1
  O  O77  1  0.176338  0.584113  0.906358  1
  O  O78  1  0.009941  0.257661  0.250000  1
  O  O79  1  0.913388  0.087752  0.908566  1
  O  O80  1  0.990059  0.742339  0.750000  1
  O  O81  1  0.174364  0.087752  0.908566  1
  O  O82  1  0.759834  0.013822  0.750000  1
  O  O83  1  0.673884  0.081866  0.592080  1
  O  O84  1  0.092602  0.415521  0.407381  1
  O  O85  1  0.251985  0.503971  0.750000  1
  O  O86  1  0.592018  0.918134  0.092080  1
  O  O87  1  0.410725  0.316242  0.914409  1
  O  O88  1  0.322919  0.415521  0.092619  1
  O  O89  1  0.677081  0.584479  0.907381  1
  O  O90  1  0.977749  0.240213  0.750000  1
  O  O91  1  0.086612  0.912248  0.091434  1
  O  O92  1  0.248424  0.496847  0.250000  1
  O  O93  1  0.092287  0.184574  0.091609  1
  O  O94  1  0.094482  0.683758  0.085591  1
  O  O95  1  0.825636  0.912248  0.408566  1
  O  O96  1  0.592225  0.415887  0.093642  1
  O  O97  1  0.752280  0.742339  0.750000  1
  O  O98  1  0.751576  0.503153  0.750000  1
  O  O99  1  0.092287  0.184574  0.408391  1
  O  O100  1  0.905518  0.316242  0.585591  1
  O  O101  1  0.907713  0.815426  0.591609  1
  O  O102  1  0.326116  0.918134  0.407920  1
  O  O103  1  0.092602  0.415521  0.092619  1
  O  O104  1  0.522575  0.764297  0.250000  1
  O  O105  1  0.022251  0.759787  0.250000  1
  O  O106  1  0.823662  0.415887  0.406358  1
  O  O107  1  0.907713  0.815426  0.908391  1
  O  O108  1  0.905518  0.316242  0.914409  1
  O  O109  1  0.593023  0.186046  0.089687  1
  O  O110  1  0.086612  0.912248  0.408566  1
  O  O111  1  0.241723  0.764297  0.250000  1
  O  O112  1  0.592018  0.918134  0.407920  1
  O  O113  1  0.477425  0.235703  0.750000  1
  O  O114  1  0.673884  0.081866  0.907920  1
  O  O115  1  0.677081  0.584479  0.592619  1
  O  O116  1  0.410725  0.316242  0.585591  1
  O  O117  1  0.262464  0.240213  0.750000  1
  O  O118  1  0.509463  0.254933  0.250000  1
  O  O119  1  0.254530  0.745067  0.750000  1
