# generated using pymatgen
data_Li9V3P8O29
_symmetry_space_group_name_H-M   'P 1'
_cell_length_a   9.89554468
_cell_length_b   9.89587954
_cell_length_c   13.77716833
_cell_angle_alpha   89.99541254
_cell_angle_beta   89.99808686
_cell_angle_gamma   59.99735336
_symmetry_Int_Tables_number   1
_chemical_formula_structural   Li9V3P8O29
_chemical_formula_sum   'Li18 V6 P16 O58'
_cell_volume   1168.35041208
_cell_formula_units_Z   2
loop_
 _symmetry_equiv_pos_site_id
 _symmetry_equiv_pos_as_xyz
  1  'x, y, z'
loop_
 _atom_site_type_symbol
 _atom_site_label
 _atom_site_symmetry_multiplicity
 _atom_site_fract_x
 _atom_site_fract_y
 _atom_site_fract_z
 _atom_site_occupancy
  Li  Li0  1  0.099425  0.233985  0.563914  1
  Li  Li1  1  0.234002  0.099445  0.063928  1
  Li  Li2  1  0.099503  0.666587  0.063900  1
  Li  Li3  1  0.333317  0.333385  0.379799  1
  Li  Li4  1  0.999923  0.000057  0.000044  1
  Li  Li5  1  0.333343  0.333293  0.879802  1
  Li  Li6  1  0.234001  0.666601  0.563932  1
  Li  Li7  1  0.666590  0.099474  0.563914  1
  Li  Li8  1  0.333370  0.766069  0.936071  1
  Li  Li9  1  0.666640  0.233965  0.063937  1
  Li  Li10  1  0.333397  0.900552  0.436102  1
  Li  Li11  1  0.765969  0.333348  0.436057  1
  Li  Li12  1  0.666706  0.666645  0.620194  1
  Li  Li13  1  0.666627  0.666744  0.120191  1
  Li  Li14  1  0.900561  0.333393  0.936067  1
  Li  Li15  1  0.766045  0.900539  0.936081  1
  Li  Li16  1  0.900518  0.766001  0.436101  1
  Li  Li17  1  0.000148  0.999982  0.500030  1
  O  O18  1  0.000005  0.214447  0.250007  1
  O  O19  1  0.003512  0.224988  0.066686  1
  O  O20  1  0.077535  0.250020  0.844736  1
  O  O21  1  0.214431  -0.000003  0.750011  1
  O  O22  1  0.224923  0.003488  0.566691  1
  O  O23  1  0.249994  0.077543  0.344806  1
  O  O24  1  0.109333  0.370424  0.334598  1
  O  O25  1  0.189118  0.324974  0.662875  1
  O  O26  1  0.109377  0.520200  0.834572  1
  O  O27  1  0.003519  0.771534  0.566682  1
  O  O28  1  0.000013  0.785555  0.750006  1
  O  O29  1  0.077492  0.672472  0.344767  1
  O  O30  1  0.324945  0.189118  0.162923  1
  O  O31  1  0.370430  0.109326  0.834584  1
  O  O32  1  0.189147  0.485941  0.162936  1
  O  O33  1  0.333250  0.333380  0.014113  1
  O  O34  1  0.333430  0.333325  0.514110  1
  O  O35  1  0.324965  0.485949  0.662914  1
  O  O36  1  0.520225  0.109310  0.334539  1
  O  O37  1  0.485957  0.189130  0.662938  1
  O  O38  1  0.250021  0.672427  0.844781  1
  O  O39  1  0.214374  0.785606  0.250008  1
  O  O40  1  0.224879  0.771689  0.066687  1
  O  O41  1  0.228413  0.775061  0.433324  1
  O  O42  1  0.370378  0.520272  0.334592  1
  O  O43  1  0.485959  0.324921  0.162880  1
  O  O44  1  0.327555  0.749988  0.655268  1
  O  O45  1  0.520284  0.370393  0.834586  1
  O  O46  1  0.672483  0.077509  0.844754  1
  O  O47  1  0.228449  0.996534  0.933330  1
  O  O48  1  0.771620  0.003491  0.066667  1
  O  O49  1  0.785591  0.999976  0.249984  1
  O  O50  1  0.327546  0.922489  0.155287  1
  O  O51  1  0.479693  0.629606  0.165405  1
  O  O52  1  0.672397  0.249990  0.344725  1
  O  O53  1  0.514052  0.675061  0.837083  1
  O  O54  1  0.629589  0.479738  0.665408  1
  O  O55  1  0.771569  0.224944  0.566679  1
  O  O56  1  0.775086  0.228398  0.933316  1
  O  O57  1  0.785616  0.214400  0.749997  1
  O  O58  1  0.749990  0.327600  0.155235  1
  O  O59  1  0.514058  0.810875  0.337102  1
  O  O60  1  0.479747  0.890683  0.665406  1
  O  O61  1  0.674998  0.514062  0.337120  1
  O  O62  1  0.666643  0.666649  0.985882  1
  O  O63  1  0.666743  0.666680  0.485883  1
  O  O64  1  0.810886  0.514060  0.837081  1
  O  O65  1  0.629611  0.890670  0.165378  1
  O  O66  1  0.675054  0.810876  0.837089  1
  O  O67  1  0.922479  0.327545  0.655230  1
  O  O68  1  0.996448  0.228503  0.433324  1
  O  O69  1  0.890696  0.479768  0.165409  1
  O  O70  1  0.810888  0.675000  0.337041  1
  O  O71  1  0.890680  0.629583  0.665419  1
  O  O72  1  0.749995  0.922462  0.655235  1
  O  O73  1  0.774969  0.996485  0.433304  1
  O  O74  1  0.922519  0.749980  0.155224  1
  O  O75  1  0.996506  0.774962  0.933323  1
  P  P76  1  0.089673  0.226233  0.344646  1
  P  P77  1  0.226220  0.089696  0.844627  1
  P  P78  1  0.089705  0.684051  0.844633  1
  P  P79  1  0.333366  0.333348  0.623747  1
  P  P80  1  0.333334  0.333318  0.123748  1
  P  P81  1  0.226175  0.684116  0.344639  1
  P  P82  1  0.315855  0.773840  0.155387  1
  P  P83  1  0.684083  0.089656  0.344597  1
  P  P84  1  0.315907  0.910309  0.655383  1
  P  P85  1  0.684135  0.226178  0.844622  1
  P  P86  1  0.773803  0.315898  0.655363  1
  P  P87  1  0.666669  0.666654  0.876247  1
  P  P88  1  0.666686  0.666630  0.376249  1
  P  P89  1  0.910326  0.315929  0.155374  1
  P  P90  1  0.773821  0.910298  0.155349  1
  P  P91  1  0.910324  0.773782  0.655372  1
  V  V92  1  0.000020  0.434750  0.749988  1
  V  V93  1  0.000029  0.565231  0.249976  1
  V  V94  1  0.434763  0.999975  0.250035  1
  V  V95  1  0.565267  0.999985  0.750009  1
  V  V96  1  0.434768  0.565244  0.750030  1
  V  V97  1  0.565214  0.434759  0.249981  1
