# generated using pymatgen
data_Ba9Cu7Cl2O15
_symmetry_space_group_name_H-M   'P 1'
_cell_length_a   10.97567892
_cell_length_b   10.97567894
_cell_length_c   6.11672509
_cell_angle_alpha   90.00000000
_cell_angle_beta   90.00000000
_cell_angle_gamma   119.99999994
_symmetry_Int_Tables_number   1
_chemical_formula_structural   Ba9Cu7Cl2O15
_chemical_formula_sum   'Ba9 Cu7 Cl2 O15'
_cell_volume   638.13473128
_cell_formula_units_Z   1
loop_
 _symmetry_equiv_pos_site_id
 _symmetry_equiv_pos_as_xyz
  1  'x, y, z'
loop_
 _atom_site_type_symbol
 _atom_site_label
 _atom_site_symmetry_multiplicity
 _atom_site_fract_x
 _atom_site_fract_y
 _atom_site_fract_z
 _atom_site_occupancy
  Ba  Ba0  1  0.202261  0.404522  0.500000  1
  Ba  Ba1  1  0.500000  0.500000  0.000000  1
  Ba  Ba2  1  0.595478  0.797739  0.500000  1
  Ba  Ba3  1  0.797739  0.595478  0.500000  1
  Ba  Ba4  1  0.404522  0.202261  0.500000  1
  Ba  Ba5  1  0.797739  0.202261  0.500000  1
  Ba  Ba6  1  0.202261  0.797739  0.500000  1
  Ba  Ba7  1  0.000000  0.500000  0.000000  1
  Ba  Ba8  1  0.500000  0.000000  0.000000  1
  Cu  Cu9  1  0.265908  0.132954  0.000000  1
  Cu  Cu10  1  0.867046  0.132954  0.000000  1
  Cu  Cu11  1  0.132954  0.867046  0.000000  1
  Cu  Cu12  1  0.132954  0.265908  0.000000  1
  Cu  Cu13  1  0.734092  0.867046  0.000000  1
  Cu  Cu14  1  0.000000  0.000000  0.500000  1
  Cu  Cu15  1  0.867046  0.734092  0.000000  1
  Cl  Cl16  1  0.666667  0.333333  0.000000  1
  Cl  Cl17  1  0.333333  0.666667  0.000000  1
  O  O18  1  0.265033  0.265033  0.209073  1
  O  O19  1  0.500000  0.000000  0.500000  1
  O  O20  1  0.734967  0.734967  0.790927  1
  O  O21  1  0.265033  0.000000  0.790927  1
  O  O22  1  0.000000  0.265033  0.790927  1
  O  O23  1  0.265033  0.000000  0.209073  1
  O  O24  1  0.734967  0.734967  0.209073  1
  O  O25  1  0.000000  0.265033  0.209073  1
  O  O26  1  1.000000  0.734967  0.790927  1
  O  O27  1  0.000000  0.500000  0.500000  1
  O  O28  1  0.734967  0.000000  0.790927  1
  O  O29  1  0.265033  0.265033  0.790927  1
  O  O30  1  1.000000  0.734967  0.209073  1
  O  O31  1  0.734967  0.000000  0.209073  1
  O  O32  1  0.500000  0.500000  0.500000  1
