# generated using pymatgen
data_YSeF
_symmetry_space_group_name_H-M   'P 1'
_cell_length_a   5.72898863
_cell_length_b   5.81314134
_cell_length_c   7.71263456
_cell_angle_alpha   90.00000000
_cell_angle_beta   90.00000000
_cell_angle_gamma   90.00000000
_symmetry_Int_Tables_number   1
_chemical_formula_structural   YSeF
_chemical_formula_sum   'Y4 Se4 F4'
_cell_volume   256.85711301
_cell_formula_units_Z   4
loop_
 _symmetry_equiv_pos_site_id
 _symmetry_equiv_pos_as_xyz
  1  'x, y, z'
loop_
 _atom_site_type_symbol
 _atom_site_label
 _atom_site_symmetry_multiplicity
 _atom_site_fract_x
 _atom_site_fract_y
 _atom_site_fract_z
 _atom_site_occupancy
  Y  Y0  1  0.250000  0.873989  0.816809  1
  Y  Y1  1  0.750000  0.373989  0.683191  1
  Y  Y2  1  0.750000  0.126011  0.183191  1
  Y  Y3  1  0.250000  0.626011  0.316809  1
  Se  Se4  1  0.750000  0.618832  0.330537  1
  Se  Se5  1  0.250000  0.118832  0.169463  1
  Se  Se6  1  0.750000  0.881168  0.830537  1
  Se  Se7  1  0.250000  0.381168  0.669463  1
  F  F8  1  0.250000  0.866670  0.534267  1
  F  F9  1  0.250000  0.633330  0.034267  1
  F  F10  1  0.750000  0.133330  0.465733  1
  F  F11  1  0.750000  0.366670  0.965733  1
