# generated using pymatgen
data_Sm3(GaNi3)2
_symmetry_space_group_name_H-M   'P 1'
_cell_length_a   7.77371547
_cell_length_b   7.77371594
_cell_length_c   7.77371580
_cell_angle_alpha   109.47121762
_cell_angle_beta   109.47121884
_cell_angle_gamma   109.47122116
_symmetry_Int_Tables_number   1
_chemical_formula_structural   Sm3(GaNi3)2
_chemical_formula_sum   'Sm6 Ga4 Ni12'
_cell_volume   361.62970645
_cell_formula_units_Z   2
loop_
 _symmetry_equiv_pos_site_id
 _symmetry_equiv_pos_as_xyz
  1  'x, y, z'
loop_
 _atom_site_type_symbol
 _atom_site_label
 _atom_site_symmetry_multiplicity
 _atom_site_fract_x
 _atom_site_fract_y
 _atom_site_fract_z
 _atom_site_occupancy
  Sm  Sm0  1  0.000000  0.289199  0.289199  1
  Sm  Sm1  1  0.289199  0.000000  0.289199  1
  Sm  Sm2  1  0.710801  1.000000  0.710801  1
  Sm  Sm3  1  0.710801  0.710801  1.000000  1
  Sm  Sm4  1  0.289199  0.289199  0.000000  1
  Sm  Sm5  1  1.000000  0.710801  0.710801  1
  Ni  Ni6  1  0.325162  0.662581  0.662581  1
  Ni  Ni7  1  0.662581  0.000000  0.337419  1
  Ni  Ni8  1  0.662581  0.325162  0.662581  1
  Ni  Ni9  1  0.662581  0.662581  0.325162  1
  Ni  Ni10  1  0.662581  0.337419  0.000000  1
  Ni  Ni11  1  0.000000  0.662581  0.337419  1
  Ni  Ni12  1  1.000000  0.337419  0.662581  1
  Ni  Ni13  1  0.337419  0.337419  0.674838  1
  Ni  Ni14  1  0.337419  1.000000  0.662581  1
  Ni  Ni15  1  0.337419  0.662581  1.000000  1
  Ni  Ni16  1  0.337419  0.674838  0.337419  1
  Ni  Ni17  1  0.674838  0.337419  0.337419  1
  Ga  Ga18  1  0.500000  0.500000  0.500000  1
  Ga  Ga19  1  0.500000  0.000000  0.000000  1
  Ga  Ga20  1  0.000000  0.500000  0.000000  1
  Ga  Ga21  1  0.000000  0.000000  0.500000  1
