# generated using pymatgen
data_BaH2N2O5
_symmetry_space_group_name_H-M   'P 1'
_cell_length_a   7.17570888
_cell_length_b   7.17570924
_cell_length_c   18.22568289
_cell_angle_alpha   90.00000000
_cell_angle_beta   90.00000000
_cell_angle_gamma   119.99999832
_symmetry_Int_Tables_number   1
_chemical_formula_structural   BaH2N2O5
_chemical_formula_sum   'Ba6 H12 N12 O30'
_cell_volume   812.72588544
_cell_formula_units_Z   6
loop_
 _symmetry_equiv_pos_site_id
 _symmetry_equiv_pos_as_xyz
  1  'x, y, z'
loop_
 _atom_site_type_symbol
 _atom_site_label
 _atom_site_symmetry_multiplicity
 _atom_site_fract_x
 _atom_site_fract_y
 _atom_site_fract_z
 _atom_site_occupancy
  Ba  Ba0  1  0.857033  0.431587  0.998008  1
  Ba  Ba1  1  0.425446  0.857033  0.164675  1
  Ba  Ba2  1  0.431587  0.574554  0.831341  1
  Ba  Ba3  1  0.568413  0.425446  0.331341  1
  Ba  Ba4  1  0.574554  0.142967  0.664675  1
  Ba  Ba5  1  0.142967  0.568413  0.498008  1
  N  N6  1  0.036782  0.246695  0.145303  1
  N  N7  1  0.790087  0.036782  0.311970  1
  N  N8  1  0.246695  0.209913  0.978636  1
  N  N9  1  0.753305  0.790087  0.478636  1
  N  N10  1  0.209913  0.963218  0.811970  1
  N  N11  1  0.963218  0.753305  0.645303  1
  N  N12  1  0.124860  0.570478  0.325063  1
  N  N13  1  0.554382  0.124860  0.491730  1
  N  N14  1  0.570478  0.445618  0.158396  1
  N  N15  1  0.429522  0.554382  0.658396  1
  N  N16  1  0.445618  0.875140  0.991730  1
  N  N17  1  0.875140  0.429522  0.825063  1
  O  O18  1  0.105312  0.437874  0.123324  1
  O  O19  1  0.667438  0.105312  0.289991  1
  O  O20  1  0.437874  0.332562  0.956657  1
  O  O21  1  0.562126  0.667438  0.456657  1
  O  O22  1  0.332562  0.894688  0.789991  1
  O  O23  1  0.894688  0.562126  0.623324  1
  O  O24  1  0.868273  0.105007  0.112894  1
  O  O25  1  0.763266  0.868273  0.279561  1
  O  O26  1  0.105007  0.236734  0.946227  1
  O  O27  1  0.894993  0.763266  0.446227  1
  O  O28  1  0.236734  0.131727  0.779561  1
  O  O29  1  0.131727  0.894993  0.612894  1
  O  O30  1  0.297003  0.596057  0.295537  1
  O  O31  1  0.700946  0.297003  0.462204  1
  O  O32  1  0.596057  0.299054  0.128870  1
  O  O33  1  0.403943  0.700946  0.628870  1
  O  O34  1  0.299054  0.702997  0.962204  1
  O  O35  1  0.702997  0.403943  0.795537  1
  O  O36  1  0.010875  0.617570  0.284778  1
  O  O37  1  0.393305  0.010875  0.451445  1
  O  O38  1  0.617570  0.606695  0.118111  1
  O  O39  1  0.382430  0.393305  0.618111  1
  O  O40  1  0.606695  0.989125  0.951445  1
  O  O41  1  0.989125  0.382430  0.784778  1
  O  O42  1  0.154547  0.231000  0.411727  1
  O  O43  1  0.923547  0.154547  0.578394  1
  O  O44  1  0.231000  0.076453  0.245060  1
  O  O45  1  0.769000  0.923547  0.745060  1
  O  O46  1  0.076453  0.845453  0.078394  1
  O  O47  1  0.845453  0.769000  0.911727  1
  H  H48  1  0.027029  0.170269  0.378499  1
  H  H49  1  0.856760  0.027029  0.545166  1
  H  H50  1  0.170269  0.143240  0.211832  1
  H  H51  1  0.829731  0.856760  0.711832  1
  H  H52  1  0.143240  0.972971  0.045166  1
  H  H53  1  0.972971  0.829731  0.878499  1
  H  H54  1  0.145877  0.103840  0.435269  1
  H  H55  1  0.042037  0.145877  0.601936  1
  H  H56  1  0.103840  0.957963  0.268602  1
  H  H57  1  0.896160  0.042037  0.768602  1
  H  H58  1  0.957963  0.854123  0.101936  1
  H  H59  1  0.854123  0.896160  0.935269  1
