# generated using pymatgen
data_SiO2
_symmetry_space_group_name_H-M   'P 1'
_cell_length_a   4.92661961
_cell_length_b   7.15015586
_cell_length_c   7.05544758
_cell_angle_alpha   114.06212233
_cell_angle_beta   102.22578744
_cell_angle_gamma   104.07312980
_symmetry_Int_Tables_number   1
_chemical_formula_structural   SiO2
_chemical_formula_sum   'Si4 O8'
_cell_volume   206.11968322
_cell_formula_units_Z   4
loop_
 _symmetry_equiv_pos_site_id
 _symmetry_equiv_pos_as_xyz
  1  'x, y, z'
loop_
 _atom_site_type_symbol
 _atom_site_label
 _atom_site_symmetry_multiplicity
 _atom_site_fract_x
 _atom_site_fract_y
 _atom_site_fract_z
 _atom_site_occupancy
  Si  Si0  1  0.184708  0.716171  0.840110  1
  Si  Si1  1  0.562961  0.471175  0.855552  1
  Si  Si2  1  0.182972  0.367998  0.430692  1
  Si  Si3  1  0.548405  0.227565  0.127683  1
  O  O4  1  0.325252  0.286913  0.602975  1
  O  O5  1  0.390086  0.371320  0.279830  1
  O  O6  1  0.188565  0.615733  0.585160  1
  O  O7  1  0.836003  0.208775  0.273803  1
  O  O8  1  0.303339  0.981820  0.954811  1
  O  O9  1  0.663275  0.350423  0.993026  1
  O  O10  1  0.396357  0.633232  0.975536  1
  O  O11  1  0.849287  0.624024  0.837881  1
