# generated using pymatgen
data_GePb5O7
_symmetry_space_group_name_H-M   'P 1'
_cell_length_a   9.55875707
_cell_length_b   11.88163083
_cell_length_c   17.66468571
_cell_angle_alpha   90.00000000
_cell_angle_beta   90.00000000
_cell_angle_gamma   90.00000000
_symmetry_Int_Tables_number   1
_chemical_formula_structural   GePb5O7
_chemical_formula_sum   'Ge8 Pb40 O56'
_cell_volume   2006.24234993
_cell_formula_units_Z   8
loop_
 _symmetry_equiv_pos_site_id
 _symmetry_equiv_pos_as_xyz
  1  'x, y, z'
loop_
 _atom_site_type_symbol
 _atom_site_label
 _atom_site_symmetry_multiplicity
 _atom_site_fract_x
 _atom_site_fract_y
 _atom_site_fract_z
 _atom_site_occupancy
  Ge  Ge0  1  0.512537  0.188374  0.599902  1
  Ge  Ge1  1  0.987463  0.688374  0.599902  1
  Ge  Ge2  1  0.012537  0.311626  0.400098  1
  Ge  Ge3  1  0.987463  0.811626  0.099902  1
  Ge  Ge4  1  0.487463  0.688374  0.900098  1
  Ge  Ge5  1  0.512537  0.311626  0.099902  1
  Ge  Ge6  1  0.487463  0.811626  0.400098  1
  Ge  Ge7  1  0.012537  0.188374  0.900098  1
  Pb  Pb8  1  0.703679  0.077809  0.418848  1
  Pb  Pb9  1  0.708491  0.885948  0.576438  1
  Pb  Pb10  1  0.014067  0.887009  0.427038  1
  Pb  Pb11  1  0.980284  0.417841  0.770195  1
  Pb  Pb12  1  0.514067  0.612991  0.572962  1
  Pb  Pb13  1  0.291509  0.114052  0.423562  1
  Pb  Pb14  1  0.980284  0.082159  0.270195  1
  Pb  Pb15  1  0.985933  0.112991  0.572962  1
  Pb  Pb16  1  0.291509  0.385948  0.923562  1
  Pb  Pb17  1  0.703679  0.422191  0.918848  1
  Pb  Pb18  1  0.480284  0.417841  0.729805  1
  Pb  Pb19  1  0.485933  0.112991  0.927038  1
  Pb  Pb20  1  0.014067  0.612991  0.927038  1
  Pb  Pb21  1  0.242786  0.848364  0.257025  1
  Pb  Pb22  1  0.796321  0.577809  0.418848  1
  Pb  Pb23  1  0.257214  0.151636  0.757025  1
  Pb  Pb24  1  0.296321  0.922191  0.581152  1
  Pb  Pb25  1  0.742786  0.651636  0.742975  1
  Pb  Pb26  1  0.485933  0.387009  0.427038  1
  Pb  Pb27  1  0.480284  0.082159  0.229805  1
  Pb  Pb28  1  0.203679  0.077809  0.081152  1
  Pb  Pb29  1  0.519716  0.917841  0.770195  1
  Pb  Pb30  1  0.242786  0.651636  0.757025  1
  Pb  Pb31  1  0.019716  0.917841  0.729805  1
  Pb  Pb32  1  0.019716  0.582159  0.229805  1
  Pb  Pb33  1  0.791509  0.385948  0.576438  1
  Pb  Pb34  1  0.757214  0.151636  0.742975  1
  Pb  Pb35  1  0.796321  0.922191  0.918848  1
  Pb  Pb36  1  0.708491  0.614052  0.076438  1
  Pb  Pb37  1  0.208491  0.885948  0.923562  1
  Pb  Pb38  1  0.519716  0.582159  0.270195  1
  Pb  Pb39  1  0.208491  0.614052  0.423562  1
  Pb  Pb40  1  0.257214  0.348364  0.257025  1
  Pb  Pb41  1  0.514067  0.887009  0.072962  1
  Pb  Pb42  1  0.742786  0.848364  0.242975  1
  Pb  Pb43  1  0.296321  0.577809  0.081152  1
  Pb  Pb44  1  0.757214  0.348364  0.242975  1
  Pb  Pb45  1  0.203679  0.422191  0.581152  1
  Pb  Pb46  1  0.791509  0.114052  0.076438  1
  Pb  Pb47  1  0.985933  0.387009  0.072962  1
  O  O48  1  0.592166  0.899119  0.458098  1
  O  O49  1  0.854999  0.015731  0.668705  1
  O  O50  1  0.645001  0.515731  0.668705  1
  O  O51  1  0.092166  0.899119  0.041902  1
  O  O52  1  0.145001  0.984269  0.331295  1
  O  O53  1  0.852282  0.991545  0.501187  1
  O  O54  1  0.034706  0.379800  0.310213  1
  O  O55  1  0.407834  0.100881  0.541902  1
  O  O56  1  0.672232  0.031915  0.829839  1
  O  O57  1  0.465294  0.620200  0.810213  1
  O  O58  1  0.327768  0.531915  0.670161  1
  O  O59  1  0.407834  0.399119  0.041902  1
  O  O60  1  0.965294  0.879800  0.189787  1
  O  O61  1  0.068461  0.677730  0.115957  1
  O  O62  1  0.147718  0.008455  0.498813  1
  O  O63  1  0.431539  0.322270  0.615957  1
  O  O64  1  0.931539  0.177730  0.384043  1
  O  O65  1  0.352282  0.508455  0.498813  1
  O  O66  1  0.827768  0.968085  0.329839  1
  O  O67  1  0.645001  0.984269  0.168705  1
  O  O68  1  0.145001  0.515731  0.831295  1
  O  O69  1  0.465294  0.879800  0.310213  1
  O  O70  1  0.679260  0.285169  0.056682  1
  O  O71  1  0.354999  0.484269  0.331295  1
  O  O72  1  0.852282  0.508455  0.001187  1
  O  O73  1  0.327768  0.968085  0.170161  1
  O  O74  1  0.354999  0.015731  0.831295  1
  O  O75  1  0.907834  0.100881  0.958098  1
  O  O76  1  0.179260  0.285169  0.443318  1
  O  O77  1  0.931539  0.322270  0.884043  1
  O  O78  1  0.672232  0.468085  0.329839  1
  O  O79  1  0.568461  0.822270  0.884043  1
  O  O80  1  0.034706  0.120200  0.810213  1
  O  O81  1  0.820740  0.714831  0.556682  1
  O  O82  1  0.854999  0.484269  0.168705  1
  O  O83  1  0.431539  0.177730  0.115957  1
  O  O84  1  0.172232  0.468085  0.170161  1
  O  O85  1  0.592166  0.600881  0.958098  1
  O  O86  1  0.647718  0.008455  0.001187  1
  O  O87  1  0.179260  0.214831  0.943318  1
  O  O88  1  0.568461  0.677730  0.384043  1
  O  O89  1  0.147718  0.491545  0.998813  1
  O  O90  1  0.827768  0.531915  0.829839  1
  O  O91  1  0.534706  0.120200  0.689787  1
  O  O92  1  0.907834  0.399119  0.458098  1
  O  O93  1  0.320740  0.785169  0.443318  1
  O  O94  1  0.647718  0.491545  0.501187  1
  O  O95  1  0.679260  0.214831  0.556682  1
  O  O96  1  0.352282  0.991545  0.998813  1
  O  O97  1  0.172232  0.031915  0.670161  1
  O  O98  1  0.092166  0.600881  0.541902  1
  O  O99  1  0.068461  0.822270  0.615957  1
  O  O100  1  0.820740  0.785169  0.056682  1
  O  O101  1  0.534706  0.379800  0.189787  1
  O  O102  1  0.320740  0.714831  0.943318  1
  O  O103  1  0.965294  0.620200  0.689787  1
