# generated using pymatgen
data_Ba4Ti4O9
_symmetry_space_group_name_H-M   'P 1'
_cell_length_a   8.01917516
_cell_length_b   24.43244607
_cell_length_c   7.01617319
_cell_angle_alpha   48.88791636
_cell_angle_beta   55.14665558
_cell_angle_gamma   80.55451576
_symmetry_Int_Tables_number   1
_chemical_formula_structural   Ba4Ti4O9
_chemical_formula_sum   'Ba12 Ti12 O27'
_cell_volume   798.56505378
_cell_formula_units_Z   3
loop_
 _symmetry_equiv_pos_site_id
 _symmetry_equiv_pos_as_xyz
  1  'x, y, z'
loop_
 _atom_site_type_symbol
 _atom_site_label
 _atom_site_symmetry_multiplicity
 _atom_site_fract_x
 _atom_site_fract_y
 _atom_site_fract_z
 _atom_site_occupancy
  Ba  Ba0  1  0.001220  0.000184  0.993593  1
  Ba  Ba1  1  0.505002  0.000184  0.993593  1
  Ba  Ba2  1  0.421970  0.168705  0.992946  1
  Ba  Ba3  1  0.339157  0.333655  0.992412  1
  Ba  Ba4  1  0.254610  0.502083  0.993125  1
  Ba  Ba5  1  0.172648  0.667068  0.992655  1
  Ba  Ba6  1  0.087623  0.835425  0.992503  1
  Ba  Ba7  1  0.916380  0.168705  0.992946  1
  Ba  Ba8  1  0.834775  0.333655  0.992412  1
  Ba  Ba9  1  0.750182  0.502083  0.993125  1
  Ba  Ba10  1  0.667631  0.667068  0.992655  1
  Ba  Ba11  1  0.584448  0.835425  0.992503  1
  Ti  Ti12  1  0.405547  0.163082  0.525824  1
  Ti  Ti13  1  0.337560  0.335340  0.489538  1
  Ti  Ti14  1  0.239122  0.495931  0.525825  1
  Ti  Ti15  1  0.168567  0.667873  0.494995  1
  Ti  Ti16  1  0.072789  0.829841  0.524579  1
  Ti  Ti17  1  0.921111  0.168136  0.489644  1
  Ti  Ti18  1  0.684728  0.672923  0.457622  1
  Ti  Ti19  1  0.850934  0.340062  0.458069  1
  Ti  Ti20  1  0.752002  0.500530  0.495466  1
  Ti  Ti21  1  0.588100  0.834691  0.489109  1
  Ti  Ti22  1  0.501753  0.001215  0.495281  1
  Ti  Ti23  1  0.016568  0.005897  0.460968  1
  O  O24  1  0.250477  0.999528  0.502829  1
  O  O25  1  0.173996  0.170104  0.480415  1
  O  O26  1  0.083311  0.332681  0.503505  1
  O  O27  1  0.006145  0.503044  0.482115  1
  O  O28  1  0.466056  0.085773  0.482114  1
  O  O29  1  0.382909  0.253574  0.480608  1
  O  O30  1  0.215764  0.586730  0.481742  1
  O  O31  1  0.132609  0.751917  0.482865  1
  O  O32  1  0.299348  0.419229  0.482074  1
  O  O33  1  0.044870  0.917899  0.492360  1
  O  O34  1  0.211149  0.085283  0.992419  1
  O  O35  1  0.044249  0.417702  0.993798  1
  O  O36  1  0.747167  0.999528  0.502829  1
  O  O37  1  0.342170  0.836211  0.482813  1
  O  O38  1  0.675484  0.170104  0.480415  1
  O  O39  1  0.580503  0.332681  0.503505  1
  O  O40  1  0.508696  0.503044  0.482115  1
  O  O41  1  0.414094  0.665615  0.505294  1
  O  O42  1  0.956769  0.083786  0.502676  1
  O  O43  1  0.873636  0.248947  0.503782  1
  O  O44  1  0.706414  0.582183  0.504989  1
  O  O45  1  0.623121  0.749951  0.503808  1
  O  O46  1  0.790044  0.416511  0.503401  1
  O  O47  1  0.544454  0.917802  0.493288  1
  O  O48  1  0.914995  0.665615  0.505294  1
  O  O49  1  0.838806  0.836211  0.482813  1
  O  O50  1  0.877086  0.750084  0.995745  1
