# generated using pymatgen
data_VBi2O5
_symmetry_space_group_name_H-M   'P 1'
_cell_length_a   5.46995546
_cell_length_b   15.32659284
_cell_length_c   16.52637257
_cell_angle_alpha   90.00000000
_cell_angle_beta   90.00000000
_cell_angle_gamma   90.00000000
_symmetry_Int_Tables_number   1
_chemical_formula_structural   VBi2O5
_chemical_formula_sum   'V12 Bi24 O60'
_cell_volume   1385.50133809
_cell_formula_units_Z   12
loop_
 _symmetry_equiv_pos_site_id
 _symmetry_equiv_pos_as_xyz
  1  'x, y, z'
loop_
 _atom_site_type_symbol
 _atom_site_label
 _atom_site_symmetry_multiplicity
 _atom_site_fract_x
 _atom_site_fract_y
 _atom_site_fract_z
 _atom_site_occupancy
  V  V0  1  0.750199  0.499824  0.917100  1
  V  V1  1  0.250199  0.000176  0.582900  1
  V  V2  1  0.749801  0.999824  0.082900  1
  V  V3  1  0.249801  0.500176  0.417100  1
  V  V4  1  0.249801  0.500176  0.082900  1
  V  V5  1  0.749801  0.999824  0.417100  1
  V  V6  1  0.250199  0.000176  0.917100  1
  V  V7  1  0.750199  0.499824  0.582900  1
  V  V8  1  0.748482  0.483747  0.250000  1
  V  V9  1  0.248482  0.016253  0.250000  1
  V  V10  1  0.751518  0.983747  0.750000  1
  V  V11  1  0.251518  0.516253  0.750000  1
  Bi  Bi12  1  0.248836  0.663277  0.912479  1
  Bi  Bi13  1  0.748836  0.836723  0.587521  1
  Bi  Bi14  1  0.251164  0.163277  0.087521  1
  Bi  Bi15  1  0.751164  0.336723  0.412479  1
  Bi  Bi16  1  0.751164  0.336723  0.087521  1
  Bi  Bi17  1  0.251164  0.163277  0.412479  1
  Bi  Bi18  1  0.748836  0.836723  0.912479  1
  Bi  Bi19  1  0.248836  0.663277  0.587521  1
  Bi  Bi20  1  0.253177  0.327945  0.913051  1
  Bi  Bi21  1  0.753177  0.172055  0.586949  1
  Bi  Bi22  1  0.246823  0.827945  0.086949  1
  Bi  Bi23  1  0.746823  0.672055  0.413051  1
  Bi  Bi24  1  0.746823  0.672055  0.086949  1
  Bi  Bi25  1  0.246823  0.827945  0.413051  1
  Bi  Bi26  1  0.753177  0.172055  0.913051  1
  Bi  Bi27  1  0.253177  0.327945  0.586949  1
  Bi  Bi28  1  0.246198  0.664315  0.250000  1
  Bi  Bi29  1  0.746198  0.835685  0.250000  1
  Bi  Bi30  1  0.253802  0.164315  0.750000  1
  Bi  Bi31  1  0.753802  0.335685  0.750000  1
  Bi  Bi32  1  0.249231  0.347976  0.250000  1
  Bi  Bi33  1  0.749231  0.152024  0.250000  1
  Bi  Bi34  1  0.250769  0.847976  0.750000  1
  Bi  Bi35  1  0.750769  0.652024  0.750000  1
  O  O36  1  0.503340  0.249968  0.829307  1
  O  O37  1  0.003340  0.250032  0.670693  1
  O  O38  1  0.996660  0.749968  0.170693  1
  O  O39  1  0.496660  0.750032  0.329307  1
  O  O40  1  0.496660  0.750032  0.170693  1
  O  O41  1  0.996660  0.749968  0.329307  1
  O  O42  1  0.003340  0.250032  0.829307  1
  O  O43  1  0.503340  0.249968  0.670693  1
  O  O44  1  0.496963  0.750731  0.840491  1
  O  O45  1  0.996963  0.749269  0.659509  1
  O  O46  1  0.003037  0.250731  0.159509  1
  O  O47  1  0.503037  0.249269  0.340491  1
  O  O48  1  0.503037  0.249269  0.159509  1
  O  O49  1  0.003037  0.250731  0.340491  1
  O  O50  1  0.996963  0.749269  0.840491  1
  O  O51  1  0.496963  0.750731  0.659509  1
  O  O52  1  0.501050  0.249432  0.991877  1
  O  O53  1  0.001050  0.250568  0.508123  1
  O  O54  1  0.998950  0.749432  0.008123  1
  O  O55  1  0.498950  0.750568  0.491877  1
  O  O56  1  0.498950  0.750568  0.008123  1
  O  O57  1  0.998950  0.749432  0.491877  1
  O  O58  1  0.001050  0.250568  0.991877  1
  O  O59  1  0.500195  0.444430  0.166620  1
  O  O60  1  0.501050  0.249432  0.508123  1
  O  O61  1  0.500000  0.000000  0.500000  1
  O  O62  1  0.500000  0.000000  0.000000  1
  O  O63  1  0.000000  0.500000  0.500000  1
  O  O64  1  0.500000  0.500000  0.000000  1
  O  O65  1  0.000000  0.000000  0.500000  1
  O  O66  1  0.000000  0.000000  0.000000  1
  O  O67  1  0.500000  0.500000  0.500000  1
  O  O68  1  0.499805  0.555570  0.833380  1
  O  O69  1  -0.000195  0.944430  0.666620  1
  O  O70  1  1.000195  0.055570  0.166620  1
  O  O71  1  0.500195  0.444430  0.333381  1
  O  O72  1  0.250599  0.404670  0.750000  1
  O  O73  1  0.750599  0.095330  0.750000  1
  O  O74  1  0.249401  0.904670  0.250000  1
  O  O75  1  0.749401  0.595330  0.250000  1
  O  O76  1  0.750304  0.393772  0.612424  1
  O  O77  1  0.250304  0.106228  0.887576  1
  O  O78  1  0.749696  0.893772  0.387576  1
  O  O79  1  0.249696  0.606228  0.112424  1
  O  O80  1  0.249696  0.606228  0.387576  1
  O  O81  1  0.749696  0.893772  0.112424  1
  O  O82  1  0.250304  0.106228  0.612424  1
  O  O83  1  0.750304  0.393772  0.887576  1
  O  O84  1  0.002569  0.555949  0.666912  1
  O  O85  1  0.502569  0.944051  0.833088  1
  O  O86  1  0.497431  0.055949  0.333088  1
  O  O87  1  0.997431  0.444051  0.166912  1
  O  O88  1  0.997431  0.444051  0.333088  1
  O  O89  1  0.497431  0.055949  0.166912  1
  O  O90  1  0.502569  0.944051  0.666912  1
  O  O91  1  0.002569  0.555949  0.833088  1
  O  O92  1  0.499805  0.555570  0.666620  1
  O  O93  1  -0.000195  0.944430  0.833380  1
  O  O94  1  1.000195  0.055570  0.333381  1
  O  O95  1  0.000000  0.500000  0.000000  1
