# generated using pymatgen
data_K3Ni2F7
_symmetry_space_group_name_H-M   'P 1'
_cell_length_a   4.07499207
_cell_length_b   4.07499283
_cell_length_c   11.03139226
_cell_angle_alpha   100.64362605
_cell_angle_beta   100.64362809
_cell_angle_gamma   90.00000165
_symmetry_Int_Tables_number   1
_chemical_formula_structural   K3Ni2F7
_chemical_formula_sum   'K3 Ni2 F7'
_cell_volume   176.82300809
_cell_formula_units_Z   1
loop_
 _symmetry_equiv_pos_site_id
 _symmetry_equiv_pos_as_xyz
  1  'x, y, z'
loop_
 _atom_site_type_symbol
 _atom_site_label
 _atom_site_symmetry_multiplicity
 _atom_site_fract_x
 _atom_site_fract_y
 _atom_site_fract_z
 _atom_site_occupancy
  K  K0  1  0.315473  0.315473  0.630944  1
  K  K1  1  0.684527  0.684527  0.369056  1
  K  K2  1  0.500000  0.500000  0.000000  1
  Ni  Ni3  1  0.096319  0.096319  0.192637  1
  Ni  Ni4  1  0.903681  0.903681  0.807363  1
  F  F5  1  0.000000  0.000000  0.000000  1
  F  F6  1  0.404828  0.904828  0.809656  1
  F  F7  1  0.904828  0.404828  0.809656  1
  F  F8  1  0.595172  0.095172  0.190344  1
  F  F9  1  0.095172  0.595172  0.190344  1
  F  F10  1  0.190983  0.190983  0.381967  1
  F  F11  1  0.809017  0.809017  0.618033  1
