# generated using pymatgen
data_Bi8AsAuCl9
_symmetry_space_group_name_H-M   'P 1'
_cell_length_a   10.52038003
_cell_length_b   14.49625938
_cell_length_c   15.13707153
_cell_angle_alpha   90.00000000
_cell_angle_beta   90.00000000
_cell_angle_gamma   93.52973895
_symmetry_Int_Tables_number   1
_chemical_formula_structural   Bi8AsAuCl9
_chemical_formula_sum   'Bi32 As4 Au4 Cl36'
_cell_volume   2304.11734697
_cell_formula_units_Z   4
loop_
 _symmetry_equiv_pos_site_id
 _symmetry_equiv_pos_as_xyz
  1  'x, y, z'
loop_
 _atom_site_type_symbol
 _atom_site_label
 _atom_site_symmetry_multiplicity
 _atom_site_fract_x
 _atom_site_fract_y
 _atom_site_fract_z
 _atom_site_occupancy
  Bi  Bi0  1  0.381050  0.676773  0.070104  1
  Bi  Bi1  1  0.618950  0.823227  0.570104  1
  Bi  Bi2  1  0.415024  0.932142  0.687129  1
  Bi  Bi3  1  0.452461  0.649888  0.861434  1
  Bi  Bi4  1  0.778574  0.474184  0.052483  1
  Bi  Bi5  1  0.452461  0.149888  0.638566  1
  Bi  Bi6  1  0.671924  0.449020  0.488413  1
  Bi  Bi7  1  0.941565  0.311945  0.639907  1
  Bi  Bi8  1  0.328076  0.050980  0.988413  1
  Bi  Bi9  1  0.671924  0.949020  0.011587  1
  Bi  Bi10  1  0.058435  0.188055  0.139907  1
  Bi  Bi11  1  0.221426  0.025816  0.552483  1
  Bi  Bi12  1  0.699384  0.525167  0.851133  1
  Bi  Bi13  1  0.300616  0.474833  0.148867  1
  Bi  Bi14  1  0.618950  0.323227  0.929896  1
  Bi  Bi15  1  0.221426  0.525816  0.947517  1
  Bi  Bi16  1  0.328076  0.550980  0.511587  1
  Bi  Bi17  1  0.300616  0.974833  0.351133  1
  Bi  Bi18  1  0.547539  0.850112  0.361434  1
  Bi  Bi19  1  0.584976  0.567858  0.187129  1
  Bi  Bi20  1  0.941565  0.811945  0.860093  1
  Bi  Bi21  1  0.381050  0.176773  0.429896  1
  Bi  Bi22  1  0.042031  0.193313  0.862184  1
  Bi  Bi23  1  0.957969  0.806687  0.137816  1
  Bi  Bi24  1  0.415024  0.432142  0.812871  1
  Bi  Bi25  1  0.778574  0.974184  0.447517  1
  Bi  Bi26  1  0.042031  0.693313  0.637816  1
  Bi  Bi27  1  0.957969  0.306687  0.362184  1
  Bi  Bi28  1  0.058435  0.688055  0.360093  1
  Bi  Bi29  1  0.699384  0.025167  0.648867  1
  Bi  Bi30  1  0.547539  0.350112  0.138566  1
  Bi  Bi31  1  0.584976  0.067858  0.312871  1
  As  As32  1  0.781811  0.780752  0.003859  1
  As  As33  1  0.218189  0.719248  0.503859  1
  As  As34  1  0.218189  0.219248  0.996141  1
  As  As35  1  0.781811  0.280752  0.496141  1
  Au  Au36  1  0.632955  0.132507  0.493254  1
  Au  Au37  1  0.367045  0.867493  0.506746  1
  Au  Au38  1  0.632955  0.632507  0.006746  1
  Au  Au39  1  0.367045  0.367493  0.993254  1
  Cl  Cl40  1  0.255514  0.251378  0.242290  1
  Cl  Cl41  1  0.866872  0.675204  0.494784  1
  Cl  Cl42  1  0.225000  0.260325  0.749444  1
  Cl  Cl43  1  0.828546  0.983773  0.856066  1
  Cl  Cl44  1  0.492568  0.875516  0.895870  1
  Cl  Cl45  1  0.775000  0.239675  0.249444  1
  Cl  Cl46  1  0.828546  0.483773  0.643934  1
  Cl  Cl47  1  0.504951  0.375284  0.370587  1
  Cl  Cl48  1  0.169610  0.020260  0.841779  1
  Cl  Cl49  1  0.976973  0.627801  0.863468  1
  Cl  Cl50  1  0.504951  0.875284  0.129413  1
  Cl  Cl51  1  0.495049  0.124716  0.870587  1
  Cl  Cl52  1  0.133128  0.824796  0.994784  1
  Cl  Cl53  1  0.744486  0.748622  0.757710  1
  Cl  Cl54  1  0.994945  0.371916  0.872521  1
  Cl  Cl55  1  0.866872  0.175204  0.005216  1
  Cl  Cl56  1  0.495049  0.624716  0.629413  1
  Cl  Cl57  1  0.005055  0.128084  0.372521  1
  Cl  Cl58  1  0.744486  0.248622  0.742290  1
  Cl  Cl59  1  0.994945  0.871916  0.627479  1
  Cl  Cl60  1  0.830390  0.479740  0.341779  1
  Cl  Cl61  1  0.023027  0.372199  0.136532  1
  Cl  Cl62  1  0.775000  0.739675  0.250556  1
  Cl  Cl63  1  0.976973  0.127801  0.636532  1
  Cl  Cl64  1  0.507432  0.124484  0.104130  1
  Cl  Cl65  1  0.255514  0.751378  0.257710  1
  Cl  Cl66  1  0.023027  0.872199  0.363468  1
  Cl  Cl67  1  0.169610  0.520260  0.658221  1
  Cl  Cl68  1  0.171454  0.516227  0.356066  1
  Cl  Cl69  1  0.005055  0.628084  0.127479  1
  Cl  Cl70  1  0.492568  0.375516  0.604130  1
  Cl  Cl71  1  0.171454  0.016227  0.143934  1
  Cl  Cl72  1  0.507432  0.624484  0.395870  1
  Cl  Cl73  1  0.830390  0.979740  0.158221  1
  Cl  Cl74  1  0.225000  0.760325  0.750556  1
  Cl  Cl75  1  0.133128  0.324796  0.505216  1
