# generated using pymatgen
data_Ce5Si3
_symmetry_space_group_name_H-M   'P 1'
_cell_length_a   7.74892850
_cell_length_b   7.74794457
_cell_length_c   8.43462289
_cell_angle_alpha   117.33267089
_cell_angle_beta   117.32961842
_cell_angle_gamma   90.00629326
_symmetry_Int_Tables_number   1
_chemical_formula_structural   Ce5Si3
_chemical_formula_sum   'Ce10 Si6'
_cell_volume   385.11335178
_cell_formula_units_Z   2
loop_
 _symmetry_equiv_pos_site_id
 _symmetry_equiv_pos_as_xyz
  1  'x, y, z'
loop_
 _atom_site_type_symbol
 _atom_site_label
 _atom_site_symmetry_multiplicity
 _atom_site_fract_x
 _atom_site_fract_y
 _atom_site_fract_z
 _atom_site_occupancy
  Ce  Ce0  1  0.164639  0.025975  0.691004  1
  Ce  Ce1  1  0.473544  0.335271  0.309187  1
  Ce  Ce2  1  0.335203  0.835575  0.309333  1
  Ce  Ce3  1  0.835409  0.973968  0.309030  1
  Ce  Ce4  1  0.526320  0.664582  0.690631  1
  Ce  Ce5  1  0.000052  0.000204  0.000108  1
  Ce  Ce6  1  0.973928  0.473566  0.309189  1
  Ce  Ce7  1  0.664812  0.164533  0.690798  1
  Ce  Ce8  1  0.500133  0.499910  0.000136  1
  Ce  Ce9  1  0.025897  0.526309  0.690379  1
  Si  Si10  1  0.114246  0.385675  0.000085  1
  Si  Si11  1  0.385633  0.885756  0.999989  1
  Si  Si12  1  0.614448  0.114350  0.000145  1
  Si  Si13  1  0.885763  0.614359  0.000062  1
  Si  Si14  1  0.750003  0.750028  0.500041  1
  Si  Si15  1  0.249969  0.249938  0.499883  1
