# generated using pymatgen
data_Cs2CeAsS3Cl2
_symmetry_space_group_name_H-M   'P 1'
_cell_length_a   6.70114433
_cell_length_b   9.55029193
_cell_length_c   17.98308425
_cell_angle_alpha   90.00000000
_cell_angle_beta   90.00000000
_cell_angle_gamma   90.00000000
_symmetry_Int_Tables_number   1
_chemical_formula_structural   Cs2CeAsS3Cl2
_chemical_formula_sum   'Cs8 Ce4 As4 S12 Cl8'
_cell_volume   1150.87935088
_cell_formula_units_Z   4
loop_
 _symmetry_equiv_pos_site_id
 _symmetry_equiv_pos_as_xyz
  1  'x, y, z'
loop_
 _atom_site_type_symbol
 _atom_site_label
 _atom_site_symmetry_multiplicity
 _atom_site_fract_x
 _atom_site_fract_y
 _atom_site_fract_z
 _atom_site_occupancy
  Cs  Cs0  1  0.250000  0.837993  0.219190  1
  Cs  Cs1  1  0.750000  0.337994  0.280810  1
  Cs  Cs2  1  0.250000  0.662007  0.719190  1
  Cs  Cs3  1  0.250000  0.959383  0.927534  1
  Cs  Cs4  1  0.750000  0.040617  0.072466  1
  Cs  Cs5  1  0.750000  0.459383  0.572466  1
  Cs  Cs6  1  0.250000  0.540617  0.427534  1
  Cs  Cs7  1  0.750000  0.162006  0.780810  1
  Ce  Ce8  1  0.250000  0.433624  0.057074  1
  Ce  Ce9  1  0.250000  0.066376  0.557074  1
  Ce  Ce10  1  0.750000  0.933624  0.442926  1
  Ce  Ce11  1  0.750000  0.566376  0.942926  1
  As  As12  1  0.250000  0.122329  0.365272  1
  As  As13  1  0.250000  0.377671  0.865271  1
  As  As14  1  0.750000  0.877671  0.634729  1
  As  As15  1  0.750000  0.622329  0.134729  1
  S  S16  1  0.250000  0.901421  0.409731  1
  S  S17  1  0.003836  0.694193  0.060557  1
  S  S18  1  0.750000  0.401421  0.090269  1
  S  S19  1  0.503836  0.305807  0.939443  1
  S  S20  1  0.003836  0.805807  0.560557  1
  S  S21  1  0.750000  0.098579  0.590269  1
  S  S22  1  0.250000  0.598579  0.909731  1
  S  S23  1  0.496164  0.694193  0.060557  1
  S  S24  1  0.503836  0.194193  0.439443  1
  S  S25  1  0.996164  0.194193  0.439443  1
  S  S26  1  0.996164  0.305807  0.939443  1
  S  S27  1  0.496164  0.805807  0.560557  1
  Cl  Cl28  1  0.750000  0.855636  0.894423  1
  Cl  Cl29  1  0.250000  0.355636  0.605577  1
  Cl  Cl30  1  0.250000  0.144364  0.105577  1
  Cl  Cl31  1  0.750000  0.529243  0.783029  1
  Cl  Cl32  1  0.250000  0.029243  0.716971  1
  Cl  Cl33  1  0.750000  0.970757  0.283029  1
  Cl  Cl34  1  0.750000  0.644364  0.394423  1
  Cl  Cl35  1  0.250000  0.470757  0.216971  1
