# generated using pymatgen
data_LiYb(PO3)4
_symmetry_space_group_name_H-M   'P 1'
_cell_length_a   7.17582950
_cell_length_b   9.05917958
_cell_length_c   9.07407002
_cell_angle_alpha   65.95161036
_cell_angle_beta   66.70888903
_cell_angle_gamma   66.66833730
_symmetry_Int_Tables_number   1
_chemical_formula_structural   LiYb(PO3)4
_chemical_formula_sum   'Li2 Yb2 P8 O24'
_cell_volume   474.97830586
_cell_formula_units_Z   2
loop_
 _symmetry_equiv_pos_site_id
 _symmetry_equiv_pos_as_xyz
  1  'x, y, z'
loop_
 _atom_site_type_symbol
 _atom_site_label
 _atom_site_symmetry_multiplicity
 _atom_site_fract_x
 _atom_site_fract_y
 _atom_site_fract_z
 _atom_site_occupancy
  Yb  Yb0  1  0.205376  0.250000  0.750000  1
  Yb  Yb1  1  0.794624  0.750000  0.250000  1
  Li  Li2  1  0.294787  0.750000  0.250000  1
  Li  Li3  1  0.705213  0.250000  0.750000  1
  P  P4  1  0.413636  0.161889  0.115402  1
  P  P5  1  0.994814  0.901827  0.807308  1
  P  P6  1  0.703949  0.598173  0.692692  1
  P  P7  1  0.296051  0.401827  0.307308  1
  P  P8  1  0.005186  0.098173  0.192692  1
  P  P9  1  0.690927  0.338111  0.384598  1
  P  P10  1  0.309073  0.661889  0.615402  1
  P  P11  1  0.586364  0.838111  0.884598  1
  O  O12  1  0.232069  0.278293  0.475117  1
  O  O13  1  0.213952  0.087973  0.228307  1
  O  O14  1  0.667151  0.660182  0.846313  1
  O  O15  1  0.530232  0.412027  0.271693  1
  O  O16  1  0.422523  0.706616  0.430375  1
  O  O17  1  0.786048  0.912027  0.771693  1
  O  O18  1  0.823279  0.457114  0.315206  1
  O  O19  1  0.176721  0.542886  0.684794  1
  O  O20  1  0.826354  0.160182  0.346313  1
  O  O21  1  0.159168  0.581310  0.275511  1
  O  O22  1  0.577477  0.293384  0.569625  1
  O  O23  1  0.469768  0.587973  0.728307  1
  O  O24  1  0.173646  0.839818  0.653687  1
  O  O25  1  0.014522  0.778293  0.975117  1
  O  O26  1  0.015989  0.918690  0.224489  1
  O  O27  1  0.332849  0.339818  0.153687  1
  O  O28  1  0.440487  0.206616  0.930375  1
  O  O29  1  0.404401  0.957114  0.815206  1
  O  O30  1  0.840832  0.418690  0.724489  1
  O  O31  1  0.767931  0.721707  0.524883  1
  O  O32  1  0.595599  0.042886  0.184794  1
  O  O33  1  0.984011  0.081310  0.775511  1
  O  O34  1  0.985478  0.221707  0.024883  1
  O  O35  1  0.559513  0.793384  0.069625  1
