# generated using pymatgen
data_HgH10C3Br3N
_symmetry_space_group_name_H-M   'P 1'
_cell_length_a   8.31684415
_cell_length_b   9.07656659
_cell_length_c   14.92407389
_cell_angle_alpha   90.00000000
_cell_angle_beta   90.00000000
_cell_angle_gamma   91.21376675
_symmetry_Int_Tables_number   1
_chemical_formula_structural   HgH10C3Br3N
_chemical_formula_sum   'Hg4 H40 C12 Br12 N4'
_cell_volume   1126.34152347
_cell_formula_units_Z   4
loop_
 _symmetry_equiv_pos_site_id
 _symmetry_equiv_pos_as_xyz
  1  'x, y, z'
loop_
 _atom_site_type_symbol
 _atom_site_label
 _atom_site_symmetry_multiplicity
 _atom_site_fract_x
 _atom_site_fract_y
 _atom_site_fract_z
 _atom_site_occupancy
  Hg  Hg0  1  0.653278  0.266572  0.214324  1
  Hg  Hg1  1  0.153278  0.266572  0.285676  1
  Hg  Hg2  1  0.846722  0.733428  0.714324  1
  Hg  Hg3  1  0.346722  0.733428  0.785676  1
  H  H4  1  0.864326  0.093473  0.475060  1
  H  H5  1  0.981518  0.216301  0.605851  1
  H  H6  1  0.807082  0.963863  0.040978  1
  H  H7  1  0.165939  0.138629  0.061324  1
  H  H8  1  0.135674  0.906527  0.524940  1
  H  H9  1  0.016488  0.324350  0.983754  1
  H  H10  1  0.538574  0.232028  0.621896  1
  H  H11  1  0.695213  0.657639  0.006875  1
  H  H12  1  0.961426  0.767972  0.121896  1
  H  H13  1  0.334061  0.861371  0.561324  1
  H  H14  1  0.635674  0.906527  0.975060  1
  H  H15  1  0.689918  0.836395  0.173083  1
  H  H16  1  0.516488  0.324350  0.516246  1
  H  H17  1  0.310082  0.163605  0.826917  1
  H  H18  1  0.195213  0.657639  0.493125  1
  H  H19  1  0.038574  0.232028  0.878104  1
  H  H20  1  0.189918  0.836395  0.326917  1
  H  H21  1  0.307082  0.963863  0.459022  1
  H  H22  1  0.461426  0.767972  0.378104  1
  H  H23  1  0.104775  0.420788  0.890270  1
  H  H24  1  0.481518  0.216301  0.894149  1
  H  H25  1  0.483512  0.675650  0.483754  1
  H  H26  1  0.018482  0.783699  0.394149  1
  H  H27  1  0.192918  0.036137  0.959022  1
  H  H28  1  0.604775  0.420788  0.609730  1
  H  H29  1  0.895225  0.579212  0.109730  1
  H  H30  1  0.665939  0.138629  0.438676  1
  H  H31  1  0.810082  0.163605  0.673083  1
  H  H32  1  0.983512  0.675650  0.016246  1
  H  H33  1  0.129822  0.645516  0.336337  1
  H  H34  1  0.518482  0.783699  0.105851  1
  H  H35  1  0.870178  0.354484  0.663663  1
  H  H36  1  0.692918  0.036137  0.540978  1
  H  H37  1  0.629822  0.645516  0.163663  1
  H  H38  1  0.304787  0.342361  0.993125  1
  H  H39  1  0.364326  0.093473  0.024940  1
  H  H40  1  0.834061  0.861371  0.938676  1
  H  H41  1  0.804787  0.342361  0.506875  1
  H  H42  1  0.395225  0.579212  0.390270  1
  H  H43  1  0.370178  0.354484  0.836337  1
  C  C44  1  0.137678  0.751653  0.371115  1
  C  C45  1  0.637678  0.751653  0.128885  1
  C  C46  1  0.743375  0.122196  0.497047  1
  C  C47  1  0.862322  0.248347  0.628885  1
  C  C48  1  0.908429  0.685919  0.076123  1
  C  C49  1  0.756625  0.877804  0.997047  1
  C  C50  1  0.243375  0.122196  0.002953  1
  C  C51  1  0.256625  0.877804  0.502953  1
  C  C52  1  0.408429  0.685919  0.423877  1
  C  C53  1  0.091571  0.314081  0.923877  1
  C  C54  1  0.591571  0.314081  0.576123  1
  C  C55  1  0.362322  0.248347  0.871115  1
  Br  Br56  1  0.435402  0.064496  0.269295  1
  Br  Br57  1  0.249996  0.457188  0.166572  1
  Br  Br58  1  0.564598  0.935504  0.730705  1
  Br  Br59  1  0.749996  0.457188  0.333428  1
  Br  Br60  1  0.829318  0.680857  0.543530  1
  Br  Br61  1  0.670682  0.319143  0.043530  1
  Br  Br62  1  0.329318  0.680857  0.956470  1
  Br  Br63  1  0.170682  0.319143  0.456470  1
  Br  Br64  1  0.250004  0.542812  0.666572  1
  Br  Br65  1  0.935402  0.064496  0.230705  1
  Br  Br66  1  0.064598  0.935504  0.769295  1
  Br  Br67  1  0.750004  0.542812  0.833428  1
  N  N68  1  0.254613  0.262979  0.950900  1
  N  N69  1  0.745387  0.737021  0.049100  1
  N  N70  1  0.245387  0.737021  0.450900  1
  N  N71  1  0.754613  0.262979  0.549100  1
