# generated using pymatgen
data_KAl(SiO3)2
_symmetry_space_group_name_H-M   'P 1'
_cell_length_a   11.65948376
_cell_length_b   11.65948324
_cell_length_c   11.65948326
_cell_angle_alpha   106.04830185
_cell_angle_beta   111.20931969
_cell_angle_gamma   111.20931692
_symmetry_Int_Tables_number   1
_chemical_formula_structural   KAl(SiO3)2
_chemical_formula_sum   'K8 Al8 Si16 O48'
_cell_volume   1216.91686872
_cell_formula_units_Z   8
loop_
 _symmetry_equiv_pos_site_id
 _symmetry_equiv_pos_as_xyz
  1  'x, y, z'
loop_
 _atom_site_type_symbol
 _atom_site_label
 _atom_site_symmetry_multiplicity
 _atom_site_fract_x
 _atom_site_fract_y
 _atom_site_fract_z
 _atom_site_occupancy
  K  K0  1  0.771664  0.255349  0.743058  1
  K  K1  1  0.987709  0.016315  0.244651  1
  K  K2  1  0.012291  0.983685  0.755349  1
  K  K3  1  0.487709  0.243058  0.971394  1
  K  K4  1  0.728336  0.471394  0.483685  1
  K  K5  1  0.271664  0.528606  0.516315  1
  K  K6  1  0.228336  0.744651  0.256942  1
  K  K7  1  0.512291  0.756942  0.028606  1
  Al  Al8  1  0.780005  0.739004  0.297064  1
  Al  Al9  1  0.058060  0.541001  0.760996  1
  Al  Al10  1  0.558060  0.797064  0.517059  1
  Al  Al11  1  0.441940  0.202936  0.482941  1
  Al  Al12  1  0.719995  0.017059  0.958999  1
  Al  Al13  1  0.280005  0.982941  0.041001  1
  Al  Al14  1  0.219995  0.260996  0.702936  1
  Al  Al15  1  0.941940  0.458999  0.239004  1
  Si  Si16  1  0.242492  0.018122  0.553392  1
  Si  Si17  1  0.535269  0.053392  0.310900  1
  Si  Si18  1  0.742492  0.189100  0.224369  1
  Si  Si19  1  0.549030  0.436063  0.777044  1
  Si  Si20  1  0.757508  0.981878  0.446608  1
  Si  Si21  1  0.257508  0.810900  0.775631  1
  Si  Si22  1  0.950970  0.728014  0.887032  1
  Si  Si23  1  0.049030  0.271986  0.112968  1
  Si  Si24  1  0.659018  0.722956  0.771986  1
  Si  Si25  1  0.840982  0.612968  0.063937  1
  Si  Si26  1  0.464731  0.946608  0.689100  1
  Si  Si27  1  0.159018  0.387032  0.936063  1
  Si  Si28  1  0.450970  0.563937  0.222956  1
  Si  Si29  1  0.964731  0.275631  0.518122  1
  Si  Si30  1  0.340982  0.277044  0.228014  1
  Si  Si31  1  0.035269  0.724369  0.481878  1
  O  O32  1  0.542350  0.127077  0.455229  1
  O  O33  1  0.921983  0.545805  0.139540  1
  O  O34  1  0.057035  0.296153  0.982911  1
  O  O35  1  0.368396  0.823344  0.716237  1
  O  O36  1  0.107106  0.783763  0.652159  1
  O  O37  1  0.906265  0.123822  0.045805  1
  O  O38  1  0.578017  0.717557  0.623822  1
  O  O39  1  0.457650  0.872923  0.544771  1
  O  O40  1  0.392894  0.045053  0.676656  1
  O  O41  1  0.275729  0.081875  0.453400  1
  O  O42  1  0.328152  0.955229  0.912879  1
  O  O43  1  0.093735  0.876178  0.954195  1
  O  O44  1  0.042350  0.587121  0.415272  1
  O  O45  1  0.957650  0.412879  0.584728  1
  O  O46  1  0.406265  0.360460  0.782443  1
  O  O47  1  0.680782  0.844227  0.901379  1
  O  O48  1  0.186758  0.260882  0.203847  1
  O  O49  1  0.557152  0.336555  0.655773  1
  O  O50  1  0.942965  0.703847  0.017089  1
  O  O51  1  0.828152  0.915272  0.372923  1
  O  O52  1  0.078017  0.454195  0.860460  1
  O  O53  1  0.421983  0.282443  0.376178  1
  O  O54  1  0.628475  0.046600  0.822329  1
  O  O55  1  0.892894  0.216237  0.347841  1
  O  O56  1  0.313242  0.517089  0.074124  1
  O  O57  1  0.171848  0.084728  0.627077  1
  O  O58  1  0.593735  0.639540  0.217557  1
  O  O59  1  0.607106  0.954947  0.323344  1
  O  O60  1  0.942848  0.598621  0.779403  1
  O  O61  1  0.631604  0.176656  0.283763  1
  O  O62  1  0.131604  0.847841  0.454947  1
  O  O63  1  0.871525  0.693854  0.418125  1
  O  O64  1  0.319218  0.155773  0.098621  1
  O  O65  1  0.868396  0.152159  0.545053  1
  O  O66  1  0.180782  0.279403  0.836555  1
  O  O67  1  0.557035  0.574124  0.760882  1
  O  O68  1  0.724271  0.918125  0.546600  1
  O  O69  1  0.371525  0.953400  0.177671  1
  O  O70  1  0.671848  0.044771  0.087121  1
  O  O71  1  0.442965  0.425876  0.239118  1
  O  O72  1  0.813242  0.739118  0.796153  1
  O  O73  1  0.686758  0.482911  0.925876  1
  O  O74  1  0.057152  0.401379  0.220597  1
  O  O75  1  0.819218  0.720597  0.163445  1
  O  O76  1  0.128475  0.306146  0.581875  1
  O  O77  1  0.442848  0.663445  0.344227  1
  O  O78  1  0.224271  0.677671  0.806146  1
  O  O79  1  0.775729  0.322329  0.193854  1
