# generated using pymatgen
data_KMn5(SeO3)6
_symmetry_space_group_name_H-M   'P 1'
_cell_length_a   9.76410780
_cell_length_b   10.43598633
_cell_length_c   10.43598681
_cell_angle_alpha   60.00242099
_cell_angle_beta   88.78250941
_cell_angle_gamma   88.78250873
_symmetry_Int_Tables_number   1
_chemical_formula_structural   KMn5(SeO3)6
_chemical_formula_sum   'K2 Mn10 Se12 O36'
_cell_volume   920.68286521
_cell_formula_units_Z   2
loop_
 _symmetry_equiv_pos_site_id
 _symmetry_equiv_pos_as_xyz
  1  'x, y, z'
loop_
 _atom_site_type_symbol
 _atom_site_label
 _atom_site_symmetry_multiplicity
 _atom_site_fract_x
 _atom_site_fract_y
 _atom_site_fract_z
 _atom_site_occupancy
  K  K0  1  0.250000  0.000361  0.999639  1
  K  K1  1  0.750000  0.999639  0.000361  1
  Mn  Mn2  1  0.833294  0.669185  0.668080  1
  Mn  Mn3  1  0.750720  0.375571  0.998595  1
  Mn  Mn4  1  0.249280  0.624429  0.001405  1
  Mn  Mn5  1  0.749280  0.001405  0.624429  1
  Mn  Mn6  1  0.750000  0.613469  0.386531  1
  Mn  Mn7  1  0.250720  0.998595  0.375571  1
  Mn  Mn8  1  0.666706  0.331920  0.330815  1
  Mn  Mn9  1  0.166706  0.330815  0.331920  1
  Mn  Mn10  1  0.333294  0.668080  0.669185  1
  Mn  Mn11  1  0.250000  0.386531  0.613469  1
  Se  Se12  1  0.583109  0.694649  0.919356  1
  Se  Se13  1  0.084224  0.688175  0.386284  1
  Se  Se14  1  0.083109  0.919356  0.694649  1
  Se  Se15  1  0.416891  0.305351  0.080644  1
  Se  Se16  1  0.089006  0.387355  0.911136  1
  Se  Se17  1  0.415776  0.613716  0.311825  1
  Se  Se18  1  0.410994  0.088864  0.612645  1
  Se  Se19  1  0.584224  0.386284  0.688175  1
  Se  Se20  1  0.910994  0.612645  0.088864  1
  Se  Se21  1  0.916891  0.080644  0.305351  1
  Se  Se22  1  0.915776  0.311825  0.613716  1
  Se  Se23  1  0.589006  0.911136  0.387355  1
  O  O24  1  0.189058  0.540898  0.852524  1
  O  O25  1  0.074690  0.158091  0.303649  1
  O  O26  1  0.688813  0.607184  0.849014  1
  O  O27  1  0.688538  0.546922  0.594811  1
  O  O28  1  0.857567  0.134773  0.695998  1
  O  O29  1  0.927577  0.688176  0.468289  1
  O  O30  1  0.151267  0.306364  0.808347  1
  O  O31  1  0.135859  0.828222  0.875809  1
  O  O32  1  0.311187  0.392816  0.150986  1
  O  O33  1  0.357567  0.695998  0.134773  1
  O  O34  1  0.572423  0.531711  0.311824  1
  O  O35  1  0.864141  0.171778  0.124191  1
  O  O36  1  0.188538  0.594811  0.546922  1
  O  O37  1  0.188813  0.849014  0.607184  1
  O  O38  1  0.069684  0.535506  0.161549  1
  O  O39  1  0.569684  0.161549  0.535506  1
  O  O40  1  0.810942  0.459102  0.147476  1
  O  O41  1  0.925310  0.841909  0.696351  1
  O  O42  1  0.310942  0.147476  0.459102  1
  O  O43  1  0.930316  0.464494  0.838451  1
  O  O44  1  0.642433  0.304002  0.865227  1
  O  O45  1  0.848733  0.693636  0.191653  1
  O  O46  1  0.811462  0.405189  0.453078  1
  O  O47  1  0.348733  0.191653  0.693636  1
  O  O48  1  0.651267  0.808347  0.306364  1
  O  O49  1  0.430316  0.838451  0.464494  1
  O  O50  1  0.811187  0.150986  0.392816  1
  O  O51  1  0.425310  0.696351  0.841909  1
  O  O52  1  0.427577  0.468289  0.688176  1
  O  O53  1  0.311462  0.453078  0.405189  1
  O  O54  1  0.635859  0.875809  0.828222  1
  O  O55  1  0.364141  0.124191  0.171778  1
  O  O56  1  0.142433  0.865227  0.304002  1
  O  O57  1  0.689058  0.852524  0.540898  1
  O  O58  1  0.574690  0.303649  0.158091  1
  O  O59  1  0.072423  0.311824  0.531711  1
