# generated using pymatgen
data_Ni(XeF7)4
_symmetry_space_group_name_H-M   'P 1'
_cell_length_a   5.72488199
_cell_length_b   12.73415979
_cell_length_c   15.83511435
_cell_angle_alpha   77.46364581
_cell_angle_beta   79.58565287
_cell_angle_gamma   77.00979598
_symmetry_Int_Tables_number   1
_chemical_formula_structural   Ni(XeF7)4
_chemical_formula_sum   'Ni2 Xe8 F56'
_cell_volume   1087.42264344
_cell_formula_units_Z   2
loop_
 _symmetry_equiv_pos_site_id
 _symmetry_equiv_pos_as_xyz
  1  'x, y, z'
loop_
 _atom_site_type_symbol
 _atom_site_label
 _atom_site_symmetry_multiplicity
 _atom_site_fract_x
 _atom_site_fract_y
 _atom_site_fract_z
 _atom_site_occupancy
  Ni  Ni0  1  0.000000  0.500000  0.500000  1
  Ni  Ni1  1  0.000000  0.000000  0.000000  1
  Xe  Xe2  1  0.221514  0.472403  0.713751  1
  Xe  Xe3  1  0.592332  0.972403  0.213751  1
  Xe  Xe4  1  0.407668  0.027597  0.786249  1
  Xe  Xe5  1  0.901104  0.775702  0.550848  1
  Xe  Xe6  1  0.772346  0.275702  0.050848  1
  Xe  Xe7  1  0.227654  0.724298  0.949152  1
  Xe  Xe8  1  0.098896  0.224298  0.449152  1
  Xe  Xe9  1  0.778486  0.527597  0.286249  1
  F  F10  1  0.938945  0.556396  0.780493  1
  F  F11  1  0.518965  0.363234  0.683686  1
  F  F12  1  0.275834  0.943604  0.719507  1
  F  F13  1  0.481035  0.636766  0.316314  1
  F  F14  1  0.122131  0.255881  0.998892  1
  F  F15  1  0.096404  0.136208  0.781679  1
  F  F16  1  0.161713  0.575958  0.956626  1
  F  F17  1  0.896480  0.145726  0.403897  1
  F  F18  1  0.434115  0.863234  0.183686  1
  F  F19  1  0.473684  0.114068  0.667536  1
  F  F20  1  0.179361  0.867885  0.038791  1
  F  F21  1  0.185122  0.645321  0.625056  1
  F  F22  1  0.255287  0.385932  0.832464  1
  F  F23  1  0.829366  0.552717  0.593912  1
  F  F24  1  0.694298  0.924042  0.543374  1
  F  F25  1  0.051348  0.843209  0.433181  1
  F  F26  1  0.271194  0.046230  0.941326  1
  F  F27  1  0.744713  0.614068  0.167536  1
  F  F28  1  0.948652  0.156791  0.566819  1
  F  F29  1  0.014292  0.363792  0.718321  1
  F  F30  1  0.742965  0.950044  0.750240  1
  F  F31  1  0.975995  0.947283  0.906088  1
  F  F32  1  0.913963  0.367885  0.538791  1
  F  F33  1  0.985708  0.636208  0.281679  1
  F  F34  1  0.741250  0.546230  0.441326  1
  F  F35  1  0.024005  0.052717  0.093912  1
  F  F36  1  0.305702  0.075958  0.456626  1
  F  F37  1  0.443249  0.549956  0.749760  1
  F  F38  1  0.814878  0.354679  0.374944  1
  F  F39  1  0.556751  0.450044  0.250240  1
  F  F40  1  0.903596  0.863792  0.218321  1
  F  F41  1  0.257035  0.049956  0.249760  1
  F  F42  1  0.446103  0.354274  0.096103  1
  F  F43  1  0.838287  0.424042  0.043374  1
  F  F44  1  0.703717  0.753343  0.668377  1
  F  F45  1  0.125436  0.746657  0.831623  1
  F  F46  1  0.724166  0.056396  0.280493  1
  F  F47  1  0.672262  0.343209  0.933181  1
  F  F48  1  0.877869  0.744119  0.001108  1
  F  F49  1  0.296283  0.246657  0.331623  1
  F  F50  1  0.170634  0.447283  0.406088  1
  F  F51  1  0.526316  0.885932  0.332464  1
  F  F52  1  0.061055  0.443604  0.219507  1
  F  F53  1  0.728806  0.953770  0.058674  1
  F  F54  1  0.258750  0.453770  0.558674  1
  F  F55  1  0.565885  0.136766  0.816314  1
  F  F56  1  0.327738  0.656791  0.066819  1
  F  F57  1  0.553897  0.645726  0.903897  1
  F  F58  1  0.103520  0.854274  0.596103  1
  F  F59  1  0.086037  0.632115  0.461209  1
  F  F60  1  0.455499  0.854679  0.874944  1
  F  F61  1  0.874564  0.253343  0.168377  1
  F  F62  1  0.376904  0.244119  0.501108  1
  F  F63  1  0.820639  0.132115  0.961209  1
  F  F64  1  0.544501  0.145321  0.125056  1
  F  F65  1  0.623096  0.755881  0.498892  1
