# generated using pymatgen
data_CuSb2(XeF4)6
_symmetry_space_group_name_H-M   'P 1'
_cell_length_a   9.72128796
_cell_length_b   9.72128805
_cell_length_c   9.72128742
_cell_angle_alpha   63.98491800
_cell_angle_beta   63.98491775
_cell_angle_gamma   63.98491599
_symmetry_Int_Tables_number   1
_chemical_formula_structural   CuSb2(XeF4)6
_chemical_formula_sum   'Cu1 Sb2 Xe6 F24'
_cell_volume   706.63458797
_cell_formula_units_Z   1
loop_
 _symmetry_equiv_pos_site_id
 _symmetry_equiv_pos_as_xyz
  1  'x, y, z'
loop_
 _atom_site_type_symbol
 _atom_site_label
 _atom_site_symmetry_multiplicity
 _atom_site_fract_x
 _atom_site_fract_y
 _atom_site_fract_z
 _atom_site_occupancy
  Cu  Cu0  1  0.500000  0.500000  0.500000  1
  Sb  Sb1  1  0.752716  0.752716  0.752716  1
  Sb  Sb2  1  0.247284  0.247284  0.247284  1
  Xe  Xe3  1  0.721130  0.796407  0.235535  1
  Xe  Xe4  1  0.235535  0.721130  0.796407  1
  Xe  Xe5  1  0.203593  0.764465  0.278870  1
  Xe  Xe6  1  0.796407  0.235535  0.721130  1
  Xe  Xe7  1  0.764465  0.278870  0.203593  1
  Xe  Xe8  1  0.278870  0.203593  0.764465  1
  F  F9  1  0.132590  0.371697  0.090679  1
  F  F10  1  0.879746  0.600358  0.634054  1
  F  F11  1  0.292654  0.443599  0.615682  1
  F  F12  1  0.399642  0.365946  0.120254  1
  F  F13  1  0.019274  0.094191  0.737757  1
  F  F14  1  0.867410  0.628303  0.909321  1
  F  F15  1  0.615682  0.292654  0.443599  1
  F  F16  1  0.707346  0.556401  0.384318  1
  F  F17  1  0.980726  0.905809  0.262243  1
  F  F18  1  0.120254  0.399642  0.365946  1
  F  F19  1  0.443599  0.615682  0.292654  1
  F  F20  1  0.384318  0.707346  0.556401  1
  F  F21  1  0.905809  0.262243  0.980726  1
  F  F22  1  0.737757  0.019274  0.094191  1
  F  F23  1  0.628303  0.909321  0.867410  1
  F  F24  1  0.634054  0.879746  0.600358  1
  F  F25  1  0.600358  0.634054  0.879746  1
  F  F26  1  0.262243  0.980726  0.905809  1
  F  F27  1  0.365946  0.120254  0.399642  1
  F  F28  1  0.090679  0.132590  0.371697  1
  F  F29  1  0.556401  0.384318  0.707346  1
  F  F30  1  0.371697  0.090679  0.132590  1
  F  F31  1  0.909321  0.867410  0.628303  1
  F  F32  1  0.094191  0.737757  0.019274  1
