# generated using pymatgen
data_Rb4Nb2Si8O23
_symmetry_space_group_name_H-M   'P 1'
_cell_length_a   7.00142318
_cell_length_b   7.93049889
_cell_length_c   11.18867346
_cell_angle_alpha   76.35257653
_cell_angle_beta   89.16897764
_cell_angle_gamma   71.57357835
_symmetry_Int_Tables_number   1
_chemical_formula_structural   Rb4Nb2Si8O23
_chemical_formula_sum   'Rb4 Nb2 Si8 O23'
_cell_volume   571.53910732
_cell_formula_units_Z   1
loop_
 _symmetry_equiv_pos_site_id
 _symmetry_equiv_pos_as_xyz
  1  'x, y, z'
loop_
 _atom_site_type_symbol
 _atom_site_label
 _atom_site_symmetry_multiplicity
 _atom_site_fract_x
 _atom_site_fract_y
 _atom_site_fract_z
 _atom_site_occupancy
  Rb  Rb0  1  0.681948  0.280731  0.355577  1
  Rb  Rb1  1  0.318052  0.719269  0.644423  1
  Rb  Rb2  1  0.710283  0.220093  0.009888  1
  Rb  Rb3  1  0.289717  0.779907  0.990112  1
  Nb  Nb4  1  0.214063  0.258855  0.183172  1
  Nb  Nb5  1  0.785937  0.741145  0.816828  1
  Si  Si6  1  0.501913  0.194031  0.699220  1
  Si  Si7  1  0.498087  0.805969  0.300780  1
  Si  Si8  1  0.051555  0.867222  0.285672  1
  Si  Si9  1  0.948445  0.132778  0.714328  1
  Si  Si10  1  0.156685  0.298400  0.499070  1
  Si  Si11  1  0.843315  0.701600  0.500930  1
  Si  Si12  1  0.832954  0.672332  0.130767  1
  Si  Si13  1  0.167046  0.327668  0.869233  1
  O  O14  1  0.544359  0.977886  0.754621  1
  O  O15  1  0.455641  0.022114  0.245379  1
  O  O16  1  0.376206  0.312275  0.794412  1
  O  O17  1  0.623794  0.687725  0.205588  1
  O  O18  1  0.376892  0.275473  0.563068  1
  O  O19  1  0.623108  0.724527  0.436932  1
  O  O20  1  0.707936  0.250458  0.674648  1
  O  O21  1  0.292064  0.749542  0.325352  1
  O  O22  1  0.019027  0.075813  0.217153  1
  O  O23  1  0.980973  0.924187  0.782847  1
  O  O24  1  0.972320  0.759777  0.198537  1
  O  O25  1  0.027680  0.240223  0.801463  1
  O  O26  1  0.932380  0.855567  0.414796  1
  O  O27  1  0.067620  0.144433  0.585204  1
  O  O28  1  0.000000  0.500000  0.500000  1
  O  O29  1  0.182862  0.268113  0.363144  1
  O  O30  1  0.817138  0.731887  0.636856  1
  O  O31  1  0.943535  0.455686  0.141703  1
  O  O32  1  0.056465  0.544314  0.858297  1
  O  O33  1  0.779499  0.791461  0.989235  1
  O  O34  1  0.220501  0.208539  0.010765  1
  O  O35  1  0.374448  0.399099  0.147726  1
  O  O36  1  0.625552  0.600901  0.852274  1
