# generated using pymatgen
data_NbCl5
_symmetry_space_group_name_H-M   'P 1'
_cell_length_a   8.44681017
_cell_length_b   8.57188192
_cell_length_c   10.75808049
_cell_angle_alpha   90.00000000
_cell_angle_beta   90.00000000
_cell_angle_gamma   89.37102449
_symmetry_Int_Tables_number   1
_chemical_formula_structural   NbCl5
_chemical_formula_sum   'Nb4 Cl20'
_cell_volume   778.89252241
_cell_formula_units_Z   4
loop_
 _symmetry_equiv_pos_site_id
 _symmetry_equiv_pos_as_xyz
  1  'x, y, z'
loop_
 _atom_site_type_symbol
 _atom_site_label
 _atom_site_symmetry_multiplicity
 _atom_site_fract_x
 _atom_site_fract_y
 _atom_site_fract_z
 _atom_site_occupancy
  Nb  Nb0  1  0.551030  0.342451  0.134861  1
  Nb  Nb1  1  0.948970  0.157549  0.634861  1
  Nb  Nb2  1  0.051030  0.842451  0.365139  1
  Nb  Nb3  1  0.448970  0.657549  0.865139  1
  Cl  Cl4  1  0.129228  0.587387  0.382297  1
  Cl  Cl5  1  0.462297  0.631440  0.104642  1
  Cl  Cl6  1  0.782428  0.784160  0.379090  1
  Cl  Cl7  1  0.217572  0.215840  0.620910  1
  Cl  Cl8  1  0.629228  0.087387  0.117703  1
  Cl  Cl9  1  0.370772  0.912613  0.882297  1
  Cl  Cl10  1  0.691786  0.064886  0.614634  1
  Cl  Cl11  1  0.808214  0.435114  0.114634  1
  Cl  Cl12  1  0.457204  0.619801  0.654928  1
  Cl  Cl13  1  0.537703  0.368560  0.895358  1
  Cl  Cl14  1  0.191786  0.564886  0.885366  1
  Cl  Cl15  1  0.717572  0.715840  0.879090  1
  Cl  Cl16  1  0.957204  0.119801  0.845072  1
  Cl  Cl17  1  0.282428  0.284160  0.120910  1
  Cl  Cl18  1  0.037703  0.868560  0.604642  1
  Cl  Cl19  1  0.962297  0.131440  0.395358  1
  Cl  Cl20  1  0.542796  0.380199  0.345072  1
  Cl  Cl21  1  0.308214  0.935114  0.385366  1
  Cl  Cl22  1  0.870772  0.412613  0.617703  1
  Cl  Cl23  1  0.042796  0.880199  0.154928  1
