# generated using pymatgen
data_BSBr
_symmetry_space_group_name_H-M   'P 1'
_cell_length_a   4.95443598
_cell_length_b   14.68714502
_cell_length_c   18.34385528
_cell_angle_alpha   111.10061559
_cell_angle_beta   90.00000000
_cell_angle_gamma   90.00000000
_symmetry_Int_Tables_number   1
_chemical_formula_structural   BSBr
_chemical_formula_sum   'B12 S12 Br12'
_cell_volume   1245.31848180
_cell_formula_units_Z   12
loop_
 _symmetry_equiv_pos_site_id
 _symmetry_equiv_pos_as_xyz
  1  'x, y, z'
loop_
 _atom_site_type_symbol
 _atom_site_label
 _atom_site_symmetry_multiplicity
 _atom_site_fract_x
 _atom_site_fract_y
 _atom_site_fract_z
 _atom_site_occupancy
  B  B0  1  0.738837  0.944424  0.769034  1
  B  B1  1  0.154130  0.651824  0.899703  1
  B  B2  1  0.845870  0.348176  0.100297  1
  B  B3  1  0.659881  0.551415  0.163941  1
  B  B4  1  0.340119  0.448585  0.836059  1
  B  B5  1  0.840119  0.051415  0.663941  1
  B  B6  1  0.761163  0.444424  0.269034  1
  B  B7  1  0.261163  0.055576  0.230966  1
  B  B8  1  0.654130  0.848176  0.600297  1
  B  B9  1  0.238837  0.555576  0.730966  1
  B  B10  1  0.345870  0.151824  0.399703  1
  B  B11  1  0.159881  0.948585  0.336059  1
  S  S12  1  0.355756  0.441483  0.735773  1
  S  S13  1  0.634044  0.832442  0.693353  1
  S  S14  1  0.855756  0.058517  0.764227  1
  S  S15  1  0.865956  0.332442  0.193353  1
  S  S16  1  0.365956  0.167558  0.306647  1
  S  S17  1  0.134044  0.667558  0.806647  1
  S  S18  1  0.255814  0.047322  0.424233  1
  S  S19  1  0.144244  0.941483  0.235773  1
  S  S20  1  0.244186  0.547322  0.924233  1
  S  S21  1  0.755814  0.452678  0.075767  1
  S  S22  1  0.744186  0.952678  0.575767  1
  S  S23  1  0.644244  0.558517  0.264227  1
  Br  Br24  1  0.440790  0.266327  0.488379  1
  Br  Br25  1  0.273559  0.058648  0.126710  1
  Br  Br26  1  0.053761  0.830736  0.351711  1
  Br  Br27  1  0.559210  0.733673  0.511621  1
  Br  Br28  1  0.773559  0.441352  0.373290  1
  Br  Br29  1  0.059210  0.766327  0.988379  1
  Br  Br30  1  0.940790  0.233673  0.011621  1
  Br  Br31  1  0.446239  0.330736  0.851711  1
  Br  Br32  1  0.946239  0.169264  0.648289  1
  Br  Br33  1  0.226441  0.558648  0.626710  1
  Br  Br34  1  0.726441  0.941352  0.873290  1
  Br  Br35  1  0.553761  0.669264  0.148289  1
