# generated using pymatgen
data_FeMoO4
_symmetry_space_group_name_H-M   'P 1'
_cell_length_a   6.67784355
_cell_length_b   6.67784314
_cell_length_c   7.84016029
_cell_angle_alpha   72.54326728
_cell_angle_beta   72.54326840
_cell_angle_gamma   86.71001020
_symmetry_Int_Tables_number   1
_chemical_formula_structural   FeMoO4
_chemical_formula_sum   'Fe4 Mo4 O16'
_cell_volume   317.95382648
_cell_formula_units_Z   4
loop_
 _symmetry_equiv_pos_site_id
 _symmetry_equiv_pos_as_xyz
  1  'x, y, z'
loop_
 _atom_site_type_symbol
 _atom_site_label
 _atom_site_symmetry_multiplicity
 _atom_site_fract_x
 _atom_site_fract_y
 _atom_site_fract_z
 _atom_site_occupancy
  Fe  Fe0  1  0.300361  0.300361  0.848986  1
  Fe  Fe1  1  0.699639  0.699639  0.151014  1
  Fe  Fe2  1  0.305251  0.694749  0.500000  1
  Fe  Fe3  1  0.694749  0.305251  0.500000  1
  Mo  Mo4  1  0.710309  0.710309  0.639113  1
  Mo  Mo5  1  0.289691  0.289691  0.360887  1
  Mo  Mo6  1  0.710722  0.289278  0.000000  1
  Mo  Mo7  1  0.289278  0.710722  1.000000  1
  O  O8  1  0.647685  0.360510  0.240563  1
  O  O9  1  0.983050  0.681673  0.584852  1
  O  O10  1  0.360510  0.647685  0.240563  1
  O  O11  1  0.315781  0.996886  0.923692  1
  O  O12  1  0.649185  0.649185  0.917214  1
  O  O13  1  0.341977  0.341977  0.570027  1
  O  O14  1  0.681673  0.983050  0.584852  1
  O  O15  1  0.996886  0.315781  0.923692  1
  O  O16  1  0.658023  0.658023  0.429973  1
  O  O17  1  0.350815  0.350815  0.082786  1
  O  O18  1  0.016950  0.318327  0.415148  1
  O  O19  1  0.003114  0.684219  0.076308  1
  O  O20  1  0.318327  0.016950  0.415148  1
  O  O21  1  0.352315  0.639490  0.759437  1
  O  O22  1  0.639490  0.352315  0.759437  1
  O  O23  1  0.684219  0.003114  0.076308  1
