# generated using pymatgen
data_CsTlBr4
_symmetry_space_group_name_H-M   'P 1'
_cell_length_a   7.02119658
_cell_length_b   7.96685237
_cell_length_c   18.48919861
_cell_angle_alpha   90.00000000
_cell_angle_beta   90.00000000
_cell_angle_gamma   90.00000000
_symmetry_Int_Tables_number   1
_chemical_formula_structural   CsTlBr4
_chemical_formula_sum   'Cs4 Tl4 Br16'
_cell_volume   1034.22728176
_cell_formula_units_Z   4
loop_
 _symmetry_equiv_pos_site_id
 _symmetry_equiv_pos_as_xyz
  1  'x, y, z'
loop_
 _atom_site_type_symbol
 _atom_site_label
 _atom_site_symmetry_multiplicity
 _atom_site_fract_x
 _atom_site_fract_y
 _atom_site_fract_z
 _atom_site_occupancy
  Cs  Cs0  1  0.082182  0.528919  0.367105  1
  Cs  Cs1  1  0.917818  0.028919  0.132895  1
  Cs  Cs2  1  0.417818  0.471081  0.867105  1
  Cs  Cs3  1  0.582182  0.971081  0.632895  1
  Tl  Tl4  1  0.583928  0.962114  0.370695  1
  Tl  Tl5  1  0.916072  0.037886  0.870695  1
  Tl  Tl6  1  0.416072  0.462114  0.129305  1
  Tl  Tl7  1  0.083928  0.537886  0.629305  1
  Br  Br8  1  0.572136  0.689875  0.047197  1
  Br  Br9  1  0.927864  0.310125  0.547197  1
  Br  Br10  1  0.084590  0.820095  0.554583  1
  Br  Br11  1  0.415410  0.179905  0.054583  1
  Br  Br12  1  0.427864  0.189875  0.452803  1
  Br  Br13  1  0.075863  0.097071  0.745386  1
  Br  Br14  1  0.054676  0.532631  0.155952  1
  Br  Br15  1  0.584590  0.679905  0.445417  1
  Br  Br16  1  0.924137  0.597071  0.754614  1
  Br  Br17  1  0.072136  0.810125  0.952803  1
  Br  Br18  1  0.424137  0.902929  0.245386  1
  Br  Br19  1  0.915410  0.320095  0.945417  1
  Br  Br20  1  0.554676  0.967369  0.844048  1
  Br  Br21  1  0.575863  0.402929  0.254614  1
  Br  Br22  1  0.445324  0.467369  0.655952  1
  Br  Br23  1  0.945324  0.032631  0.344048  1
