# generated using pymatgen
data_Cs3SrCu2C7(SN)7
_symmetry_space_group_name_H-M   'P 1'
_cell_length_a   10.99308809
_cell_length_b   10.99308740
_cell_length_c   12.76558528
_cell_angle_alpha   115.50065440
_cell_angle_beta   115.50065382
_cell_angle_gamma   90.00682758
_symmetry_Int_Tables_number   1
_chemical_formula_structural   Cs3SrCu2C7(SN)7
_chemical_formula_sum   'Cs6 Sr2 Cu4 C14 S14 N14'
_cell_volume   1223.75548394
_cell_formula_units_Z   2
loop_
 _symmetry_equiv_pos_site_id
 _symmetry_equiv_pos_as_xyz
  1  'x, y, z'
loop_
 _atom_site_type_symbol
 _atom_site_label
 _atom_site_symmetry_multiplicity
 _atom_site_fract_x
 _atom_site_fract_y
 _atom_site_fract_z
 _atom_site_occupancy
  Cs  Cs0  1  0.937174  0.461729  0.398870  1
  Cs  Cs1  1  0.461729  0.937174  0.398870  1
  Cs  Cs2  1  0.499992  -0.000000  -0.000014  1
  Cs  Cs3  1  0.538362  0.538362  0.601182  1
  Cs  Cs4  1  -0.000000  0.499992  -0.000014  1
  Cs  Cs5  1  0.062760  0.062760  0.601074  1
  Sr  Sr6  1  0.903954  0.903954  0.807948  1
  Sr  Sr7  1  0.096035  0.096035  0.192026  1
  Cu  Cu8  1  0.451451  0.451451  0.198108  1
  Cu  Cu9  1  0.253297  0.548511  0.801939  1
  Cu  Cu10  1  0.746854  0.746854  0.198188  1
  Cu  Cu11  1  0.548511  0.253297  0.801939  1
  C  C12  1  0.539063  0.929885  0.708313  1
  C  C13  1  0.293417  0.293417  0.586714  1
  C  C14  1  0.205953  0.205953  0.991831  1
  C  C15  1  0.460760  0.221294  0.291542  1
  C  C16  1  0.929885  0.539063  0.708313  1
  C  C17  1  0.830902  0.070249  0.291640  1
  C  C18  1  0.794061  0.214100  0.008188  1
  C  C19  1  0.778535  0.169213  0.708414  1
  C  C20  1  0.785891  0.785891  0.991823  1
  C  C21  1  0.169213  0.778535  0.708414  1
  C  C22  1  0.706614  0.706614  0.413325  1
  C  C23  1  0.221294  0.460760  0.291542  1
  C  C24  1  0.070249  0.830902  0.291640  1
  C  C25  1  0.214100  0.794061  0.008188  1
  S  S26  1  0.577917  0.329133  0.306344  1
  S  S27  1  0.977254  0.728506  0.306443  1
  S  S28  1  0.303477  0.303477  0.975912  1
  S  S29  1  0.329133  0.577917  0.306344  1
  S  S30  1  0.375455  0.375455  0.750874  1
  S  S31  1  0.696501  0.327521  0.024124  1
  S  S32  1  0.271593  0.670737  0.693624  1
  S  S33  1  0.670737  0.271593  0.693624  1
  S  S34  1  0.728506  0.977254  0.306443  1
  S  S35  1  0.421879  0.022883  0.693529  1
  S  S36  1  0.624623  0.624623  0.249178  1
  S  S37  1  0.672450  0.672450  0.975938  1
  S  S38  1  0.022883  0.421879  0.693529  1
  S  S39  1  0.327521  0.696501  0.024124  1
  N  N40  1  0.866696  0.134691  1.001373  1
  N  N41  1  0.134691  0.866696  1.001373  1
  N  N42  1  0.235061  0.235061  0.470003  1
  N  N43  1  0.856653  0.095604  0.719661  1
  N  N44  1  0.375900  0.143182  0.280305  1
  N  N45  1  0.133329  0.133329  -0.001370  1
  N  N46  1  0.623968  0.863059  0.719622  1
  N  N47  1  0.137100  0.904494  0.280362  1
  N  N48  1  0.863059  0.623968  0.719622  1
  N  N49  1  0.865315  0.865315  -0.001379  1
  N  N50  1  0.904494  0.137100  0.280362  1
  N  N51  1  0.764963  0.764963  0.530063  1
  N  N52  1  0.143182  0.375900  0.280305  1
  N  N53  1  0.095604  0.856653  0.719661  1
