# generated using pymatgen
data_BH8CN
_symmetry_space_group_name_H-M   'P 1'
_cell_length_a   5.03895528
_cell_length_b   6.64933880
_cell_length_c   11.41064306
_cell_angle_alpha   90.00000000
_cell_angle_beta   90.00000000
_cell_angle_gamma   90.00000000
_symmetry_Int_Tables_number   1
_chemical_formula_structural   BH8CN
_chemical_formula_sum   'B4 H32 C4 N4'
_cell_volume   382.32182114
_cell_formula_units_Z   4
loop_
 _symmetry_equiv_pos_site_id
 _symmetry_equiv_pos_as_xyz
  1  'x, y, z'
loop_
 _atom_site_type_symbol
 _atom_site_label
 _atom_site_symmetry_multiplicity
 _atom_site_fract_x
 _atom_site_fract_y
 _atom_site_fract_z
 _atom_site_occupancy
  B  B0  1  0.819382  0.250000  0.467517  1
  B  B1  1  0.680618  0.250000  0.967517  1
  B  B2  1  0.180618  0.750000  0.532483  1
  B  B3  1  0.319382  0.750000  0.032483  1
  H  H4  1  0.054645  0.383733  0.256989  1
  H  H5  1  0.289032  0.599260  0.571598  1
  H  H6  1  0.362466  0.250000  0.268904  1
  H  H7  1  0.217126  0.373636  0.456201  1
  H  H8  1  0.637534  0.750000  0.731096  1
  H  H9  1  0.945355  0.616267  0.743011  1
  H  H10  1  0.176443  0.750000  0.425397  1
  H  H11  1  0.054645  0.116267  0.256989  1
  H  H12  1  0.554645  0.883733  0.243011  1
  H  H13  1  0.862466  0.750000  0.231096  1
  H  H14  1  0.782874  0.873636  0.543799  1
  H  H15  1  0.445355  0.383733  0.756989  1
  H  H16  1  0.710968  0.400740  0.428402  1
  H  H17  1  0.676443  0.250000  0.074603  1
  H  H18  1  0.782874  0.626364  0.543799  1
  H  H19  1  0.554645  0.616267  0.243011  1
  H  H20  1  0.282874  0.126364  0.956201  1
  H  H21  1  0.282874  0.373636  0.956201  1
  H  H22  1  0.210968  0.599260  0.071598  1
  H  H23  1  0.137534  0.250000  0.768904  1
  H  H24  1  0.323557  0.750000  0.925397  1
  H  H25  1  0.217126  0.126364  0.456201  1
  H  H26  1  0.789032  0.400740  0.928402  1
  H  H27  1  0.289032  0.900740  0.571598  1
  H  H28  1  0.210968  0.900740  0.071598  1
  H  H29  1  0.717126  0.873636  0.043799  1
  H  H30  1  0.823557  0.250000  0.574603  1
  H  H31  1  0.710968  0.099260  0.428402  1
  H  H32  1  0.789032  0.099260  0.928402  1
  H  H33  1  0.445355  0.116267  0.756989  1
  H  H34  1  0.945355  0.883733  0.743011  1
  H  H35  1  0.717126  0.626364  0.043799  1
  C  C36  1  0.848273  0.750000  0.707005  1
  C  C37  1  0.651727  0.750000  0.207005  1
  C  C38  1  0.348273  0.250000  0.792995  1
  C  C39  1  0.151727  0.250000  0.292995  1
  N  N40  1  0.120367  0.250000  0.422362  1
  N  N41  1  0.879633  0.750000  0.577638  1
  N  N42  1  0.620367  0.750000  0.077638  1
  N  N43  1  0.379633  0.250000  0.922362  1
