# generated using pymatgen
data_SrLi2Nb2O7
_symmetry_space_group_name_H-M   'P 1'
_cell_length_a   5.66558279
_cell_length_b   5.67659730
_cell_length_c   9.59698203
_cell_angle_alpha   107.20246725
_cell_angle_beta   90.00000000
_cell_angle_gamma   90.00000000
_symmetry_Int_Tables_number   1
_chemical_formula_structural   SrLi2Nb2O7
_chemical_formula_sum   'Sr2 Li4 Nb4 O14'
_cell_volume   294.84346681
_cell_formula_units_Z   2
loop_
 _symmetry_equiv_pos_site_id
 _symmetry_equiv_pos_as_xyz
  1  'x, y, z'
loop_
 _atom_site_type_symbol
 _atom_site_label
 _atom_site_symmetry_multiplicity
 _atom_site_fract_x
 _atom_site_fract_y
 _atom_site_fract_z
 _atom_site_occupancy
  Sr  Sr0  1  0.750000  0.255062  0.000000  1
  Sr  Sr1  1  0.250000  0.744938  1.000000  1
  Li  Li2  1  0.000000  0.738416  0.476831  1
  Li  Li3  1  0.000000  0.261584  0.523169  1
  Li  Li4  1  0.500000  0.261584  0.523169  1
  Li  Li5  1  0.500000  0.738416  0.476831  1
  Nb  Nb6  1  0.250000  0.130788  0.769225  1
  Nb  Nb7  1  0.750000  0.638437  0.769225  1
  Nb  Nb8  1  0.750000  0.869212  0.230775  1
  Nb  Nb9  1  0.250000  0.361563  0.230775  1
  O  O10  1  0.000000  0.383688  0.767377  1
  O  O11  1  0.500000  0.094802  0.189604  1
  O  O12  1  0.500000  0.616312  0.232623  1
  O  O13  1  0.750000  0.999298  0.436462  1
  O  O14  1  0.250000  0.296984  1.000000  1
  O  O15  1  0.000000  0.094802  0.189604  1
  O  O16  1  0.500000  0.383688  0.767377  1
  O  O17  1  0.250000  0.437164  0.436462  1
  O  O18  1  0.750000  0.703016  0.000000  1
  O  O19  1  0.750000  0.562836  0.563538  1
  O  O20  1  0.000000  0.616312  0.232623  1
  O  O21  1  0.250000  0.000702  0.563538  1
  O  O22  1  0.000000  0.905198  0.810396  1
  O  O23  1  0.500000  0.905198  0.810396  1
