# generated using pymatgen
data_CdH12C4Br3N
_symmetry_space_group_name_H-M   'P 1'
_cell_length_a   9.49159388
_cell_length_b   9.49159369
_cell_length_c   21.67276039
_cell_angle_alpha   90.00000000
_cell_angle_beta   90.00000000
_cell_angle_gamma   120.00000067
_symmetry_Int_Tables_number   1
_chemical_formula_structural   CdH12C4Br3N
_chemical_formula_sum   'Cd6 H72 C24 Br18 N6'
_cell_volume   1690.92032733
_cell_formula_units_Z   6
loop_
 _symmetry_equiv_pos_site_id
 _symmetry_equiv_pos_as_xyz
  1  'x, y, z'
loop_
 _atom_site_type_symbol
 _atom_site_label
 _atom_site_symmetry_multiplicity
 _atom_site_fract_x
 _atom_site_fract_y
 _atom_site_fract_z
 _atom_site_occupancy
  Cd  Cd0  1  0.980561  0.979070  0.499198  1
  Cd  Cd1  1  0.998509  0.019439  0.165865  1
  Cd  Cd2  1  0.001491  0.980561  0.665865  1
  Cd  Cd3  1  0.020930  0.001491  0.832531  1
  Cd  Cd4  1  0.979070  0.998509  0.332531  1
  Cd  Cd5  1  0.019439  0.020930  0.999198  1
  H  H6  1  0.258207  0.773269  0.691415  1
  H  H7  1  0.321148  0.662309  0.319741  1
  H  H8  1  0.658839  0.321148  0.486408  1
  H  H9  1  0.485800  0.876187  0.797886  1
  H  H10  1  0.375481  0.525008  0.355259  1
  H  H11  1  0.700455  0.328554  0.679444  1
  H  H12  1  0.741793  0.226731  0.191415  1
  H  H13  1  0.547022  0.088318  0.921695  1
  H  H14  1  0.731482  0.211936  0.305354  1
  H  H15  1  0.486065  0.928186  0.120173  1
  H  H16  1  0.458704  0.547022  0.088362  1
  H  H17  1  0.662309  0.341161  0.153075  1
  H  H18  1  0.337691  0.658839  0.653075  1
  H  H19  1  0.427677  0.265789  0.546117  1
  H  H20  1  0.878116  0.592637  0.927719  1
  H  H21  1  0.328554  0.628099  0.512777  1
  H  H22  1  0.911682  0.458704  0.255029  1
  H  H23  1  0.850473  0.375481  0.521926  1
  H  H24  1  0.299545  0.671446  0.179444  1
  H  H25  1  0.341161  0.678852  0.986408  1
  H  H26  1  0.285479  0.878116  0.094386  1
  H  H27  1  0.788064  0.519546  0.638687  1
  H  H28  1  0.628099  0.299545  0.346111  1
  H  H29  1  0.522040  0.444630  0.206538  1
  H  H30  1  0.541296  0.452978  0.588362  1
  H  H31  1  0.671446  0.371901  0.012777  1
  H  H32  1  0.452978  0.911682  0.421695  1
  H  H33  1  0.444630  0.922590  0.039871  1
  H  H34  1  0.434526  0.261230  0.628530  1
  H  H35  1  0.161888  0.427677  0.712784  1
  H  H36  1  0.876187  0.390387  0.631219  1
  H  H37  1  0.484938  0.258207  0.858081  1
  H  H38  1  0.371901  0.700455  0.846111  1
  H  H39  1  0.513935  0.071814  0.620173  1
  H  H40  1  0.226731  0.484938  0.024748  1
  H  H41  1  0.211936  0.480454  0.138687  1
  H  H42  1  0.565474  0.738770  0.128530  1
  H  H43  1  0.407363  0.285479  0.261053  1
  H  H44  1  0.480454  0.268518  0.972020  1
  H  H45  1  0.442121  0.513935  0.786840  1
  H  H46  1  0.390387  0.514200  0.464552  1
  H  H47  1  0.572323  0.734211  0.046117  1
  H  H48  1  0.555370  0.077410  0.539871  1
  H  H49  1  0.738770  0.173296  0.961863  1
  H  H50  1  0.734211  0.161888  0.879450  1
  H  H51  1  0.268518  0.788064  0.805354  1
  H  H52  1  0.515062  0.741793  0.358081  1
  H  H53  1  0.514200  0.123813  0.297886  1
  H  H54  1  0.265789  0.838112  0.379450  1
  H  H55  1  0.678852  0.337691  0.819741  1
  H  H56  1  0.173296  0.434526  0.795197  1
  H  H57  1  0.525008  0.149527  0.188593  1
  H  H58  1  0.149527  0.624519  0.021926  1
  H  H59  1  0.592637  0.714521  0.761053  1
  H  H60  1  0.519546  0.731482  0.472020  1
  H  H61  1  0.773269  0.515062  0.524748  1
  H  H62  1  0.071814  0.557879  0.453506  1
  H  H63  1  0.474992  0.850473  0.688593  1
  H  H64  1  0.624519  0.474992  0.855259  1
  H  H65  1  0.477960  0.555370  0.706538  1
  H  H66  1  0.826704  0.565474  0.295197  1
  H  H67  1  0.088318  0.541296  0.755029  1
  H  H68  1  0.928186  0.442121  0.953506  1
  H  H69  1  0.077410  0.522040  0.373204  1
  H  H70  1  0.922590  0.477960  0.873204  1
  H  H71  1  0.714521  0.121884  0.594386  1
  H  H72  1  0.121884  0.407363  0.427719  1
  H  H73  1  0.261230  0.826704  0.461863  1
  H  H74  1  0.557879  0.486065  0.286840  1
  H  H75  1  0.123813  0.609613  0.131219  1
  H  H76  1  0.838112  0.572323  0.212784  1
  H  H77  1  0.609613  0.485800  0.964552  1
  C  C78  1  0.258489  0.612997  0.024674  1
  C  C79  1  0.237113  0.606274  0.137427  1
  C  C80  1  0.676167  0.179672  0.920200  1
  C  C81  1  0.323833  0.820328  0.420200  1
  C  C82  1  0.867732  0.474774  0.917968  1
  C  C83  1  0.369161  0.762887  0.804094  1
  C  C84  1  0.820328  0.496494  0.253534  1
  C  C85  1  0.132268  0.525226  0.417968  1
  C  C86  1  0.645492  0.258489  0.191341  1
  C  C87  1  0.606274  0.369161  0.970760  1
  C  C88  1  0.179672  0.503506  0.753534  1
  C  C89  1  0.503506  0.323833  0.586867  1
  C  C90  1  0.607042  0.132268  0.584635  1
  C  C91  1  0.393726  0.630839  0.470760  1
  C  C92  1  0.354508  0.741511  0.691341  1
  C  C93  1  0.741511  0.387003  0.524674  1
  C  C94  1  0.525226  0.392958  0.251302  1
  C  C95  1  0.474774  0.607042  0.751302  1
  C  C96  1  0.762887  0.393726  0.637427  1
  C  C97  1  0.392958  0.867732  0.084635  1
  C  C98  1  0.630839  0.237113  0.304094  1
  C  C99  1  0.612997  0.354508  0.858007  1
  C  C100  1  0.387003  0.645492  0.358007  1
  C  C101  1  0.496494  0.676167  0.086867  1
  Br  Br102  1  0.756734  0.843468  0.918241  1
  Br  Br103  1  0.083195  0.270252  0.253119  1
  Br  Br104  1  0.852503  0.128615  0.077037  1
  Br  Br105  1  0.729748  0.812943  0.586452  1
  Br  Br106  1  0.723888  0.852503  0.243704  1
  Br  Br107  1  0.916805  0.729748  0.753119  1
  Br  Br108  1  0.843468  0.086735  0.751575  1
  Br  Br109  1  0.086735  0.243266  0.584908  1
  Br  Br110  1  0.243266  0.156532  0.418241  1
  Br  Br111  1  0.871385  0.723888  0.410370  1
  Br  Br112  1  0.156532  0.913265  0.251575  1
  Br  Br113  1  0.276112  0.147497  0.743704  1
  Br  Br114  1  0.913265  0.756734  0.084908  1
  Br  Br115  1  0.128615  0.276112  0.910370  1
  Br  Br116  1  0.147497  0.871385  0.577037  1
  Br  Br117  1  0.270252  0.187057  0.086452  1
  Br  Br118  1  0.187057  0.916805  0.919785  1
  Br  Br119  1  0.812943  0.083195  0.419785  1
  N  N120  1  0.655257  0.346479  0.250097  1
  N  N121  1  0.346479  0.691222  0.083430  1
  N  N122  1  0.653521  0.308778  0.583430  1
  N  N123  1  0.691222  0.344743  0.916763  1
  N  N124  1  0.308778  0.655257  0.416763  1
  N  N125  1  0.344743  0.653521  0.750097  1
