# generated using pymatgen
data_K2Th(MoO4)3
_symmetry_space_group_name_H-M   'P 1'
_cell_length_a   5.53415840
_cell_length_b   11.13803824
_cell_length_c   11.13803820
_cell_angle_alpha   66.08127815
_cell_angle_beta   79.82364623
_cell_angle_gamma   79.82364468
_symmetry_Int_Tables_number   1
_chemical_formula_structural   K2Th(MoO4)3
_chemical_formula_sum   'K4 Th2 Mo6 O24'
_cell_volume   613.48831780
_cell_formula_units_Z   2
loop_
 _symmetry_equiv_pos_site_id
 _symmetry_equiv_pos_as_xyz
  1  'x, y, z'
loop_
 _atom_site_type_symbol
 _atom_site_label
 _atom_site_symmetry_multiplicity
 _atom_site_fract_x
 _atom_site_fract_y
 _atom_site_fract_z
 _atom_site_occupancy
  Th  Th0  1  0.250000  0.868418  0.131582  1
  Th  Th1  1  0.750000  0.131582  0.868418  1
  Mo  Mo2  1  0.250000  0.597137  0.402863  1
  Mo  Mo3  1  0.750000  0.402863  0.597137  1
  Mo  Mo4  1  0.872194  0.746720  0.957376  1
  Mo  Mo5  1  0.627806  0.042624  0.253280  1
  Mo  Mo6  1  0.127806  0.253280  0.042624  1
  Mo  Mo7  1  0.372194  0.957376  0.746720  1
  K  K8  1  0.508698  0.568970  0.801061  1
  K  K9  1  0.991302  0.198939  0.431030  1
  K  K10  1  0.491302  0.431030  0.198939  1
  K  K11  1  0.008698  0.801061  0.568970  1
  O  O12  1  0.631213  0.885207  0.979494  1
  O  O13  1  0.868787  0.020506  0.114793  1
  O  O14  1  0.368787  0.114793  0.020506  1
  O  O15  1  0.131213  0.979494  0.885207  1
  O  O16  1  0.135342  0.455012  0.406964  1
  O  O17  1  0.364658  0.593036  0.544988  1
  O  O18  1  0.864658  0.544988  0.593036  1
  O  O19  1  0.635342  0.406964  0.455012  1
  O  O20  1  0.083559  0.774600  0.810150  1
  O  O21  1  0.416441  0.189850  0.225400  1
  O  O22  1  0.916441  0.225400  0.189850  1
  O  O23  1  0.583559  0.810150  0.774600  1
  O  O24  1  0.750636  0.598302  -0.000113  1
  O  O25  1  0.749364  1.000113  0.401698  1
  O  O26  1  0.249364  0.401698  1.000113  1
  O  O27  1  0.250636  -0.000113  0.598302  1
  O  O28  1  0.462769  0.661342  0.248871  1
  O  O29  1  0.037231  0.751129  0.338658  1
  O  O30  1  0.537231  0.338658  0.751129  1
  O  O31  1  0.962769  0.248871  0.661342  1
  O  O32  1  0.925924  0.282651  0.919266  1
  O  O33  1  0.574076  0.080734  0.717349  1
  O  O34  1  0.074076  0.717349  0.080734  1
  O  O35  1  0.425924  0.919266  0.282651  1
