# generated using pymatgen
data_Sc5(Co2Si5)2
_symmetry_space_group_name_H-M   'P 1'
_cell_length_a   3.94131805
_cell_length_b   12.01260479
_cell_length_c   12.01260479
_cell_angle_alpha   90.00000000
_cell_angle_beta   90.00000000
_cell_angle_gamma   90.00000000
_symmetry_Int_Tables_number   1
_chemical_formula_structural   Sc5(Co2Si5)2
_chemical_formula_sum   'Sc10 Co8 Si20'
_cell_volume   568.74273307
_cell_formula_units_Z   2
loop_
 _symmetry_equiv_pos_site_id
 _symmetry_equiv_pos_as_xyz
  1  'x, y, z'
loop_
 _atom_site_type_symbol
 _atom_site_label
 _atom_site_symmetry_multiplicity
 _atom_site_fract_x
 _atom_site_fract_y
 _atom_site_fract_z
 _atom_site_occupancy
  Sc  Sc0  1  -0.000000  -0.000000  -0.000000  1
  Sc  Sc1  1  0.000000  0.500000  0.500000  1
  Sc  Sc2  1  0.500000  0.176231  0.676231  1
  Sc  Sc3  1  0.500000  0.323769  0.176231  1
  Sc  Sc4  1  0.500000  0.676231  0.823769  1
  Sc  Sc5  1  0.500000  0.823769  0.323769  1
  Sc  Sc6  1  0.500000  0.388457  0.888457  1
  Sc  Sc7  1  0.500000  0.111543  0.388457  1
  Sc  Sc8  1  0.500000  0.888457  0.611543  1
  Sc  Sc9  1  0.500000  0.611543  0.111543  1
  Co  Co10  1  0.000000  0.254043  0.524313  1
  Co  Co11  1  0.000000  0.475687  0.254043  1
  Co  Co12  1  -0.000000  0.524313  0.745957  1
  Co  Co13  1  -0.000000  0.745957  0.475687  1
  Co  Co14  1  -0.000000  0.754043  0.975687  1
  Co  Co15  1  0.000000  0.245957  0.024313  1
  Co  Co16  1  -0.000000  0.024313  0.754043  1
  Co  Co17  1  0.000000  0.975687  0.245957  1
  Si  Si18  1  0.000000  0.068171  0.568171  1
  Si  Si19  1  -0.000000  0.431829  0.068171  1
  Si  Si20  1  0.000000  0.568171  0.931829  1
  Si  Si21  1  -0.000000  0.931829  0.431829  1
  Si  Si22  1  0.000000  0.156803  0.198057  1
  Si  Si23  1  0.000000  0.801943  0.156803  1
  Si  Si24  1  -0.000000  0.198057  0.843197  1
  Si  Si25  1  -0.000000  0.843197  0.801943  1
  Si  Si26  1  -0.000000  0.656803  0.301943  1
  Si  Si27  1  0.000000  0.343197  0.698057  1
  Si  Si28  1  -0.000000  0.698057  0.656803  1
  Si  Si29  1  0.000000  0.301943  0.343197  1
  Si  Si30  1  0.500000  0.163734  0.002009  1
  Si  Si31  1  0.500000  0.997991  0.163734  1
  Si  Si32  1  0.500000  0.002009  0.836266  1
  Si  Si33  1  0.500000  0.836266  0.997991  1
  Si  Si34  1  0.500000  0.663734  0.497991  1
  Si  Si35  1  0.500000  0.336266  0.502009  1
  Si  Si36  1  0.500000  0.502009  0.663734  1
  Si  Si37  1  0.500000  0.497991  0.336266  1
