# generated using pymatgen
data_InSi2P(H3C)8
_symmetry_space_group_name_H-M   'P 1'
_cell_length_a   9.47754558
_cell_length_b   9.87539750
_cell_length_c   9.98140232
_cell_angle_alpha   77.08513806
_cell_angle_beta   80.69988820
_cell_angle_gamma   64.48456150
_symmetry_Int_Tables_number   1
_chemical_formula_structural   InSi2P(H3C)8
_chemical_formula_sum   'In2 Si4 P2 H48 C16'
_cell_volume   819.49394252
_cell_formula_units_Z   2
loop_
 _symmetry_equiv_pos_site_id
 _symmetry_equiv_pos_as_xyz
  1  'x, y, z'
loop_
 _atom_site_type_symbol
 _atom_site_label
 _atom_site_symmetry_multiplicity
 _atom_site_fract_x
 _atom_site_fract_y
 _atom_site_fract_z
 _atom_site_occupancy
  In  In0  1  0.461521  0.352631  0.427587  1
  In  In1  1  0.538479  0.647369  0.572413  1
  Si  Si2  1  0.749633  0.189989  0.740724  1
  Si  Si3  1  0.250367  0.810011  0.259276  1
  Si  Si4  1  0.322914  0.371828  0.835855  1
  Si  Si5  1  0.677086  0.628172  0.164145  1
  P  P6  1  0.482221  0.619661  0.327812  1
  P  P7  1  0.517779  0.380339  0.672188  1
  H  H8  1  0.916706  0.298743  0.574234  1
  H  H9  1  0.867053  0.524868  0.530788  1
  H  H10  1  0.234404  0.850433  0.649837  1
  H  H11  1  0.208357  0.273688  0.484174  1
  H  H12  1  0.729165  0.217222  0.989998  1
  H  H13  1  0.083294  0.701257  0.425766  1
  H  H14  1  0.765596  0.149567  0.350163  1
  H  H15  1  0.366513  0.100822  0.842566  1
  H  H16  1  0.633487  0.899178  0.157434  1
  H  H17  1  0.270835  0.782778  0.010002  1
  H  H18  1  0.791643  0.726312  0.515826  1
  H  H19  1  0.649375  0.992689  0.861809  1
  H  H20  1  0.415139  0.429123  0.031129  1
  H  H21  1  0.230247  0.226917  0.720605  1
  H  H22  1  0.827732  0.345700  0.182684  1
  H  H23  1  0.122430  0.828976  0.498674  1
  H  H24  1  0.517367  0.770734  0.959765  1
  H  H25  1  0.829312  0.787554  0.100428  1
  H  H26  1  0.926649  0.129076  0.923269  1
  H  H27  1  0.820929  0.329578  0.880652  1
  H  H28  1  0.642201  0.050454  0.410698  1
  H  H29  1  0.704019  0.977732  0.684907  1
  H  H30  1  0.371413  0.840732  0.758619  1
  H  H31  1  0.805381  0.610308  0.681651  1
  H  H32  1  0.715223  0.661638  0.909098  1
  H  H33  1  0.284777  0.338362  0.090902  1
  H  H34  1  0.149420  0.091788  0.196159  1
  H  H35  1  0.073351  0.870924  0.076731  1
  H  H36  1  0.950028  0.444564  0.118245  1
  H  H37  1  0.049972  0.555436  0.881755  1
  H  H38  1  0.295981  0.022268  0.315093  1
  H  H39  1  0.170688  0.212446  0.899572  1
  H  H40  1  0.018088  0.099323  0.626332  1
  H  H41  1  0.172268  0.654300  0.817316  1
  H  H42  1  0.357799  0.949546  0.589302  1
  H  H43  1  0.132947  0.475132  0.469212  1
  H  H44  1  0.981912  0.900677  0.373668  1
  H  H45  1  0.179071  0.670422  0.119348  1
  H  H46  1  0.894462  0.416615  0.297405  1
  H  H47  1  0.628587  0.159268  0.241381  1
  H  H48  1  0.194619  0.389692  0.318349  1
  H  H49  1  0.850580  0.908212  0.803841  1
  H  H50  1  0.105538  0.583385  0.702595  1
  H  H51  1  0.769753  0.773083  0.279395  1
  H  H52  1  0.350625  0.007311  0.138191  1
  H  H53  1  0.584861  0.570877  0.968871  1
  H  H54  1  0.877570  0.171024  0.501326  1
  H  H55  1  0.482633  0.229266  0.040235  1
  C  C56  1  0.853130  0.440785  0.194451  1
  C  C57  1  0.351901  0.845089  0.651985  1
  C  C58  1  0.648099  0.154911  0.348015  1
  C  C59  1  0.810592  0.220168  0.898852  1
  C  C60  1  0.220130  0.376893  0.425108  1
  C  C61  1  0.189408  0.779832  0.101148  1
  C  C62  1  0.095926  0.809601  0.403456  1
  C  C63  1  0.904074  0.190399  0.596544  1
  C  C64  1  0.731796  0.786925  0.177072  1
  C  C65  1  0.779870  0.623107  0.574892  1
  C  C66  1  0.268204  0.213075  0.822928  1
  C  C67  1  0.616885  0.660465  0.984470  1
  C  C68  1  0.736029  1.000036  0.776211  1
  C  C69  1  0.146870  0.559215  0.805549  1
  C  C70  1  0.383115  0.339535  0.015530  1
  C  C71  1  0.263971  -0.000036  0.223789  1
