# generated using pymatgen
data_CsS2N3O4
_symmetry_space_group_name_H-M   'P 1'
_cell_length_a   8.50711394
_cell_length_b   9.36247205
_cell_length_c   10.76201009
_cell_angle_alpha   90.00000000
_cell_angle_beta   90.00000000
_cell_angle_gamma   109.68638262
_symmetry_Int_Tables_number   1
_chemical_formula_structural   CsS2N3O4
_chemical_formula_sum   'Cs4 S8 N12 O16'
_cell_volume   807.06750022
_cell_formula_units_Z   4
loop_
 _symmetry_equiv_pos_site_id
 _symmetry_equiv_pos_as_xyz
  1  'x, y, z'
loop_
 _atom_site_type_symbol
 _atom_site_label
 _atom_site_symmetry_multiplicity
 _atom_site_fract_x
 _atom_site_fract_y
 _atom_site_fract_z
 _atom_site_occupancy
  Cs  Cs0  1  0.101097  0.795659  0.923129  1
  Cs  Cs1  1  0.398903  0.204341  0.423129  1
  Cs  Cs2  1  0.898903  0.204341  0.076871  1
  Cs  Cs3  1  0.601097  0.795659  0.576871  1
  S  S4  1  0.267275  0.549474  0.265449  1
  S  S5  1  0.232725  0.450526  0.765449  1
  S  S6  1  0.933767  0.275430  0.494172  1
  S  S7  1  0.566233  0.724570  0.994172  1
  S  S8  1  0.732725  0.450526  0.734551  1
  S  S9  1  0.433767  0.275430  0.005828  1
  S  S10  1  0.767275  0.549474  0.234551  1
  S  S11  1  0.066233  0.724570  0.505828  1
  N  N12  1  0.020678  0.136133  0.717936  1
  N  N13  1  0.428042  0.045513  0.718579  1
  N  N14  1  0.520678  0.136133  0.782064  1
  N  N15  1  0.614024  0.230697  0.849682  1
  N  N16  1  0.885976  0.769303  0.349682  1
  N  N17  1  0.571958  0.954487  0.281421  1
  N  N18  1  0.479322  0.863867  0.217936  1
  N  N19  1  0.928042  0.045513  0.781421  1
  N  N20  1  0.385976  0.769303  0.150318  1
  N  N21  1  0.979322  0.863867  0.282064  1
  N  N22  1  0.114024  0.230697  0.650318  1
  N  N23  1  0.071958  0.954487  0.218579  1
  O  O24  1  0.400586  0.563556  0.356357  1
  O  O25  1  0.487672  0.768781  0.886444  1
  O  O26  1  0.599414  0.436444  0.643643  1
  O  O27  1  0.755608  0.438837  0.333645  1
  O  O28  1  0.723430  0.837444  0.035511  1
  O  O29  1  0.099414  0.436444  0.856357  1
  O  O30  1  0.255608  0.438837  0.166355  1
  O  O31  1  0.512328  0.231219  0.113556  1
  O  O32  1  0.776570  0.162556  0.535511  1
  O  O33  1  0.900586  0.563556  0.143643  1
  O  O34  1  0.244392  0.561163  0.666355  1
  O  O35  1  0.744392  0.561163  0.833645  1
  O  O36  1  0.276570  0.162556  0.964489  1
  O  O37  1  0.987672  0.768781  0.613556  1
  O  O38  1  0.223430  0.837444  0.464489  1
  O  O39  1  0.012328  0.231219  0.386444  1
