# generated using pymatgen
data_MgH12S2O9
_symmetry_space_group_name_H-M   'P 1'
_cell_length_a   6.89925741
_cell_length_b   9.50011745
_cell_length_c   14.51067227
_cell_angle_alpha   90.00000000
_cell_angle_beta   90.00000000
_cell_angle_gamma   90.00000000
_symmetry_Int_Tables_number   1
_chemical_formula_structural   MgH12S2O9
_chemical_formula_sum   'Mg4 H48 S8 O36'
_cell_volume   951.08395849
_cell_formula_units_Z   4
loop_
 _symmetry_equiv_pos_site_id
 _symmetry_equiv_pos_as_xyz
  1  'x, y, z'
loop_
 _atom_site_type_symbol
 _atom_site_label
 _atom_site_symmetry_multiplicity
 _atom_site_fract_x
 _atom_site_fract_y
 _atom_site_fract_z
 _atom_site_occupancy
  Mg  Mg0  1  0.000000  0.000000  0.000000  1
  Mg  Mg1  1  0.500000  0.500000  0.000000  1
  Mg  Mg2  1  0.500000  0.500000  0.500000  1
  Mg  Mg3  1  0.000000  0.000000  0.500000  1
  S  S4  1  0.435591  0.037430  0.250000  1
  S  S5  1  0.935591  0.462570  0.750000  1
  S  S6  1  0.064409  0.537430  0.250000  1
  S  S7  1  0.564409  0.962570  0.750000  1
  S  S8  1  0.610432  0.210251  0.250000  1
  S  S9  1  0.110432  0.289749  0.750000  1
  S  S10  1  0.889568  0.710251  0.250000  1
  S  S11  1  0.389568  0.789749  0.750000  1
  O  O12  1  0.471611  0.953973  0.165323  1
  O  O13  1  0.971611  0.546027  0.834677  1
  O  O14  1  0.028389  0.453973  0.334677  1
  O  O15  1  0.528389  0.046027  0.665323  1
  O  O16  1  0.528389  0.046027  0.834677  1
  O  O17  1  0.028389  0.453973  0.165323  1
  O  O18  1  0.971611  0.546027  0.665323  1
  O  O19  1  0.471611  0.953973  0.334677  1
  O  O20  1  0.231465  0.089981  0.250000  1
  O  O21  1  0.731465  0.410019  0.750000  1
  O  O22  1  0.268535  0.589981  0.250000  1
  O  O23  1  0.768535  0.910019  0.750000  1
  O  O24  1  0.147503  0.842214  0.081058  1
  O  O25  1  0.647503  0.657786  0.918942  1
  O  O26  1  0.352497  0.342214  0.418942  1
  O  O27  1  0.852497  0.157786  0.581058  1
  O  O28  1  0.852497  0.157786  0.918942  1
  O  O29  1  0.352497  0.342214  0.081058  1
  O  O30  1  0.647503  0.657786  0.581058  1
  O  O31  1  0.147503  0.842214  0.418942  1
  O  O32  1  0.969162  0.125578  0.115058  1
  O  O33  1  0.469162  0.374422  0.884942  1
  O  O34  1  0.530838  0.625578  0.384942  1
  O  O35  1  0.030838  0.874422  0.615058  1
  O  O36  1  0.030838  0.874422  0.884942  1
  O  O37  1  0.530838  0.625578  0.115058  1
  O  O38  1  0.469162  0.374422  0.615058  1
  O  O39  1  0.969162  0.125578  0.384942  1
  O  O40  1  0.740277  0.898507  0.024650  1
  O  O41  1  0.240277  0.601493  0.975350  1
  O  O42  1  0.759723  0.398507  0.475350  1
  O  O43  1  0.259723  0.101493  0.524650  1
  O  O44  1  0.259723  0.101493  0.975350  1
  O  O45  1  0.759723  0.398507  0.024650  1
  O  O46  1  0.240277  0.601493  0.524650  1
  O  O47  1  0.740277  0.898507  0.475350  1
  H  H48  1  0.267885  0.877340  0.111509  1
  H  H49  1  0.767885  0.622660  0.888491  1
  H  H50  1  0.232115  0.377340  0.388491  1
  H  H51  1  0.732115  0.122660  0.611509  1
  H  H52  1  0.732115  0.122660  0.888491  1
  H  H53  1  0.232115  0.377340  0.111509  1
  H  H54  1  0.767885  0.622660  0.611509  1
  H  H55  1  0.267885  0.877340  0.388491  1
  H  H56  1  0.064556  0.805755  0.131864  1
  H  H57  1  0.564556  0.694245  0.868136  1
  H  H58  1  0.435444  0.305755  0.368136  1
  H  H59  1  0.935444  0.194245  0.631864  1
  H  H60  1  0.935444  0.194245  0.868136  1
  H  H61  1  0.435444  0.305755  0.131864  1
  H  H62  1  0.564556  0.694245  0.631864  1
  H  H63  1  0.064556  0.805755  0.368136  1
  H  H64  1  0.072510  0.117186  0.162548  1
  H  H65  1  0.572510  0.382814  0.837452  1
  H  H66  1  0.427490  0.617186  0.337452  1
  H  H67  1  0.927490  0.882814  0.662548  1
  H  H68  1  0.927490  0.882814  0.837452  1
  H  H69  1  0.427490  0.617186  0.162548  1
  H  H70  1  0.572510  0.382814  0.662548  1
  H  H71  1  0.072510  0.117186  0.337452  1
  H  H72  1  0.849663  0.149434  0.149270  1
  H  H73  1  0.349663  0.350566  0.850730  1
  H  H74  1  0.650337  0.649434  0.350730  1
  H  H75  1  0.150337  0.850566  0.649270  1
  H  H76  1  0.150337  0.850566  0.850730  1
  H  H77  1  0.650337  0.649434  0.149270  1
  H  H78  1  0.349663  0.350566  0.649270  1
  H  H79  1  0.849663  0.149434  0.350730  1
  H  H80  1  0.648878  0.915122  0.075702  1
  H  H81  1  0.148878  0.584878  0.924298  1
  H  H82  1  0.851122  0.415122  0.424298  1
  H  H83  1  0.351122  0.084878  0.575702  1
  H  H84  1  0.351122  0.084878  0.924298  1
  H  H85  1  0.851122  0.415122  0.075702  1
  H  H86  1  0.148878  0.584878  0.575702  1
  H  H87  1  0.648878  0.915122  0.424298  1
  H  H88  1  0.699201  0.812963  0.991014  1
  H  H89  1  0.199201  0.687037  0.008986  1
  H  H90  1  0.800799  0.312963  0.508986  1
  H  H91  1  0.300799  0.187037  0.491014  1
  H  H92  1  0.300799  0.187037  0.008986  1
  H  H93  1  0.800799  0.312963  0.991014  1
  H  H94  1  0.199201  0.687037  0.491014  1
  H  H95  1  0.699201  0.812963  0.508986  1
