# generated using pymatgen
data_PrP3(HO2)6
_symmetry_space_group_name_H-M   'P 1'
_cell_length_a   6.87428969
_cell_length_b   6.87428958
_cell_length_c   6.12515098
_cell_angle_alpha   90.00000000
_cell_angle_beta   90.00000000
_cell_angle_gamma   120.00000053
_symmetry_Int_Tables_number   1
_chemical_formula_structural   PrP3(HO2)6
_chemical_formula_sum   'Pr1 P3 H6 O12'
_cell_volume   250.67041503
_cell_formula_units_Z   1
loop_
 _symmetry_equiv_pos_site_id
 _symmetry_equiv_pos_as_xyz
  1  'x, y, z'
loop_
 _atom_site_type_symbol
 _atom_site_label
 _atom_site_symmetry_multiplicity
 _atom_site_fract_x
 _atom_site_fract_y
 _atom_site_fract_z
 _atom_site_occupancy
  Pr  Pr0  1  0.333333  0.666667  0.000000  1
  P  P1  1  0.062815  0.784678  0.500000  1
  P  P2  1  0.215322  0.278136  0.500000  1
  P  P3  1  0.721864  0.937185  0.500000  1
  H  H4  1  0.843931  0.234257  0.125902  1
  H  H5  1  0.765743  0.609674  0.125902  1
  H  H6  1  0.390326  0.156069  0.874098  1
  H  H7  1  0.390326  0.156069  0.125902  1
  H  H8  1  0.765743  0.609674  0.874098  1
  H  H9  1  0.843931  0.234257  0.874098  1
  O  O10  1  0.818105  0.765399  0.500000  1
  O  O11  1  0.928912  0.323562  0.000000  1
  O  O12  1  0.394650  0.071088  0.000000  1
  O  O13  1  0.311752  0.395639  0.288137  1
  O  O14  1  0.234601  0.052706  0.500000  1
  O  O15  1  0.311752  0.395639  0.711863  1
  O  O16  1  0.604361  0.916113  0.288137  1
  O  O17  1  0.947294  0.181895  0.500000  1
  O  O18  1  0.083887  0.688248  0.288137  1
  O  O19  1  0.083887  0.688248  0.711863  1
  O  O20  1  0.676438  0.605350  0.000000  1
  O  O21  1  0.604361  0.916113  0.711863  1
