# generated using pymatgen
data_Ho(SiNi5)2
_symmetry_space_group_name_H-M   'P 1'
_cell_length_a   4.66919108
_cell_length_b   8.15331553
_cell_length_c   8.15331553
_cell_angle_alpha   90.00000000
_cell_angle_beta   90.00000000
_cell_angle_gamma   90.00000000
_symmetry_Int_Tables_number   1
_chemical_formula_structural   Ho(SiNi5)2
_chemical_formula_sum   'Ho2 Si4 Ni20'
_cell_volume   310.39173358
_cell_formula_units_Z   2
loop_
 _symmetry_equiv_pos_site_id
 _symmetry_equiv_pos_as_xyz
  1  'x, y, z'
loop_
 _atom_site_type_symbol
 _atom_site_label
 _atom_site_symmetry_multiplicity
 _atom_site_fract_x
 _atom_site_fract_y
 _atom_site_fract_z
 _atom_site_occupancy
  Ho  Ho0  1  0.222273  0.250000  0.250000  1
  Ho  Ho1  1  0.777727  0.750000  0.750000  1
  Ni  Ni2  1  0.000000  0.000000  0.000000  1
  Ni  Ni3  1  0.000000  0.500000  0.000000  1
  Ni  Ni4  1  0.000000  0.000000  0.500000  1
  Ni  Ni5  1  0.000000  0.500000  0.500000  1
  Si  Si6  1  0.500000  0.500000  0.000000  1
  Si  Si7  1  0.500000  0.500000  0.500000  1
  Si  Si8  1  0.500000  0.000000  0.000000  1
  Si  Si9  1  0.500000  0.000000  0.500000  1
  Ni  Ni10  1  0.238781  0.250000  0.602759  1
  Ni  Ni11  1  0.238781  0.897241  0.250000  1
  Ni  Ni12  1  0.238781  0.602759  0.250000  1
  Ni  Ni13  1  0.238781  0.250000  0.897241  1
  Ni  Ni14  1  0.761219  0.750000  0.397241  1
  Ni  Ni15  1  0.761219  0.750000  0.102759  1
  Ni  Ni16  1  0.761219  0.102759  0.750000  1
  Ni  Ni17  1  0.761219  0.397241  0.750000  1
  Ni  Ni18  1  0.729094  0.250000  0.027180  1
  Ni  Ni19  1  0.729094  0.472820  0.250000  1
  Ni  Ni20  1  0.729094  0.027180  0.250000  1
  Ni  Ni21  1  0.729094  0.250000  0.472820  1
  Ni  Ni22  1  0.270906  0.750000  0.972820  1
  Ni  Ni23  1  0.270906  0.750000  0.527180  1
  Ni  Ni24  1  0.270906  0.527180  0.750000  1
  Ni  Ni25  1  0.270906  0.972820  0.750000  1
