# generated using pymatgen
data_ErNiGe2
_symmetry_space_group_name_H-M   'P 1'
_cell_length_a   4.14547691
_cell_length_b   8.50355804
_cell_length_c   9.26398398
_cell_angle_alpha   117.31834821
_cell_angle_beta   102.93530695
_cell_angle_gamma   89.99794543
_symmetry_Int_Tables_number   1
_chemical_formula_structural   ErNiGe2
_chemical_formula_sum   'Er4 Ni4 Ge8'
_cell_volume   280.78686007
_cell_formula_units_Z   4
loop_
 _symmetry_equiv_pos_site_id
 _symmetry_equiv_pos_as_xyz
  1  'x, y, z'
loop_
 _atom_site_type_symbol
 _atom_site_label
 _atom_site_symmetry_multiplicity
 _atom_site_fract_x
 _atom_site_fract_y
 _atom_site_fract_z
 _atom_site_occupancy
  Er  Er0  1  0.204023  0.704008  0.407999  1
  Er  Er1  1  0.795977  0.295992  0.592001  1
  Er  Er2  1  0.999999  0.259769  0.000007  1
  Er  Er3  1  0.000001  0.740231  0.999993  1
  Ni  Ni4  1  0.352291  0.601293  0.704612  1
  Ni  Ni5  1  0.352113  0.103373  0.704561  1
  Ni  Ni6  1  0.647887  0.896627  0.295439  1
  Ni  Ni7  1  0.647709  0.398707  0.295388  1
  Ge  Ge8  1  0.803806  0.961366  0.607746  1
  Ge  Ge9  1  0.196182  0.353642  0.392269  1
  Ge  Ge10  1  0.420402  0.920417  0.840826  1
  Ge  Ge11  1  0.577072  0.577013  0.154056  1
  Ge  Ge12  1  0.579598  0.079583  0.159174  1
  Ge  Ge13  1  0.196194  0.038634  0.392254  1
  Ge  Ge14  1  0.803818  0.646358  0.607731  1
  Ge  Ge15  1  0.422928  0.422987  0.845944  1
