# generated using pymatgen
data_RbTi2(PO4)3
_symmetry_space_group_name_H-M   'P 1'
_cell_length_a   9.30598755
_cell_length_b   9.30598763
_cell_length_c   9.30598737
_cell_angle_alpha   53.85022463
_cell_angle_beta   53.85022425
_cell_angle_gamma   53.85022589
_symmetry_Int_Tables_number   1
_chemical_formula_structural   RbTi2(PO4)3
_chemical_formula_sum   'Rb2 Ti4 P6 O24'
_cell_volume   487.96329084
_cell_formula_units_Z   2
loop_
 _symmetry_equiv_pos_site_id
 _symmetry_equiv_pos_as_xyz
  1  'x, y, z'
loop_
 _atom_site_type_symbol
 _atom_site_label
 _atom_site_symmetry_multiplicity
 _atom_site_fract_x
 _atom_site_fract_y
 _atom_site_fract_z
 _atom_site_occupancy
  Rb  Rb0  1  0.502665  0.502665  0.502665  1
  Rb  Rb1  1  0.002638  0.002638  0.002638  1
  Ti  Ti2  1  0.351124  0.351124  0.351124  1
  Ti  Ti3  1  0.852428  0.852428  0.852428  1
  Ti  Ti4  1  0.654144  0.654144  0.654144  1
  Ti  Ti5  1  0.152832  0.152832  0.152832  1
  P  P6  1  0.253133  0.972515  0.533141  1
  P  P7  1  0.972515  0.533141  0.253133  1
  P  P8  1  0.533141  0.253133  0.972515  1
  P  P9  1  0.472059  0.752170  0.032763  1
  P  P10  1  0.752170  0.032763  0.472059  1
  P  P11  1  0.032763  0.472059  0.752170  1
  O  O12  1  0.444794  0.561895  0.193456  1
  O  O13  1  0.846514  0.489507  0.772079  1
  O  O14  1  0.086600  0.296932  0.924605  1
  O  O15  1  0.193456  0.444794  0.561895  1
  O  O16  1  0.991731  0.355418  0.255015  1
  O  O17  1  0.918565  0.708336  0.080740  1
  O  O18  1  0.080740  0.918565  0.708336  1
  O  O19  1  0.489507  0.772079  0.846514  1
  O  O20  1  0.443429  0.811878  0.560396  1
  O  O21  1  0.233147  0.158783  0.515735  1
  O  O22  1  0.255015  0.991731  0.355418  1
  O  O23  1  0.561895  0.193456  0.444794  1
  O  O24  1  0.811878  0.560396  0.443429  1
  O  O25  1  0.750304  0.013511  0.649815  1
  O  O26  1  0.515735  0.233147  0.158783  1
  O  O27  1  0.708336  0.080740  0.918565  1
  O  O28  1  0.924605  0.086600  0.296932  1
  O  O29  1  0.772079  0.846514  0.489507  1
  O  O30  1  0.296932  0.924605  0.086600  1
  O  O31  1  0.013511  0.649815  0.750304  1
  O  O32  1  0.355418  0.255015  0.991731  1
  O  O33  1  0.158783  0.515735  0.233147  1
  O  O34  1  0.560396  0.443429  0.811878  1
  O  O35  1  0.649815  0.750304  0.013511  1
