# generated using pymatgen
data_Y5U2O12
_symmetry_space_group_name_H-M   'P 1'
_cell_length_a   6.59357245
_cell_length_b   6.59804067
_cell_length_c   26.54579045
_cell_angle_alpha   99.15502633
_cell_angle_beta   99.47921993
_cell_angle_gamma   99.01110458
_symmetry_Int_Tables_number   1
_chemical_formula_structural   Y5U2O12
_chemical_formula_sum   'Y20 U8 O48'
_cell_volume   1104.58684155
_cell_formula_units_Z   4
loop_
 _symmetry_equiv_pos_site_id
 _symmetry_equiv_pos_as_xyz
  1  'x, y, z'
loop_
 _atom_site_type_symbol
 _atom_site_label
 _atom_site_symmetry_multiplicity
 _atom_site_fract_x
 _atom_site_fract_y
 _atom_site_fract_z
 _atom_site_occupancy
  O  O0  1  0.057036  0.921078  0.920627  1
  O  O1  1  0.074205  0.311367  0.985531  1
  O  O2  1  0.056507  0.922210  0.670882  1
  O  O3  1  0.166956  0.586051  0.855689  1
  O  O4  1  0.077300  0.314953  0.735958  1
  O  O5  1  0.056341  0.923091  0.420725  1
  O  O6  1  0.316227  0.944191  0.769345  1
  O  O7  1  0.413117  0.567815  0.955398  1
  O  O8  1  0.166009  0.587108  0.605527  1
  O  O9  1  0.077396  0.314749  0.485990  1
  O  O10  1  0.055256  0.922451  0.171676  1
  O  O11  1  0.431430  0.174597  0.895428  1
  O  O12  1  0.316043  0.944363  0.519215  1
  O  O13  1  0.411819  0.568324  0.704563  1
  O  O14  1  0.166318  0.587709  0.355706  1
  O  O15  1  0.078253  0.316266  0.236634  1
  O  O16  1  0.577772  0.812710  0.854491  1
  O  O17  1  0.430926  0.174926  0.645397  1
  O  O18  1  0.315524  0.945118  0.269720  1
  O  O19  1  0.411565  0.568130  0.454516  1
  O  O20  1  0.181858  0.587034  0.107453  1
  O  O21  1  0.589483  0.430869  0.794561  1
  O  O22  1  0.680056  0.058060  0.981997  1
  O  O23  1  0.577284  0.812752  0.604255  1
  O  O24  1  0.431394  0.174933  0.395439  1
  O  O25  1  0.317254  0.943252  0.019001  1
  O  O26  1  0.415931  0.569852  0.205660  1
  O  O27  1  0.822705  0.424751  0.892891  1
  O  O28  1  0.589542  0.431109  0.544549  1
  O  O29  1  0.686510  0.054872  0.730715  1
  O  O30  1  0.578504  0.812956  0.354519  1
  O  O31  1  0.429363  0.177391  0.144050  1
  O  O32  1  0.921319  0.686615  0.764192  1
  O  O33  1  0.822838  0.425097  0.642717  1
  O  O34  1  0.591558  0.431382  0.295049  1
  O  O35  1  0.686562  0.055005  0.480767  1
  O  O36  1  0.575135  0.834116  0.102544  1
  O  O37  1  0.941175  0.073073  0.830026  1
  O  O38  1  0.920960  0.687148  0.514118  1
  O  O39  1  0.823654  0.424884  0.392814  1
  O  O40  1  0.582688  0.422489  0.046215  1
  O  O41  1  0.686360  0.054489  0.229907  1
  O  O42  1  0.940986  0.073056  0.579976  1
  O  O43  1  0.921037  0.687039  0.263909  1
  O  O44  1  0.820428  0.413634  0.142333  1
  O  O45  1  0.941577  0.073146  0.329158  1
  O  O46  1  0.923978  0.685197  0.014342  1
  O  O47  1  0.941739  0.080435  0.078941  1
  U  U48  1  0.000265  0.002688  0.500906  1
  U  U49  1  1.000106  0.002164  0.250008  1
  U  U50  1  0.996483  0.999792  0.000247  1
  U  U51  1  0.861825  0.690289  0.849049  1
  U  U52  1  0.861840  0.691151  0.599191  1
  U  U53  1  0.000387  0.002538  0.750934  1
  U  U54  1  0.862431  0.691020  0.349221  1
  U  U55  1  0.602676  0.139326  0.077746  1
  Y  Y56  1  0.144277  0.309022  0.902644  1
  Y  Y57  1  0.394643  0.859285  0.923139  1
  Y  Y58  1  0.143410  0.309462  0.652605  1
  Y  Y59  1  0.311960  0.605878  0.783430  1
  Y  Y60  1  0.395007  0.860747  0.673268  1
  Y  Y61  1  0.143608  0.309086  0.402482  1
  Y  Y62  1  0.312083  0.606056  0.533448  1
  Y  Y63  1  0.395010  0.861013  0.423403  1
  Y  Y64  1  0.143133  0.317433  0.152595  1
  Y  Y65  1  0.684829  0.392598  0.964052  1
  Y  Y66  1  0.313640  0.606701  0.283781  1
  Y  Y67  1  0.606441  0.142854  0.828251  1
  Y  Y68  1  0.389891  0.856731  0.172393  1
  Y  Y69  1  0.684167  0.390759  0.713963  1
  Y  Y70  1  0.303956  0.605018  0.034494  1
  Y  Y71  1  0.606345  0.143185  0.578237  1
  Y  Y72  1  0.684230  0.390905  0.463976  1
  Y  Y73  1  0.606545  0.142823  0.328186  1
  Y  Y74  1  0.687878  0.391872  0.214516  1
  Y  Y75  1  0.865057  0.687757  0.098720  1
