# generated using pymatgen
data_Ag2Mo3SeO12
_symmetry_space_group_name_H-M   'P 1'
_cell_length_a   7.50215292
_cell_length_b   11.26793793
_cell_length_c   13.10796934
_cell_angle_alpha   90.00000000
_cell_angle_beta   104.67353252
_cell_angle_gamma   90.00000000
_symmetry_Int_Tables_number   1
_chemical_formula_structural   Ag2Mo3SeO12
_chemical_formula_sum   'Ag8 Mo12 Se4 O48'
_cell_volume   1071.92664539
_cell_formula_units_Z   4
loop_
 _symmetry_equiv_pos_site_id
 _symmetry_equiv_pos_as_xyz
  1  'x, y, z'
loop_
 _atom_site_type_symbol
 _atom_site_label
 _atom_site_symmetry_multiplicity
 _atom_site_fract_x
 _atom_site_fract_y
 _atom_site_fract_z
 _atom_site_occupancy
  Ag  Ag0  1  0.562926  0.071361  0.819192  1
  Ag  Ag1  1  0.437074  0.928639  0.180808  1
  Ag  Ag2  1  0.405390  0.601125  0.189966  1
  Ag  Ag3  1  0.594610  0.398875  0.810034  1
  Ag  Ag4  1  0.062926  0.428639  0.319192  1
  Ag  Ag5  1  0.094610  0.101125  0.310034  1
  Ag  Ag6  1  0.905390  0.898875  0.689966  1
  Ag  Ag7  1  0.937074  0.571361  0.680808  1
  Mo  Mo8  1  0.145348  0.752277  0.942844  1
  Mo  Mo9  1  0.849067  0.917442  0.058226  1
  Mo  Mo10  1  0.349067  0.582558  0.558226  1
  Mo  Mo11  1  0.854652  0.247723  0.057156  1
  Mo  Mo12  1  0.365614  0.917486  0.569282  1
  Mo  Mo13  1  0.634386  0.082514  0.430718  1
  Mo  Mo14  1  0.134386  0.417486  0.930718  1
  Mo  Mo15  1  0.645348  0.747723  0.442844  1
  Mo  Mo16  1  0.650933  0.417442  0.441774  1
  Mo  Mo17  1  0.354652  0.252277  0.557156  1
  Mo  Mo18  1  0.865614  0.582514  0.069282  1
  Mo  Mo19  1  0.150933  0.082559  0.941774  1
  Se  Se20  1  0.158599  0.807541  0.307939  1
  Se  Se21  1  0.841401  0.192459  0.692061  1
  Se  Se22  1  0.658599  0.692459  0.807939  1
  Se  Se23  1  0.341401  0.307541  0.192061  1
  O  O24  1  0.951987  0.415995  0.814670  1
  O  O25  1  0.899593  0.417405  0.033160  1
  O  O26  1  0.386096  0.404607  0.299036  1
  O  O27  1  0.413441  0.748418  0.536420  1
  O  O28  1  0.399593  0.082595  0.533160  1
  O  O29  1  0.112686  0.269265  0.191495  1
  O  O30  1  0.731147  0.917265  0.156451  1
  O  O31  1  0.194996  0.914114  0.407175  1
  O  O32  1  0.761061  0.745220  0.345202  1
  O  O33  1  0.305004  0.414114  0.092825  1
  O  O34  1  0.694996  0.585886  0.907175  1
  O  O35  1  0.612686  0.230735  0.691495  1
  O  O36  1  0.768853  0.417265  0.343549  1
  O  O37  1  0.824684  0.735398  0.559197  1
  O  O38  1  0.887314  0.730735  0.808505  1
  O  O39  1  0.833750  0.426581  0.554808  1
  O  O40  1  0.268853  0.082735  0.843549  1
  O  O41  1  0.913441  0.751582  0.036420  1
  O  O42  1  0.113904  0.904607  0.200964  1
  O  O43  1  0.451987  0.084005  0.314670  1
  O  O44  1  0.675316  0.235398  0.940803  1
  O  O45  1  0.175316  0.264602  0.440803  1
  O  O46  1  0.600407  0.917405  0.466840  1
  O  O47  1  0.231147  0.582735  0.656451  1
  O  O48  1  0.173915  0.915618  0.619647  1
  O  O49  1  0.324684  0.764602  0.059197  1
  O  O50  1  0.238939  0.254780  0.654798  1
  O  O51  1  0.086559  0.248418  0.963580  1
  O  O52  1  0.440696  0.419527  0.554400  1
  O  O53  1  0.738939  0.245220  0.154798  1
  O  O54  1  0.326085  0.415618  0.880353  1
  O  O55  1  0.586559  0.251582  0.463580  1
  O  O56  1  0.826085  0.084382  0.380353  1
  O  O57  1  0.805004  0.085886  0.592825  1
  O  O58  1  0.333749  0.073419  0.054808  1
  O  O59  1  0.613904  0.595393  0.700964  1
  O  O60  1  0.059304  0.919527  0.945600  1
  O  O61  1  0.261061  0.754780  0.845202  1
  O  O62  1  0.666250  0.926581  0.945192  1
  O  O63  1  0.048013  0.584005  0.185330  1
  O  O64  1  0.940696  0.080473  0.054400  1
  O  O65  1  0.100407  0.582595  0.966840  1
  O  O66  1  0.886096  0.095393  0.799036  1
  O  O67  1  0.673915  0.584382  0.119647  1
  O  O68  1  0.559304  0.580473  0.445600  1
  O  O69  1  0.548013  0.915995  0.685330  1
  O  O70  1  0.166250  0.573419  0.445192  1
  O  O71  1  0.387314  0.769265  0.308505  1
