# generated using pymatgen
data_Cs3AlGe2O7
_symmetry_space_group_name_H-M   'P 1'
_cell_length_a   7.75455549
_cell_length_b   8.07036362
_cell_length_c   10.03978745
_cell_angle_alpha   108.10414242
_cell_angle_beta   106.93604899
_cell_angle_gamma   103.65558462
_symmetry_Int_Tables_number   1
_chemical_formula_structural   Cs3AlGe2O7
_chemical_formula_sum   'Cs6 Al2 Ge4 O14'
_cell_volume   533.17708751
_cell_formula_units_Z   2
loop_
 _symmetry_equiv_pos_site_id
 _symmetry_equiv_pos_as_xyz
  1  'x, y, z'
loop_
 _atom_site_type_symbol
 _atom_site_label
 _atom_site_symmetry_multiplicity
 _atom_site_fract_x
 _atom_site_fract_y
 _atom_site_fract_z
 _atom_site_occupancy
  Cs  Cs0  1  0.286450  0.014434  0.608382  1
  Cs  Cs1  1  0.261419  0.011419  0.022837  1
  Cs  Cs2  1  0.178069  0.406052  0.391618  1
  Cs  Cs3  1  0.738581  0.988581  0.977163  1
  Cs  Cs4  1  0.821931  0.593948  0.608382  1
  Cs  Cs5  1  0.713550  0.985566  0.391618  1
  Al  Al6  1  0.692356  0.442356  0.884712  1
  Al  Al7  1  0.307644  0.557644  0.115288  1
  Ge  Ge8  1  0.675561  0.437499  0.198313  1
  Ge  Ge9  1  0.022753  0.760815  0.198313  1
  Ge  Ge10  1  0.977247  0.239185  0.801687  1
  Ge  Ge11  1  0.324439  0.562501  0.801687  1
  O  O12  1  0.607267  0.339324  0.996600  1
  O  O13  1  0.110667  0.342724  0.003400  1
  O  O14  1  0.245604  0.719986  0.241293  1
  O  O15  1  0.889333  0.657276  0.996600  1
  O  O16  1  0.286479  0.722736  0.726697  1
  O  O17  1  0.754396  0.280014  0.758707  1
  O  O18  1  0.059782  0.996039  0.273303  1
  O  O19  1  0.504311  0.478693  0.758707  1
  O  O20  1  0.104918  0.354918  0.709837  1
  O  O21  1  0.392733  0.660676  0.003400  1
  O  O22  1  0.940218  0.003961  0.726697  1
  O  O23  1  0.895082  0.645082  0.290163  1
  O  O24  1  0.713521  0.277264  0.273303  1
  O  O25  1  0.495689  0.521307  0.241293  1
