# generated using pymatgen
data_Cs8Ta6O19
_symmetry_space_group_name_H-M   'P 1'
_cell_length_a   10.07067737
_cell_length_b   10.07067716
_cell_length_c   10.04851689
_cell_angle_alpha   120.07297732
_cell_angle_beta   120.07297665
_cell_angle_gamma   90.00000447
_symmetry_Int_Tables_number   1
_chemical_formula_structural   Cs8Ta6O19
_chemical_formula_sum   'Cs8 Ta6 O19'
_cell_volume   719.02400255
_cell_formula_units_Z   1
loop_
 _symmetry_equiv_pos_site_id
 _symmetry_equiv_pos_as_xyz
  1  'x, y, z'
loop_
 _atom_site_type_symbol
 _atom_site_label
 _atom_site_symmetry_multiplicity
 _atom_site_fract_x
 _atom_site_fract_y
 _atom_site_fract_z
 _atom_site_occupancy
  Ta  Ta0  1  0.104327  0.213629  0.000000  1
  Ta  Ta1  1  0.786371  0.104327  0.000000  1
  Ta  Ta2  1  0.213629  0.895673  1.000000  1
  Ta  Ta3  1  0.895673  0.786371  1.000000  1
  Ta  Ta4  1  0.833551  0.833551  0.667102  1
  Ta  Ta5  1  0.166449  0.166449  0.332898  1
  Cs  Cs6  1  0.068004  0.435307  0.703654  1
  Cs  Cs7  1  0.268347  0.068004  0.703654  1
  Cs  Cs8  1  0.435307  0.635651  0.703654  1
  Cs  Cs9  1  0.635651  0.268347  0.703654  1
  Cs  Cs10  1  0.931996  0.564693  0.296346  1
  Cs  Cs11  1  0.731653  0.931996  0.296346  1
  Cs  Cs12  1  0.564693  0.364349  0.296346  1
  Cs  Cs13  1  0.364349  0.731653  0.296346  1
  O  O14  1  0.196707  0.370370  1.000000  1
  O  O15  1  0.629630  0.196707  1.000000  1
  O  O16  1  0.370370  0.803293  0.000000  1
  O  O17  1  0.803293  0.629630  0.000000  1
  O  O18  1  0.703983  0.703983  0.407967  1
  O  O19  1  0.296017  0.296017  0.592033  1
  O  O20  1  0.912940  0.260287  1.000000  1
  O  O21  1  0.739713  0.912940  0.000000  1
  O  O22  1  0.260287  0.087060  1.000000  1
  O  O23  1  0.087060  0.739713  0.000000  1
  O  O24  1  0.226972  0.315035  0.278315  1
  O  O25  1  0.963280  0.226972  0.278315  1
  O  O26  1  0.315035  0.051343  0.278315  1
  O  O27  1  0.051343  0.963280  0.278315  1
  O  O28  1  0.773028  0.684965  0.721685  1
  O  O29  1  0.036720  0.773028  0.721685  1
  O  O30  1  0.684965  0.948657  0.721685  1
  O  O31  1  0.948657  0.036720  0.721685  1
  O  O32  1  0.000000  0.000000  0.000000  1
