# generated using pymatgen
data_Yb(CrSi)2
_symmetry_space_group_name_H-M   'P 1'
_cell_length_a   3.81914110
_cell_length_b   3.81914057
_cell_length_c   6.06318292
_cell_angle_alpha   108.35750737
_cell_angle_beta   108.35750689
_cell_angle_gamma   90.00000000
_symmetry_Int_Tables_number   1
_chemical_formula_structural   Yb(CrSi)2
_chemical_formula_sum   'Yb1 Cr2 Si2'
_cell_volume   79.18009572
_cell_formula_units_Z   1
loop_
 _symmetry_equiv_pos_site_id
 _symmetry_equiv_pos_as_xyz
  1  'x, y, z'
loop_
 _atom_site_type_symbol
 _atom_site_label
 _atom_site_symmetry_multiplicity
 _atom_site_fract_x
 _atom_site_fract_y
 _atom_site_fract_z
 _atom_site_occupancy
  Yb  Yb0  1  0.000000  -0.000000  0.000000  1
  Cr  Cr1  1  0.250000  0.750000  0.500000  1
  Cr  Cr2  1  0.750000  0.250000  0.500000  1
  Si  Si3  1  0.385180  0.385180  0.770360  1
  Si  Si4  1  0.614820  0.614820  0.229640  1
