# generated using pymatgen
data_LiMoAsO6
_symmetry_space_group_name_H-M   'P 1'
_cell_length_a   5.23351296
_cell_length_b   8.70693945
_cell_length_c   10.49866493
_cell_angle_alpha   90.00000000
_cell_angle_beta   95.18567610
_cell_angle_gamma   90.00000000
_symmetry_Int_Tables_number   1
_chemical_formula_structural   LiMoAsO6
_chemical_formula_sum   'Li4 Mo4 As4 O24'
_cell_volume   476.44382227
_cell_formula_units_Z   4
loop_
 _symmetry_equiv_pos_site_id
 _symmetry_equiv_pos_as_xyz
  1  'x, y, z'
loop_
 _atom_site_type_symbol
 _atom_site_label
 _atom_site_symmetry_multiplicity
 _atom_site_fract_x
 _atom_site_fract_y
 _atom_site_fract_z
 _atom_site_occupancy
  Li  Li0  1  0.688963  0.093818  0.102941  1
  Li  Li1  1  0.034420  0.264456  0.390157  1
  Li  Li2  1  0.311037  0.593818  0.897059  1
  Li  Li3  1  0.965580  0.764456  0.609843  1
  Mo  Mo4  1  0.882152  0.419147  0.664259  1
  Mo  Mo5  1  0.323007  0.432582  0.156641  1
  Mo  Mo6  1  0.676993  0.932582  0.843359  1
  Mo  Mo7  1  0.117848  0.919147  0.335741  1
  As  As8  1  0.842003  0.698040  0.106226  1
  As  As9  1  0.621750  0.074353  0.535934  1
  As  As10  1  0.157997  0.198040  0.893774  1
  As  As11  1  0.378250  0.574353  0.464066  1
  O  O12  1  0.067623  0.571407  0.733502  1
  O  O13  1  0.957182  0.887545  0.773485  1
  O  O14  1  0.392124  0.065485  0.931084  1
  O  O15  1  0.607876  0.565485  0.068916  1
  O  O16  1  0.871278  0.134094  0.938458  1
  O  O17  1  0.677518  0.577056  0.550591  1
  O  O18  1  0.821373  0.932327  0.494505  1
  O  O19  1  0.322482  0.077056  0.449409  1
  O  O20  1  0.756038  0.253895  0.516852  1
  O  O21  1  0.128722  0.634094  0.061542  1
  O  O22  1  0.932377  0.071407  0.266498  1
  O  O23  1  0.459030  0.553956  0.308593  1
  O  O24  1  0.178627  0.432327  0.505495  1
  O  O25  1  0.772809  0.872538  0.031271  1
  O  O26  1  0.227191  0.372538  0.968729  1
  O  O27  1  0.498707  0.263439  0.179245  1
  O  O28  1  0.648817  0.394184  0.766869  1
  O  O29  1  0.501293  0.763439  0.820755  1
  O  O30  1  0.891118  0.748277  0.267597  1
  O  O31  1  0.042818  0.387545  0.226515  1
  O  O32  1  0.540970  0.053956  0.691407  1
  O  O33  1  0.108882  0.248277  0.732403  1
  O  O34  1  0.243962  0.753895  0.483148  1
  O  O35  1  0.351183  0.894185  0.233131  1
