# generated using pymatgen
data_Mo6PbI14
_symmetry_space_group_name_H-M   'P 1'
_cell_length_a   14.85007846
_cell_length_b   14.85007846
_cell_length_c   14.85007846
_cell_angle_alpha   90.00000000
_cell_angle_beta   90.00000000
_cell_angle_gamma   90.00000000
_symmetry_Int_Tables_number   1
_chemical_formula_structural   Mo6PbI14
_chemical_formula_sum   'Mo24 Pb4 I56'
_cell_volume   3274.81103186
_cell_formula_units_Z   4
loop_
 _symmetry_equiv_pos_site_id
 _symmetry_equiv_pos_as_xyz
  1  'x, y, z'
loop_
 _atom_site_type_symbol
 _atom_site_label
 _atom_site_symmetry_multiplicity
 _atom_site_fract_x
 _atom_site_fract_y
 _atom_site_fract_z
 _atom_site_occupancy
  Mo  Mo0  1  0.031643  0.121768  0.974844  1
  Mo  Mo1  1  0.974844  0.031643  0.121768  1
  Mo  Mo2  1  0.878232  0.474844  0.531643  1
  Mo  Mo3  1  0.525156  0.468357  0.121768  1
  Mo  Mo4  1  0.025156  0.531643  0.621768  1
  Mo  Mo5  1  0.621768  0.025156  0.531643  1
  Mo  Mo6  1  0.025156  0.968357  0.878232  1
  Mo  Mo7  1  0.474844  0.968357  0.621768  1
  Mo  Mo8  1  0.531643  0.621768  0.025156  1
  Mo  Mo9  1  0.531643  0.878232  0.474844  1
  Mo  Mo10  1  0.621768  0.474844  0.968357  1
  Mo  Mo11  1  0.474844  0.531643  0.878232  1
  Mo  Mo12  1  0.121768  0.974844  0.031643  1
  Mo  Mo13  1  0.968357  0.878232  0.025156  1
  Mo  Mo14  1  0.968357  0.621768  0.474844  1
  Mo  Mo15  1  0.121768  0.525156  0.468357  1
  Mo  Mo16  1  0.378232  0.525156  0.031643  1
  Mo  Mo17  1  0.468357  0.378232  0.974844  1
  Mo  Mo18  1  0.378232  0.974844  0.468357  1
  Mo  Mo19  1  0.878232  0.025156  0.968357  1
  Mo  Mo20  1  0.525156  0.031643  0.378232  1
  Mo  Mo21  1  0.468357  0.121768  0.525156  1
  Mo  Mo22  1  0.974844  0.468357  0.378232  1
  Mo  Mo23  1  0.031643  0.378232  0.525156  1
  Pb  Pb24  1  0.000000  0.000000  0.500000  1
  Pb  Pb25  1  0.500000  0.500000  0.500000  1
  Pb  Pb26  1  0.500000  0.000000  0.000000  1
  Pb  Pb27  1  0.000000  0.500000  0.000000  1
  I  I28  1  0.380824  0.814962  0.566849  1
  I  I29  1  0.305980  0.931971  0.082934  1
  I  I30  1  0.880824  0.185038  0.066849  1
  I  I31  1  0.619176  0.185038  0.433151  1
  I  I32  1  0.685038  0.933151  0.380824  1
  I  I33  1  0.433151  0.619176  0.185038  1
  I  I34  1  0.366684  0.133316  0.366684  1
  I  I35  1  0.582934  0.694020  0.431971  1
  I  I36  1  0.566849  0.119176  0.685038  1
  I  I37  1  0.933151  0.119176  0.814962  1
  I  I38  1  0.133316  0.366684  0.366684  1
  I  I39  1  0.431971  0.582934  0.694020  1
  I  I40  1  0.119176  0.685038  0.566849  1
  I  I41  1  0.185038  0.433151  0.619176  1
  I  I42  1  0.917066  0.694020  0.068029  1
  I  I43  1  0.805980  0.068029  0.582934  1
  I  I44  1  0.568029  0.082934  0.194020  1
  I  I45  1  0.633316  0.633316  0.866684  1
  I  I46  1  0.805980  0.431971  0.917066  1
  I  I47  1  0.694020  0.431971  0.582934  1
  I  I48  1  0.366684  0.366684  0.133316  1
  I  I49  1  0.866684  0.633316  0.633316  1
  I  I50  1  0.194020  0.568029  0.082934  1
  I  I51  1  0.633316  0.866684  0.633316  1
  I  I52  1  0.119176  0.814962  0.933151  1
  I  I53  1  0.880824  0.314962  0.433151  1
  I  I54  1  0.194020  0.931971  0.417066  1
  I  I55  1  0.314962  0.066849  0.619176  1
  I  I56  1  0.433151  0.880824  0.314962  1
  I  I57  1  0.931971  0.082934  0.305980  1
  I  I58  1  0.582934  0.805980  0.068029  1
  I  I59  1  0.133316  0.133316  0.133316  1
  I  I60  1  0.066849  0.619176  0.314962  1
  I  I61  1  0.866684  0.866684  0.866684  1
  I  I62  1  0.305980  0.568029  0.417066  1
  I  I63  1  0.566849  0.380824  0.814962  1
  I  I64  1  0.185038  0.066849  0.880824  1
  I  I65  1  0.431971  0.917066  0.805980  1
  I  I66  1  0.082934  0.305980  0.931971  1
  I  I67  1  0.314962  0.433151  0.880824  1
  I  I68  1  0.694020  0.068029  0.917066  1
  I  I69  1  0.917066  0.805980  0.431971  1
  I  I70  1  0.066849  0.880824  0.185038  1
  I  I71  1  0.068029  0.917066  0.694020  1
  I  I72  1  0.814962  0.566849  0.380824  1
  I  I73  1  0.417066  0.305980  0.568029  1
  I  I74  1  0.568029  0.417066  0.305980  1
  I  I75  1  0.380824  0.685038  0.933151  1
  I  I76  1  0.068029  0.582934  0.805980  1
  I  I77  1  0.931971  0.417066  0.194020  1
  I  I78  1  0.685038  0.566849  0.119176  1
  I  I79  1  0.082934  0.194020  0.568029  1
  I  I80  1  0.814962  0.933151  0.119176  1
  I  I81  1  0.619176  0.314962  0.066849  1
  I  I82  1  0.417066  0.194020  0.931971  1
  I  I83  1  0.933151  0.380824  0.685038  1
