# generated using pymatgen
data_Sc5Cl8
_symmetry_space_group_name_H-M   'P 1'
_cell_length_a   3.55967613
_cell_length_b   9.71388823
_cell_length_c   9.99862026
_cell_angle_alpha   86.29189438
_cell_angle_beta   79.73682425
_cell_angle_gamma   79.43662819
_symmetry_Int_Tables_number   1
_chemical_formula_structural   Sc5Cl8
_chemical_formula_sum   'Sc5 Cl8'
_cell_volume   334.25471734
_cell_formula_units_Z   1
loop_
 _symmetry_equiv_pos_site_id
 _symmetry_equiv_pos_as_xyz
  1  'x, y, z'
loop_
 _atom_site_type_symbol
 _atom_site_label
 _atom_site_symmetry_multiplicity
 _atom_site_fract_x
 _atom_site_fract_y
 _atom_site_fract_z
 _atom_site_occupancy
  Sc  Sc0  1  0.000000  0.000000  0.000000  1
  Sc  Sc1  1  0.513829  0.320727  0.651715  1
  Sc  Sc2  1  0.486171  0.679273  0.348285  1
  Sc  Sc3  1  0.111993  0.394384  0.381866  1
  Sc  Sc4  1  0.888007  0.605616  0.618134  1
  Cl  Cl5  1  0.686496  0.196122  0.431152  1
  Cl  Cl6  1  0.313504  0.803878  0.568848  1
  Cl  Cl7  1  0.372761  0.147243  0.107018  1
  Cl  Cl8  1  0.627239  0.852757  0.892982  1
  Cl  Cl9  1  0.664935  0.472426  0.197972  1
  Cl  Cl10  1  0.335065  0.527574  0.802028  1
  Cl  Cl11  1  0.976494  0.830978  0.216154  1
  Cl  Cl12  1  0.023506  0.169022  0.783846  1
