# generated using pymatgen
data_Na2FeNiF7
_symmetry_space_group_name_H-M   'P 1'
_cell_length_a   7.29562858
_cell_length_b   7.39887640
_cell_length_c   7.39887641
_cell_angle_alpha   61.41006264
_cell_angle_beta   60.46054833
_cell_angle_gamma   60.46054838
_symmetry_Int_Tables_number   1
_chemical_formula_structural   Na2FeNiF7
_chemical_formula_sum   'Na4 Fe2 Ni2 F14'
_cell_volume   287.30817397
_cell_formula_units_Z   2
loop_
 _symmetry_equiv_pos_site_id
 _symmetry_equiv_pos_as_xyz
  1  'x, y, z'
loop_
 _atom_site_type_symbol
 _atom_site_label
 _atom_site_symmetry_multiplicity
 _atom_site_fract_x
 _atom_site_fract_y
 _atom_site_fract_z
 _atom_site_occupancy
  F  F0  1  0.315584  0.320792  0.447358  1
  F  F1  1  0.083734  0.679208  0.552642  1
  F  F2  1  0.184416  0.052642  0.179208  1
  F  F3  1  0.416266  0.947358  0.820792  1
  F  F4  1  0.684416  0.679208  0.552642  1
  F  F5  1  0.916266  0.320792  0.447358  1
  F  F6  1  0.815584  0.947358  0.820792  1
  F  F7  1  0.583734  0.052642  0.179208  1
  F  F8  1  0.250000  0.897824  0.602176  1
  F  F9  1  0.750000  0.102176  0.397824  1
  F  F10  1  0.408963  0.321129  0.860945  1
  F  F11  1  0.591037  0.678871  0.139055  1
  F  F12  1  0.091037  0.639055  0.178871  1
  F  F13  1  0.908963  0.360945  0.821129  1
  Na  Na14  1  0.000000  0.000000  0.000000  1
  Na  Na15  1  0.500000  0.500000  0.500000  1
  Na  Na16  1  0.000000  0.500000  0.000000  1
  Na  Na17  1  0.500000  0.500000  0.000000  1
  Fe  Fe18  1  0.000000  0.500000  0.500000  1
  Fe  Fe19  1  0.500000  0.000000  0.000000  1
  Ni  Ni20  1  0.000000  0.000000  0.500000  1
  Ni  Ni21  1  0.500000  0.000000  0.500000  1
