# generated using pymatgen
data_BS2
_symmetry_space_group_name_H-M   'P 1'
_cell_length_a   4.92292777
_cell_length_b   12.45863338
_cell_length_c   21.63178670
_cell_angle_alpha   105.36940715
_cell_angle_beta   90.00000000
_cell_angle_gamma   90.00000000
_symmetry_Int_Tables_number   1
_chemical_formula_structural   BS2
_chemical_formula_sum   'B16 S32'
_cell_volume   1279.29316888
_cell_formula_units_Z   16
loop_
 _symmetry_equiv_pos_site_id
 _symmetry_equiv_pos_as_xyz
  1  'x, y, z'
loop_
 _atom_site_type_symbol
 _atom_site_label
 _atom_site_symmetry_multiplicity
 _atom_site_fract_x
 _atom_site_fract_y
 _atom_site_fract_z
 _atom_site_occupancy
  S  S0  1  0.533882  0.359082  0.160762  1
  S  S1  1  0.033882  0.140918  0.339238  1
  S  S2  1  0.466118  0.640918  0.839238  1
  S  S3  1  0.966118  0.859082  0.660762  1
  S  S4  1  0.667282  0.425619  0.087977  1
  S  S5  1  0.167282  0.074381  0.412023  1
  S  S6  1  0.332718  0.574381  0.912023  1
  S  S7  1  0.832718  0.925619  0.587977  1
  S  S8  1  0.810701  0.172761  0.053950  1
  S  S9  1  0.310701  0.327239  0.446050  1
  S  S10  1  0.189299  0.827239  0.946050  1
  S  S11  1  0.689299  0.672761  0.553950  1
  S  S12  1  0.947350  0.334243  0.961112  1
  S  S13  1  0.447350  0.165757  0.538888  1
  S  S14  1  0.052650  0.665757  0.038888  1
  S  S15  1  0.552650  0.834243  0.461112  1
  S  S16  1  0.759243  0.755410  0.163972  1
  S  S17  1  0.259243  0.744590  0.336028  1
  S  S18  1  0.240757  0.244590  0.836028  1
  S  S19  1  0.740757  0.255410  0.663972  1
  S  S20  1  0.592848  0.907578  0.211356  1
  S  S21  1  0.092848  0.592422  0.288644  1
  S  S22  1  0.407152  0.092422  0.788644  1
  S  S23  1  0.907152  0.407578  0.711356  1
  S  S24  1  0.845224  0.924298  0.081884  1
  S  S25  1  0.345224  0.575702  0.418116  1
  S  S26  1  0.154776  0.075702  0.918116  1
  S  S27  1  0.654776  0.424298  0.581884  1
  S  S28  1  0.547544  0.131637  0.184456  1
  S  S29  1  0.047544  0.368363  0.315544  1
  S  S30  1  0.452456  0.868363  0.815544  1
  S  S31  1  0.952456  0.631637  0.684456  1
  B  B32  1  0.638445  0.216041  0.130461  1
  B  B33  1  0.138445  0.283959  0.369539  1
  B  B34  1  0.361555  0.783959  0.869539  1
  B  B35  1  0.861555  0.716041  0.630461  1
  B  B36  1  0.814417  0.304446  0.033440  1
  B  B37  1  0.314417  0.195554  0.466560  1
  B  B38  1  0.185583  0.695554  0.966560  1
  B  B39  1  0.685583  0.804446  0.533440  1
  B  B40  1  0.889426  0.786091  0.092534  1
  B  B41  1  0.389426  0.713909  0.407466  1
  B  B42  1  0.110574  0.213909  0.907466  1
  B  B43  1  0.610574  0.286091  0.592534  1
  B  B44  1  0.668449  0.988894  0.155815  1
  B  B45  1  0.168449  0.511106  0.344185  1
  B  B46  1  0.331551  0.011106  0.844185  1
  B  B47  1  0.831551  0.488894  0.655815  1
