# generated using pymatgen
data_Sr8(MnN3)3
_symmetry_space_group_name_H-M   'P 1'
_cell_length_a   7.60110763
_cell_length_b   10.69248981
_cell_length_c   18.34492086
_cell_angle_alpha   90.00000000
_cell_angle_beta   97.24058710
_cell_angle_gamma   90.00000000
_symmetry_Int_Tables_number   1
_chemical_formula_structural   Sr8(MnN3)3
_chemical_formula_sum   'Sr32 Mn12 N36'
_cell_volume   1479.08958748
_cell_formula_units_Z   4
loop_
 _symmetry_equiv_pos_site_id
 _symmetry_equiv_pos_as_xyz
  1  'x, y, z'
loop_
 _atom_site_type_symbol
 _atom_site_label
 _atom_site_symmetry_multiplicity
 _atom_site_fract_x
 _atom_site_fract_y
 _atom_site_fract_z
 _atom_site_occupancy
  Sr  Sr0  1  0.057691  0.626911  0.577027  1
  Sr  Sr1  1  0.640150  0.629881  0.449283  1
  Sr  Sr2  1  0.149636  0.379554  0.934899  1
  Sr  Sr3  1  0.942309  0.373089  0.422973  1
  Sr  Sr4  1  0.063183  0.125684  0.582748  1
  Sr  Sr5  1  0.927247  0.122568  0.856123  1
  Sr  Sr6  1  0.072753  0.877432  0.143877  1
  Sr  Sr7  1  0.649636  0.120446  0.434899  1
  Sr  Sr8  1  0.015569  0.630264  0.270148  1
  Sr  Sr9  1  0.503567  0.373119  0.781101  1
  Sr  Sr10  1  0.996433  0.873119  0.718899  1
  Sr  Sr11  1  0.496433  0.626881  0.218899  1
  Sr  Sr12  1  0.135131  0.379565  0.145571  1
  Sr  Sr13  1  0.936817  0.874316  0.417252  1
  Sr  Sr14  1  0.484431  0.130264  0.229852  1
  Sr  Sr15  1  0.350364  0.879554  0.565101  1
  Sr  Sr16  1  0.003567  0.126881  0.281101  1
  Sr  Sr17  1  0.515569  0.869736  0.770148  1
  Sr  Sr18  1  0.359850  0.370119  0.550717  1
  Sr  Sr19  1  0.864869  0.620435  0.854429  1
  Sr  Sr20  1  0.850364  0.620446  0.065101  1
  Sr  Sr21  1  0.140150  0.870119  0.949283  1
  Sr  Sr22  1  0.572753  0.622568  0.643877  1
  Sr  Sr23  1  0.436817  0.625684  0.917252  1
  Sr  Sr24  1  0.859850  0.129881  0.050717  1
  Sr  Sr25  1  0.442309  0.126911  0.922973  1
  Sr  Sr26  1  0.427247  0.377432  0.356123  1
  Sr  Sr27  1  0.635131  0.120435  0.645571  1
  Sr  Sr28  1  0.557691  0.873089  0.077027  1
  Sr  Sr29  1  0.364869  0.879565  0.354429  1
  Sr  Sr30  1  0.563183  0.374316  0.082748  1
  Sr  Sr31  1  0.984431  0.369736  0.729852  1
  Mn  Mn32  1  0.734990  0.369544  0.936733  1
  Mn  Mn33  1  0.234990  0.130456  0.436733  1
  Mn  Mn34  1  0.296228  0.628265  0.751216  1
  Mn  Mn35  1  0.272642  0.119794  0.068908  1
  Mn  Mn36  1  0.765010  0.869544  0.563267  1
  Mn  Mn37  1  0.796228  0.871735  0.251216  1
  Mn  Mn38  1  0.203772  0.128265  0.748784  1
  Mn  Mn39  1  0.727358  0.880206  0.931092  1
  Mn  Mn40  1  0.703772  0.371735  0.248784  1
  Mn  Mn41  1  0.265010  0.630456  0.063267  1
  Mn  Mn42  1  0.772642  0.380206  0.568908  1
  Mn  Mn43  1  0.227358  0.619794  0.431092  1
  N  N44  1  0.368715  0.128041  0.519888  1
  N  N45  1  0.509552  0.380195  0.933668  1
  N  N46  1  0.131285  0.628041  0.980112  1
  N  N47  1  0.973391  0.115411  0.716901  1
  N  N48  1  0.155155  0.124956  0.146801  1
  N  N49  1  0.672155  0.862058  0.646589  1
  N  N50  1  0.651146  0.382164  0.481797  1
  N  N51  1  0.990448  0.880195  0.566332  1
  N  N52  1  0.236860  0.234175  0.818887  1
  N  N53  1  0.348854  0.617836  0.518203  1
  N  N54  1  0.172155  0.637942  0.146589  1
  N  N55  1  0.868715  0.371959  0.019888  1
  N  N56  1  0.503166  0.123221  0.076807  1
  N  N57  1  0.763140  0.765825  0.181113  1
  N  N58  1  0.496834  0.876779  0.923193  1
  N  N59  1  0.631285  0.871959  0.480112  1
  N  N60  1  0.263140  0.734175  0.681113  1
  N  N61  1  0.327845  0.137942  0.353411  1
  N  N62  1  0.855091  0.437636  0.199530  1
  N  N63  1  0.996834  0.623221  0.423193  1
  N  N64  1  0.526609  0.615411  0.783099  1
  N  N65  1  0.844845  0.875044  0.853199  1
  N  N66  1  0.827845  0.362058  0.853411  1
  N  N67  1  0.848854  0.882164  0.018203  1
  N  N68  1  0.144909  0.562364  0.800470  1
  N  N69  1  0.355091  0.062364  0.699530  1
  N  N70  1  0.490448  0.619805  0.066332  1
  N  N71  1  0.009552  0.119805  0.433668  1
  N  N72  1  0.151146  0.117836  0.981797  1
  N  N73  1  0.644909  0.937636  0.300470  1
  N  N74  1  0.655155  0.375044  0.646801  1
  N  N75  1  0.003166  0.376779  0.576807  1
  N  N76  1  0.344845  0.624956  0.353199  1
  N  N77  1  0.473391  0.384589  0.216901  1
  N  N78  1  0.026609  0.884589  0.283099  1
  N  N79  1  0.736860  0.265825  0.318887  1
