# generated using pymatgen
data_AlTl2F5
_symmetry_space_group_name_H-M   'P 1'
_cell_length_a   6.43957880
_cell_length_b   6.43957875
_cell_length_c   7.51786882
_cell_angle_alpha   90.00000000
_cell_angle_beta   90.00000000
_cell_angle_gamma   96.43241334
_symmetry_Int_Tables_number   1
_chemical_formula_structural   AlTl2F5
_chemical_formula_sum   'Al2 Tl4 F10'
_cell_volume   309.78972415
_cell_formula_units_Z   2
loop_
 _symmetry_equiv_pos_site_id
 _symmetry_equiv_pos_as_xyz
  1  'x, y, z'
loop_
 _atom_site_type_symbol
 _atom_site_label
 _atom_site_symmetry_multiplicity
 _atom_site_fract_x
 _atom_site_fract_y
 _atom_site_fract_z
 _atom_site_occupancy
  Tl  Tl0  1  0.523130  0.934785  0.000000  1
  Tl  Tl1  1  0.476870  0.065215  0.500000  1
  Tl  Tl2  1  0.934785  0.523130  0.500000  1
  Tl  Tl3  1  0.065215  0.476870  0.000000  1
  Al  Al4  1  0.000000  0.000000  0.250000  1
  Al  Al5  1  0.000000  0.000000  0.750000  1
  F  F6  1  0.211591  0.211591  0.250000  1
  F  F7  1  0.788409  0.788409  0.750000  1
  F  F8  1  0.788409  0.788409  0.250000  1
  F  F9  1  0.211591  0.211591  0.750000  1
  F  F10  1  0.030676  0.969324  0.000000  1
  F  F11  1  0.969324  0.030676  0.500000  1
  F  F12  1  0.186866  0.813134  0.287911  1
  F  F13  1  0.813134  0.186866  0.787911  1
  F  F14  1  0.813134  0.186866  0.212089  1
  F  F15  1  0.186866  0.813134  0.712089  1
