# generated using pymatgen
data_Zn2GeO4
_symmetry_space_group_name_H-M   'P 1'
_cell_length_a   8.95509623
_cell_length_b   8.95509624
_cell_length_c   8.95509623
_cell_angle_alpha   107.81594613
_cell_angle_beta   107.81594608
_cell_angle_gamma   107.81594612
_symmetry_Int_Tables_number   1
_chemical_formula_structural   Zn2GeO4
_chemical_formula_sum   'Zn12 Ge6 O24'
_cell_volume   584.25314025
_cell_formula_units_Z   6
loop_
 _symmetry_equiv_pos_site_id
 _symmetry_equiv_pos_as_xyz
  1  'x, y, z'
loop_
 _atom_site_type_symbol
 _atom_site_label
 _atom_site_symmetry_multiplicity
 _atom_site_fract_x
 _atom_site_fract_y
 _atom_site_fract_z
 _atom_site_occupancy
  O  O0  1  0.750746  0.073330  0.421530  1
  O  O1  1  0.073330  0.421530  0.750746  1
  O  O2  1  0.421530  0.750746  0.073330  1
  O  O3  1  0.249254  0.926670  0.578470  1
  O  O4  1  0.926670  0.578470  0.249254  1
  O  O5  1  0.578470  0.249254  0.926670  1
  O  O6  1  0.350005  0.363359  0.035171  1
  O  O7  1  0.363359  0.035171  0.350005  1
  O  O8  1  0.035171  0.350005  0.363359  1
  O  O9  1  0.649995  0.636641  0.964829  1
  O  O10  1  0.636641  0.964829  0.649995  1
  O  O11  1  0.964829  0.649995  0.636641  1
  O  O12  1  0.683863  0.721445  0.389307  1
  O  O13  1  0.721445  0.389307  0.683863  1
  O  O14  1  0.389307  0.683863  0.721445  1
  O  O15  1  0.316137  0.278555  0.610693  1
  O  O16  1  0.278555  0.610693  0.316137  1
  O  O17  1  0.610693  0.316137  0.278555  1
  O  O18  1  0.304259  0.013999  0.970659  1
  O  O19  1  0.970659  0.304259  0.013999  1
  O  O20  1  0.013999  0.970659  0.304259  1
  O  O21  1  0.695741  0.986001  0.029341  1
  O  O22  1  0.029341  0.695741  0.986001  1
  O  O23  1  0.986001  0.029341  0.695741  1
  Zn  Zn24  1  0.103343  0.275712  0.873509  1
  Zn  Zn25  1  0.275712  0.873509  0.103343  1
  Zn  Zn26  1  0.873509  0.103343  0.275712  1
  Zn  Zn27  1  0.896657  0.724288  0.126491  1
  Zn  Zn28  1  0.724288  0.126491  0.896657  1
  Zn  Zn29  1  0.126491  0.896657  0.724288  1
  Zn  Zn30  1  0.440512  0.608264  0.202876  1
  Zn  Zn31  1  0.608264  0.202876  0.440512  1
  Zn  Zn32  1  0.202876  0.440512  0.608264  1
  Zn  Zn33  1  0.559488  0.391736  0.797124  1
  Zn  Zn34  1  0.391736  0.797124  0.559488  1
  Zn  Zn35  1  0.797124  0.559488  0.391736  1
  Ge  Ge36  1  0.767935  0.945060  0.537051  1
  Ge  Ge37  1  0.945060  0.537051  0.767935  1
  Ge  Ge38  1  0.537051  0.767935  0.945060  1
  Ge  Ge39  1  0.232065  0.054940  0.462949  1
  Ge  Ge40  1  0.054940  0.462949  0.232065  1
  Ge  Ge41  1  0.462949  0.232065  0.054940  1
