# generated using pymatgen
data_La3MnBi5
_symmetry_space_group_name_H-M   'P 1'
_cell_length_a   9.82927654
_cell_length_b   9.82744041
_cell_length_c   6.59022115
_cell_angle_alpha   90.00000000
_cell_angle_beta   90.00000000
_cell_angle_gamma   119.99381554
_symmetry_Int_Tables_number   1
_chemical_formula_structural   La3MnBi5
_chemical_formula_sum   'La6 Mn2 Bi10'
_cell_volume   551.34019348
_cell_formula_units_Z   2
loop_
 _symmetry_equiv_pos_site_id
 _symmetry_equiv_pos_as_xyz
  1  'x, y, z'
loop_
 _atom_site_type_symbol
 _atom_site_label
 _atom_site_symmetry_multiplicity
 _atom_site_fract_x
 _atom_site_fract_y
 _atom_site_fract_z
 _atom_site_occupancy
  La  La0  1  0.377040  0.377021  0.250000  1
  La  La1  1  1.000000  0.622975  0.250000  1
  La  La2  1  0.000000  0.377025  0.750000  1
  La  La3  1  0.622960  -0.000019  0.250000  1
  La  La4  1  0.622960  0.622979  0.750000  1
  La  La5  1  0.377040  0.000019  0.750000  1
  Mn  Mn6  1  -0.000000  -0.000000  -0.000000  1
  Mn  Mn7  1  -0.000000  -0.000000  0.500000  1
  Bi  Bi8  1  0.666740  0.333370  0.500000  1
  Bi  Bi9  1  0.749323  0.999951  0.750000  1
  Bi  Bi10  1  0.666740  0.333370  0.000000  1
  Bi  Bi11  1  1.000000  0.250644  0.250000  1
  Bi  Bi12  1  0.333260  0.666630  0.500000  1
  Bi  Bi13  1  0.250677  0.000049  0.250000  1
  Bi  Bi14  1  0.000000  0.749356  0.750000  1
  Bi  Bi15  1  0.749323  0.749372  0.250000  1
  Bi  Bi16  1  0.333260  0.666630  -0.000000  1
  Bi  Bi17  1  0.250677  0.250628  0.750000  1
