# generated using pymatgen
data_Nb2(PO4)3
_symmetry_space_group_name_H-M   'P 1'
_cell_length_a   8.81396543
_cell_length_b   8.81149170
_cell_length_c   9.14583933
_cell_angle_alpha   60.96652683
_cell_angle_beta   118.98340692
_cell_angle_gamma   119.96998482
_symmetry_Int_Tables_number   1
_chemical_formula_structural   Nb2(PO4)3
_chemical_formula_sum   'Nb4 P6 O24'
_cell_volume   509.77595183
_cell_formula_units_Z   2
loop_
 _symmetry_equiv_pos_site_id
 _symmetry_equiv_pos_as_xyz
  1  'x, y, z'
loop_
 _atom_site_type_symbol
 _atom_site_label
 _atom_site_symmetry_multiplicity
 _atom_site_fract_x
 _atom_site_fract_y
 _atom_site_fract_z
 _atom_site_occupancy
  Nb  Nb0  1  0.140974  0.858511  0.926390  1
  Nb  Nb1  1  0.358148  0.642856  0.570567  1
  Nb  Nb2  1  0.641852  0.357144  0.429433  1
  Nb  Nb3  1  0.859026  0.141489  0.073610  1
  O  O4  1  0.293172  0.925650  0.783479  1
  O  O5  1  0.010857  0.217576  0.923257  1
  O  O6  1  0.144500  0.737782  0.404375  1
  O  O7  1  0.197414  0.431096  0.717559  1
  O  O8  1  0.074390  0.087867  0.774559  1
  O  O9  1  0.446154  0.805404  0.712331  1
  O  O10  1  0.266451  0.486902  0.418355  1
  O  O11  1  0.362169  1.002242  0.086852  1
  O  O12  1  0.215726  0.632300  0.089023  1
  O  O13  1  0.083411  0.287286  0.225731  1
  O  O14  1  0.510724  0.853850  0.411934  1
  O  O15  1  0.573907  0.552251  0.722126  1
  O  O16  1  0.426093  0.447749  0.277874  1
  O  O17  1  0.489276  0.146150  0.588066  1
  O  O18  1  0.916589  0.712714  0.774269  1
  O  O19  1  0.784274  0.367700  0.910977  1
  O  O20  1  0.637831  -0.002242  0.913148  1
  O  O21  1  0.733549  0.513098  0.581645  1
  O  O22  1  0.553846  0.194596  0.287669  1
  O  O23  1  0.925610  0.912133  0.225441  1
  O  O24  1  0.802586  0.568904  0.282441  1
  O  O25  1  0.855500  0.262218  0.595625  1
  O  O26  1  0.989143  0.782424  0.076743  1
  O  O27  1  0.706828  0.074350  0.216521  1
  P  P28  1  0.033620  0.250250  0.752545  1
  P  P29  1  0.468026  0.969878  0.748979  1
  P  P30  1  0.248392  0.464823  0.253006  1
  P  P31  1  0.751608  0.535177  0.746994  1
  P  P32  1  0.531974  0.030122  0.251021  1
  P  P33  1  0.966380  0.749750  0.247455  1
