# generated using pymatgen
data_AuCS2Cl3
_symmetry_space_group_name_H-M   'P 1'
_cell_length_a   9.43306941
_cell_length_b   9.43306962
_cell_length_c   11.61999019
_cell_angle_alpha   65.70167189
_cell_angle_beta   65.70167129
_cell_angle_gamma   69.19375661
_symmetry_Int_Tables_number   1
_chemical_formula_structural   AuCS2Cl3
_chemical_formula_sum   'Au4 C4 S8 Cl12'
_cell_volume   837.12215080
_cell_formula_units_Z   4
loop_
 _symmetry_equiv_pos_site_id
 _symmetry_equiv_pos_as_xyz
  1  'x, y, z'
loop_
 _atom_site_type_symbol
 _atom_site_label
 _atom_site_symmetry_multiplicity
 _atom_site_fract_x
 _atom_site_fract_y
 _atom_site_fract_z
 _atom_site_occupancy
  Au  Au0  1  0.954116  0.708829  0.538398  1
  Au  Au1  1  0.045884  0.291171  0.461602  1
  Au  Au2  1  0.708829  0.954116  0.038398  1
  Au  Au3  1  0.291171  0.045884  0.961602  1
  C  C4  1  0.248101  0.701533  0.549094  1
  C  C5  1  0.751899  0.298467  0.450906  1
  C  C6  1  0.298467  0.751899  0.950906  1
  C  C7  1  0.701533  0.248101  0.049094  1
  S  S8  1  0.863080  0.432547  0.339971  1
  S  S9  1  0.432547  0.863080  0.839971  1
  S  S10  1  0.160681  0.833013  0.068950  1
  S  S11  1  0.166987  0.839319  0.431050  1
  S  S12  1  0.136920  0.567453  0.660029  1
  S  S13  1  0.567453  0.136920  0.160029  1
  S  S14  1  0.833013  0.160681  0.568950  1
  S  S15  1  0.839319  0.166987  0.931050  1
  Cl  Cl16  1  0.233074  0.449938  0.331270  1
  Cl  Cl17  1  0.302127  0.575180  0.945466  1
  Cl  Cl18  1  0.550062  0.766926  0.168730  1
  Cl  Cl19  1  0.196004  0.123611  0.604564  1
  Cl  Cl20  1  0.766926  0.550062  0.668730  1
  Cl  Cl21  1  0.575180  0.302127  0.445466  1
  Cl  Cl22  1  0.876389  0.803996  0.895436  1
  Cl  Cl23  1  0.424820  0.697873  0.554534  1
  Cl  Cl24  1  0.449938  0.233074  0.831270  1
  Cl  Cl25  1  0.123611  0.196004  0.104564  1
  Cl  Cl26  1  0.803996  0.876389  0.395436  1
  Cl  Cl27  1  0.697873  0.424820  0.054534  1
