# generated using pymatgen
data_Ba3LiRu2O9
_symmetry_space_group_name_H-M   'P 1'
_cell_length_a   5.86772394
_cell_length_b   5.86772405
_cell_length_c   14.39386459
_cell_angle_alpha   90.00000000
_cell_angle_beta   90.00000000
_cell_angle_gamma   119.99999939
_symmetry_Int_Tables_number   1
_chemical_formula_structural   Ba3LiRu2O9
_chemical_formula_sum   'Ba6 Li2 Ru4 O18'
_cell_volume   429.18783310
_cell_formula_units_Z   2
loop_
 _symmetry_equiv_pos_site_id
 _symmetry_equiv_pos_as_xyz
  1  'x, y, z'
loop_
 _atom_site_type_symbol
 _atom_site_label
 _atom_site_symmetry_multiplicity
 _atom_site_fract_x
 _atom_site_fract_y
 _atom_site_fract_z
 _atom_site_occupancy
  Ba  Ba0  1  0.333333  0.666667  0.589909  1
  Ba  Ba1  1  0.666667  0.333333  0.089909  1
  Ba  Ba2  1  0.666667  0.333333  0.410091  1
  Ba  Ba3  1  0.333333  0.666667  0.910091  1
  Ba  Ba4  1  0.000000  0.000000  0.250000  1
  Ba  Ba5  1  0.000000  0.000000  0.750000  1
  Li  Li6  1  0.000000  0.000000  0.000000  1
  Li  Li7  1  0.000000  0.000000  0.500000  1
  Ru  Ru8  1  0.333333  0.666667  0.347738  1
  Ru  Ru9  1  0.666667  0.333333  0.847738  1
  Ru  Ru10  1  0.666667  0.333333  0.652262  1
  Ru  Ru11  1  0.333333  0.666667  0.152262  1
  O  O12  1  0.483392  0.966785  0.250000  1
  O  O13  1  0.516608  0.483392  0.750000  1
  O  O14  1  0.966785  0.483392  0.750000  1
  O  O15  1  0.033215  0.516608  0.250000  1
  O  O16  1  0.483392  0.516608  0.250000  1
  O  O17  1  0.516608  0.033215  0.750000  1
  O  O18  1  0.173957  0.347914  0.414422  1
  O  O19  1  0.826043  0.173957  0.914422  1
  O  O20  1  0.347914  0.173957  0.914422  1
  O  O21  1  0.652086  0.826043  0.414422  1
  O  O22  1  0.173957  0.826043  0.414422  1
  O  O23  1  0.826043  0.652086  0.585578  1
  O  O24  1  0.826043  0.173957  0.585578  1
  O  O25  1  0.826043  0.652086  0.914422  1
  O  O26  1  0.347914  0.173957  0.585578  1
  O  O27  1  0.652086  0.826043  0.085578  1
  O  O28  1  0.173957  0.347914  0.085578  1
  O  O29  1  0.173957  0.826043  0.085578  1
