# generated using pymatgen
data_Ag5(Sn3S8)2
_symmetry_space_group_name_H-M   'P 1'
_cell_length_a   10.73952313
_cell_length_b   10.72235807
_cell_length_c   10.74195281
_cell_angle_alpha   90.00626393
_cell_angle_beta   89.02866579
_cell_angle_gamma   89.99605603
_symmetry_Int_Tables_number   1
_chemical_formula_structural   Ag5(Sn3S8)2
_chemical_formula_sum   'Ag10 Sn12 S32'
_cell_volume   1236.79046573
_cell_formula_units_Z   2
loop_
 _symmetry_equiv_pos_site_id
 _symmetry_equiv_pos_as_xyz
  1  'x, y, z'
loop_
 _atom_site_type_symbol
 _atom_site_label
 _atom_site_symmetry_multiplicity
 _atom_site_fract_x
 _atom_site_fract_y
 _atom_site_fract_z
 _atom_site_occupancy
  Ag  Ag0  1  0.111787  0.874859  0.638083  1
  Ag  Ag1  1  0.128787  0.374955  0.621146  1
  Ag  Ag2  1  0.135652  0.382110  0.127829  1
  Ag  Ag3  1  0.377014  0.625177  0.127021  1
  Ag  Ag4  1  0.377670  0.868125  0.885750  1
  Ag  Ag5  1  0.622884  0.124904  0.373092  1
  Ag  Ag6  1  0.622097  0.367853  0.614467  1
  Ag  Ag7  1  0.864202  0.881945  0.372322  1
  Ag  Ag8  1  0.870979  0.874944  0.878899  1
  Ag  Ag9  1  0.888028  0.374900  0.861800  1
  Sn  Sn10  1  0.122176  0.630728  0.375534  1
  Sn  Sn11  1  0.126162  0.881974  0.134958  1
  Sn  Sn12  1  0.134677  0.124849  0.884941  1
  Sn  Sn13  1  0.372532  0.874770  0.377395  1
  Sn  Sn14  1  0.374377  0.119056  0.627950  1
  Sn  Sn15  1  0.384666  0.368014  0.876316  1
  Sn  Sn16  1  0.614900  0.867738  0.623848  1
  Sn  Sn17  1  0.625273  0.618969  0.872226  1
  Sn  Sn18  1  0.627107  0.375103  0.122753  1
  Sn  Sn19  1  0.865116  0.624975  0.615308  1
  Sn  Sn20  1  0.873629  0.382126  0.365096  1
  Sn  Sn21  1  0.877740  0.130864  0.124526  1
  S  S22  1  0.105238  0.633670  0.614020  1
  S  S23  1  0.113532  0.390920  0.368036  1
  S  S24  1  0.131445  0.638666  0.137081  1
  S  S25  1  0.122018  0.877978  0.378287  1
  S  S26  1  0.124732  0.128170  0.127777  1
  S  S27  1  0.134877  0.884803  0.892707  1
  S  S28  1  0.135879  0.116082  0.644699  1
  S  S29  1  0.142364  0.364902  0.884822  1
  S  S30  1  0.360307  0.635969  0.371962  1
  S  S31  1  0.364136  0.876426  0.138078  1
  S  S32  1  0.378563  0.113806  0.389748  1
  S  S33  1  0.371560  0.871808  0.627846  1
  S  S34  1  0.377513  0.121815  0.874989  1
  S  S35  1  0.381878  0.358782  0.636445  1
  S  S36  1  0.386804  0.611317  0.881298  1
  S  S37  1  0.387766  0.373593  0.114229  1
  S  S38  1  0.611965  0.873508  0.385869  1
  S  S39  1  0.612814  0.111193  0.618340  1
  S  S40  1  0.617632  0.858815  0.863756  1
  S  S41  1  0.622218  0.621596  0.625210  1
  S  S42  1  0.628075  0.371766  0.872313  1
  S  S43  1  0.621568  0.613908  0.110382  1
  S  S44  1  0.635597  0.376294  0.362257  1
  S  S45  1  0.639440  0.136053  0.128730  1
  S  S46  1  0.857173  0.864955  0.615288  1
  S  S47  1  0.863773  0.616339  0.855376  1
  S  S48  1  0.865048  0.384955  0.607401  1
  S  S49  1  0.875099  0.628136  0.372389  1
  S  S50  1  0.877563  0.378042  0.121738  1
  S  S51  1  0.868000  0.138676  0.363042  1
  S  S52  1  0.886253  0.891042  0.132141  1
  S  S53  1  0.894516  0.133477  0.886084  1
