# generated using pymatgen
data_PdSCl
_symmetry_space_group_name_H-M   'P 1'
_cell_length_a   9.25453756
_cell_length_b   9.64481850
_cell_length_c   14.39622316
_cell_angle_alpha   90.00000000
_cell_angle_beta   91.93386739
_cell_angle_gamma   90.00000000
_symmetry_Int_Tables_number   1
_chemical_formula_structural   PdSCl
_chemical_formula_sum   'Pd16 S16 Cl16'
_cell_volume   1284.25104051
_cell_formula_units_Z   16
loop_
 _symmetry_equiv_pos_site_id
 _symmetry_equiv_pos_as_xyz
  1  'x, y, z'
loop_
 _atom_site_type_symbol
 _atom_site_label
 _atom_site_symmetry_multiplicity
 _atom_site_fract_x
 _atom_site_fract_y
 _atom_site_fract_z
 _atom_site_occupancy
  Pd  Pd0  1  0.025056  0.206748  0.982348  1
  Pd  Pd1  1  0.399177  0.094682  0.321619  1
  Pd  Pd2  1  0.525056  0.293252  0.482348  1
  Pd  Pd3  1  0.100823  0.594682  0.178381  1
  Pd  Pd4  1  0.669792  0.879844  0.360720  1
  Pd  Pd5  1  0.204819  0.922097  0.478456  1
  Pd  Pd6  1  0.830208  0.379844  0.139280  1
  Pd  Pd7  1  0.600823  0.905318  0.678381  1
  Pd  Pd8  1  0.474944  0.706748  0.517652  1
  Pd  Pd9  1  0.795181  0.077903  0.521544  1
  Pd  Pd10  1  0.330208  0.120156  0.639280  1
  Pd  Pd11  1  0.974944  0.793252  0.017652  1
  Pd  Pd12  1  0.295181  0.422097  0.021544  1
  Pd  Pd13  1  0.899177  0.405318  0.821619  1
  Pd  Pd14  1  0.169792  0.620156  0.860720  1
  Pd  Pd15  1  0.704819  0.577903  0.978456  1
  S  S16  1  0.275099  0.404289  0.862330  1
  S  S17  1  0.322621  0.653960  0.987939  1
  S  S18  1  0.099428  0.265086  0.836522  1
  S  S19  1  0.599428  0.234914  0.336522  1
  S  S20  1  0.224901  0.904289  0.637670  1
  S  S21  1  0.724901  0.595711  0.137670  1
  S  S22  1  0.400572  0.765086  0.663478  1
  S  S23  1  0.822621  0.846040  0.487939  1
  S  S24  1  0.775099  0.095711  0.362330  1
  S  S25  1  0.199898  0.762858  0.087080  1
  S  S26  1  0.300102  0.262858  0.412920  1
  S  S27  1  0.900572  0.734914  0.163478  1
  S  S28  1  0.677379  0.346040  0.012061  1
  S  S29  1  0.177379  0.153960  0.512061  1
  S  S30  1  0.800102  0.237142  0.912920  1
  S  S31  1  0.699898  0.737142  0.587080  1
  Cl  Cl32  1  0.476187  0.064739  0.774292  1
  Cl  Cl33  1  0.179155  0.964075  0.315186  1
  Cl  Cl34  1  0.768403  0.322491  0.540205  1
  Cl  Cl35  1  0.231597  0.677509  0.459795  1
  Cl  Cl36  1  0.731597  0.822491  0.959795  1
  Cl  Cl37  1  0.574744  0.650624  0.371661  1
  Cl  Cl38  1  0.523813  0.935261  0.225708  1
  Cl  Cl39  1  0.074744  0.849376  0.871661  1
  Cl  Cl40  1  0.425256  0.349376  0.628339  1
  Cl  Cl41  1  0.268403  0.177509  0.040205  1
  Cl  Cl42  1  0.976187  0.435261  0.274292  1
  Cl  Cl43  1  0.679155  0.535925  0.815186  1
  Cl  Cl44  1  0.820845  0.035925  0.684814  1
  Cl  Cl45  1  0.320845  0.464075  0.184814  1
  Cl  Cl46  1  0.925256  0.150624  0.128339  1
  Cl  Cl47  1  0.023813  0.564739  0.725708  1
