# generated using pymatgen
data_Ag2Se
_symmetry_space_group_name_H-M   'P 1'
_cell_length_a   7.14682896
_cell_length_b   7.77430775
_cell_length_c   4.97040324
_cell_angle_alpha   90.00000000
_cell_angle_beta   90.00000000
_cell_angle_gamma   90.00000000
_symmetry_Int_Tables_number   1
_chemical_formula_structural   Ag2Se
_chemical_formula_sum   'Ag8 Se4'
_cell_volume   276.16379410
_cell_formula_units_Z   4
loop_
 _symmetry_equiv_pos_site_id
 _symmetry_equiv_pos_as_xyz
  1  'x, y, z'
loop_
 _atom_site_type_symbol
 _atom_site_label
 _atom_site_symmetry_multiplicity
 _atom_site_fract_x
 _atom_site_fract_y
 _atom_site_fract_z
 _atom_site_occupancy
  Ag  Ag0  1  0.507949  0.973786  0.249874  1
  Ag  Ag1  1  0.992051  0.026214  0.749874  1
  Ag  Ag2  1  0.863848  0.210906  0.249924  1
  Ag  Ag3  1  0.007949  0.526214  0.750126  1
  Ag  Ag4  1  0.363848  0.289094  0.750076  1
  Ag  Ag5  1  0.636152  0.789094  0.749924  1
  Ag  Ag6  1  0.136152  0.710906  0.250076  1
  Ag  Ag7  1  0.492051  0.473786  0.250126  1
  Se  Se8  1  0.765138  0.283504  0.749944  1
  Se  Se9  1  0.234862  0.783504  0.750056  1
  Se  Se10  1  0.265138  0.216496  0.250056  1
  Se  Se11  1  0.734862  0.716496  0.249944  1
