# generated using pymatgen
data_KAl2P2H5O11
_symmetry_space_group_name_H-M   'P 1'
_cell_length_a   9.58815313
_cell_length_b   9.58943676
_cell_length_c   9.61899563
_cell_angle_alpha   90.00000000
_cell_angle_beta   103.31656225
_cell_angle_gamma   90.00000000
_symmetry_Int_Tables_number   1
_chemical_formula_structural   KAl2P2H5O11
_chemical_formula_sum   'K4 Al8 P8 H20 O44'
_cell_volume   860.63848911
_cell_formula_units_Z   4
loop_
 _symmetry_equiv_pos_site_id
 _symmetry_equiv_pos_as_xyz
  1  'x, y, z'
loop_
 _atom_site_type_symbol
 _atom_site_label
 _atom_site_symmetry_multiplicity
 _atom_site_fract_x
 _atom_site_fract_y
 _atom_site_fract_z
 _atom_site_occupancy
  K  K0  1  0.521691  0.203384  0.901974  1
  K  K1  1  0.978309  0.703384  0.598026  1
  K  K2  1  0.478309  0.796616  0.098026  1
  K  K3  1  0.021691  0.296616  0.401974  1
  Al  Al4  1  0.389893  0.543603  0.371520  1
  Al  Al5  1  0.110107  0.043603  0.128480  1
  Al  Al6  1  0.610107  0.456397  0.628480  1
  Al  Al7  1  0.889893  0.956397  0.871520  1
  Al  Al8  1  0.601754  0.225231  0.309870  1
  Al  Al9  1  0.898246  0.725231  0.190130  1
  Al  Al10  1  0.398246  0.774769  0.690130  1
  Al  Al11  1  0.101754  0.274769  0.809870  1
  P  P12  1  0.796407  0.027142  0.147935  1
  P  P13  1  0.703593  0.527142  0.352065  1
  P  P14  1  0.203593  0.972858  0.852065  1
  P  P15  1  0.296407  0.472858  0.647935  1
  P  P16  1  0.790932  0.185658  0.632476  1
  P  P17  1  0.709068  0.685658  0.867524  1
  P  P18  1  0.209068  0.814342  0.367524  1
  P  P19  1  0.290932  0.314342  0.132476  1
  O  O20  1  0.949744  0.086852  0.203116  1
  O  O21  1  0.550256  0.586852  0.296884  1
  O  O22  1  0.050256  0.913148  0.796884  1
  O  O23  1  0.449744  0.413148  0.703116  1
  O  O24  1  0.682086  0.122127  0.184008  1
  O  O25  1  0.817914  0.622127  0.315992  1
  O  O26  1  0.317914  0.877873  0.815992  1
  O  O27  1  0.182086  0.377873  0.684008  1
  O  O28  1  0.760712  0.011062  0.982282  1
  O  O29  1  0.739288  0.511062  0.517718  1
  O  O30  1  0.239288  0.988938  0.017718  1
  O  O31  1  0.260712  0.488938  0.482282  1
  O  O32  1  0.712334  0.381183  0.282348  1
  O  O33  1  0.787666  0.881183  0.217652  1
  O  O34  1  0.287666  0.618817  0.717652  1
  O  O35  1  0.212334  0.118817  0.782348  1
  O  O36  1  0.949004  0.229944  0.662071  1
  O  O37  1  0.550996  0.729944  0.837929  1
  O  O38  1  0.050996  0.770056  0.337929  1
  O  O39  1  0.449004  0.270056  0.162071  1
  O  O40  1  0.779986  0.039231  0.702402  1
  O  O41  1  0.720014  0.539231  0.797598  1
  O  O42  1  0.220014  0.960769  0.297598  1
  O  O43  1  0.279986  0.460769  0.202402  1
  O  O44  1  0.697595  0.288091  0.695432  1
  O  O45  1  0.802405  0.788091  0.804568  1
  O  O46  1  0.302405  0.711909  0.304568  1
  O  O47  1  0.197595  0.211909  0.195432  1
  O  O48  1  0.737234  0.170428  0.470228  1
  O  O49  1  0.762766  0.670428  0.029772  1
  O  O50  1  0.262766  0.829572  0.529772  1
  O  O51  1  0.237234  0.329572  0.970228  1
  O  O52  1  0.498539  0.363593  0.443962  1
  O  O53  1  0.001461  0.863593  0.056038  1
  O  O54  1  0.501461  0.636407  0.556038  1
  O  O55  1  0.998539  0.136407  0.943962  1
  O  O56  1  0.495325  0.061630  0.347539  1
  O  O57  1  0.004675  0.561630  0.152461  1
  O  O58  1  0.504675  0.938370  0.652461  1
  O  O59  1  0.995325  0.438370  0.847539  1
  O  O60  1  0.319164  0.139107  0.543061  1
  O  O61  1  0.180836  0.639107  0.956939  1
  O  O62  1  0.680836  0.860893  0.456939  1
  O  O63  1  0.819164  0.360893  0.043061  1
  H  H64  1  0.431769  0.300213  0.477026  1
  H  H65  1  0.068231  0.800213  0.022974  1
  H  H66  1  0.568231  0.699787  0.522974  1
  H  H67  1  0.931769  0.199787  0.977026  1
  H  H68  1  0.555116  0.980542  0.394046  1
  H  H69  1  0.944884  0.480542  0.105954  1
  H  H70  1  0.444884  0.019458  0.605954  1
  H  H71  1  0.055116  0.519458  0.894046  1
  H  H72  1  0.393474  0.033484  0.314180  1
  H  H73  1  0.106526  0.533484  0.185820  1
  H  H74  1  0.606526  0.966516  0.685820  1
  H  H75  1  0.893474  0.466516  0.814180  1
  H  H76  1  0.267863  0.079421  0.464228  1
  H  H77  1  0.232137  0.579421  0.035772  1
  H  H78  1  0.732137  0.920579  0.535772  1
  H  H79  1  0.767863  0.420579  0.964228  1
  H  H80  1  0.267448  0.132480  0.621773  1
  H  H81  1  0.232552  0.632480  0.878227  1
  H  H82  1  0.732552  0.867520  0.378227  1
  H  H83  1  0.767448  0.367520  0.121773  1
