# generated using pymatgen
data_RbGa3(P3O10)2
_symmetry_space_group_name_H-M   'P 1'
_cell_length_a   8.35675590
_cell_length_b   8.35675567
_cell_length_c   12.21933858
_cell_angle_alpha   90.00000000
_cell_angle_beta   90.00000000
_cell_angle_gamma   105.18580947
_symmetry_Int_Tables_number   1
_chemical_formula_structural   RbGa3(P3O10)2
_chemical_formula_sum   'Rb2 Ga6 P12 O40'
_cell_volume   823.54449074
_cell_formula_units_Z   2
loop_
 _symmetry_equiv_pos_site_id
 _symmetry_equiv_pos_as_xyz
  1  'x, y, z'
loop_
 _atom_site_type_symbol
 _atom_site_label
 _atom_site_symmetry_multiplicity
 _atom_site_fract_x
 _atom_site_fract_y
 _atom_site_fract_z
 _atom_site_occupancy
  Rb  Rb0  1  0.473623  0.473623  0.500000  1
  Rb  Rb1  1  0.526377  0.526377  0.000000  1
  Ga  Ga2  1  0.706280  0.293720  0.250000  1
  Ga  Ga3  1  0.864525  0.864525  0.500000  1
  Ga  Ga4  1  0.293720  0.706280  0.750000  1
  Ga  Ga5  1  0.243695  0.756305  0.250000  1
  Ga  Ga6  1  0.756305  0.243695  0.750000  1
  Ga  Ga7  1  0.135475  0.135475  0.000000  1
  P  P8  1  0.149847  0.741127  0.987867  1
  P  P9  1  0.697030  0.825643  0.723288  1
  P  P10  1  0.093875  0.367379  0.317030  1
  P  P11  1  0.906125  0.632621  0.817030  1
  P  P12  1  0.174357  0.302970  0.776712  1
  P  P13  1  0.632621  0.906125  0.182970  1
  P  P14  1  0.850153  0.258873  0.487867  1
  P  P15  1  0.302970  0.174357  0.223288  1
  P  P16  1  0.258873  0.850153  0.512133  1
  P  P17  1  0.825643  0.697030  0.276712  1
  P  P18  1  0.367379  0.093875  0.682970  1
  P  P19  1  0.741127  0.149847  0.012133  1
  O  O20  1  0.949594  0.334066  0.239691  1
  O  O21  1  0.749428  0.737616  0.386486  1
  O  O22  1  0.010345  0.730992  0.290559  1
  O  O23  1  0.210365  0.172237  0.686254  1
  O  O24  1  0.768001  0.476069  0.801480  1
  O  O25  1  0.172237  0.210365  0.313746  1
  O  O26  1  0.034787  0.362357  0.442592  1
  O  O27  1  0.637643  0.965213  0.057408  1
  O  O28  1  0.678652  0.161367  0.897352  1
  O  O29  1  0.728726  0.531077  0.232833  1
  O  O30  1  0.723820  0.304332  0.412022  1
  O  O31  1  0.922838  0.146300  0.021810  1
  O  O32  1  0.362357  0.034787  0.557408  1
  O  O33  1  0.523931  0.231999  0.698520  1
  O  O34  1  0.146300  0.922838  0.978190  1
  O  O35  1  0.531077  0.728726  0.767167  1
  O  O36  1  0.853700  0.077162  0.478190  1
  O  O37  1  0.269008  0.989655  0.209441  1
  O  O38  1  0.321348  0.838633  0.397352  1
  O  O39  1  0.077162  0.853700  0.521810  1
  O  O40  1  0.250572  0.262384  0.886486  1
  O  O41  1  0.695668  0.276180  0.087978  1
  O  O42  1  0.838633  0.321348  0.602648  1
  O  O43  1  0.827762  0.789635  0.813746  1
  O  O44  1  0.050406  0.665934  0.739691  1
  O  O45  1  0.730992  0.010345  0.709441  1
  O  O46  1  0.231999  0.523931  0.301480  1
  O  O47  1  0.262384  0.250572  0.113514  1
  O  O48  1  0.304332  0.723820  0.587978  1
  O  O49  1  0.334066  0.949594  0.760309  1
  O  O50  1  0.476069  0.768001  0.198520  1
  O  O51  1  0.789635  0.827762  0.186254  1
  O  O52  1  0.271274  0.468923  0.732833  1
  O  O53  1  0.161367  0.678652  0.102648  1
  O  O54  1  0.276180  0.695668  0.912022  1
  O  O55  1  0.665934  0.050406  0.260309  1
  O  O56  1  0.989655  0.269008  0.790559  1
  O  O57  1  0.965213  0.637643  0.942592  1
  O  O58  1  0.468923  0.271274  0.267167  1
  O  O59  1  0.737616  0.749428  0.613514  1
