# generated using pymatgen
data_MnH11C5NO6
_symmetry_space_group_name_H-M   'P 1'
_cell_length_a   8.36258931
_cell_length_b   9.17263833
_cell_length_c   12.18007957
_cell_angle_alpha   90.00000000
_cell_angle_beta   90.00000000
_cell_angle_gamma   90.00000000
_symmetry_Int_Tables_number   1
_chemical_formula_structural   MnH11C5NO6
_chemical_formula_sum   'Mn4 H44 C20 N4 O24'
_cell_volume   934.29745180
_cell_formula_units_Z   4
loop_
 _symmetry_equiv_pos_site_id
 _symmetry_equiv_pos_as_xyz
  1  'x, y, z'
loop_
 _atom_site_type_symbol
 _atom_site_label
 _atom_site_symmetry_multiplicity
 _atom_site_fract_x
 _atom_site_fract_y
 _atom_site_fract_z
 _atom_site_occupancy
  Mn  Mn0  1  0.996198  0.029650  0.999760  1
  Mn  Mn1  1  0.496198  0.470350  0.499760  1
  Mn  Mn2  1  0.003802  0.970350  0.499760  1
  Mn  Mn3  1  0.503802  0.529650  0.999760  1
  H  H4  1  0.708117  0.173436  0.535226  1
  H  H5  1  0.368301  0.151460  0.195782  1
  H  H6  1  0.005550  0.670047  0.693994  1
  H  H7  1  0.152075  0.383905  0.275457  1
  H  H8  1  0.825421  0.505414  0.285499  1
  H  H9  1  0.174579  0.494586  0.785499  1
  H  H10  1  0.935880  0.727316  0.200841  1
  H  H11  1  0.131699  0.651460  0.195782  1
  H  H12  1  0.929435  0.015338  0.257014  1
  H  H13  1  0.976077  0.579438  0.111879  1
  H  H14  1  0.070565  0.984662  0.757014  1
  H  H15  1  0.064120  0.272684  0.700841  1
  H  H16  1  0.570565  0.515338  0.257014  1
  H  H17  1  0.494450  0.170047  0.693994  1
  H  H18  1  0.564120  0.227316  0.200841  1
  H  H19  1  0.505550  0.829953  0.193994  1
  H  H20  1  0.491333  0.937374  0.864624  1
  H  H21  1  0.291883  0.826564  0.035226  1
  H  H22  1  0.769762  0.753880  0.953348  1
  H  H23  1  0.476077  0.920562  0.611879  1
  H  H24  1  0.325421  0.994586  0.785499  1
  H  H25  1  0.791883  0.673436  0.535226  1
  H  H26  1  0.269762  0.746120  0.453348  1
  H  H27  1  0.208117  0.326564  0.035226  1
  H  H28  1  0.429435  0.484662  0.757014  1
  H  H29  1  0.435880  0.772684  0.700841  1
  H  H30  1  0.523923  0.079438  0.111879  1
  H  H31  1  0.347925  0.883905  0.275457  1
  H  H32  1  0.986298  0.304164  0.331889  1
  H  H33  1  0.994450  0.329953  0.193994  1
  H  H34  1  0.230238  0.246120  0.453348  1
  H  H35  1  0.674579  0.005414  0.285499  1
  H  H36  1  0.652075  0.116095  0.775457  1
  H  H37  1  0.847925  0.616095  0.775457  1
  H  H38  1  0.508667  0.062626  0.364624  1
  H  H39  1  0.991333  0.562626  0.364624  1
  H  H40  1  0.486298  0.195836  0.831889  1
  H  H41  1  0.631699  0.848540  0.695782  1
  H  H42  1  0.868301  0.348540  0.695782  1
  H  H43  1  0.513702  0.804164  0.331889  1
  H  H44  1  0.730238  0.253880  0.953348  1
  H  H45  1  0.013702  0.695836  0.831889  1
  H  H46  1  0.023923  0.420562  0.611879  1
  H  H47  1  0.008667  0.437374  0.864624  1
  C  C48  1  0.057701  0.985752  0.249947  1
  C  C49  1  0.783109  0.305258  0.027455  1
  C  C50  1  0.045189  0.477525  0.783539  1
  C  C51  1  0.003788  0.625779  0.192748  1
  C  C52  1  0.229722  0.763397  0.970455  1
  C  C53  1  0.545189  0.022475  0.283539  1
  C  C54  1  0.496212  0.125779  0.192748  1
  C  C55  1  0.996212  0.374221  0.692748  1
  C  C56  1  0.442299  0.485752  0.249947  1
  C  C57  1  0.954811  0.522475  0.283539  1
  C  C58  1  0.454811  0.977525  0.783539  1
  C  C59  1  0.216891  0.694742  0.527455  1
  C  C60  1  0.716891  0.805258  0.027455  1
  C  C61  1  0.770278  0.236603  0.470455  1
  C  C62  1  0.729722  0.736603  0.470455  1
  C  C63  1  0.942299  0.014248  0.749947  1
  C  C64  1  0.283109  0.194742  0.527455  1
  C  C65  1  0.557701  0.514248  0.749947  1
  C  C66  1  0.503788  0.874221  0.692748  1
  C  C67  1  0.270278  0.263397  0.970455  1
  N  N68  1  0.528375  0.125331  0.769832  1
  N  N69  1  0.028375  0.374669  0.269832  1
  N  N70  1  0.471625  0.874669  0.269832  1
  N  N71  1  0.971625  0.625331  0.769832  1
  O  O72  1  0.405730  0.257652  0.568449  1
  O  O73  1  0.121762  0.990468  0.155951  1
  O  O74  1  0.094270  0.757652  0.568449  1
  O  O75  1  0.597219  0.684421  0.435365  1
  O  O76  1  0.869255  0.050550  0.837761  1
  O  O77  1  0.792669  0.853115  0.436129  1
  O  O78  1  0.902781  0.184421  0.435365  1
  O  O79  1  0.630745  0.550550  0.837761  1
  O  O80  1  0.621762  0.509532  0.655951  1
  O  O81  1  0.219356  0.080207  0.564535  1
  O  O82  1  0.594270  0.742348  0.068449  1
  O  O83  1  0.402781  0.315579  0.935365  1
  O  O84  1  0.905730  0.242348  0.068449  1
  O  O85  1  0.719356  0.419793  0.064535  1
  O  O86  1  0.097219  0.815579  0.935365  1
  O  O87  1  0.378238  0.490468  0.155951  1
  O  O88  1  0.878238  0.009532  0.655951  1
  O  O89  1  0.207331  0.146885  0.936129  1
  O  O90  1  0.369255  0.449450  0.337761  1
  O  O91  1  0.780644  0.919793  0.064535  1
  O  O92  1  0.292669  0.646885  0.936129  1
  O  O93  1  0.130745  0.949450  0.337761  1
  O  O94  1  0.280644  0.580207  0.564535  1
  O  O95  1  0.707331  0.353115  0.436129  1
