# generated using pymatgen
data_NbCuO3F
_symmetry_space_group_name_H-M   'P 1'
_cell_length_a   3.84027248
_cell_length_b   6.79745664
_cell_length_c   6.65684445
_cell_angle_alpha   67.26306831
_cell_angle_beta   86.60225233
_cell_angle_gamma   80.38823182
_symmetry_Int_Tables_number   1
_chemical_formula_structural   NbCuO3F
_chemical_formula_sum   'Nb2 Cu2 O6 F2'
_cell_volume   158.01444153
_cell_formula_units_Z   2
loop_
 _symmetry_equiv_pos_site_id
 _symmetry_equiv_pos_as_xyz
  1  'x, y, z'
loop_
 _atom_site_type_symbol
 _atom_site_label
 _atom_site_symmetry_multiplicity
 _atom_site_fract_x
 _atom_site_fract_y
 _atom_site_fract_z
 _atom_site_occupancy
  F  F0  1  0.840105  0.853286  0.754566  1
  O  O1  1  0.753284  0.917379  0.144736  1
  Nb  Nb2  1  0.268273  0.837458  0.217246  1
  O  O3  1  0.246750  0.082606  0.855177  1
  F  F4  1  0.159992  0.146720  0.245357  1
  O  O5  1  0.668214  0.393622  0.891440  1
  O  O6  1  0.712545  0.308162  0.491953  1
  Cu  Cu7  1  0.288830  0.647218  0.804498  1
  O  O8  1  0.331782  0.606309  0.108565  1
  O  O9  1  0.287455  0.691829  0.508047  1
  Nb  Nb10  1  0.731711  0.162527  0.782722  1
  Cu  Cu11  1  0.711060  0.352883  0.195695  1
