# generated using pymatgen
data_Sb2ClF17
_symmetry_space_group_name_H-M   'P 1'
_cell_length_a   8.57911914
_cell_length_b   12.02601596
_cell_length_c   12.28815125
_cell_angle_alpha   97.78828223
_cell_angle_beta   90.00000000
_cell_angle_gamma   90.00000000
_symmetry_Int_Tables_number   1
_chemical_formula_structural   Sb2ClF17
_chemical_formula_sum   'Sb8 Cl4 F68'
_cell_volume   1256.10607190
_cell_formula_units_Z   4
loop_
 _symmetry_equiv_pos_site_id
 _symmetry_equiv_pos_as_xyz
  1  'x, y, z'
loop_
 _atom_site_type_symbol
 _atom_site_label
 _atom_site_symmetry_multiplicity
 _atom_site_fract_x
 _atom_site_fract_y
 _atom_site_fract_z
 _atom_site_occupancy
  Sb  Sb0  1  0.475470  0.309057  0.844506  1
  Sb  Sb1  1  0.024530  0.809057  0.344506  1
  Sb  Sb2  1  0.524530  0.690943  0.155494  1
  Sb  Sb3  1  0.975470  0.190943  0.655494  1
  Sb  Sb4  1  0.491613  0.224554  0.144280  1
  Sb  Sb5  1  0.008387  0.724554  0.644280  1
  Sb  Sb6  1  0.508387  0.775446  0.855720  1
  Sb  Sb7  1  0.991613  0.275446  0.355720  1
  Cl  Cl8  1  0.500000  0.000000  0.500000  1
  Cl  Cl9  1  -0.000000  0.500000  0.000000  1
  Cl  Cl10  1  0.500000  0.500000  0.500000  1
  Cl  Cl11  1  -0.000000  0.000000  0.000000  1
  F  F12  1  0.698768  0.175122  0.109477  1
  F  F13  1  0.801232  0.675122  0.609477  1
  F  F14  1  0.301232  0.824878  0.890523  1
  F  F15  1  0.198768  0.324878  0.390523  1
  F  F16  1  0.467721  0.147782  0.268349  1
  F  F17  1  0.032279  0.647782  0.768349  1
  F  F18  1  0.532279  0.852218  0.731651  1
  F  F19  1  0.967721  0.352218  0.231651  1
  F  F20  1  0.520750  0.312030  0.010581  1
  F  F21  1  0.979250  0.812030  0.510581  1
  F  F22  1  0.479250  0.687970  0.989419  1
  F  F23  1  0.020750  0.187970  0.489419  1
  F  F24  1  0.287832  0.289392  0.151411  1
  F  F25  1  0.212168  0.789392  0.651411  1
  F  F26  1  0.712168  0.710608  0.848589  1
  F  F27  1  0.787832  0.210608  0.348589  1
  F  F28  1  0.569881  0.356461  0.229112  1
  F  F29  1  0.930119  0.856461  0.729112  1
  F  F30  1  0.430119  0.643539  0.770888  1
  F  F31  1  0.069881  0.143539  0.270888  1
  F  F32  1  0.441030  0.306147  0.691443  1
  F  F33  1  0.058970  0.806147  0.191443  1
  F  F34  1  0.558970  0.693853  0.308557  1
  F  F35  1  0.941030  0.193853  0.808557  1
  F  F36  1  0.412727  0.103653  0.043473  1
  F  F37  1  0.087273  0.603653  0.543473  1
  F  F38  1  0.587273  0.896347  0.956527  1
  F  F39  1  0.912727  0.396347  0.456527  1
  F  F40  1  0.362643  0.927613  0.546182  1
  F  F41  1  0.137357  0.427613  0.046182  1
  F  F42  1  0.637357  0.072387  0.453818  1
  F  F43  1  0.862643  0.572387  0.953818  1
  F  F44  1  0.470159  0.936492  0.377306  1
  F  F45  1  0.029841  0.436492  0.877306  1
  F  F46  1  0.529841  0.063508  0.622694  1
  F  F47  1  0.970159  0.563508  0.122694  1
  F  F48  1  0.375899  0.095439  0.478655  1
  F  F49  1  0.124101  0.595439  0.978655  1
  F  F50  1  0.624101  0.904561  0.521345  1
  F  F51  1  0.875899  0.404561  0.021345  1
  F  F52  1  0.481802  0.632436  0.538438  1
  F  F53  1  0.018198  0.132436  0.038438  1
  F  F54  1  0.518198  0.367564  0.461562  1
  F  F55  1  0.981802  0.867564  0.961562  1
  F  F56  1  0.390981  0.510518  0.395833  1
  F  F57  1  0.109019  0.010518  0.895833  1
  F  F58  1  0.609019  0.489482  0.604167  1
  F  F59  1  0.890981  0.989482  0.104167  1
  F  F60  1  0.349290  0.476965  0.570516  1
  F  F61  1  0.150710  0.976965  0.070516  1
  F  F62  1  0.650710  0.523035  0.429484  1
  F  F63  1  0.849290  0.023035  0.929484  1
  F  F64  1  0.285600  0.235501  0.871655  1
  F  F65  1  0.214400  0.735501  0.371655  1
  F  F66  1  0.714400  0.764499  0.128345  1
  F  F67  1  0.785600  0.264499  0.628345  1
  F  F68  1  0.668070  0.387788  0.843966  1
  F  F69  1  0.831930  0.887788  0.343966  1
  F  F70  1  0.331930  0.612212  0.156034  1
  F  F71  1  0.168070  0.112212  0.656034  1
  F  F72  1  0.582223  0.168434  0.825624  1
  F  F73  1  0.917777  0.668434  0.325624  1
  F  F74  1  0.417777  0.831566  0.174376  1
  F  F75  1  0.082223  0.331566  0.674376  1
  F  F76  1  0.372565  0.448390  0.886162  1
  F  F77  1  0.127435  0.948390  0.386162  1
  F  F78  1  0.627435  0.551610  0.113838  1
  F  F79  1  0.872565  0.051610  0.613838  1
