# generated using pymatgen
data_CeCoSb3
_symmetry_space_group_name_H-M   'P 1'
_cell_length_a   6.18968929
_cell_length_b   12.16785117
_cell_length_c   12.57147397
_cell_angle_alpha   90.00000000
_cell_angle_beta   90.00000000
_cell_angle_gamma   90.00000000
_symmetry_Int_Tables_number   1
_chemical_formula_structural   CeCoSb3
_chemical_formula_sum   'Ce8 Co8 Sb24'
_cell_volume   946.82330350
_cell_formula_units_Z   8
loop_
 _symmetry_equiv_pos_site_id
 _symmetry_equiv_pos_as_xyz
  1  'x, y, z'
loop_
 _atom_site_type_symbol
 _atom_site_label
 _atom_site_symmetry_multiplicity
 _atom_site_fract_x
 _atom_site_fract_y
 _atom_site_fract_z
 _atom_site_occupancy
  Ce  Ce0  1  0.227841  0.250000  0.302041  1
  Ce  Ce1  1  0.772159  0.750000  0.697959  1
  Ce  Ce2  1  0.750000  0.500000  0.299491  1
  Ce  Ce3  1  0.250000  0.500000  0.700509  1
  Ce  Ce4  1  0.727841  0.250000  0.697959  1
  Ce  Ce5  1  0.272159  0.750000  0.302041  1
  Ce  Ce6  1  0.750000  0.000000  0.299491  1
  Ce  Ce7  1  0.250000  0.000000  0.700509  1
  Co  Co8  1  0.536883  0.864203  0.899636  1
  Co  Co9  1  0.463117  0.364203  0.100364  1
  Co  Co10  1  0.536883  0.635797  0.899636  1
  Co  Co11  1  0.463117  0.135797  0.100364  1
  Co  Co12  1  0.963117  0.135797  0.899636  1
  Co  Co13  1  0.036883  0.864203  0.100364  1
  Co  Co14  1  0.036883  0.635797  0.100364  1
  Co  Co15  1  0.963117  0.364203  0.899636  1
  Sb  Sb16  1  0.384110  0.750000  0.055297  1
  Sb  Sb17  1  0.267162  0.750000  0.780244  1
  Sb  Sb18  1  0.115890  0.250000  0.055297  1
  Sb  Sb19  1  0.750000  0.000000  0.775933  1
  Sb  Sb20  1  0.011516  0.875572  0.497655  1
  Sb  Sb21  1  0.767162  0.750000  0.219756  1
  Sb  Sb22  1  0.232838  0.250000  0.780244  1
  Sb  Sb23  1  0.750000  0.500000  0.028083  1
  Sb  Sb24  1  0.732838  0.250000  0.219756  1
  Sb  Sb25  1  0.488484  0.124428  0.497655  1
  Sb  Sb26  1  0.750000  0.500000  0.775933  1
  Sb  Sb27  1  0.988484  0.124428  0.502345  1
  Sb  Sb28  1  0.615890  0.250000  0.944703  1
  Sb  Sb29  1  0.884110  0.750000  0.944703  1
  Sb  Sb30  1  0.250000  0.500000  0.224067  1
  Sb  Sb31  1  0.250000  0.000000  0.971917  1
  Sb  Sb32  1  0.011516  0.624428  0.497655  1
  Sb  Sb33  1  0.488484  0.375572  0.497655  1
  Sb  Sb34  1  0.250000  0.000000  0.224067  1
  Sb  Sb35  1  0.750000  0.000000  0.028083  1
  Sb  Sb36  1  0.511516  0.624428  0.502345  1
  Sb  Sb37  1  0.988484  0.375572  0.502345  1
  Sb  Sb38  1  0.250000  0.500000  0.971917  1
  Sb  Sb39  1  0.511516  0.875572  0.502345  1
