# generated using pymatgen
data_K3Nb8O21
_symmetry_space_group_name_H-M   'P 1'
_cell_length_a   9.34832328
_cell_length_b   9.34832328
_cell_length_c   12.32239783
_cell_angle_alpha   90.00000000
_cell_angle_beta   90.00000000
_cell_angle_gamma   120.00000001
_symmetry_Int_Tables_number   1
_chemical_formula_structural   K3Nb8O21
_chemical_formula_sum   'K6 Nb16 O42'
_cell_volume   932.59547222
_cell_formula_units_Z   2
loop_
 _symmetry_equiv_pos_site_id
 _symmetry_equiv_pos_as_xyz
  1  'x, y, z'
loop_
 _atom_site_type_symbol
 _atom_site_label
 _atom_site_symmetry_multiplicity
 _atom_site_fract_x
 _atom_site_fract_y
 _atom_site_fract_z
 _atom_site_occupancy
  O  O0  1  0.793175  0.793176  0.750000  1
  O  O1  1  0.000000  0.793176  0.250000  1
  O  O2  1  0.793176  0.000000  0.250000  1
  O  O3  1  0.206825  0.000000  0.750000  1
  O  O4  1  0.000000  0.206825  0.750000  1
  O  O5  1  0.206824  0.206825  0.250000  1
  O  O6  1  0.199743  0.199743  0.926449  1
  O  O7  1  0.800258  0.000000  0.926449  1
  O  O8  1  1.000000  0.800258  0.926449  1
  O  O9  1  1.000000  0.199743  0.426448  1
  O  O10  1  0.800258  0.000000  0.573551  1
  O  O11  1  0.800258  0.800258  0.426448  1
  O  O12  1  0.199743  0.000000  0.426448  1
  O  O13  1  0.800258  0.800258  0.073551  1
  O  O14  1  1.000000  0.199743  0.073551  1
  O  O15  1  0.480909  0.313296  0.405147  1
  O  O16  1  0.199743  0.199743  0.573551  1
  O  O17  1  0.199743  0.000000  0.073551  1
  O  O18  1  0.519090  0.832385  0.094852  1
  O  O19  1  0.167614  0.686705  0.094852  1
  O  O20  1  0.313295  0.480910  0.094852  1
  O  O21  1  0.686705  0.519091  0.594853  1
  O  O22  1  0.480909  0.313296  0.094852  1
  O  O23  1  0.167614  0.480910  0.594853  1
  O  O24  1  0.313295  0.832385  0.594853  1
  O  O25  1  0.686705  0.167614  0.094852  1
  O  O26  1  0.832386  0.519091  0.094852  1
  O  O27  1  0.167614  0.686705  0.405147  1
  O  O28  1  0.519090  0.832385  0.405147  1
  O  O29  1  0.519090  0.686705  0.594853  1
  O  O30  1  0.313295  0.480910  0.405147  1
  O  O31  1  0.686705  0.519091  0.905147  1
  O  O32  1  0.832386  0.313296  0.905147  1
  O  O33  1  0.480909  0.167614  0.905147  1
  O  O34  1  0.519090  0.686705  0.905147  1
  O  O35  1  0.832386  0.519091  0.405147  1
  O  O36  1  0.686705  0.167614  0.405147  1
  O  O37  1  0.313295  0.832385  0.905147  1
  O  O38  1  0.167614  0.480910  0.905147  1
  O  O39  1  0.832386  0.313296  0.594853  1
  O  O40  1  0.480909  0.167614  0.594853  1
  O  O41  1  1.000000  0.800258  0.573551  1
  K  K42  1  0.406131  0.406131  0.750000  1
  K  K43  1  1.000000  0.406131  0.250000  1
  K  K44  1  0.406131  0.000000  0.250000  1
  K  K45  1  0.593869  0.000000  0.750000  1
  K  K46  1  0.000000  0.593869  0.750000  1
  K  K47  1  0.593868  0.593869  0.250000  1
  Nb  Nb48  1  0.752056  0.000000  0.405502  1
  Nb  Nb49  1  1.000000  0.247943  0.905502  1
  Nb  Nb50  1  0.752057  0.752056  0.905502  1
  Nb  Nb51  1  0.247943  0.247943  0.405502  1
  Nb  Nb52  1  0.752057  0.752056  0.594498  1
  Nb  Nb53  1  0.247943  0.000000  0.905502  1
  Nb  Nb54  1  0.999999  0.752056  0.405502  1
  Nb  Nb55  1  0.999999  0.752056  0.094498  1
  Nb  Nb56  1  0.752056  0.000000  0.094498  1
  Nb  Nb57  1  0.247943  0.000000  0.594498  1
  Nb  Nb58  1  1.000000  0.247943  0.594498  1
  Nb  Nb59  1  0.247943  0.247943  0.094498  1
  Nb  Nb60  1  0.666667  0.333333  0.500000  1
  Nb  Nb61  1  0.333333  0.666666  0.000000  1
  Nb  Nb62  1  0.333333  0.666666  0.500000  1
  Nb  Nb63  1  0.666667  0.333333  0.000000  1
