# generated using pymatgen
data_SiO2
_symmetry_space_group_name_H-M   'P 1'
_cell_length_a   10.39271992
_cell_length_b   10.39271983
_cell_length_c   18.88696414
_cell_angle_alpha   105.96972912
_cell_angle_beta   105.96972898
_cell_angle_gamma   90.00000115
_symmetry_Int_Tables_number   1
_chemical_formula_structural   SiO2
_chemical_formula_sum   'Si32 O64'
_cell_volume   1879.20451665
_cell_formula_units_Z   32
loop_
 _symmetry_equiv_pos_site_id
 _symmetry_equiv_pos_as_xyz
  1  'x, y, z'
loop_
 _atom_site_type_symbol
 _atom_site_label
 _atom_site_symmetry_multiplicity
 _atom_site_fract_x
 _atom_site_fract_y
 _atom_site_fract_z
 _atom_site_occupancy
  Si  Si0  1  0.215542  0.812316  0.931084  1
  Si  Si1  1  0.215542  0.118768  0.931084  1
  Si  Si2  1  0.500000  0.281648  0.000000  1
  Si  Si3  1  0.000000  0.281648  0.000000  1
  Si  Si4  1  0.618768  0.715542  0.431084  1
  Si  Si5  1  0.131732  0.167391  0.763464  1
  Si  Si6  1  0.332609  0.368268  0.736536  1
  Si  Si7  1  0.945369  0.346630  0.390738  1
  Si  Si8  1  0.868268  0.403927  0.236536  1
  Si  Si9  1  0.096073  0.631732  0.263464  1
  Si  Si10  1  0.218352  1.000000  0.500000  1
  Si  Si11  1  0.945369  0.044109  0.390738  1
  Si  Si12  1  0.455891  0.554631  0.109262  1
  Si  Si13  1  0.667391  0.631732  0.263464  1
  Si  Si14  1  0.784458  0.187684  0.068916  1
  Si  Si15  1  0.381232  0.284458  0.568916  1
  Si  Si16  1  0.500000  0.718352  1.000000  1
  Si  Si17  1  0.054631  0.955891  0.609262  1
  Si  Si18  1  0.312316  0.715542  0.431084  1
  Si  Si19  1  0.846630  0.445369  0.890738  1
  Si  Si20  1  0.687684  0.284458  0.568916  1
  Si  Si21  1  0.868268  0.832609  0.236536  1
  Si  Si22  1  0.153370  0.554631  0.109262  1
  Si  Si23  1  0.784458  0.881232  0.068916  1
  Si  Si24  1  0.131732  0.596073  0.763464  1
  Si  Si25  1  0.903927  0.368268  0.736536  1
  Si  Si26  1  0.054631  0.653370  0.609262  1
  Si  Si27  1  0.781648  0.500000  0.500000  1
  Si  Si28  1  0.218352  0.500000  0.500000  1
  Si  Si29  1  1.000000  0.718352  1.000000  1
  Si  Si30  1  0.781648  0.000000  0.500000  1
  Si  Si31  1  0.544109  0.445369  0.890738  1
  O  O32  1  0.908909  0.567824  0.574400  1
  O  O33  1  0.367590  0.799052  0.980259  1
  O  O34  1  0.067824  0.408909  0.074400  1
  O  O35  1  0.996919  0.246919  0.750000  1
  O  O36  1  0.091091  0.432176  0.425600  1
  O  O37  1  0.632410  0.200948  0.019741  1
  O  O38  1  0.067824  0.665491  0.074400  1
  O  O39  1  0.293264  0.543264  0.086527  1
  O  O40  1  0.746919  0.753081  0.250000  1
  O  O41  1  0.174827  0.153492  0.849655  1
  O  O42  1  0.207599  0.957599  0.915198  1
  O  O43  1  0.174827  0.696163  0.849655  1
  O  O44  1  0.803837  0.325173  0.650345  1
  O  O45  1  0.481861  0.398911  0.797821  1
  O  O46  1  0.898911  0.315960  0.297821  1
  O  O47  1  0.003081  0.753081  0.250000  1
  O  O48  1  0.165491  0.567824  0.574400  1
  O  O49  1  0.792401  0.042401  0.084802  1
  O  O50  1  0.825173  0.303837  0.150345  1
  O  O51  1  0.493423  0.334509  0.925600  1
  O  O52  1  0.834509  0.432176  0.425600  1
  O  O53  1  0.346508  0.325173  0.650345  1
  O  O54  1  0.253081  0.246919  0.750000  1
  O  O55  1  0.908909  0.006577  0.574400  1
  O  O56  1  0.681207  0.612669  0.480259  1
  O  O57  1  0.091091  0.993423  0.425600  1
  O  O58  1  0.700948  0.387331  0.519741  1
  O  O59  1  0.542401  0.292401  0.584802  1
  O  O60  1  0.253081  0.503081  0.750000  1
  O  O61  1  0.898911  0.981861  0.297821  1
  O  O62  1  0.632410  0.818793  0.019741  1
  O  O63  1  0.653492  0.674827  0.349655  1
  O  O64  1  0.196163  0.674827  0.349655  1
  O  O65  1  0.887331  0.200948  0.019741  1
  O  O66  1  0.101089  0.018139  0.702179  1
  O  O67  1  0.457599  0.707599  0.415198  1
  O  O68  1  0.834509  0.993423  0.425600  1
  O  O69  1  0.706736  0.456736  0.913473  1
  O  O70  1  0.318793  0.132410  0.519741  1
  O  O71  1  0.299052  0.612669  0.480259  1
  O  O72  1  0.815960  0.398911  0.797821  1
  O  O73  1  0.112669  0.181207  0.980259  1
  O  O74  1  0.887331  0.818793  0.019741  1
  O  O75  1  0.318793  0.387331  0.519741  1
  O  O76  1  0.367590  0.181207  0.980259  1
  O  O77  1  0.746919  0.496919  0.250000  1
  O  O78  1  0.932176  0.334509  0.925600  1
  O  O79  1  0.681207  0.867590  0.480259  1
  O  O80  1  0.112669  0.799052  0.980259  1
  O  O81  1  0.299052  0.867590  0.480259  1
  O  O82  1  0.003081  0.496919  0.250000  1
  O  O83  1  0.493423  0.591091  0.925600  1
  O  O84  1  0.518139  0.601089  0.202179  1
  O  O85  1  0.825173  0.846508  0.150345  1
  O  O86  1  0.101089  0.684040  0.702179  1
  O  O87  1  0.956736  0.206736  0.413473  1
  O  O88  1  0.506577  0.408909  0.074400  1
  O  O89  1  0.700948  0.132410  0.519741  1
  O  O90  1  0.996919  0.503081  0.750000  1
  O  O91  1  0.184040  0.601089  0.202179  1
  O  O92  1  0.506577  0.665491  0.074400  1
  O  O93  1  0.932176  0.591091  0.925600  1
  O  O94  1  0.165491  0.006577  0.574400  1
  O  O95  1  0.043264  0.793264  0.586527  1
