# generated using pymatgen
data_K2UCr(IO6)2
_symmetry_space_group_name_H-M   'P 1'
_cell_length_a   7.40107769
_cell_length_b   11.31001108
_cell_length_c   16.01979067
_cell_angle_alpha   107.05890197
_cell_angle_beta   90.00000000
_cell_angle_gamma   90.00000000
_symmetry_Int_Tables_number   1
_chemical_formula_structural   K2UCr(IO6)2
_chemical_formula_sum   'K8 U4 Cr4 I8 O48'
_cell_volume   1281.95976733
_cell_formula_units_Z   4
loop_
 _symmetry_equiv_pos_site_id
 _symmetry_equiv_pos_as_xyz
  1  'x, y, z'
loop_
 _atom_site_type_symbol
 _atom_site_label
 _atom_site_symmetry_multiplicity
 _atom_site_fract_x
 _atom_site_fract_y
 _atom_site_fract_z
 _atom_site_occupancy
  K  K0  1  0.748067  0.499785  0.546994  1
  K  K1  1  0.248067  0.500215  0.953006  1
  K  K2  1  0.245781  0.250251  0.137533  1
  K  K3  1  0.251933  0.500215  0.453006  1
  K  K4  1  0.754219  0.749749  0.862467  1
  K  K5  1  0.745781  0.749749  0.362467  1
  K  K6  1  0.751933  0.499785  0.046994  1
  K  K7  1  0.254219  0.250251  0.637533  1
  U  U8  1  0.509840  0.168856  0.864186  1
  U  U9  1  0.990160  0.168856  0.364186  1
  U  U10  1  0.490160  0.831144  0.135814  1
  U  U11  1  0.009840  0.831144  0.635814  1
  Cr  Cr12  1  0.265345  0.922767  0.946819  1
  Cr  Cr13  1  0.734655  0.077233  0.053181  1
  Cr  Cr14  1  0.234655  0.922767  0.446819  1
  Cr  Cr15  1  0.765345  0.077233  0.553181  1
  I  I16  1  0.984610  0.828982  0.107036  1
  I  I17  1  0.484610  0.171018  0.392964  1
  I  I18  1  0.015390  0.171018  0.892964  1
  I  I19  1  0.280209  0.597768  0.228919  1
  I  I20  1  0.515390  0.828982  0.607036  1
  I  I21  1  0.719791  0.402232  0.771081  1
  I  I22  1  0.219791  0.597768  0.728919  1
  I  I23  1  0.780209  0.402232  0.271081  1
  O  O24  1  0.014137  0.968068  0.730175  1
  O  O25  1  0.813478  0.931752  0.561249  1
  O  O26  1  0.678912  0.217934  0.335945  1
  O  O27  1  0.616743  0.492647  0.706619  1
  O  O28  1  0.796556  0.510992  0.379005  1
  O  O29  1  0.108730  0.818016  0.381225  1
  O  O30  1  0.205934  0.919081  0.552329  1
  O  O31  1  0.476902  0.304520  0.488476  1
  O  O32  1  0.978289  0.300494  0.274441  1
  O  O33  1  0.794066  0.080919  0.447671  1
  O  O34  1  0.054638  0.895036  0.920345  1
  O  O35  1  0.023098  0.304520  0.988476  1
  O  O36  1  0.478289  0.699506  0.225559  1
  O  O37  1  0.686522  0.931752  0.061249  1
  O  O38  1  0.702812  0.784498  0.668832  1
  O  O39  1  0.554638  0.104964  0.579655  1
  O  O40  1  0.945362  0.104964  0.079655  1
  O  O41  1  0.514137  0.031932  0.769825  1
  O  O42  1  0.976902  0.695480  0.011524  1
  O  O43  1  0.296556  0.489008  0.120995  1
  O  O44  1  0.703444  0.510992  0.879005  1
  O  O45  1  0.391270  0.818016  0.881225  1
  O  O46  1  0.891270  0.181984  0.618775  1
  O  O47  1  0.383257  0.507353  0.293381  1
  O  O48  1  0.504245  0.305928  0.959271  1
  O  O49  1  0.004245  0.694072  0.540729  1
  O  O50  1  0.321088  0.782066  0.664055  1
  O  O51  1  0.294066  0.919081  0.052329  1
  O  O52  1  0.523098  0.695480  0.511524  1
  O  O53  1  0.021711  0.699506  0.725559  1
  O  O54  1  0.202812  0.215502  0.831168  1
  O  O55  1  0.313478  0.068248  0.938751  1
  O  O56  1  0.521711  0.300494  0.774441  1
  O  O57  1  0.495755  0.694072  0.040729  1
  O  O58  1  0.705934  0.080919  0.947671  1
  O  O59  1  0.985863  0.031932  0.269825  1
  O  O60  1  0.116743  0.507353  0.793381  1
  O  O61  1  0.883257  0.492647  0.206619  1
  O  O62  1  0.203444  0.489008  0.620995  1
  O  O63  1  0.178912  0.782066  0.164055  1
  O  O64  1  0.995755  0.305928  0.459271  1
  O  O65  1  0.186522  0.068248  0.438751  1
  O  O66  1  0.821088  0.217934  0.835945  1
  O  O67  1  0.485863  0.968068  0.230175  1
  O  O68  1  0.445362  0.895036  0.420345  1
  O  O69  1  0.608730  0.181984  0.118775  1
  O  O70  1  0.797188  0.784498  0.168832  1
  O  O71  1  0.297188  0.215502  0.331168  1
