# generated using pymatgen
data_NbBi(TeO4)2
_symmetry_space_group_name_H-M   'P 1'
_cell_length_a   5.68935453
_cell_length_b   8.22799130
_cell_length_c   31.93595847
_cell_angle_alpha   90.00000000
_cell_angle_beta   90.00000000
_cell_angle_gamma   90.00000000
_symmetry_Int_Tables_number   1
_chemical_formula_structural   NbBi(TeO4)2
_chemical_formula_sum   'Nb8 Bi8 Te16 O64'
_cell_volume   1494.98479690
_cell_formula_units_Z   8
loop_
 _symmetry_equiv_pos_site_id
 _symmetry_equiv_pos_as_xyz
  1  'x, y, z'
loop_
 _atom_site_type_symbol
 _atom_site_label
 _atom_site_symmetry_multiplicity
 _atom_site_fract_x
 _atom_site_fract_y
 _atom_site_fract_z
 _atom_site_occupancy
  Nb  Nb0  1  0.734721  0.944207  0.209294  1
  Nb  Nb1  1  0.765279  0.055793  0.709294  1
  Nb  Nb2  1  0.234721  0.555793  0.790706  1
  Nb  Nb3  1  0.765279  0.444207  0.209294  1
  Nb  Nb4  1  0.265279  0.444207  0.290706  1
  Nb  Nb5  1  0.265279  0.055793  0.790706  1
  Nb  Nb6  1  0.734721  0.555793  0.709294  1
  Nb  Nb7  1  0.234721  0.944207  0.290706  1
  Bi  Bi8  1  0.294310  0.136792  0.040066  1
  Bi  Bi9  1  0.205690  0.863208  0.540066  1
  Bi  Bi10  1  0.705690  0.863208  0.959934  1
  Bi  Bi11  1  0.705690  0.636792  0.459934  1
  Bi  Bi12  1  0.205690  0.636792  0.040066  1
  Bi  Bi13  1  0.294310  0.363208  0.540066  1
  Bi  Bi14  1  0.794310  0.136792  0.459934  1
  Bi  Bi15  1  0.794310  0.363208  0.959934  1
  Te  Te16  1  0.765817  0.369855  0.079031  1
  Te  Te17  1  0.265817  0.369855  0.420969  1
  Te  Te18  1  0.234183  0.869855  0.420969  1
  Te  Te19  1  0.236802  0.369952  0.664179  1
  Te  Te20  1  0.763198  0.630048  0.335821  1
  Te  Te21  1  0.734183  0.630145  0.579031  1
  Te  Te22  1  0.736802  0.369952  0.835821  1
  Te  Te23  1  0.736802  0.130048  0.335821  1
  Te  Te24  1  0.263198  0.869952  0.664179  1
  Te  Te25  1  0.734183  0.869855  0.079031  1
  Te  Te26  1  0.263198  0.630048  0.164179  1
  Te  Te27  1  0.236802  0.130048  0.164179  1
  Te  Te28  1  0.265817  0.130145  0.920969  1
  Te  Te29  1  0.765817  0.130145  0.579031  1
  Te  Te30  1  0.763198  0.869952  0.835821  1
  Te  Te31  1  0.234183  0.630145  0.920969  1
  O  O32  1  0.685285  0.179788  0.392750  1
  O  O33  1  0.314715  0.820212  0.607250  1
  O  O34  1  0.508930  0.542615  0.834030  1
  O  O35  1  0.988581  0.384407  0.455589  1
  O  O36  1  0.003053  0.989686  0.341466  1
  O  O37  1  0.667090  0.103552  0.068028  1
  O  O38  1  0.167090  0.396448  0.931972  1
  O  O39  1  0.487541  0.337112  0.466280  1
  O  O40  1  0.814715  0.820212  0.892750  1
  O  O41  1  0.996947  0.010314  0.658534  1
  O  O42  1  0.508930  0.957385  0.334030  1
  O  O43  1  0.832910  0.603552  0.068028  1
  O  O44  1  0.832910  0.896448  0.568028  1
  O  O45  1  0.503053  0.989686  0.158534  1
  O  O46  1  0.947496  0.524567  0.755963  1
  O  O47  1  0.185285  0.320212  0.607250  1
  O  O48  1  0.487541  0.162888  0.966280  1
  O  O49  1  0.229685  0.722883  0.295490  1
  O  O50  1  0.991070  0.457385  0.334030  1
  O  O51  1  0.512459  0.837112  0.033720  1
  O  O52  1  0.947496  0.975433  0.255963  1
  O  O53  1  0.491070  0.457385  0.165970  1
  O  O54  1  0.552504  0.475433  0.255963  1
  O  O55  1  0.511419  0.884407  0.455589  1
  O  O56  1  0.012459  0.837112  0.466280  1
  O  O57  1  0.008930  0.542615  0.665970  1
  O  O58  1  0.996947  0.489686  0.158534  1
  O  O59  1  0.003053  0.510314  0.841466  1
  O  O60  1  0.987541  0.337112  0.033720  1
  O  O61  1  0.491070  0.042615  0.665970  1
  O  O62  1  0.229685  0.777117  0.795490  1
  O  O63  1  0.447497  0.524567  0.744037  1
  O  O64  1  0.667090  0.396448  0.568028  1
  O  O65  1  0.552504  0.024567  0.755963  1
  O  O66  1  0.511419  0.615593  0.955589  1
  O  O67  1  0.270315  0.277117  0.795490  1
  O  O68  1  0.052504  0.024567  0.744037  1
  O  O69  1  0.012459  0.662888  0.966280  1
  O  O70  1  0.770315  0.277117  0.704510  1
  O  O71  1  0.052504  0.475433  0.244037  1
  O  O72  1  0.270315  0.222883  0.295490  1
  O  O73  1  0.503053  0.510314  0.658534  1
  O  O74  1  0.011419  0.615593  0.544411  1
  O  O75  1  0.332910  0.896448  0.931972  1
  O  O76  1  0.814715  0.679788  0.392750  1
  O  O77  1  0.447497  0.975433  0.244037  1
  O  O78  1  0.991070  0.042615  0.834030  1
  O  O79  1  0.987541  0.162888  0.533720  1
  O  O80  1  0.488581  0.115593  0.544411  1
  O  O81  1  0.988581  0.115593  0.955589  1
  O  O82  1  0.488581  0.384407  0.044411  1
  O  O83  1  0.185285  0.179788  0.107250  1
  O  O84  1  0.011419  0.884407  0.044411  1
  O  O85  1  0.729685  0.722883  0.204510  1
  O  O86  1  0.770315  0.222883  0.204510  1
  O  O87  1  0.332910  0.603552  0.431972  1
  O  O88  1  0.008930  0.957385  0.165970  1
  O  O89  1  0.729685  0.777117  0.704510  1
  O  O90  1  0.167090  0.103552  0.431972  1
  O  O91  1  0.314715  0.679788  0.107250  1
  O  O92  1  0.685285  0.320212  0.892750  1
  O  O93  1  0.496947  0.489686  0.341466  1
  O  O94  1  0.496947  0.010314  0.841466  1
  O  O95  1  0.512459  0.662888  0.533720  1
