# generated using pymatgen
data_La3CBr5
_symmetry_space_group_name_H-M   'P 1'
_cell_length_a   9.05576576
_cell_length_b   9.05576579
_cell_length_c   14.68950117
_cell_angle_alpha   76.71661091
_cell_angle_beta   76.71661085
_cell_angle_gamma   74.69839654
_symmetry_Int_Tables_number   1
_chemical_formula_structural   La3CBr5
_chemical_formula_sum   'La12 C4 Br20'
_cell_volume   1112.34347869
_cell_formula_units_Z   4
loop_
 _symmetry_equiv_pos_site_id
 _symmetry_equiv_pos_as_xyz
  1  'x, y, z'
loop_
 _atom_site_type_symbol
 _atom_site_label
 _atom_site_symmetry_multiplicity
 _atom_site_fract_x
 _atom_site_fract_y
 _atom_site_fract_z
 _atom_site_occupancy
  La  La0  1  0.379306  0.339095  0.405829  1
  La  La1  1  0.010351  0.287504  0.326043  1
  La  La2  1  0.679715  0.014978  0.913208  1
  La  La3  1  0.989649  0.712496  0.673957  1
  La  La4  1  0.320285  0.985022  0.086792  1
  La  La5  1  0.985022  0.320285  0.586792  1
  La  La6  1  0.014978  0.679715  0.413208  1
  La  La7  1  0.287504  0.010351  0.826043  1
  La  La8  1  0.620694  0.660905  0.594171  1
  La  La9  1  0.339095  0.379306  0.905829  1
  La  La10  1  0.660905  0.620694  0.094171  1
  La  La11  1  0.712496  0.989649  0.173957  1
  C  C12  1  0.888794  0.604731  0.579245  1
  C  C13  1  0.111206  0.395269  0.420755  1
  C  C14  1  0.604731  0.888794  0.079245  1
  C  C15  1  0.395269  0.111206  0.920755  1
  Br  Br16  1  0.023376  0.976624  0.250000  1
  Br  Br17  1  0.118669  0.363135  0.772224  1
  Br  Br18  1  0.363135  0.118669  0.272224  1
  Br  Br19  1  0.639590  0.360410  0.750000  1
  Br  Br20  1  0.336035  0.121730  0.592283  1
  Br  Br21  1  0.618641  0.299150  0.018057  1
  Br  Br22  1  0.302775  0.697225  0.750000  1
  Br  Br23  1  0.700850  0.381359  0.481943  1
  Br  Br24  1  0.360410  0.639590  0.250000  1
  Br  Br25  1  0.878270  0.663965  0.907717  1
  Br  Br26  1  0.697225  0.302775  0.250000  1
  Br  Br27  1  0.121730  0.336035  0.092283  1
  Br  Br28  1  0.636865  0.881331  0.727776  1
  Br  Br29  1  0.000000  0.000000  0.000000  1
  Br  Br30  1  0.976624  0.023376  0.750000  1
  Br  Br31  1  0.381359  0.700850  0.981943  1
  Br  Br32  1  0.663965  0.878270  0.407717  1
  Br  Br33  1  0.299150  0.618641  0.518057  1
  Br  Br34  1  0.881331  0.636865  0.227776  1
  Br  Br35  1  0.000000  0.000000  0.500000  1
