# generated using pymatgen
data_Sr2LiSiO4F
_symmetry_space_group_name_H-M   'P 1'
_cell_length_a   5.47637661
_cell_length_b   6.64406838
_cell_length_c   7.00183636
_cell_angle_alpha   112.41218008
_cell_angle_beta   90.00000000
_cell_angle_gamma   90.00000000
_symmetry_Int_Tables_number   1
_chemical_formula_structural   Sr2LiSiO4F
_chemical_formula_sum   'Sr4 Li2 Si2 O8 F2'
_cell_volume   235.52110640
_cell_formula_units_Z   2
loop_
 _symmetry_equiv_pos_site_id
 _symmetry_equiv_pos_as_xyz
  1  'x, y, z'
loop_
 _atom_site_type_symbol
 _atom_site_label
 _atom_site_symmetry_multiplicity
 _atom_site_fract_x
 _atom_site_fract_y
 _atom_site_fract_z
 _atom_site_occupancy
  Sr  Sr0  1  0.250000  0.159154  0.372980  1
  Sr  Sr1  1  0.750000  0.365750  0.101569  1
  Sr  Sr2  1  0.750000  0.840846  0.627020  1
  Sr  Sr3  1  0.250000  0.634250  0.898431  1
  Li  Li4  1  0.250000  0.144923  0.878370  1
  Li  Li5  1  0.750000  0.855077  0.121630  1
  Si  Si6  1  0.750000  0.345005  0.664241  1
  Si  Si7  1  0.250000  0.654995  0.335759  1
  O  O8  1  0.507429  0.223637  0.710745  1
  O  O9  1  0.250000  0.663765  0.571638  1
  O  O10  1  0.750000  0.595865  0.841317  1
  O  O11  1  0.750000  0.336235  0.428362  1
  O  O12  1  0.250000  0.404135  0.158683  1
  O  O13  1  0.007429  0.776363  0.289255  1
  O  O14  1  0.992571  0.223637  0.710745  1
  O  O15  1  0.492571  0.776363  0.289255  1
  F  F16  1  0.000000  0.000000  0.000000  1
  F  F17  1  0.500000  0.000000  0.000000  1
