# generated using pymatgen
data_MoP2PbO8
_symmetry_space_group_name_H-M   'P 1'
_cell_length_a   6.66778418
_cell_length_b   10.23124272
_cell_length_c   10.23124248
_cell_angle_alpha   90.41701686
_cell_angle_beta   98.29824892
_cell_angle_gamma   98.29825326
_symmetry_Int_Tables_number   1
_chemical_formula_structural   MoP2PbO8
_chemical_formula_sum   'Mo4 P8 Pb4 O32'
_cell_volume   683.15207016
_cell_formula_units_Z   4
loop_
 _symmetry_equiv_pos_site_id
 _symmetry_equiv_pos_as_xyz
  1  'x, y, z'
loop_
 _atom_site_type_symbol
 _atom_site_label
 _atom_site_symmetry_multiplicity
 _atom_site_fract_x
 _atom_site_fract_y
 _atom_site_fract_z
 _atom_site_occupancy
  Mo  Mo0  1  0.313416  0.275296  0.991544  1
  Mo  Mo1  1  0.813416  0.991544  0.275296  1
  Mo  Mo2  1  0.686584  0.724704  0.008456  1
  Mo  Mo3  1  0.186584  0.008456  0.724704  1
  P  P4  1  0.697477  0.984114  0.792156  1
  P  P5  1  0.463552  0.493652  0.762931  1
  P  P6  1  0.536448  0.506348  0.237069  1
  P  P7  1  0.802523  0.207844  0.015886  1
  P  P8  1  0.036448  0.237069  0.506348  1
  P  P9  1  0.963552  0.762931  0.493652  1
  P  P10  1  0.302523  0.015886  0.207844  1
  P  P11  1  0.197477  0.792156  0.984114  1
  Pb  Pb12  1  0.042101  0.490613  0.261857  1
  Pb  Pb13  1  0.457899  0.738143  0.509387  1
  Pb  Pb14  1  0.542101  0.261857  0.490613  1
  Pb  Pb15  1  0.957899  0.509387  0.738143  1
  O  O16  1  0.330266  0.155341  0.156488  1
  O  O17  1  0.750000  0.868054  0.131946  1
  O  O18  1  0.669734  0.844659  0.843512  1
  O  O19  1  0.830266  0.156488  0.155341  1
  O  O20  1  0.997797  0.291950  0.983161  1
  O  O21  1  0.337189  0.582770  0.673499  1
  O  O22  1  0.662811  0.417230  0.326501  1
  O  O23  1  0.837189  0.673499  0.582770  1
  O  O24  1  0.872861  0.011227  0.711177  1
  O  O25  1  0.162811  0.326501  0.417230  1
  O  O26  1  0.627139  0.288823  0.988773  1
  O  O27  1  0.866454  0.133493  0.426510  1
  O  O28  1  0.750000  0.078421  0.921579  1
  O  O29  1  0.250000  0.131946  0.868054  1
  O  O30  1  0.195104  0.162694  0.591669  1
  O  O31  1  0.417606  0.589244  0.318144  1
  O  O32  1  0.133546  0.866507  0.573490  1
  O  O33  1  0.917606  0.318144  0.589244  1
  O  O34  1  0.002203  0.708050  0.016839  1
  O  O35  1  0.582394  0.410756  0.681856  1
  O  O36  1  0.502203  0.016839  0.708050  1
  O  O37  1  0.633546  0.573490  0.866507  1
  O  O38  1  0.304896  0.408330  0.837306  1
  O  O39  1  0.169734  0.843512  0.844659  1
  O  O40  1  0.804896  0.837306  0.408330  1
  O  O41  1  0.695104  0.591669  0.162694  1
  O  O42  1  0.250000  0.921579  0.078421  1
  O  O43  1  0.127139  0.988773  0.288823  1
  O  O44  1  0.366454  0.426510  0.133493  1
  O  O45  1  0.497797  0.983161  0.291950  1
  O  O46  1  0.082394  0.681856  0.410756  1
  O  O47  1  0.372861  0.711177  0.011227  1
