# generated using pymatgen
data_CsMo6Se7
_symmetry_space_group_name_H-M   'P 1'
_cell_length_a   10.03476808
_cell_length_b   10.03476808
_cell_length_c   10.03476808
_cell_angle_alpha   59.01620510
_cell_angle_beta   59.01620512
_cell_angle_gamma   59.01620515
_symmetry_Int_Tables_number   1
_chemical_formula_structural   CsMo6Se7
_chemical_formula_sum   'Cs2 Mo12 Se14'
_cell_volume   698.47525042
_cell_formula_units_Z   2
loop_
 _symmetry_equiv_pos_site_id
 _symmetry_equiv_pos_as_xyz
  1  'x, y, z'
loop_
 _atom_site_type_symbol
 _atom_site_label
 _atom_site_symmetry_multiplicity
 _atom_site_fract_x
 _atom_site_fract_y
 _atom_site_fract_z
 _atom_site_occupancy
  Se  Se0  1  0.015060  0.760577  0.367195  1
  Se  Se1  1  0.760577  0.367195  0.015060  1
  Se  Se2  1  0.367195  0.015060  0.760577  1
  Se  Se3  1  0.984940  0.239423  0.632805  1
  Se  Se4  1  0.239423  0.632805  0.984940  1
  Se  Se5  1  0.632805  0.984940  0.239423  1
  Se  Se6  1  0.832269  0.581770  0.192397  1
  Se  Se7  1  0.581770  0.192397  0.832269  1
  Se  Se8  1  0.192397  0.832269  0.581770  1
  Se  Se9  1  0.167731  0.418230  0.807603  1
  Se  Se10  1  0.418230  0.807603  0.167731  1
  Se  Se11  1  0.807603  0.167731  0.418230  1
  Se  Se12  1  0.220628  0.220628  0.220628  1
  Se  Se13  1  0.779372  0.779372  0.779372  1
  Mo  Mo14  1  0.696024  0.882476  0.005235  1
  Mo  Mo15  1  0.806565  0.119758  0.939112  1
  Mo  Mo16  1  0.119758  0.939112  0.806565  1
  Mo  Mo17  1  0.060888  0.193435  0.880242  1
  Mo  Mo18  1  0.193435  0.880242  0.060888  1
  Mo  Mo19  1  0.880242  0.060888  0.193435  1
  Mo  Mo20  1  0.005235  0.696024  0.882476  1
  Mo  Mo21  1  0.117524  0.994765  0.303976  1
  Mo  Mo22  1  0.882476  0.005235  0.696024  1
  Mo  Mo23  1  0.994765  0.303976  0.117524  1
  Mo  Mo24  1  0.303976  0.117524  0.994765  1
  Mo  Mo25  1  0.939112  0.806565  0.119758  1
  Cs  Cs26  1  0.625874  0.625874  0.625874  1
  Cs  Cs27  1  0.374126  0.374126  0.374126  1
