# generated using pymatgen
data_K2Fe(CO)4
_symmetry_space_group_name_H-M   'P 1'
_cell_length_a   5.63467694
_cell_length_b   6.45485742
_cell_length_c   12.14536037
_cell_angle_alpha   84.18936541
_cell_angle_beta   76.58779815
_cell_angle_gamma   64.12126048
_symmetry_Int_Tables_number   1
_chemical_formula_structural   K2Fe(CO)4
_chemical_formula_sum   'K4 Fe2 C8 O8'
_cell_volume   386.60200881
_cell_formula_units_Z   2
loop_
 _symmetry_equiv_pos_site_id
 _symmetry_equiv_pos_as_xyz
  1  'x, y, z'
loop_
 _atom_site_type_symbol
 _atom_site_label
 _atom_site_symmetry_multiplicity
 _atom_site_fract_x
 _atom_site_fract_y
 _atom_site_fract_z
 _atom_site_occupancy
  K  K0  1  0.447937  0.750006  0.104353  1
  K  K1  1  0.802057  0.750006  0.395647  1
  K  K2  1  0.197943  0.249994  0.604353  1
  K  K3  1  0.552063  0.249994  0.895647  1
  Fe  Fe4  1  0.124991  0.750018  0.750000  1
  Fe  Fe5  1  0.875009  0.249982  0.250000  1
  C  C6  1  0.562199  0.395430  0.337172  1
  C  C7  1  0.899643  0.895340  0.662790  1
  C  C8  1  0.205017  0.895340  0.837210  1
  C  C9  1  0.957629  0.604570  0.837172  1
  C  C10  1  0.042371  0.395430  0.162828  1
  C  C11  1  0.437801  0.604570  0.662828  1
  C  C12  1  0.100357  0.104660  0.337210  1
  C  C13  1  0.794983  0.104660  0.162790  1
  O  O14  1  0.257923  0.015452  0.398015  1
  O  O15  1  0.171575  0.484507  0.102012  1
  O  O16  1  0.742077  0.984548  0.601985  1
  O  O17  1  0.273375  0.984548  0.898015  1
  O  O18  1  0.828425  0.515493  0.897988  1
  O  O19  1  0.726625  0.015452  0.101985  1
  O  O20  1  0.656082  0.515493  0.602012  1
  O  O21  1  0.343918  0.484507  0.397988  1
