# generated using pymatgen
data_NaNbO2F
_symmetry_space_group_name_H-M   'P 1'
_cell_length_a   5.54797237
_cell_length_b   5.65444549
_cell_length_c   8.30973430
_cell_angle_alpha   90.00000000
_cell_angle_beta   90.00000000
_cell_angle_gamma   90.00000000
_symmetry_Int_Tables_number   1
_chemical_formula_structural   NaNbO2F
_chemical_formula_sum   'Na4 Nb4 O8 F4'
_cell_volume   260.68224285
_cell_formula_units_Z   4
loop_
 _symmetry_equiv_pos_site_id
 _symmetry_equiv_pos_as_xyz
  1  'x, y, z'
loop_
 _atom_site_type_symbol
 _atom_site_label
 _atom_site_symmetry_multiplicity
 _atom_site_fract_x
 _atom_site_fract_y
 _atom_site_fract_z
 _atom_site_occupancy
  Na  Na0  1  0.968144  0.024699  0.250000  1
  Na  Na1  1  0.531856  0.524699  0.250000  1
  Na  Na2  1  0.468144  0.475301  0.750000  1
  Na  Na3  1  0.031856  0.975301  0.750000  1
  Nb  Nb4  1  0.500000  0.000000  0.500000  1
  Nb  Nb5  1  0.500000  0.000000  0.000000  1
  Nb  Nb6  1  0.000000  0.500000  0.500000  1
  Nb  Nb7  1  0.000000  0.500000  0.000000  1
  O  O8  1  0.725213  0.272835  0.041101  1
  O  O9  1  0.225213  0.227165  0.541101  1
  O  O10  1  0.274787  0.727165  0.541101  1
  O  O11  1  0.225213  0.227165  0.958899  1
  O  O12  1  0.725213  0.272835  0.458899  1
  O  O13  1  0.274787  0.727165  0.958899  1
  O  O14  1  0.774787  0.772835  0.458899  1
  O  O15  1  0.774787  0.772835  0.041101  1
  F  F16  1  0.390462  0.976994  0.250000  1
  F  F17  1  0.609538  0.023006  0.750000  1
  F  F18  1  0.890462  0.523006  0.750000  1
  F  F19  1  0.109538  0.476994  0.250000  1
