# generated using pymatgen
data_Rb3YCl6
_symmetry_space_group_name_H-M   'P 1'
_cell_length_a   8.02200905
_cell_length_b   13.07278771
_cell_length_c   13.69131986
_cell_angle_alpha   99.08563435
_cell_angle_beta   107.03523200
_cell_angle_gamma   89.99999881
_symmetry_Int_Tables_number   1
_chemical_formula_structural   Rb3YCl6
_chemical_formula_sum   'Rb12 Y4 Cl24'
_cell_volume   1353.96020139
_cell_formula_units_Z   4
loop_
 _symmetry_equiv_pos_site_id
 _symmetry_equiv_pos_as_xyz
  1  'x, y, z'
loop_
 _atom_site_type_symbol
 _atom_site_label
 _atom_site_symmetry_multiplicity
 _atom_site_fract_x
 _atom_site_fract_y
 _atom_site_fract_z
 _atom_site_occupancy
  Rb  Rb0  1  0.694874  0.066627  0.900611  1
  Rb  Rb1  1  0.975262  0.805206  0.326269  1
  Rb  Rb2  1  0.468691  0.646493  0.306890  1
  Rb  Rb3  1  0.205737  0.566627  0.900611  1
  Rb  Rb4  1  0.161801  0.853507  0.693110  1
  Rb  Rb5  1  0.838199  0.146493  0.306890  1
  Rb  Rb6  1  0.305126  0.933373  0.099389  1
  Rb  Rb7  1  0.794263  0.433373  0.099389  1
  Rb  Rb8  1  0.351007  0.305206  0.326269  1
  Rb  Rb9  1  0.024739  0.194794  0.673731  1
  Rb  Rb10  1  0.648993  0.694794  0.673731  1
  Rb  Rb11  1  0.531309  0.353507  0.693110  1
  Y  Y12  1  0.791503  0.750000  0.000000  1
  Y  Y13  1  0.208497  0.250000  1.000000  1
  Y  Y14  1  0.500000  0.000000  0.500000  1
  Y  Y15  1  0.000000  0.500000  0.500000  1
  Cl  Cl16  1  0.725290  0.422664  0.340367  1
  Cl  Cl17  1  0.505241  0.819413  0.879870  1
  Cl  Cl18  1  0.209222  0.034196  0.359745  1
  Cl  Cl19  1  0.374629  0.319413  0.879870  1
  Cl  Cl20  1  0.364337  0.813430  0.501520  1
  Cl  Cl21  1  0.790778  0.965804  0.640255  1
  Cl  Cl22  1  0.849476  0.465804  0.640255  1
  Cl  Cl23  1  0.494759  0.180587  0.120130  1
  Cl  Cl24  1  0.976905  0.795919  0.878172  1
  Cl  Cl25  1  0.098734  0.704081  0.121828  1
  Cl  Cl26  1  0.615077  0.922664  0.340367  1
  Cl  Cl27  1  0.862817  0.686570  0.498480  1
  Cl  Cl28  1  0.274710  0.577336  0.659633  1
  Cl  Cl29  1  0.150524  0.534196  0.359745  1
  Cl  Cl30  1  0.625371  0.680587  0.120130  1
  Cl  Cl31  1  0.836062  0.936701  0.111998  1
  Cl  Cl32  1  0.275936  0.436701  0.111998  1
  Cl  Cl33  1  0.724064  0.563299  0.888002  1
  Cl  Cl34  1  0.635663  0.186570  0.498480  1
  Cl  Cl35  1  0.901266  0.295919  0.878172  1
  Cl  Cl36  1  0.023095  0.204081  0.121828  1
  Cl  Cl37  1  0.163938  0.063299  0.888002  1
  Cl  Cl38  1  0.384923  0.077336  0.659633  1
  Cl  Cl39  1  0.137183  0.313430  0.501520  1
