# generated using pymatgen
data_Hg9P5I6
_symmetry_space_group_name_H-M   'P 1'
_cell_length_a   12.71593073
_cell_length_b   13.42696415
_cell_length_c   16.01910652
_cell_angle_alpha   106.91042758
_cell_angle_beta   90.00000000
_cell_angle_gamma   90.00000000
_symmetry_Int_Tables_number   1
_chemical_formula_structural   Hg9P5I6
_chemical_formula_sum   'Hg36 P20 I24'
_cell_volume   2616.78223297
_cell_formula_units_Z   4
loop_
 _symmetry_equiv_pos_site_id
 _symmetry_equiv_pos_as_xyz
  1  'x, y, z'
loop_
 _atom_site_type_symbol
 _atom_site_label
 _atom_site_symmetry_multiplicity
 _atom_site_fract_x
 _atom_site_fract_y
 _atom_site_fract_z
 _atom_site_occupancy
  Hg  Hg0  1  0.104585  0.979664  0.738025  1
  Hg  Hg1  1  0.819861  0.075971  0.725282  1
  Hg  Hg2  1  0.524850  0.972296  0.570007  1
  Hg  Hg3  1  0.901970  0.587561  0.711251  1
  Hg  Hg4  1  0.475150  0.027704  0.429993  1
  Hg  Hg5  1  0.555596  0.245113  0.802489  1
  Hg  Hg6  1  0.273531  0.676836  0.461591  1
  Hg  Hg7  1  0.315833  0.210704  0.313106  1
  Hg  Hg8  1  0.598030  0.087561  0.211251  1
  Hg  Hg9  1  0.895415  0.020336  0.261975  1
  Hg  Hg10  1  0.827718  0.570330  0.450034  1
  Hg  Hg11  1  0.098030  0.412439  0.288749  1
  Hg  Hg12  1  0.172282  0.429670  0.549966  1
  Hg  Hg13  1  0.975150  0.472296  0.070007  1
  Hg  Hg14  1  0.226469  0.176836  0.961591  1
  Hg  Hg15  1  0.684167  0.789296  0.686894  1
  Hg  Hg16  1  0.815833  0.289296  0.186894  1
  Hg  Hg17  1  0.327718  0.929670  0.049966  1
  Hg  Hg18  1  0.401970  0.912439  0.788749  1
  Hg  Hg19  1  0.395415  0.479664  0.238025  1
  Hg  Hg20  1  0.944404  0.745113  0.302489  1
  Hg  Hg21  1  0.672282  0.070330  0.950034  1
  Hg  Hg22  1  0.024850  0.527704  0.929993  1
  Hg  Hg23  1  0.500000  0.500000  0.500000  1
  Hg  Hg24  1  0.319861  0.424029  0.774718  1
  Hg  Hg25  1  0.726469  0.323164  0.538409  1
  Hg  Hg26  1  0.444404  0.754887  0.197511  1
  Hg  Hg27  1  0.604585  0.520336  0.761975  1
  Hg  Hg28  1  0.184167  0.710704  0.813106  1
  Hg  Hg29  1  0.773531  0.823164  0.038409  1
  Hg  Hg30  1  0.180139  0.924029  0.274718  1
  Hg  Hg31  1  0.680139  0.575971  0.225282  1
  Hg  Hg32  1  0.000000  0.000000  0.000000  1
  Hg  Hg33  1  0.055596  0.254887  0.697511  1
  Hg  Hg34  1  0.500000  0.500000  0.000000  1
  Hg  Hg35  1  0.000000  0.000000  0.500000  1
  P  P36  1  0.994433  0.073156  0.659193  1
  P  P37  1  0.005567  0.926844  0.340807  1
  P  P38  1  0.853777  0.579600  0.295470  1
  P  P39  1  0.146223  0.420400  0.704530  1
  P  P40  1  0.692920  0.506546  0.538214  1
  P  P41  1  0.353777  0.920400  0.204530  1
  P  P42  1  0.505567  0.573156  0.159193  1
  P  P43  1  0.807080  0.006546  0.038214  1
  P  P44  1  0.715114  0.602022  0.673270  1
  P  P45  1  0.936212  0.441961  0.214237  1
  P  P46  1  0.494433  0.426844  0.840807  1
  P  P47  1  0.784886  0.102022  0.173270  1
  P  P48  1  0.063788  0.558039  0.785763  1
  P  P49  1  0.307080  0.493454  0.461786  1
  P  P50  1  0.646223  0.079600  0.795470  1
  P  P51  1  0.192920  0.993454  0.961786  1
  P  P52  1  0.284886  0.397978  0.326730  1
  P  P53  1  0.563788  0.941961  0.714237  1
  P  P54  1  0.215114  0.897978  0.826730  1
  P  P55  1  0.436212  0.058039  0.285763  1
  I  I56  1  0.188240  0.662586  0.277281  1
  I  I57  1  0.491038  0.301656  0.595005  1
  I  I58  1  0.811760  0.337414  0.722719  1
  I  I59  1  0.245837  0.885338  0.545033  1
  I  I60  1  0.991038  0.198344  0.904995  1
  I  I61  1  0.688240  0.837414  0.222719  1
  I  I62  1  0.311760  0.162586  0.777281  1
  I  I63  1  0.979516  0.348441  0.439542  1
  I  I64  1  0.745837  0.614662  0.954967  1
  I  I65  1  0.115082  0.145836  0.194210  1
  I  I66  1  0.719787  0.337647  0.026468  1
  I  I67  1  0.520484  0.848441  0.939542  1
  I  I68  1  0.780213  0.837647  0.526468  1
  I  I69  1  0.615082  0.354164  0.305790  1
  I  I70  1  0.884918  0.854164  0.805790  1
  I  I71  1  0.254163  0.385338  0.045033  1
  I  I72  1  0.384918  0.645836  0.694210  1
  I  I73  1  0.754163  0.114662  0.454967  1
  I  I74  1  0.020484  0.651559  0.560458  1
  I  I75  1  0.219787  0.162353  0.473532  1
  I  I76  1  0.008962  0.801656  0.095005  1
  I  I77  1  0.479516  0.151559  0.060458  1
  I  I78  1  0.508962  0.698344  0.404995  1
  I  I79  1  0.280213  0.662353  0.973532  1
