# generated using pymatgen
data_Cs2LiCr(CN)6
_symmetry_space_group_name_H-M   'P 1'
_cell_length_a   7.65155837
_cell_length_b   7.67663414
_cell_length_c   10.87706858
_cell_angle_alpha   90.00000000
_cell_angle_beta   90.10701535
_cell_angle_gamma   90.00000000
_symmetry_Int_Tables_number   1
_chemical_formula_structural   Cs2LiCr(CN)6
_chemical_formula_sum   'Cs4 Li2 Cr2 C12 N12'
_cell_volume   638.89846978
_cell_formula_units_Z   2
loop_
 _symmetry_equiv_pos_site_id
 _symmetry_equiv_pos_as_xyz
  1  'x, y, z'
loop_
 _atom_site_type_symbol
 _atom_site_label
 _atom_site_symmetry_multiplicity
 _atom_site_fract_x
 _atom_site_fract_y
 _atom_site_fract_z
 _atom_site_occupancy
  Li  Li0  1  0.000000  0.000000  0.500000  1
  Li  Li1  1  0.500000  0.500000  0.000000  1
  Cs  Cs2  1  0.499487  0.007181  0.250393  1
  Cs  Cs3  1  1.000513  0.507181  0.249607  1
  Cs  Cs4  1  0.500513  0.992819  0.749607  1
  Cs  Cs5  1  -0.000513  0.492819  0.750393  1
  Cr  Cr6  1  0.000000  0.000000  0.000000  1
  Cr  Cr7  1  0.500000  0.500000  0.500000  1
  C  C8  1  0.166220  0.207315  1.000156  1
  C  C9  1  0.333780  0.707315  0.499844  1
  C  C10  1  0.833780  0.792685  -0.000156  1
  C  C11  1  0.666220  0.292685  0.500156  1
  C  C12  1  0.792252  0.166070  0.998836  1
  C  C13  1  0.707748  0.666070  0.501164  1
  C  C14  1  0.207748  0.833930  0.001164  1
  C  C15  1  0.292252  0.333930  0.498836  1
  C  C16  1  1.000774  1.000374  0.812688  1
  C  C17  1  0.499226  0.500374  0.687312  1
  C  C18  1  -0.000774  -0.000374  0.187312  1
  C  C19  1  0.500774  0.499626  0.312688  1
  N  N20  1  0.261891  0.327154  0.999885  1
  N  N21  1  0.238109  0.827154  0.500115  1
  N  N22  1  0.738109  0.672846  0.000115  1
  N  N23  1  0.761891  0.172846  0.499885  1
  N  N24  1  0.672672  0.262314  0.997896  1
  N  N25  1  0.827328  0.762314  0.502104  1
  N  N26  1  0.327328  0.737686  0.002104  1
  N  N27  1  0.172672  0.237686  0.497896  1
  N  N28  1  0.998260  0.997791  0.295388  1
  N  N29  1  0.501740  0.497791  0.204612  1
  N  N30  1  0.001740  0.002209  0.704612  1
  N  N31  1  0.498260  0.502209  0.795388  1
