# generated using pymatgen
data_SiO2
_symmetry_space_group_name_H-M   'P 1'
_cell_length_a   7.85677576
_cell_length_b   7.85677627
_cell_length_c   14.86942601
_cell_angle_alpha   105.31896544
_cell_angle_beta   105.31896644
_cell_angle_gamma   89.99999902
_symmetry_Int_Tables_number   1
_chemical_formula_structural   SiO2
_chemical_formula_sum   'Si16 O32'
_cell_volume   851.40141968
_cell_formula_units_Z   16
loop_
 _symmetry_equiv_pos_site_id
 _symmetry_equiv_pos_as_xyz
  1  'x, y, z'
loop_
 _atom_site_type_symbol
 _atom_site_label
 _atom_site_symmetry_multiplicity
 _atom_site_fract_x
 _atom_site_fract_y
 _atom_site_fract_z
 _atom_site_occupancy
  Si  Si0  1  0.556870  0.010345  0.613740  1
  Si  Si1  1  0.489655  0.943130  0.886260  1
  Si  Si2  1  0.510345  0.056870  0.113740  1
  Si  Si3  1  0.443130  0.396605  0.386260  1
  Si  Si4  1  0.067416  0.817416  0.250000  1
  Si  Si5  1  0.932584  0.567416  0.750000  1
  Si  Si6  1  0.896605  0.943130  0.886260  1
  Si  Si7  1  0.682584  0.432584  0.250000  1
  Si  Si8  1  0.067416  0.432584  0.250000  1
  Si  Si9  1  0.443130  0.989655  0.386260  1
  Si  Si10  1  0.932584  0.182584  0.750000  1
  Si  Si11  1  0.682584  0.817416  0.250000  1
  Si  Si12  1  0.556870  0.603395  0.613740  1
  Si  Si13  1  0.317416  0.182584  0.750000  1
  Si  Si14  1  0.317416  0.567416  0.750000  1
  Si  Si15  1  0.103395  0.056870  0.113740  1
  O  O16  1  0.388160  0.089930  0.837115  1
  O  O17  1  0.948955  0.747185  0.837115  1
  O  O18  1  0.051045  0.910070  0.162885  1
  O  O19  1  0.362008  0.396717  0.793434  1
  O  O20  1  0.068573  0.603283  0.206566  1
  O  O21  1  0.051045  0.252815  0.162885  1
  O  O22  1  0.685555  0.935555  0.871111  1
  O  O23  1  0.589930  0.888160  0.337115  1
  O  O24  1  0.435555  0.185555  0.371111  1
  O  O25  1  0.564445  0.814445  0.628889  1
  O  O26  1  0.247185  0.888160  0.337115  1
  O  O27  1  0.611840  0.910070  0.162885  1
  O  O28  1  0.948955  0.089930  0.837115  1
  O  O29  1  0.931427  0.396717  0.793434  1
  O  O30  1  0.410070  0.111840  0.662885  1
  O  O31  1  0.103283  0.568573  0.706566  1
  O  O32  1  0.103283  0.137992  0.706566  1
  O  O33  1  0.410070  0.551045  0.662885  1
  O  O34  1  0.247185  0.448955  0.337115  1
  O  O35  1  0.896717  0.431427  0.293434  1
  O  O36  1  0.500000  0.000000  0.000000  1
  O  O37  1  0.637992  0.603283  0.206566  1
  O  O38  1  0.611840  0.252815  0.162885  1
  O  O39  1  0.388160  0.747185  0.837115  1
  O  O40  1  0.896717  0.862008  0.293434  1
  O  O41  1  0.314445  0.064445  0.128889  1
  O  O42  1  0.589930  0.448955  0.337115  1
  O  O43  1  0.500000  0.000000  0.500000  1
  O  O44  1  0.752815  0.551045  0.662885  1
  O  O45  1  0.000000  0.000000  0.000000  1
  O  O46  1  0.500000  0.500000  0.500000  1
  O  O47  1  0.752815  0.111840  0.662885  1
