# generated using pymatgen
data_K3LiIrO4
_symmetry_space_group_name_H-M   'P 1'
_cell_length_a   5.99232158
_cell_length_b   7.31945604
_cell_length_c   7.31945609
_cell_angle_alpha   84.54074892
_cell_angle_beta   79.66106361
_cell_angle_gamma   79.66106452
_symmetry_Int_Tables_number   1
_chemical_formula_structural   K3LiIrO4
_chemical_formula_sum   'K6 Li2 Ir2 O8'
_cell_volume   310.03729544
_cell_formula_units_Z   2
loop_
 _symmetry_equiv_pos_site_id
 _symmetry_equiv_pos_as_xyz
  1  'x, y, z'
loop_
 _atom_site_type_symbol
 _atom_site_label
 _atom_site_symmetry_multiplicity
 _atom_site_fract_x
 _atom_site_fract_y
 _atom_site_fract_z
 _atom_site_occupancy
  K  K0  1  0.973932  0.934281  0.756312  1
  K  K1  1  0.750000  0.405205  0.594795  1
  K  K2  1  0.473932  0.756312  0.934281  1
  K  K3  1  0.526068  0.243688  0.065719  1
  K  K4  1  0.026068  0.065719  0.243688  1
  K  K5  1  0.250000  0.594795  0.405205  1
  Li  Li6  1  0.250000  0.268175  0.731825  1
  Li  Li7  1  0.750000  0.731825  0.268175  1
  Ir  Ir8  1  0.000000  0.500000  0.000000  1
  Ir  Ir9  1  0.500000  0.000000  0.500000  1
  O  O10  1  0.753736  0.796308  0.519464  1
  O  O11  1  0.530135  0.086812  0.734920  1
  O  O12  1  0.253736  0.519464  0.796308  1
  O  O13  1  0.030135  0.734920  0.086812  1
  O  O14  1  0.469865  0.913188  0.265080  1
  O  O15  1  0.969865  0.265080  0.913188  1
  O  O16  1  0.746264  0.480536  0.203692  1
  O  O17  1  0.246264  0.203692  0.480536  1
