# generated using pymatgen
data_Al3Pb5F19
_symmetry_space_group_name_H-M   'P 1'
_cell_length_a   7.30904049
_cell_length_b   10.87716604
_cell_length_c   10.87716592
_cell_angle_alpha   83.51845251
_cell_angle_beta   70.36780270
_cell_angle_gamma   70.36779809
_symmetry_Int_Tables_number   1
_chemical_formula_structural   Al3Pb5F19
_chemical_formula_sum   'Al6 Pb10 F38'
_cell_volume   767.13656943
_cell_formula_units_Z   2
loop_
 _symmetry_equiv_pos_site_id
 _symmetry_equiv_pos_as_xyz
  1  'x, y, z'
loop_
 _atom_site_type_symbol
 _atom_site_label
 _atom_site_symmetry_multiplicity
 _atom_site_fract_x
 _atom_site_fract_y
 _atom_site_fract_z
 _atom_site_occupancy
  Al  Al0  1  0.752881  1.000000  0.000000  1
  Al  Al1  1  0.247119  0.000000  1.000000  1
  Al  Al2  1  0.158160  0.166602  0.517078  1
  Al  Al3  1  0.841840  0.833398  0.482922  1
  Al  Al4  1  0.675238  0.482922  0.166602  1
  Al  Al5  1  0.324762  0.517078  0.833398  1
  Pb  Pb6  1  0.758570  0.158087  0.324774  1
  Pb  Pb7  1  0.241430  0.841913  0.675226  1
  Pb  Pb8  1  0.280710  0.277494  0.161086  1
  Pb  Pb9  1  0.719290  0.722506  0.838914  1
  Pb  Pb10  1  0.083344  0.675226  0.158087  1
  Pb  Pb11  1  0.558204  0.161086  0.722506  1
  Pb  Pb12  1  0.916656  0.324774  0.841913  1
  Pb  Pb13  1  0.250000  0.500000  0.500000  1
  Pb  Pb14  1  0.441796  0.838914  0.277494  1
  Pb  Pb15  1  0.750000  0.500000  0.500000  1
  F  F16  1  0.934141  0.143227  0.642785  1
  F  F17  1  0.047407  0.341523  0.563662  1
  F  F18  1  0.257224  0.478396  0.007155  1
  F  F19  1  0.611069  0.436338  0.341523  1
  F  F20  1  0.065859  0.856773  0.357215  1
  F  F21  1  0.861963  0.933516  0.835334  1
  F  F22  1  0.423074  0.642785  0.856773  1
  F  F23  1  0.742776  0.521604  0.992845  1
  F  F24  1  0.138037  0.066484  0.164666  1
  F  F25  1  0.204520  0.164666  0.933516  1
  F  F26  1  0.420276  0.701170  0.458277  1
  F  F27  1  0.972874  0.793004  0.607050  1
  F  F28  1  0.579724  0.298830  0.541723  1
  F  F29  1  0.627072  0.793004  0.607050  1
  F  F30  1  0.795480  0.835334  0.066484  1
  F  F31  1  0.922632  0.357215  0.143227  1
  F  F32  1  0.878554  0.541723  0.701170  1
  F  F33  1  0.765878  0.607050  0.206996  1
  F  F34  1  0.121446  0.458277  0.298830  1
  F  F35  1  0.234122  0.392950  0.793004  1
  F  F36  1  0.077368  0.642785  0.856773  1
  F  F37  1  0.369187  0.933516  0.835334  1
  F  F38  1  0.735620  0.007155  0.521604  1
  F  F39  1  0.372928  0.206996  0.392950  1
  F  F40  1  0.279846  0.143227  0.642785  1
  F  F41  1  0.264380  0.992845  0.478396  1
  F  F42  1  0.000000  0.000000  0.000000  1
  F  F43  1  0.952593  0.658477  0.436338  1
  F  F44  1  0.027126  0.206996  0.392950  1
  F  F45  1  0.720154  0.856773  0.357215  1
  F  F46  1  0.630813  0.066484  0.164666  1
  F  F47  1  0.420076  0.607050  0.206996  1
  F  F48  1  0.388931  0.563662  0.658477  1
  F  F49  1  0.302703  0.835334  0.066484  1
  F  F50  1  0.576926  0.357215  0.143227  1
  F  F51  1  0.579924  0.392950  0.793004  1
  F  F52  1  0.500000  0.000000  0.000000  1
  F  F53  1  0.697297  0.164666  0.933516  1
