# generated using pymatgen
data_K14Fe4O13
_symmetry_space_group_name_H-M   'P 1'
_cell_length_a   6.77433105
_cell_length_b   6.77758022
_cell_length_c   30.20297907
_cell_angle_alpha   90.00000000
_cell_angle_beta   90.00000000
_cell_angle_gamma   119.19824405
_symmetry_Int_Tables_number   1
_chemical_formula_structural   K14Fe4O13
_chemical_formula_sum   'K28 Fe8 O26'
_cell_volume   1210.52504718
_cell_formula_units_Z   2
loop_
 _symmetry_equiv_pos_site_id
 _symmetry_equiv_pos_as_xyz
  1  'x, y, z'
loop_
 _atom_site_type_symbol
 _atom_site_label
 _atom_site_symmetry_multiplicity
 _atom_site_fract_x
 _atom_site_fract_y
 _atom_site_fract_z
 _atom_site_occupancy
  K  K0  1  0.850741  0.001889  0.449119  1
  K  K1  1  0.258640  0.543813  0.388683  1
  K  K2  1  0.729268  0.958759  0.001113  1
  K  K3  1  0.270732  0.541241  0.501113  1
  K  K4  1  0.270732  0.041241  0.998887  1
  K  K5  1  0.729268  0.458759  0.498887  1
  K  K6  1  0.716670  0.956619  0.113987  1
  K  K7  1  0.283330  0.543381  0.613987  1
  K  K8  1  0.283330  0.043381  0.886013  1
  K  K9  1  0.716670  0.456619  0.386013  1
  K  K10  1  0.741360  0.456187  0.611317  1
  K  K11  1  0.258640  0.043813  0.111317  1
  K  K12  1  0.724616  0.442168  0.271670  1
  K  K13  1  0.275384  0.057832  0.771670  1
  K  K14  1  0.275384  0.557832  0.728330  1
  K  K15  1  0.724616  0.942168  0.228330  1
  K  K16  1  0.130308  0.997639  0.347206  1
  K  K17  1  0.869692  0.502361  0.847206  1
  K  K18  1  0.280451  0.053066  0.219153  1
  K  K19  1  0.130308  0.497639  0.152794  1
  K  K20  1  0.869692  0.002361  0.652794  1
  K  K21  1  0.149259  0.498111  0.949119  1
  K  K22  1  0.149259  0.998111  0.550881  1
  K  K23  1  0.850741  0.501889  0.050881  1
  K  K24  1  0.280451  0.553066  0.280847  1
  K  K25  1  0.719549  0.946934  0.780847  1
  K  K26  1  0.719549  0.446934  0.719153  1
  K  K27  1  0.741360  0.956187  0.888683  1
  Fe  Fe28  1  0.649552  0.001066  0.335837  1
  Fe  Fe29  1  0.350448  0.498934  0.835837  1
  Fe  Fe30  1  0.350448  0.998934  0.664163  1
  Fe  Fe31  1  0.649552  0.501066  0.164163  1
  Fe  Fe32  1  0.343356  0.000714  0.445357  1
  Fe  Fe33  1  0.656644  0.499286  0.945357  1
  Fe  Fe34  1  0.656644  0.999286  0.554643  1
  Fe  Fe35  1  0.343356  0.500714  0.054643  1
  O  O36  1  0.500000  0.000000  0.500000  1
  O  O37  1  0.500000  0.500000  0.000000  1
  O  O38  1  0.440109  0.499752  0.206690  1
  O  O39  1  0.559891  1.000248  0.706690  1
  O  O40  1  0.559891  0.500248  0.793310  1
  O  O41  1  0.440109  -0.000248  0.293310  1
  O  O42  1  0.942058  0.265370  0.556985  1
  O  O43  1  0.057942  0.234630  0.056985  1
  O  O44  1  0.057942  0.734630  0.443015  1
  O  O45  1  0.942058  0.765370  0.943015  1
  O  O46  1  0.932572  0.271610  0.329887  1
  O  O47  1  0.067428  0.228390  0.829887  1
  O  O48  1  0.067428  0.728390  0.670113  1
  O  O49  1  0.932572  0.771610  0.170113  1
  O  O50  1  0.671803  0.232724  0.171927  1
  O  O51  1  0.328197  0.267276  0.671927  1
  O  O52  1  0.328197  0.767276  0.828073  1
  O  O53  1  0.671803  0.732724  0.328073  1
  O  O54  1  0.676693  0.730761  0.556742  1
  O  O55  1  0.323307  0.769239  0.056742  1
  O  O56  1  0.323307  0.269239  0.443258  1
  O  O57  1  0.676693  0.230761  0.943258  1
  O  O58  1  0.527201  0.998127  0.396125  1
  O  O59  1  0.472799  0.501873  0.896125  1
  O  O60  1  0.472799  0.001873  0.603875  1
  O  O61  1  0.527201  0.498127  0.103875  1
