# generated using pymatgen
data_Ba7Ru4Cl2O15
_symmetry_space_group_name_H-M   'P 1'
_cell_length_a   17.74166467
_cell_length_b   17.74166447
_cell_length_c   17.74166480
_cell_angle_alpha   19.09695401
_cell_angle_beta   19.09695596
_cell_angle_gamma   19.09695498
_symmetry_Int_Tables_number   1
_chemical_formula_structural   Ba7Ru4Cl2O15
_chemical_formula_sum   'Ba7 Ru4 Cl2 O15'
_cell_volume   522.46314339
_cell_formula_units_Z   1
loop_
 _symmetry_equiv_pos_site_id
 _symmetry_equiv_pos_as_xyz
  1  'x, y, z'
loop_
 _atom_site_type_symbol
 _atom_site_label
 _atom_site_symmetry_multiplicity
 _atom_site_fract_x
 _atom_site_fract_y
 _atom_site_fract_z
 _atom_site_occupancy
  Ba  Ba0  1  0.713777  0.713777  0.713777  1
  Ba  Ba1  1  0.083822  0.083822  0.083822  1
  Ba  Ba2  1  0.205996  0.205996  0.205996  1
  Ba  Ba3  1  0.916178  0.916178  0.916178  1
  Ba  Ba4  1  0.286223  0.286223  0.286223  1
  Ba  Ba5  1  0.000000  0.000000  0.000000  1
  Ba  Ba6  1  0.794004  0.794004  0.794004  1
  Ru  Ru7  1  0.406075  0.406075  0.406075  1
  Ru  Ru8  1  0.645780  0.645780  0.645780  1
  Ru  Ru9  1  0.593925  0.593925  0.593925  1
  Ru  Ru10  1  0.354220  0.354220  0.354220  1
  Cl  Cl11  1  0.855691  0.855691  0.855691  1
  Cl  Cl12  1  0.144309  0.144309  0.144309  1
  O  O13  1  0.773565  0.316267  0.773565  1
  O  O14  1  0.585205  0.585205  0.104402  1
  O  O15  1  0.414795  0.895598  0.414795  1
  O  O16  1  0.104402  0.585205  0.585205  1
  O  O17  1  0.414795  0.414795  0.895598  1
  O  O18  1  0.226435  0.683733  0.226435  1
  O  O19  1  0.585205  0.104402  0.585205  1
  O  O20  1  0.000000  0.500000  0.500000  1
  O  O21  1  0.683733  0.226435  0.226435  1
  O  O22  1  0.316267  0.773565  0.773565  1
  O  O23  1  0.226435  0.226435  0.683733  1
  O  O24  1  0.895598  0.414795  0.414795  1
  O  O25  1  0.773565  0.773565  0.316267  1
  O  O26  1  0.500000  0.000000  0.500000  1
  O  O27  1  0.500000  0.500000  0.000000  1
