# generated using pymatgen
data_Ba3V2(PO5)3
_symmetry_space_group_name_H-M   'P 1'
_cell_length_a   5.19695846
_cell_length_b   12.64910980
_cell_length_c   21.18741883
_cell_angle_alpha   90.00000000
_cell_angle_beta   90.00000000
_cell_angle_gamma   90.00000000
_symmetry_Int_Tables_number   1
_chemical_formula_structural   Ba3V2(PO5)3
_chemical_formula_sum   'Ba12 V8 P12 O60'
_cell_volume   1392.79519446
_cell_formula_units_Z   4
loop_
 _symmetry_equiv_pos_site_id
 _symmetry_equiv_pos_as_xyz
  1  'x, y, z'
loop_
 _atom_site_type_symbol
 _atom_site_label
 _atom_site_symmetry_multiplicity
 _atom_site_fract_x
 _atom_site_fract_y
 _atom_site_fract_z
 _atom_site_occupancy
  Ba  Ba0  1  0.191879  0.623619  0.436822  1
  Ba  Ba1  1  0.308121  0.376381  0.936822  1
  Ba  Ba2  1  0.723654  0.139030  0.420419  1
  Ba  Ba3  1  0.202919  0.781916  0.756841  1
  Ba  Ba4  1  0.691879  0.876381  0.563178  1
  Ba  Ba5  1  0.297081  0.218084  0.256841  1
  Ba  Ba6  1  0.808121  0.123619  0.063178  1
  Ba  Ba7  1  0.223654  0.360970  0.579581  1
  Ba  Ba8  1  0.276346  0.639030  0.079581  1
  Ba  Ba9  1  0.797081  0.281916  0.743159  1
  Ba  Ba10  1  0.702919  0.718084  0.243159  1
  Ba  Ba11  1  0.776346  0.860970  0.920419  1
  V  V12  1  0.673052  0.607940  0.680324  1
  V  V13  1  0.714199  0.442092  0.346785  1
  V  V14  1  0.785801  0.557908  0.846785  1
  V  V15  1  0.326948  0.107940  0.819676  1
  V  V16  1  0.285801  0.942092  0.153215  1
  V  V17  1  0.826948  0.392060  0.180324  1
  V  V18  1  0.214199  0.057908  0.653215  1
  V  V19  1  0.173052  0.892060  0.319676  1
  P  P20  1  0.218798  0.324734  0.410996  1
  P  P21  1  0.186995  0.680501  0.594198  1
  P  P22  1  0.698535  0.964120  0.738731  1
  P  P23  1  0.198535  0.535880  0.261269  1
  P  P24  1  0.301465  0.464120  0.761269  1
  P  P25  1  0.781202  0.824734  0.089004  1
  P  P26  1  0.686995  0.819499  0.405802  1
  P  P27  1  0.801465  0.035880  0.238731  1
  P  P28  1  0.813005  0.180501  0.905802  1
  P  P29  1  0.281202  0.675266  0.910996  1
  P  P30  1  0.718798  0.175266  0.589004  1
  P  P31  1  0.313005  0.319499  0.094198  1
  O  O32  1  0.013449  0.831072  0.136429  1
  O  O33  1  0.293120  0.429896  0.066339  1
  O  O34  1  0.788838  0.716359  0.055788  1
  O  O35  1  0.967212  0.176983  0.632479  1
  O  O36  1  0.941787  0.694199  0.638187  1
  O  O37  1  0.210313  0.135015  0.746771  1
  O  O38  1  0.667059  0.068439  0.777815  1
  O  O39  1  0.750988  0.513685  0.158064  1
  O  O40  1  0.441787  0.805801  0.361813  1
  O  O41  1  0.288838  0.783641  0.944212  1
  O  O42  1  0.711162  0.283641  0.555788  1
  O  O43  1  0.710313  0.364985  0.253229  1
  O  O44  1  0.037783  0.049413  0.193996  1
  O  O45  1  0.486551  0.168928  0.636429  1
  O  O46  1  0.711991  0.506682  0.414716  1
  O  O47  1  0.332941  0.568439  0.722185  1
  O  O48  1  0.286829  0.367923  0.717031  1
  O  O49  1  0.793120  0.070104  0.933661  1
  O  O50  1  0.931640  0.794125  0.362377  1
  O  O51  1  0.032788  0.676983  0.867521  1
  O  O52  1  0.513449  0.668928  0.863571  1
  O  O53  1  0.786829  0.132077  0.282969  1
  O  O54  1  0.288009  0.006682  0.085284  1
  O  O55  1  0.211162  0.216359  0.444212  1
  O  O56  1  0.532788  0.823017  0.132479  1
  O  O57  1  0.221154  0.417076  0.457087  1
  O  O58  1  0.537783  0.450587  0.806004  1
  O  O59  1  0.431640  0.705875  0.637623  1
  O  O60  1  0.249012  0.013685  0.341936  1
  O  O61  1  0.823511  0.267077  0.956094  1
  O  O62  1  0.676489  0.732923  0.456094  1
  O  O63  1  0.323511  0.232923  0.043906  1
  O  O64  1  0.778846  0.917076  0.042913  1
  O  O65  1  0.789687  0.635015  0.753229  1
  O  O66  1  0.832941  0.931561  0.277815  1
  O  O67  1  0.706880  0.929896  0.433661  1
  O  O68  1  0.250988  0.986315  0.841936  1
  O  O69  1  0.788009  0.493318  0.914716  1
  O  O70  1  0.206880  0.570104  0.566339  1
  O  O71  1  0.289687  0.864985  0.246771  1
  O  O72  1  0.462217  0.950587  0.693996  1
  O  O73  1  0.986551  0.331072  0.363571  1
  O  O74  1  0.058213  0.194199  0.861813  1
  O  O75  1  0.568360  0.205875  0.862377  1
  O  O76  1  0.213171  0.632077  0.217031  1
  O  O77  1  0.442892  0.534148  0.303114  1
  O  O78  1  0.942892  0.965852  0.696886  1
  O  O79  1  0.211991  0.993318  0.585284  1
  O  O80  1  0.176489  0.767077  0.543906  1
  O  O81  1  0.713171  0.867923  0.782969  1
  O  O82  1  0.167059  0.431561  0.222185  1
  O  O83  1  0.557108  0.034148  0.196886  1
  O  O84  1  0.558213  0.305801  0.138187  1
  O  O85  1  0.962217  0.549413  0.306004  1
  O  O86  1  0.057108  0.465852  0.803114  1
  O  O87  1  0.278846  0.582924  0.957087  1
  O  O88  1  0.721154  0.082924  0.542913  1
  O  O89  1  0.749012  0.486315  0.658064  1
  O  O90  1  0.467212  0.323017  0.367521  1
  O  O91  1  0.068360  0.294125  0.137623  1
