# generated using pymatgen
data_PH10C3N2O4F
_symmetry_space_group_name_H-M   'P 1'
_cell_length_a   5.59783202
_cell_length_b   8.70142720
_cell_length_c   17.88410240
_cell_angle_alpha   90.00000000
_cell_angle_beta   90.00000000
_cell_angle_gamma   101.82504170
_symmetry_Int_Tables_number   1
_chemical_formula_structural   PH10C3N2O4F
_chemical_formula_sum   'P4 H40 C12 N8 O16 F4'
_cell_volume   852.63207015
_cell_formula_units_Z   4
loop_
 _symmetry_equiv_pos_site_id
 _symmetry_equiv_pos_as_xyz
  1  'x, y, z'
loop_
 _atom_site_type_symbol
 _atom_site_label
 _atom_site_symmetry_multiplicity
 _atom_site_fract_x
 _atom_site_fract_y
 _atom_site_fract_z
 _atom_site_occupancy
  P  P0  1  0.466006  0.188147  0.567814  1
  P  P1  1  0.466006  0.688147  0.932186  1
  P  P2  1  0.533994  0.811853  0.432186  1
  P  P3  1  0.533994  0.311853  0.067814  1
  H  H4  1  0.724327  0.767543  0.708902  1
  H  H5  1  0.269368  0.913442  0.498202  1
  H  H6  1  0.915925  0.008303  0.932916  1
  H  H7  1  0.915925  0.508303  0.567084  1
  H  H8  1  0.275673  0.232457  0.291098  1
  H  H9  1  0.926079  0.813585  0.108605  1
  H  H10  1  0.660593  0.311099  0.205602  1
  H  H11  1  0.780335  0.977163  0.101000  1
  H  H12  1  0.060422  0.516532  0.860516  1
  H  H13  1  0.219665  0.522837  0.601000  1
  H  H14  1  0.574205  0.929561  0.703836  1
  H  H15  1  0.939578  0.483469  0.139484  1
  H  H16  1  0.425795  0.070439  0.296164  1
  H  H17  1  0.084075  0.991697  0.067084  1
  H  H18  1  0.314160  0.644883  0.121166  1
  H  H19  1  0.724327  0.267543  0.791098  1
  H  H20  1  0.685840  0.855117  0.621166  1
  H  H21  1  0.060422  0.016532  0.639484  1
  H  H22  1  0.073921  0.686415  0.608605  1
  H  H23  1  0.425795  0.570439  0.203836  1
  H  H24  1  0.339407  0.688901  0.794398  1
  H  H25  1  0.780567  0.915427  0.818987  1
  H  H26  1  0.219433  0.084573  0.181013  1
  H  H27  1  0.314160  0.144883  0.378834  1
  H  H28  1  0.939578  0.983468  0.360516  1
  H  H29  1  0.219433  0.584573  0.318987  1
  H  H30  1  0.084075  0.491697  0.432916  1
  H  H31  1  0.269368  0.413442  0.001798  1
  H  H32  1  0.730632  0.586558  0.998202  1
  H  H33  1  0.073921  0.186415  0.891395  1
  H  H34  1  0.685840  0.355117  0.878834  1
  H  H35  1  0.275673  0.732457  0.208902  1
  H  H36  1  0.219665  0.022837  0.899000  1
  H  H37  1  0.780567  0.415427  0.681013  1
  H  H38  1  0.730632  0.086558  0.501798  1
  H  H39  1  0.574205  0.429561  0.796164  1
  H  H40  1  0.339407  0.188901  0.705602  1
  H  H41  1  0.926079  0.313585  0.391395  1
  H  H42  1  0.780335  0.477163  0.399000  1
  H  H43  1  0.660593  0.811099  0.294398  1
  C  C44  1  0.948324  0.957529  0.247344  1
  C  C45  1  0.723030  0.379376  0.819521  1
  C  C46  1  0.051676  0.542471  0.747344  1
  C  C47  1  0.955138  0.942072  0.110953  1
  C  C48  1  0.948324  0.457529  0.252656  1
  C  C49  1  0.276970  0.620624  0.180479  1
  C  C50  1  0.044862  0.557928  0.610953  1
  C  C51  1  0.276970  0.120624  0.319521  1
  C  C52  1  0.955138  0.442072  0.389047  1
  C  C53  1  0.051676  0.042471  0.752656  1
  C  C54  1  0.044862  0.057928  0.889047  1
  C  C55  1  0.723030  0.879376  0.680479  1
  N  N56  1  0.060318  0.001607  0.182559  1
  N  N57  1  0.939682  0.998393  0.817441  1
  N  N58  1  0.939682  0.498393  0.682559  1
  N  N59  1  0.060318  0.501607  0.317441  1
  N  N60  1  0.956236  0.488323  0.812902  1
  N  N61  1  0.956236  0.988323  0.687098  1
  N  N62  1  0.043764  0.011677  0.312902  1
  N  N63  1  0.043764  0.511677  0.187098  1
  O  O64  1  0.272941  0.329901  0.042408  1
  O  O65  1  0.272941  0.829901  0.457592  1
  O  O66  1  0.260779  0.643484  0.743175  1
  O  O67  1  0.481983  0.767407  0.856358  1
  O  O68  1  0.272901  0.039570  0.559418  1
  O  O69  1  0.481983  0.267407  0.643642  1
  O  O70  1  0.260779  0.143484  0.756825  1
  O  O71  1  0.739221  0.356516  0.256825  1
  O  O72  1  0.727059  0.670099  0.957592  1
  O  O73  1  0.727099  0.960430  0.440582  1
  O  O74  1  0.272901  0.539570  0.940582  1
  O  O75  1  0.739221  0.856516  0.243175  1
  O  O76  1  0.518017  0.232593  0.143642  1
  O  O77  1  0.727059  0.170099  0.542408  1
  O  O78  1  0.727099  0.460430  0.059418  1
  O  O79  1  0.518017  0.732593  0.356358  1
  F  F80  1  0.598167  0.687293  0.490457  1
  F  F81  1  0.401833  0.812707  0.990457  1
  F  F82  1  0.598167  0.187293  0.009543  1
  F  F83  1  0.401833  0.312707  0.509543  1
