# generated using pymatgen
data_Ca3Si(ClO2)2
_symmetry_space_group_name_H-M   'P 1'
_cell_length_a   6.82217938
_cell_length_b   9.92875349
_cell_length_c   10.92655217
_cell_angle_alpha   105.71807159
_cell_angle_beta   90.00000000
_cell_angle_gamma   90.00000000
_symmetry_Int_Tables_number   1
_chemical_formula_structural   Ca3Si(ClO2)2
_chemical_formula_sum   'Ca12 Si4 Cl8 O16'
_cell_volume   712.44235061
_cell_formula_units_Z   4
loop_
 _symmetry_equiv_pos_site_id
 _symmetry_equiv_pos_as_xyz
  1  'x, y, z'
loop_
 _atom_site_type_symbol
 _atom_site_label
 _atom_site_symmetry_multiplicity
 _atom_site_fract_x
 _atom_site_fract_y
 _atom_site_fract_z
 _atom_site_occupancy
  Ca  Ca0  1  0.258721  0.802518  0.954107  1
  Ca  Ca1  1  0.758721  0.197482  0.545893  1
  Ca  Ca2  1  0.741279  0.197482  0.045893  1
  Ca  Ca3  1  0.241279  0.802518  0.454107  1
  Ca  Ca4  1  0.538828  0.921090  0.728151  1
  Ca  Ca5  1  0.038828  0.078910  0.771849  1
  Ca  Ca6  1  0.461172  0.078910  0.271849  1
  Ca  Ca7  1  0.961172  0.921090  0.228151  1
  Ca  Ca8  1  0.783421  0.575065  0.888959  1
  Ca  Ca9  1  0.283421  0.424935  0.611041  1
  Ca  Ca10  1  0.216579  0.424935  0.111041  1
  Ca  Ca11  1  0.716579  0.575065  0.388959  1
  Cl  Cl12  1  0.201217  0.492095  0.875350  1
  Cl  Cl13  1  0.701217  0.507905  0.624650  1
  Cl  Cl14  1  0.798783  0.507905  0.124650  1
  Cl  Cl15  1  0.298783  0.492095  0.375350  1
  Cl  Cl16  1  0.182128  0.713925  0.681152  1
  Cl  Cl17  1  0.682128  0.286075  0.818848  1
  Cl  Cl18  1  0.817872  0.286075  0.318848  1
  Cl  Cl19  1  0.317872  0.713925  0.181152  1
  Si  Si20  1  0.750308  0.880983  0.970143  1
  Si  Si21  1  0.250308  0.119017  0.529857  1
  Si  Si22  1  0.249692  0.119017  0.029857  1
  Si  Si23  1  0.749692  0.880983  0.470143  1
  O  O24  1  0.583106  0.766878  0.896292  1
  O  O25  1  0.083106  0.233122  0.603708  1
  O  O26  1  0.416894  0.233122  0.103708  1
  O  O27  1  0.916894  0.766878  0.396292  1
  O  O28  1  0.931482  0.780492  0.994475  1
  O  O29  1  0.431482  0.219508  0.505525  1
  O  O30  1  0.068518  0.219508  0.005525  1
  O  O31  1  0.568518  0.780492  0.494475  1
  O  O32  1  0.798214  0.984802  0.879245  1
  O  O33  1  0.298214  0.015198  0.620755  1
  O  O34  1  0.201786  0.015198  0.120755  1
  O  O35  1  0.701786  0.984802  0.379245  1
  O  O36  1  0.807283  0.986414  0.609903  1
  O  O37  1  0.307283  0.013586  0.890097  1
  O  O38  1  0.192717  0.013586  0.390097  1
  O  O39  1  0.692717  0.986414  0.109903  1
