# generated using pymatgen
data_LiCdCoF6
_symmetry_space_group_name_H-M   'P 1'
_cell_length_a   5.10026843
_cell_length_b   5.10026825
_cell_length_c   9.63709396
_cell_angle_alpha   90.00000000
_cell_angle_beta   90.00000000
_cell_angle_gamma   120.00000121
_symmetry_Int_Tables_number   1
_chemical_formula_structural   LiCdCoF6
_chemical_formula_sum   'Li2 Cd2 Co2 F12'
_cell_volume   217.10147417
_cell_formula_units_Z   2
loop_
 _symmetry_equiv_pos_site_id
 _symmetry_equiv_pos_as_xyz
  1  'x, y, z'
loop_
 _atom_site_type_symbol
 _atom_site_label
 _atom_site_symmetry_multiplicity
 _atom_site_fract_x
 _atom_site_fract_y
 _atom_site_fract_z
 _atom_site_occupancy
  Li  Li0  1  0.333333  0.666667  0.250000  1
  Li  Li1  1  0.666667  0.333333  0.750000  1
  Cd  Cd2  1  0.000000  0.000000  0.000000  1
  Cd  Cd3  1  0.000000  0.000000  0.500000  1
  Co  Co4  1  0.666667  0.333333  0.250000  1
  Co  Co5  1  0.333333  0.666667  0.750000  1
  F  F6  1  0.976073  0.628252  0.359714  1
  F  F7  1  0.652178  0.023927  0.359714  1
  F  F8  1  0.023927  0.371748  0.640286  1
  F  F9  1  0.628252  0.976073  0.859714  1
  F  F10  1  0.347822  0.371748  0.859714  1
  F  F11  1  0.628252  0.652178  0.640286  1
  F  F12  1  0.371748  0.023927  0.140286  1
  F  F13  1  0.976073  0.347822  0.140286  1
  F  F14  1  0.023927  0.652178  0.859714  1
  F  F15  1  0.347822  0.976073  0.640286  1
  F  F16  1  0.371748  0.347822  0.359714  1
  F  F17  1  0.652178  0.628252  0.140286  1
