# generated using pymatgen
data_Sr2CoMoO6
_symmetry_space_group_name_H-M   'P 1'
_cell_length_a   5.68853664
_cell_length_b   5.68955123
_cell_length_c   5.48013469
_cell_angle_alpha   61.19816266
_cell_angle_beta   61.21790295
_cell_angle_gamma   57.58941484
_symmetry_Int_Tables_number   1
_chemical_formula_structural   Sr2CoMoO6
_chemical_formula_sum   'Sr2 Co1 Mo1 O6'
_cell_volume   125.09605089
_cell_formula_units_Z   1
loop_
 _symmetry_equiv_pos_site_id
 _symmetry_equiv_pos_as_xyz
  1  'x, y, z'
loop_
 _atom_site_type_symbol
 _atom_site_label
 _atom_site_symmetry_multiplicity
 _atom_site_fract_x
 _atom_site_fract_y
 _atom_site_fract_z
 _atom_site_occupancy
  Sr  Sr0  1  0.749912  0.749979  0.750056  1
  Sr  Sr1  1  0.250088  0.250020  0.249945  1
  Co  Co2  1  0.000000  0.000000  0.000000  1
  Mo  Mo3  1  0.500000  0.500000  0.500000  1
  O  O4  1  0.734332  0.734330  0.265667  1
  O  O5  1  0.749793  0.250220  0.250173  1
  O  O6  1  0.250208  0.749780  0.749827  1
  O  O7  1  0.265667  0.265671  0.734333  1
  O  O8  1  0.749909  0.250089  0.749926  1
  O  O9  1  0.250091  0.749911  0.250073  1
