# generated using pymatgen
data_Ti3Al2NiN
_symmetry_space_group_name_H-M   'P 1'
_cell_length_a   8.04283650
_cell_length_b   8.04283682
_cell_length_c   8.04283596
_cell_angle_alpha   59.99999943
_cell_angle_beta   59.99999813
_cell_angle_gamma   60.00000245
_symmetry_Int_Tables_number   1
_chemical_formula_structural   Ti3Al2NiN
_chemical_formula_sum   'Ti12 Al8 Ni4 N4'
_cell_volume   367.88553427
_cell_formula_units_Z   4
loop_
 _symmetry_equiv_pos_site_id
 _symmetry_equiv_pos_as_xyz
  1  'x, y, z'
loop_
 _atom_site_type_symbol
 _atom_site_label
 _atom_site_symmetry_multiplicity
 _atom_site_fract_x
 _atom_site_fract_y
 _atom_site_fract_z
 _atom_site_occupancy
  Ti  Ti0  1  0.810385  0.439615  0.439615  1
  Ti  Ti1  1  0.560385  0.560385  0.189615  1
  Ti  Ti2  1  0.189615  0.189615  0.560385  1
  Ti  Ti3  1  0.560385  0.189615  0.189615  1
  Ti  Ti4  1  0.560385  0.189615  0.560385  1
  Ti  Ti5  1  0.189615  0.560385  0.189615  1
  Ti  Ti6  1  0.439615  0.810385  0.439615  1
  Ti  Ti7  1  0.439615  0.439615  0.810385  1
  Ti  Ti8  1  0.810385  0.810385  0.439615  1
  Ti  Ti9  1  0.810385  0.439615  0.810385  1
  Ti  Ti10  1  0.189615  0.560385  0.560385  1
  Ti  Ti11  1  0.439615  0.810385  0.810385  1
  Al  Al12  1  0.207826  0.207826  0.207826  1
  Al  Al13  1  0.792174  0.792174  0.123477  1
  Al  Al14  1  0.123477  0.792174  0.792174  1
  Al  Al15  1  0.792174  0.123477  0.792174  1
  Al  Al16  1  0.876523  0.207826  0.207826  1
  Al  Al17  1  0.207826  0.876523  0.207826  1
  Al  Al18  1  0.207826  0.207826  0.876523  1
  Al  Al19  1  0.792174  0.792174  0.792174  1
  N  N20  1  0.500000  0.500000  0.500000  1
  N  N21  1  0.500000  0.500000  0.000000  1
  N  N22  1  0.000000  0.500000  0.500000  1
  N  N23  1  0.500000  0.000000  0.500000  1
  Ni  Ni24  1  0.000000  0.000000  0.000000  1
  Ni  Ni25  1  0.000000  0.000000  0.500000  1
  Ni  Ni26  1  0.500000  0.000000  0.000000  1
  Ni  Ni27  1  0.000000  0.500000  0.000000  1
