# generated using pymatgen
data_V3(Bi3O8)2
_symmetry_space_group_name_H-M   'P 1'
_cell_length_a   5.58064035
_cell_length_b   15.23604875
_cell_length_c   17.47726278
_cell_angle_alpha   90.00000000
_cell_angle_beta   90.00000000
_cell_angle_gamma   90.00000000
_symmetry_Int_Tables_number   1
_chemical_formula_structural   V3(Bi3O8)2
_chemical_formula_sum   'V12 Bi24 O64'
_cell_volume   1486.03762198
_cell_formula_units_Z   4
loop_
 _symmetry_equiv_pos_site_id
 _symmetry_equiv_pos_as_xyz
  1  'x, y, z'
loop_
 _atom_site_type_symbol
 _atom_site_label
 _atom_site_symmetry_multiplicity
 _atom_site_fract_x
 _atom_site_fract_y
 _atom_site_fract_z
 _atom_site_occupancy
  V  V0  1  0.752922  0.967026  0.750000  1
  V  V1  1  0.252922  0.532974  0.750000  1
  V  V2  1  0.747078  0.467026  0.250000  1
  V  V3  1  0.247078  0.032974  0.250000  1
  V  V4  1  0.733329  0.516793  0.612487  1
  V  V5  1  0.233329  0.983207  0.887513  1
  V  V6  1  0.766671  0.016793  0.387512  1
  V  V7  1  0.266671  0.483207  0.112488  1
  V  V8  1  0.266671  0.483207  0.387512  1
  V  V9  1  0.766671  0.016793  0.112488  1
  V  V10  1  0.233329  0.983207  0.612487  1
  V  V11  1  0.733329  0.516793  0.887513  1
  Bi  Bi12  1  0.793922  0.685106  0.750000  1
  Bi  Bi13  1  0.293922  0.814894  0.750000  1
  Bi  Bi14  1  0.706078  0.185106  0.250000  1
  Bi  Bi15  1  0.206078  0.314894  0.250000  1
  Bi  Bi16  1  0.733247  0.328906  0.750000  1
  Bi  Bi17  1  0.233247  0.171094  0.750000  1
  Bi  Bi18  1  0.766753  0.828906  0.250000  1
  Bi  Bi19  1  0.266753  0.671094  0.250000  1
  Bi  Bi20  1  0.779207  0.165507  0.589433  1
  Bi  Bi21  1  0.279207  0.334493  0.910567  1
  Bi  Bi22  1  0.720793  0.665507  0.410567  1
  Bi  Bi23  1  0.220793  0.834493  0.089433  1
  Bi  Bi24  1  0.220793  0.834493  0.410567  1
  Bi  Bi25  1  0.720793  0.665507  0.089433  1
  Bi  Bi26  1  0.279207  0.334493  0.589433  1
  Bi  Bi27  1  0.779207  0.165507  0.910567  1
  Bi  Bi28  1  0.711238  0.829856  0.570880  1
  Bi  Bi29  1  0.211238  0.670144  0.929120  1
  Bi  Bi30  1  0.788762  0.329856  0.429120  1
  Bi  Bi31  1  0.288762  0.170144  0.070880  1
  Bi  Bi32  1  0.288762  0.170144  0.429120  1
  Bi  Bi33  1  0.788762  0.329856  0.070880  1
  Bi  Bi34  1  0.211238  0.670144  0.570880  1
  Bi  Bi35  1  0.711238  0.829856  0.929120  1
  O  O36  1  0.995098  0.751931  0.015223  1
  O  O37  1  0.495098  0.748069  0.484777  1
  O  O38  1  0.504902  0.251931  0.984777  1
  O  O39  1  0.004902  0.248069  0.515223  1
  O  O40  1  0.004902  0.248069  0.984777  1
  O  O41  1  0.504902  0.251931  0.515223  1
  O  O42  1  0.495098  0.748069  0.015223  1
  O  O43  1  0.995098  0.751931  0.484777  1
  O  O44  1  0.914014  0.731857  0.633226  1
  O  O45  1  0.414014  0.768143  0.866774  1
  O  O46  1  0.585986  0.231857  0.366774  1
  O  O47  1  0.085986  0.268143  0.133226  1
  O  O48  1  0.085986  0.268143  0.366774  1
  O  O49  1  0.585986  0.231857  0.133226  1
  O  O50  1  0.414014  0.768143  0.633226  1
  O  O51  1  0.914014  0.731857  0.866774  1
  O  O52  1  0.996367  0.252155  0.673261  1
  O  O53  1  0.496367  0.247845  0.826739  1
  O  O54  1  0.503633  0.752155  0.326739  1
  O  O55  1  0.003633  0.747845  0.173261  1
  O  O56  1  0.003633  0.747845  0.326739  1
  O  O57  1  0.503633  0.752155  0.173261  1
  O  O58  1  0.496367  0.247845  0.673261  1
  O  O59  1  0.996367  0.252155  0.826739  1
  O  O60  1  0.992020  0.939013  0.665243  1
  O  O61  1  0.492020  0.560987  0.834757  1
  O  O62  1  0.507980  0.439013  0.334757  1
  O  O63  1  0.007980  0.060987  0.165243  1
  O  O64  1  0.007980  0.060987  0.334757  1
  O  O65  1  0.507980  0.439013  0.165243  1
  O  O66  1  0.492020  0.560987  0.665243  1
  O  O67  1  0.992020  0.939013  0.834757  1
  O  O68  1  0.995357  0.532947  0.666981  1
  O  O69  1  0.495357  0.967053  0.833019  1
  O  O70  1  0.504643  0.032947  0.333019  1
  O  O71  1  0.004643  0.467053  0.166981  1
  O  O72  1  0.004643  0.467053  0.333019  1
  O  O73  1  0.504643  0.032947  0.166981  1
  O  O74  1  0.495357  0.967053  0.666981  1
  O  O75  1  0.995357  0.532947  0.833019  1
  O  O76  1  0.681940  0.405172  0.600066  1
  O  O77  1  0.181940  0.094828  0.899934  1
  O  O78  1  0.818060  0.905172  0.399934  1
  O  O79  1  0.318060  0.594828  0.100066  1
  O  O80  1  0.318060  0.594828  0.399934  1
  O  O81  1  0.818060  0.905172  0.100066  1
  O  O82  1  0.181940  0.094828  0.600066  1
  O  O83  1  0.681940  0.405172  0.899934  1
  O  O84  1  0.760738  0.572318  0.527213  1
  O  O85  1  0.260738  0.927682  0.972787  1
  O  O86  1  0.739262  0.072318  0.472787  1
  O  O87  1  0.239262  0.427682  0.027213  1
  O  O88  1  0.239262  0.427682  0.472787  1
  O  O89  1  0.739262  0.072318  0.027213  1
  O  O90  1  0.260738  0.927682  0.527213  1
  O  O91  1  0.760738  0.572318  0.972787  1
  O  O92  1  0.690295  0.832426  0.750000  1
  O  O93  1  0.190295  0.667574  0.750000  1
  O  O94  1  0.809705  0.332426  0.250000  1
  O  O95  1  0.309705  0.167574  0.250000  1
  O  O96  1  0.803974  0.078109  0.750000  1
  O  O97  1  0.303974  0.421891  0.750000  1
  O  O98  1  0.696026  0.578109  0.250000  1
  O  O99  1  0.196026  0.921891  0.250000  1
