# generated using pymatgen
data_Rb2U(MoO5)2
_symmetry_space_group_name_H-M   'P 1'
_cell_length_a   12.52570301
_cell_length_b   13.91531902
_cell_length_c   13.92551607
_cell_angle_alpha   90.00000000
_cell_angle_beta   90.00000000
_cell_angle_gamma   94.77531263
_symmetry_Int_Tables_number   1
_chemical_formula_structural   Rb2U(MoO5)2
_chemical_formula_sum   'Rb16 U8 Mo16 O80'
_cell_volume   2418.78039752
_cell_formula_units_Z   8
loop_
 _symmetry_equiv_pos_site_id
 _symmetry_equiv_pos_as_xyz
  1  'x, y, z'
loop_
 _atom_site_type_symbol
 _atom_site_label
 _atom_site_symmetry_multiplicity
 _atom_site_fract_x
 _atom_site_fract_y
 _atom_site_fract_z
 _atom_site_occupancy
  Rb  Rb0  1  0.733229  0.185903  0.956201  1
  Rb  Rb1  1  0.456588  0.213872  0.155632  1
  Rb  Rb2  1  0.241917  0.783286  0.624700  1
  Rb  Rb3  1  0.963054  0.694590  0.826319  1
  Rb  Rb4  1  0.456588  0.713872  0.344368  1
  Rb  Rb5  1  0.266771  0.814097  0.043799  1
  Rb  Rb6  1  0.543412  0.286128  0.655632  1
  Rb  Rb7  1  0.758083  0.716714  0.124700  1
  Rb  Rb8  1  0.758083  0.216714  0.375300  1
  Rb  Rb9  1  0.241917  0.283286  0.875300  1
  Rb  Rb10  1  0.266771  0.314097  0.456201  1
  Rb  Rb11  1  0.036946  0.305410  0.173681  1
  Rb  Rb12  1  0.543412  0.786128  0.844368  1
  Rb  Rb13  1  0.733229  0.685903  0.543799  1
  Rb  Rb14  1  0.963054  0.194590  0.673681  1
  Rb  Rb15  1  0.036946  0.805410  0.326319  1
  U  U16  1  0.668524  0.011879  0.679168  1
  U  U17  1  0.156115  0.971895  0.817697  1
  U  U18  1  0.331476  0.988121  0.320832  1
  U  U19  1  0.156115  0.471895  0.682303  1
  U  U20  1  0.843885  0.028105  0.182303  1
  U  U21  1  0.331476  0.488121  0.179168  1
  U  U22  1  0.668524  0.511879  0.820832  1
  U  U23  1  0.843885  0.528105  0.317698  1
  Mo  Mo24  1  0.641175  0.950483  0.404002  1
  Mo  Mo25  1  0.849212  0.939877  0.911428  1
  Mo  Mo26  1  0.446757  0.574474  0.627130  1
  Mo  Mo27  1  0.553243  0.925526  0.127130  1
  Mo  Mo28  1  0.553243  0.425526  0.372870  1
  Mo  Mo29  1  0.944222  0.405802  0.883944  1
  Mo  Mo30  1  0.150788  0.560123  0.411428  1
  Mo  Mo31  1  0.641175  0.450483  0.095998  1
  Mo  Mo32  1  0.849212  0.439877  0.588572  1
  Mo  Mo33  1  0.358825  0.549517  0.904002  1
  Mo  Mo34  1  0.055778  0.594198  0.116056  1
  Mo  Mo35  1  0.150788  0.060123  0.088572  1
  Mo  Mo36  1  0.055778  0.094198  0.383944  1
  Mo  Mo37  1  0.944222  0.905802  0.616056  1
  Mo  Mo38  1  0.358825  0.049517  0.595998  1
  Mo  Mo39  1  0.446757  0.074474  0.872870  1
  O  O40  1  0.363842  0.618036  0.166488  1
  O  O41  1  0.129180  0.099295  0.807801  1
  O  O42  1  0.922897  0.564471  0.170021  1
  O  O43  1  0.317758  0.977468  0.491711  1
  O  O44  1  0.293114  0.991577  0.700007  1
  O  O45  1  0.755614  0.490928  0.668449  1
  O  O46  1  0.497995  0.447364  0.112702  1
  O  O47  1  0.042568  0.107746  0.508701  1
  O  O48  1  0.870820  0.900705  0.192199  1
  O  O49  1  0.028324  0.074985  0.154076  1
  O  O50  1  0.105258  0.708642  0.159299  1
  O  O51  1  0.636158  0.881964  0.666488  1
  O  O52  1  0.673260  0.331158  0.081711  1
  O  O53  1  0.702368  0.641627  0.805324  1
  O  O54  1  0.152713  0.505586  0.144977  1
  O  O55  1  0.502005  0.052636  0.612702  1
  O  O56  1  0.847287  0.994414  0.644977  1
  O  O57  1  0.957432  0.392254  0.008701  1
  O  O58  1  0.847287  0.494414  0.855023  1
  O  O59  1  0.124787  0.478513  0.511414  1
  O  O60  1  0.870820  0.400705  0.307801  1
  O  O61  1  0.293114  0.491577  0.799993  1
  O  O62  1  0.318019  0.506309  0.601866  1
  O  O63  1  0.682242  0.522532  0.991711  1
  O  O64  1  0.421028  0.179413  0.808216  1
  O  O65  1  0.028324  0.574985  0.345924  1
  O  O66  1  0.497995  0.947364  0.387298  1
  O  O67  1  0.755614  0.990928  0.831551  1
  O  O68  1  0.203507  0.175159  0.049958  1
  O  O69  1  0.681981  0.993691  0.101866  1
  O  O70  1  0.539337  0.506629  0.696917  1
  O  O71  1  0.491218  0.885449  0.018504  1
  O  O72  1  0.203507  0.675159  0.450042  1
  O  O73  1  0.875213  0.021487  0.011414  1
  O  O74  1  0.796493  0.824841  0.950042  1
  O  O75  1  0.297632  0.858373  0.305324  1
  O  O76  1  0.502005  0.552636  0.887298  1
  O  O77  1  0.297632  0.358373  0.194676  1
  O  O78  1  0.152713  0.005586  0.355023  1
  O  O79  1  0.244386  0.509072  0.331551  1
  O  O80  1  0.682242  0.022532  0.508289  1
  O  O81  1  0.077103  0.935529  0.670021  1
  O  O82  1  0.539337  0.006629  0.803083  1
  O  O83  1  0.460663  0.993371  0.196917  1
  O  O84  1  0.822081  0.656510  0.328463  1
  O  O85  1  0.875213  0.521487  0.488586  1
  O  O86  1  0.105258  0.208642  0.340701  1
  O  O87  1  0.363842  0.118036  0.333512  1
  O  O88  1  0.177919  0.343490  0.671537  1
  O  O89  1  0.177919  0.843490  0.828463  1
  O  O90  1  0.796493  0.324841  0.549958  1
  O  O91  1  0.702368  0.141627  0.694676  1
  O  O92  1  0.326740  0.668842  0.918289  1
  O  O93  1  0.317758  0.477468  0.008289  1
  O  O94  1  0.957432  0.892254  0.491299  1
  O  O95  1  0.894742  0.291358  0.840701  1
  O  O96  1  0.508782  0.114551  0.981496  1
  O  O97  1  0.077103  0.435529  0.829979  1
  O  O98  1  0.971676  0.925015  0.845924  1
  O  O99  1  0.578972  0.320587  0.308216  1
  O  O100  1  0.508782  0.614551  0.518504  1
  O  O101  1  0.971676  0.425015  0.654076  1
  O  O102  1  0.326740  0.168842  0.581711  1
  O  O103  1  0.421028  0.679413  0.691784  1
  O  O104  1  0.491218  0.385449  0.481496  1
  O  O105  1  0.244386  0.009072  0.168449  1
  O  O106  1  0.578972  0.820587  0.191784  1
  O  O107  1  0.681981  0.493691  0.398134  1
  O  O108  1  0.129180  0.599295  0.692199  1
  O  O109  1  0.636158  0.381964  0.833512  1
  O  O110  1  0.894742  0.791358  0.659299  1
  O  O111  1  0.318019  0.006309  0.898134  1
  O  O112  1  0.822081  0.156510  0.171537  1
  O  O113  1  0.706886  0.508423  0.200007  1
  O  O114  1  0.460663  0.493371  0.303083  1
  O  O115  1  0.706886  0.008423  0.299993  1
  O  O116  1  0.124787  0.978513  0.988586  1
  O  O117  1  0.042568  0.607746  0.991299  1
  O  O118  1  0.673260  0.831158  0.418289  1
  O  O119  1  0.922897  0.064471  0.329979  1
