# generated using pymatgen
data_Ca7NbSi4O17F
_symmetry_space_group_name_H-M   'P 1'
_cell_length_a   7.44605902
_cell_length_b   10.55904820
_cell_length_c   11.01313450
_cell_angle_alpha   90.00000000
_cell_angle_beta   110.14616874
_cell_angle_gamma   90.00000000
_symmetry_Int_Tables_number   1
_chemical_formula_structural   Ca7NbSi4O17F
_chemical_formula_sum   'Ca14 Nb2 Si8 O34 F2'
_cell_volume   812.91127604
_cell_formula_units_Z   2
loop_
 _symmetry_equiv_pos_site_id
 _symmetry_equiv_pos_as_xyz
  1  'x, y, z'
loop_
 _atom_site_type_symbol
 _atom_site_label
 _atom_site_symmetry_multiplicity
 _atom_site_fract_x
 _atom_site_fract_y
 _atom_site_fract_z
 _atom_site_occupancy
  Ca  Ca0  1  0.450480  0.650173  0.931101  1
  Ca  Ca1  1  0.950480  0.349827  0.431101  1
  Ca  Ca2  1  0.945642  0.665778  0.919981  1
  Ca  Ca3  1  0.445642  0.334222  0.419981  1
  Ca  Ca4  1  0.123702  0.380306  0.807720  1
  Ca  Ca5  1  0.623702  0.619694  0.307720  1
  Ca  Ca6  1  0.656890  0.372666  0.828440  1
  Ca  Ca7  1  0.156890  0.627334  0.328440  1
  Nb  Nb8  1  0.821374  0.140493  0.682077  1
  Nb  Nb9  1  0.321374  0.859507  0.182077  1
  Ca  Ca10  1  0.309095  0.132425  0.658848  1
  Ca  Ca11  1  0.809095  0.867575  0.158848  1
  Ca  Ca12  1  0.022379  0.836868  0.573263  1
  Ca  Ca13  1  0.522379  0.163132  0.073263  1
  Ca  Ca14  1  0.520616  0.846563  0.560266  1
  Ca  Ca15  1  0.020616  0.153437  0.060266  1
  Si  Si16  1  0.700761  0.069370  0.361967  1
  Si  Si17  1  0.200761  0.930630  0.861967  1
  Si  Si18  1  0.135659  0.054568  0.376221  1
  Si  Si19  1  0.635659  0.945432  0.876221  1
  Si  Si20  1  0.264826  0.556146  0.616653  1
  Si  Si21  1  0.764826  0.443854  0.116653  1
  Si  Si22  1  0.817421  0.559896  0.606854  1
  Si  Si23  1  0.317421  0.440104  0.106854  1
  O  O24  1  0.719587  0.012514  0.504872  1
  O  O25  1  0.219587  0.987486  0.004872  1
  O  O26  1  0.238612  0.970902  0.507445  1
  O  O27  1  0.738612  0.029098  0.007445  1
  O  O28  1  0.546144  0.999210  0.235507  1
  O  O29  1  0.046144  0.000790  0.735507  1
  O  O30  1  0.170778  0.008037  0.244286  1
  O  O31  1  0.670778  0.991963  0.744286  1
  O  O32  1  0.668959  0.220997  0.345483  1
  O  O33  1  0.168959  0.779003  0.845483  1
  O  O34  1  0.182273  0.203051  0.411371  1
  O  O35  1  0.682273  0.796949  0.911371  1
  O  O36  1  0.392045  0.505143  0.760275  1
  O  O37  1  0.892045  0.494857  0.260275  1
  O  O38  1  0.823102  0.508072  0.747194  1
  O  O39  1  0.323102  0.491928  0.247194  1
  O  O40  1  0.264338  0.468722  0.494870  1
  O  O41  1  0.764338  0.531278  0.994870  1
  O  O42  1  0.696753  0.478601  0.478359  1
  O  O43  1  0.196753  0.521399  0.978359  1
  O  O44  1  0.284549  0.704884  0.583414  1
  O  O45  1  0.784549  0.295116  0.083414  1
  O  O46  1  0.773285  0.710548  0.582571  1
  O  O47  1  0.273285  0.289452  0.082571  1
  O  O48  1  0.585718  0.232587  0.629437  1
  O  O49  1  0.085718  0.767413  0.129437  1
  O  O50  1  0.996922  0.235291  0.623354  1
  O  O51  1  0.496922  0.764709  0.123354  1
  F  F52  1  0.400236  0.248329  0.850556  1
  F  F53  1  0.900236  0.751671  0.350556  1
  O  O54  1  0.911113  0.221990  0.845742  1
  O  O55  1  0.411113  0.778010  0.345742  1
  O  O56  1  0.901001  0.027271  0.334624  1
  O  O57  1  0.401001  0.972729  0.834624  1
  O  O58  1  0.042839  0.529263  0.616849  1
  O  O59  1  0.542839  0.470737  0.116849  1
