# generated using pymatgen
data_SnPCl9
_symmetry_space_group_name_H-M   'P 1'
_cell_length_a   6.74393872
_cell_length_b   10.57774815
_cell_length_c   10.57774768
_cell_angle_alpha   107.34723261
_cell_angle_beta   90.00000000
_cell_angle_gamma   90.00000000
_symmetry_Int_Tables_number   1
_chemical_formula_structural   SnPCl9
_chemical_formula_sum   'Sn2 P2 Cl18'
_cell_volume   720.24947244
_cell_formula_units_Z   2
loop_
 _symmetry_equiv_pos_site_id
 _symmetry_equiv_pos_as_xyz
  1  'x, y, z'
loop_
 _atom_site_type_symbol
 _atom_site_label
 _atom_site_symmetry_multiplicity
 _atom_site_fract_x
 _atom_site_fract_y
 _atom_site_fract_z
 _atom_site_occupancy
  Sn  Sn0  1  0.892582  0.250000  0.750000  1
  Sn  Sn1  1  0.107418  0.750000  0.250000  1
  P  P2  1  0.500000  0.750000  0.750000  1
  P  P3  1  0.500000  0.250000  0.250000  1
  Cl  Cl4  1  0.725736  0.083434  0.583434  1
  Cl  Cl5  1  0.331252  0.226095  0.093915  1
  Cl  Cl6  1  0.668748  0.773905  0.906085  1
  Cl  Cl7  1  0.668748  0.726095  0.593915  1
  Cl  Cl8  1  0.668748  0.406085  0.273905  1
  Cl  Cl9  1  0.103427  0.894671  0.105329  1
  Cl  Cl10  1  0.331252  0.273905  0.406085  1
  Cl  Cl11  1  0.668748  0.093915  0.226095  1
  Cl  Cl12  1  0.331252  0.906085  0.773905  1
  Cl  Cl13  1  0.274264  0.583434  0.083434  1
  Cl  Cl14  1  0.274264  0.916566  0.416566  1
  Cl  Cl15  1  0.331252  0.593915  0.726095  1
  Cl  Cl16  1  0.753864  0.750000  0.250000  1
  Cl  Cl17  1  0.103427  0.605329  0.394671  1
  Cl  Cl18  1  0.725736  0.416566  0.916566  1
  Cl  Cl19  1  0.896573  0.394671  0.605329  1
  Cl  Cl20  1  0.246136  0.250000  0.750000  1
  Cl  Cl21  1  0.896573  0.105329  0.894671  1
