# generated using pymatgen
data_Sb2Te2O9
_symmetry_space_group_name_H-M   'P 1'
_cell_length_a   4.96184844
_cell_length_b   14.80402216
_cell_length_c   22.47514883
_cell_angle_alpha   109.19237680
_cell_angle_beta   90.00000000
_cell_angle_gamma   90.00000000
_symmetry_Int_Tables_number   1
_chemical_formula_structural   Sb2Te2O9
_chemical_formula_sum   'Sb16 Te16 O72'
_cell_volume   1559.16123000
_cell_formula_units_Z   8
loop_
 _symmetry_equiv_pos_site_id
 _symmetry_equiv_pos_as_xyz
  1  'x, y, z'
loop_
 _atom_site_type_symbol
 _atom_site_label
 _atom_site_symmetry_multiplicity
 _atom_site_fract_x
 _atom_site_fract_y
 _atom_site_fract_z
 _atom_site_occupancy
  Sb  Sb0  1  0.694548  0.511050  0.347244  1
  Sb  Sb1  1  0.716041  0.834101  0.844007  1
  Sb  Sb2  1  0.783959  0.334101  0.844007  1
  Sb  Sb3  1  0.305452  0.488950  0.652756  1
  Sb  Sb4  1  0.805452  0.011050  0.347244  1
  Sb  Sb5  1  0.194548  0.988950  0.652756  1
  Sb  Sb6  1  0.283959  0.165899  0.155993  1
  Sb  Sb7  1  0.301235  0.167998  0.447651  1
  Sb  Sb8  1  0.801235  0.332002  0.552349  1
  Sb  Sb9  1  0.214773  0.780242  0.945894  1
  Sb  Sb10  1  0.216041  0.665899  0.155993  1
  Sb  Sb11  1  0.714773  0.719758  0.054106  1
  Sb  Sb12  1  0.285227  0.280242  0.945894  1
  Sb  Sb13  1  0.698765  0.832002  0.552349  1
  Sb  Sb14  1  0.785227  0.219758  0.054106  1
  Sb  Sb15  1  0.198765  0.667998  0.447651  1
  Te  Te16  1  0.837750  0.446501  0.060546  1
  Te  Te17  1  0.664740  0.687872  0.274908  1
  Te  Te18  1  0.164740  0.812128  0.725092  1
  Te  Te19  1  0.335260  0.312128  0.725092  1
  Te  Te20  1  0.162250  0.553499  0.939454  1
  Te  Te21  1  0.337750  0.053499  0.939454  1
  Te  Te22  1  0.848517  0.111476  0.557105  1
  Te  Te23  1  0.651483  0.611476  0.557105  1
  Te  Te24  1  0.151483  0.888524  0.442895  1
  Te  Te25  1  0.348517  0.388524  0.442895  1
  Te  Te26  1  0.662250  0.946501  0.060546  1
  Te  Te27  1  0.842170  0.579359  0.765486  1
  Te  Te28  1  0.657830  0.079359  0.765486  1
  Te  Te29  1  0.835260  0.187872  0.274908  1
  Te  Te30  1  0.157830  0.420641  0.234514  1
  Te  Te31  1  0.342170  0.920641  0.234514  1
  O  O32  1  0.376942  0.581594  0.491565  1
  O  O33  1  0.346053  0.916088  0.707269  1
  O  O34  1  0.980455  0.927904  0.263332  1
  O  O35  1  0.067999  0.534355  0.123069  1
  O  O36  1  0.498278  0.362659  0.909417  1
  O  O37  1  0.955220  0.243107  0.595371  1
  O  O38  1  0.085205  0.285193  0.208460  1
  O  O39  1  -0.002837  0.256095  0.882167  1
  O  O40  1  0.482107  0.770825  0.473529  1
  O  O41  1  0.502837  0.756095  0.882167  1
  O  O42  1  0.913415  0.909419  0.381869  1
  O  O43  1  0.485973  0.926102  0.314700  1
  O  O44  1  0.544780  0.743107  0.595371  1
  O  O45  1  0.519545  0.427904  0.263332  1
  O  O46  1  0.432001  0.034355  0.123069  1
  O  O47  1  0.383261  0.909113  0.997201  1
  O  O48  1  0.470646  0.791781  0.767565  1
  O  O49  1  0.029354  0.291781  0.767565  1
  O  O50  1  0.086585  0.090581  0.618131  1
  O  O51  1  1.002837  0.743905  0.117833  1
  O  O52  1  0.653947  0.083912  0.292731  1
  O  O53  1  0.014027  0.426102  0.314700  1
  O  O54  1  0.569091  0.853742  0.101126  1
  O  O55  1  0.890354  0.898916  0.633141  1
  O  O56  1  0.601165  0.074776  0.425452  1
  O  O57  1  0.497163  0.243905  0.117833  1
  O  O58  1  0.390354  0.601084  0.366859  1
  O  O59  1  0.101165  0.425224  0.574548  1
  O  O60  1  0.982107  0.729175  0.526471  1
  O  O61  1  0.616739  0.090887  0.002799  1
  O  O62  1  0.001722  0.862659  0.909417  1
  O  O63  1  0.413415  0.590581  0.618131  1
  O  O64  1  0.586585  0.409419  0.381869  1
  O  O65  1  0.883261  0.590887  0.002799  1
  O  O66  1  0.411999  0.700026  0.990253  1
  O  O67  1  0.932001  0.465645  0.876931  1
  O  O68  1  0.585205  0.214807  0.791540  1
  O  O69  1  0.876942  0.918406  0.508435  1
  O  O70  1  0.109646  0.101084  0.366859  1
  O  O71  1  0.455220  0.256893  0.404629  1
  O  O72  1  0.846053  0.583912  0.292731  1
  O  O73  1  0.911999  0.799974  0.009747  1
  O  O74  1  0.529354  0.208219  0.232435  1
  O  O75  1  0.514027  0.073898  0.685300  1
  O  O76  1  0.930909  0.353742  0.101126  1
  O  O77  1  0.116739  0.409113  0.997201  1
  O  O78  1  0.456440  0.604176  0.206611  1
  O  O79  1  0.956440  0.895824  0.793389  1
  O  O80  1  0.430909  0.146258  0.898874  1
  O  O81  1  0.567999  0.965645  0.876931  1
  O  O82  1  0.019545  0.072096  0.736668  1
  O  O83  1  0.398835  0.925224  0.574548  1
  O  O84  1  0.043560  0.104176  0.206611  1
  O  O85  1  0.088001  0.200026  0.990253  1
  O  O86  1  0.588001  0.299974  0.009747  1
  O  O87  1  0.480455  0.572096  0.736668  1
  O  O88  1  0.898835  0.574776  0.425452  1
  O  O89  1  0.623058  0.418406  0.508435  1
  O  O90  1  0.998278  0.137341  0.090583  1
  O  O91  1  0.609646  0.398916  0.633141  1
  O  O92  1  0.985973  0.573898  0.685300  1
  O  O93  1  0.123058  0.081594  0.491565  1
  O  O94  1  0.069091  0.646258  0.898874  1
  O  O95  1  0.153947  0.416088  0.707269  1
  O  O96  1  0.517893  0.229175  0.526471  1
  O  O97  1  0.970646  0.708219  0.232435  1
  O  O98  1  0.543560  0.395824  0.793389  1
  O  O99  1  0.501722  0.637341  0.090583  1
  O  O100  1  0.414795  0.785193  0.208460  1
  O  O101  1  0.914795  0.714807  0.791540  1
  O  O102  1  0.017893  0.270825  0.473529  1
  O  O103  1  0.044780  0.756893  0.404629  1
