# generated using pymatgen
data_Fe3BO5
_symmetry_space_group_name_H-M   'P 1'
_cell_length_a   6.20828653
_cell_length_b   9.63928716
_cell_length_c   12.49527795
_cell_angle_alpha   89.99480208
_cell_angle_beta   90.00078349
_cell_angle_gamma   90.00071276
_symmetry_Int_Tables_number   1
_chemical_formula_structural   Fe3BO5
_chemical_formula_sum   'Fe24 B8 O40'
_cell_volume   747.76062116
_cell_formula_units_Z   8
loop_
 _symmetry_equiv_pos_site_id
 _symmetry_equiv_pos_as_xyz
  1  'x, y, z'
loop_
 _atom_site_type_symbol
 _atom_site_label
 _atom_site_symmetry_multiplicity
 _atom_site_fract_x
 _atom_site_fract_y
 _atom_site_fract_z
 _atom_site_occupancy
  Fe  Fe0  1  0.749999  0.499731  0.999935  1
  Fe  Fe1  1  0.749999  0.000280  0.499901  1
  Fe  Fe2  1  0.749956  0.255750  0.613697  1
  Fe  Fe3  1  0.500190  -0.001304  0.275432  1
  Fe  Fe4  1  0.000267  1.001304  0.724567  1
  Fe  Fe5  1  0.249953  0.255903  0.613717  1
  Fe  Fe6  1  0.500219  0.501303  0.775440  1
  Fe  Fe7  1  0.999742  0.501305  0.775440  1
  Fe  Fe8  1  0.749971  0.244281  0.113703  1
  Fe  Fe9  1  0.249970  0.244074  0.113731  1
  Fe  Fe10  1  0.000258  0.498695  0.224560  1
  Fe  Fe11  1  0.500000  0.500000  0.500000  1
  Fe  Fe12  1  0.250001  0.999720  0.500099  1
  Fe  Fe13  1  0.250001  0.500269  0.000065  1
  Fe  Fe14  1  0.499810  1.001304  0.724568  1
  Fe  Fe15  1  0.499781  0.498697  0.224560  1
  Fe  Fe16  1  0.999733  -0.001304  0.275433  1
  Fe  Fe17  1  0.750047  0.744097  0.386283  1
  Fe  Fe18  1  0.000000  0.500000  0.500000  1
  Fe  Fe19  1  0.750030  0.755926  0.886269  1
  Fe  Fe20  1  0.000000  0.000000  0.000000  1
  Fe  Fe21  1  0.250029  0.755719  0.886297  1
  Fe  Fe22  1  0.500000  0.000000  0.000000  1
  Fe  Fe23  1  0.250044  0.744250  0.386303  1
  B  B24  1  0.250014  0.265983  0.362076  1
  B  B25  1  0.750004  0.233532  0.861979  1
  B  B26  1  0.249996  0.766468  0.138021  1
  B  B27  1  0.750000  0.765997  0.137916  1
  B  B28  1  0.249983  0.733503  0.638034  1
  B  B29  1  0.250000  0.234003  0.862084  1
  B  B30  1  0.749986  0.734017  0.637924  1
  B  B31  1  0.750017  0.266497  0.361966  1
  O  O32  1  0.750040  0.340801  0.457973  1
  O  O33  1  0.250022  0.623139  0.138909  1
  O  O34  1  0.499866  0.887669  0.859442  1
  O  O35  1  0.500136  0.881941  0.417325  1
  O  O36  1  0.249988  0.661190  0.734590  1
  O  O37  1  0.249980  0.377314  0.861212  1
  O  O38  1  0.999856  0.618073  0.917319  1
  O  O39  1  0.999790  0.387670  0.640548  1
  O  O40  1  0.500093  0.387673  0.640545  1
  O  O41  1  0.999913  0.881941  0.417326  1
  O  O42  1  0.999759  0.112335  0.140560  1
  O  O43  1  0.499856  0.381926  0.082681  1
  O  O44  1  0.500134  0.112331  0.140558  1
  O  O45  1  0.500144  0.618074  0.917319  1
  O  O46  1  0.499864  0.118059  0.582675  1
  O  O47  1  0.250010  0.161661  0.765477  1
  O  O48  1  0.749968  0.659528  0.541991  1
  O  O49  1  0.250012  0.338280  0.265493  1
  O  O50  1  0.249979  0.840774  0.042041  1
  O  O51  1  0.750020  0.622686  0.138788  1
  O  O52  1  0.000144  0.381927  0.082681  1
  O  O53  1  0.750021  0.159226  0.957959  1
  O  O54  1  0.249960  0.659199  0.542027  1
  O  O55  1  0.499907  0.612327  0.359455  1
  O  O56  1  0.750002  0.877352  0.638781  1
  O  O57  1  0.000241  0.887665  0.859440  1
  O  O58  1  0.250032  0.340472  0.458009  1
  O  O59  1  0.749990  0.838339  0.234523  1
  O  O60  1  0.250014  0.159542  0.958003  1
  O  O61  1  0.749998  0.123139  0.361056  1
  O  O62  1  0.000087  0.118059  0.582674  1
  O  O63  1  0.749986  0.840458  0.041997  1
  O  O64  1  0.749988  0.661720  0.734507  1
  O  O65  1  0.250002  0.876861  0.638944  1
  O  O66  1  0.000210  0.612330  0.359452  1
  O  O67  1  0.249985  0.838803  0.234615  1
  O  O68  1  0.750012  0.338810  0.265410  1
  O  O69  1  0.749978  0.376861  0.861091  1
  O  O70  1  0.750015  0.161197  0.765385  1
  O  O71  1  0.249998  0.122648  0.361219  1
