# generated using pymatgen
data_SbH18C3(NCl2)3
_symmetry_space_group_name_H-M   'P 1'
_cell_length_a   8.15506263
_cell_length_b   13.09243258
_cell_length_c   15.40869670
_cell_angle_alpha   96.81032889
_cell_angle_beta   90.00000000
_cell_angle_gamma   90.00000000
_symmetry_Int_Tables_number   1
_chemical_formula_structural   SbH18C3(NCl2)3
_chemical_formula_sum   'Sb4 H72 C12 N12 Cl24'
_cell_volume   1633.57234882
_cell_formula_units_Z   4
loop_
 _symmetry_equiv_pos_site_id
 _symmetry_equiv_pos_as_xyz
  1  'x, y, z'
loop_
 _atom_site_type_symbol
 _atom_site_label
 _atom_site_symmetry_multiplicity
 _atom_site_fract_x
 _atom_site_fract_y
 _atom_site_fract_z
 _atom_site_occupancy
  Sb  Sb0  1  0.165545  0.597040  0.722433  1
  Sb  Sb1  1  0.834455  0.402960  0.277567  1
  Sb  Sb2  1  0.334455  0.097040  0.222433  1
  Sb  Sb3  1  0.665545  0.902960  0.777567  1
  H  H4  1  0.689829  0.059713  0.354270  1
  H  H5  1  0.364928  0.677332  0.363655  1
  H  H6  1  0.939390  0.608275  0.171341  1
  H  H7  1  0.477131  0.589666  0.934315  1
  H  H8  1  0.672656  0.198887  0.965568  1
  H  H9  1  0.277520  0.281906  0.868942  1
  H  H10  1  0.810171  0.559713  0.854270  1
  H  H11  1  0.106998  0.331839  0.436579  1
  H  H12  1  0.419185  0.200622  0.671066  1
  H  H13  1  0.147836  0.825108  0.546127  1
  H  H14  1  0.133972  0.915909  0.911467  1
  H  H15  1  0.722480  0.718094  0.131058  1
  H  H16  1  0.827344  0.698887  0.465568  1
  H  H17  1  0.522869  0.410334  0.065685  1
  H  H18  1  0.393367  0.282687  0.424634  1
  H  H19  1  0.927152  0.713800  0.246872  1
  H  H20  1  0.560610  0.108275  0.671341  1
  H  H21  1  0.864337  0.093027  0.304280  1
  H  H22  1  0.777520  0.218094  0.631058  1
  H  H23  1  0.635072  0.322668  0.636345  1
  H  H24  1  0.843266  0.048463  0.488431  1
  H  H25  1  0.563157  0.619320  0.486435  1
  H  H26  1  0.647836  0.674892  0.953873  1
  H  H27  1  0.393002  0.831839  0.936579  1
  H  H28  1  0.351392  0.925172  0.017315  1
  H  H29  1  0.366028  0.415909  0.411467  1
  H  H30  1  0.155270  0.024810  0.661226  1
  H  H31  1  0.635663  0.593027  0.804280  1
  H  H32  1  0.060610  0.391725  0.828659  1
  H  H33  1  0.919185  0.299378  0.828934  1
  H  H34  1  0.106633  0.782687  0.924634  1
  H  H35  1  0.364337  0.406973  0.195720  1
  H  H36  1  0.893002  0.668161  0.563421  1
  H  H37  1  0.310171  0.940287  0.645730  1
  H  H38  1  0.852164  0.174892  0.453873  1
  H  H39  1  0.977131  0.910334  0.565685  1
  H  H40  1  0.427152  0.786200  0.253128  1
  H  H41  1  0.439390  0.891725  0.328659  1
  H  H42  1  0.633972  0.584091  0.588533  1
  H  H43  1  0.436843  0.380680  0.513565  1
  H  H44  1  0.655270  0.475190  0.838774  1
  H  H45  1  0.851392  0.574828  0.482685  1
  H  H46  1  0.080815  0.700622  0.171066  1
  H  H47  1  0.156734  0.951537  0.511569  1
  H  H48  1  0.222480  0.781906  0.368942  1
  H  H49  1  0.352164  0.325108  0.046127  1
  H  H50  1  0.648608  0.074828  0.982685  1
  H  H51  1  0.063157  0.880680  0.013565  1
  H  H52  1  0.606633  0.717313  0.575366  1
  H  H53  1  0.022869  0.089666  0.434315  1
  H  H54  1  0.148608  0.425172  0.517315  1
  H  H55  1  0.135072  0.177332  0.863655  1
  H  H56  1  0.388429  0.785363  0.445769  1
  H  H57  1  0.656734  0.548463  0.988431  1
  H  H58  1  0.172656  0.301113  0.534432  1
  H  H59  1  0.572848  0.213800  0.746872  1
  H  H60  1  0.135663  0.906973  0.695720  1
  H  H61  1  0.343266  0.451537  0.011569  1
  H  H62  1  0.580815  0.799378  0.328934  1
  H  H63  1  0.844730  0.975190  0.338774  1
  H  H64  1  0.611571  0.214637  0.554231  1
  H  H65  1  0.344730  0.524810  0.161226  1
  H  H66  1  0.888429  0.714637  0.054231  1
  H  H67  1  0.189829  0.440287  0.145731  1
  H  H68  1  0.866028  0.084091  0.088533  1
  H  H69  1  0.936843  0.119320  0.986435  1
  H  H70  1  0.072848  0.286200  0.753128  1
  H  H71  1  0.893367  0.217313  0.075366  1
  H  H72  1  0.864928  0.822668  0.136345  1
  H  H73  1  0.111571  0.285363  0.945769  1
  H  H74  1  0.327344  0.801113  0.034432  1
  H  H75  1  0.606998  0.168161  0.063421  1
  C  C76  1  0.389145  0.405600  0.061252  1
  C  C77  1  0.642061  0.641705  0.542781  1
  C  C78  1  0.350656  0.760670  0.378384  1
  C  C79  1  0.857939  0.141705  0.042781  1
  C  C80  1  0.889145  0.094400  0.438748  1
  C  C81  1  0.110855  0.905600  0.561252  1
  C  C82  1  0.357939  0.358295  0.457219  1
  C  C83  1  0.149344  0.260670  0.878384  1
  C  C84  1  0.649344  0.239330  0.621616  1
  C  C85  1  0.142061  0.858295  0.957219  1
  C  C86  1  0.610855  0.594400  0.938748  1
  C  C87  1  0.850656  0.739330  0.121616  1
  N  N88  1  0.185430  0.353497  0.488274  1
  N  N89  1  0.814570  0.646503  0.511726  1
  N  N90  1  0.685430  0.146503  0.011726  1
  N  N91  1  0.182450  0.946787  0.647171  1
  N  N92  1  0.317550  0.446787  0.147171  1
  N  N93  1  0.817550  0.053213  0.352829  1
  N  N94  1  0.682450  0.553213  0.852829  1
  N  N95  1  0.543984  0.187549  0.681884  1
  N  N96  1  0.956016  0.687549  0.181884  1
  N  N97  1  0.314570  0.853497  0.988274  1
  N  N98  1  0.456016  0.812451  0.318116  1
  N  N99  1  0.043984  0.312451  0.818116  1
  Cl  Cl100  1  0.866622  0.049468  0.782520  1
  Cl  Cl101  1  0.939438  0.764429  0.716658  1
  Cl  Cl102  1  0.432297  0.021477  0.826643  1
  Cl  Cl103  1  0.216070  0.609702  0.557863  1
  Cl  Cl104  1  0.160314  0.192635  0.632421  1
  Cl  Cl105  1  0.075404  0.559824  0.888115  1
  Cl  Cl106  1  0.283930  0.109702  0.057863  1
  Cl  Cl107  1  0.716070  0.890298  0.942137  1
  Cl  Cl108  1  0.924596  0.440176  0.111885  1
  Cl  Cl109  1  0.366622  0.450532  0.717480  1
  Cl  Cl110  1  0.839686  0.807365  0.367580  1
  Cl  Cl111  1  0.567703  0.978523  0.173357  1
  Cl  Cl112  1  0.439438  0.735571  0.783342  1
  Cl  Cl113  1  0.067703  0.521477  0.326643  1
  Cl  Cl114  1  0.133378  0.950532  0.217480  1
  Cl  Cl115  1  0.339686  0.692635  0.132420  1
  Cl  Cl116  1  0.060562  0.235571  0.283342  1
  Cl  Cl117  1  0.560562  0.264429  0.216658  1
  Cl  Cl118  1  0.932297  0.478523  0.673357  1
  Cl  Cl119  1  0.633378  0.549468  0.282520  1
  Cl  Cl120  1  0.660314  0.307365  0.867579  1
  Cl  Cl121  1  0.575404  0.940176  0.611885  1
  Cl  Cl122  1  0.424596  0.059824  0.388115  1
  Cl  Cl123  1  0.783930  0.390298  0.442137  1
