# generated using pymatgen
data_Ba3Mg(SiO4)2
_symmetry_space_group_name_H-M   'P 1'
_cell_length_a   9.84793724
_cell_length_b   9.84793757
_cell_length_c   7.37552183
_cell_angle_alpha   90.00000000
_cell_angle_beta   90.00000000
_cell_angle_gamma   119.99999890
_symmetry_Int_Tables_number   1
_chemical_formula_structural   Ba3Mg(SiO4)2
_chemical_formula_sum   'Ba9 Mg3 Si6 O24'
_cell_volume   619.46097001
_cell_formula_units_Z   3
loop_
 _symmetry_equiv_pos_site_id
 _symmetry_equiv_pos_as_xyz
  1  'x, y, z'
loop_
 _atom_site_type_symbol
 _atom_site_label
 _atom_site_symmetry_multiplicity
 _atom_site_fract_x
 _atom_site_fract_y
 _atom_site_fract_z
 _atom_site_occupancy
  Ba  Ba0  1  0.665733  0.667670  0.177889  1
  Ba  Ba1  1  0.332330  0.998062  0.177889  1
  Ba  Ba2  1  0.998062  0.665733  0.822111  1
  Ba  Ba3  1  0.667670  0.001938  0.822111  1
  Ba  Ba4  1  0.666667  0.333333  0.496251  1
  Ba  Ba5  1  0.334267  0.332330  0.822111  1
  Ba  Ba6  1  0.001938  0.334267  0.177889  1
  Ba  Ba7  1  0.333333  0.666667  0.503749  1
  Ba  Ba8  1  0.000000  0.000000  0.500000  1
  Mg  Mg9  1  0.666667  0.333333  0.988943  1
  Mg  Mg10  1  0.000000  0.000000  0.000000  1
  Mg  Mg11  1  0.333333  0.666667  0.011057  1
  Si  Si12  1  0.007071  0.336502  0.741150  1
  Si  Si13  1  0.329432  0.992929  0.741150  1
  Si  Si14  1  0.663498  0.670568  0.741150  1
  Si  Si15  1  0.992929  0.663498  0.258850  1
  Si  Si16  1  0.336502  0.329432  0.258850  1
  Si  Si17  1  0.670568  0.007071  0.258850  1
  O  O18  1  0.157165  0.489975  0.843316  1
  O  O19  1  0.823802  0.998352  0.175941  1
  O  O20  1  0.825450  0.823802  0.824059  1
  O  O21  1  0.649111  0.687212  0.524414  1
  O  O22  1  0.489975  0.332810  0.156684  1
  O  O23  1  0.667190  0.157165  0.156684  1
  O  O24  1  0.332810  0.842835  0.843316  1
  O  O25  1  0.961900  0.649111  0.475586  1
  O  O26  1  0.998352  0.174550  0.824059  1
  O  O27  1  0.176198  0.001648  0.824059  1
  O  O28  1  0.687212  0.038100  0.475586  1
  O  O29  1  0.665414  0.509206  0.805367  1
  O  O30  1  0.350889  0.312788  0.475586  1
  O  O31  1  0.174550  0.176198  0.175941  1
  O  O32  1  0.334586  0.490794  0.194633  1
  O  O33  1  0.842835  0.510025  0.156684  1
  O  O34  1  0.843792  0.334586  0.805367  1
  O  O35  1  0.312788  0.961900  0.524414  1
  O  O36  1  0.509206  0.843792  0.194633  1
  O  O37  1  0.510025  0.667190  0.843316  1
  O  O38  1  0.490794  0.156208  0.805367  1
  O  O39  1  0.038100  0.350889  0.524414  1
  O  O40  1  0.156208  0.665414  0.194633  1
  O  O41  1  0.001648  0.825450  0.175941  1
