# generated using pymatgen
data_Ba2Zn3(PO3)10
_symmetry_space_group_name_H-M   'P 1'
_cell_length_a   5.43476507
_cell_length_b   10.89607399
_cell_length_c   22.02010540
_cell_angle_alpha   99.60532788
_cell_angle_beta   90.00000000
_cell_angle_gamma   90.00000000
_symmetry_Int_Tables_number   1
_chemical_formula_structural   Ba2Zn3(PO3)10
_chemical_formula_sum   'Ba4 Zn6 P20 O60'
_cell_volume   1285.69676000
_cell_formula_units_Z   2
loop_
 _symmetry_equiv_pos_site_id
 _symmetry_equiv_pos_as_xyz
  1  'x, y, z'
loop_
 _atom_site_type_symbol
 _atom_site_label
 _atom_site_symmetry_multiplicity
 _atom_site_fract_x
 _atom_site_fract_y
 _atom_site_fract_z
 _atom_site_occupancy
  Ba  Ba0  1  0.495303  0.314162  0.924408  1
  Ba  Ba1  1  0.504697  0.685838  0.075592  1
  Ba  Ba2  1  0.504697  0.814162  0.424408  1
  Ba  Ba3  1  0.495303  0.185838  0.575592  1
  Zn  Zn4  1  0.449259  0.750000  0.250000  1
  Zn  Zn5  1  0.500000  0.000000  0.000000  1
  Zn  Zn6  1  0.550741  0.250000  0.750000  1
  Zn  Zn7  1  0.528435  0.250000  0.250000  1
  Zn  Zn8  1  0.500000  0.500000  0.500000  1
  Zn  Zn9  1  0.471565  0.750000  0.750000  1
  P  P10  1  0.043863  0.377852  0.695678  1
  P  P11  1  0.093610  0.054642  0.425656  1
  P  P12  1  0.223045  0.020562  0.295680  1
  P  P13  1  0.984587  0.183069  0.022169  1
  P  P14  1  0.956137  0.622148  0.304322  1
  P  P15  1  0.015413  0.683069  0.522169  1
  P  P16  1  0.906390  0.554642  0.925656  1
  P  P17  1  0.776955  0.979438  0.704320  1
  P  P18  1  0.984587  0.316931  0.477831  1
  P  P19  1  0.043863  0.122148  0.804322  1
  P  P20  1  0.223045  0.479438  0.204320  1
  P  P21  1  0.015413  0.816931  0.977831  1
  P  P22  1  0.784274  0.086723  0.129543  1
  P  P23  1  0.784274  0.413277  0.370457  1
  P  P24  1  0.956137  0.877852  0.195678  1
  P  P25  1  0.215726  0.913277  0.870457  1
  P  P26  1  0.093610  0.445358  0.074344  1
  P  P27  1  0.906390  0.945358  0.574344  1
  P  P28  1  0.776955  0.520562  0.795680  1
  P  P29  1  0.215726  0.586723  0.629543  1
  O  O30  1  0.655264  0.941670  0.545509  1
  O  O31  1  0.049968  0.063816  0.579248  1
  O  O32  1  0.437600  0.962497  0.907202  1
  O  O33  1  0.007870  0.632732  0.586069  1
  O  O34  1  0.234434  0.632796  0.483710  1
  O  O35  1  0.247095  0.689039  0.683406  1
  O  O36  1  0.393982  0.580829  0.190450  1
  O  O37  1  0.029708  0.460329  0.763670  1
  O  O38  1  0.762321  0.663002  0.494825  1
  O  O39  1  0.752905  0.189039  0.183406  1
  O  O40  1  0.316689  0.110311  0.256707  1
  O  O41  1  0.970292  0.539671  0.236330  1
  O  O42  1  0.683311  0.889689  0.743293  1
  O  O43  1  0.944418  0.975570  0.149058  1
  O  O44  1  0.992130  0.367268  0.413931  1
  O  O45  1  0.247095  0.810961  0.816594  1
  O  O46  1  0.316689  0.389689  0.243293  1
  O  O47  1  0.074651  0.830341  0.540981  1
  O  O48  1  0.234434  0.867204  0.016290  1
  O  O49  1  0.950032  0.936184  0.420752  1
  O  O50  1  0.055582  0.024430  0.850942  1
  O  O51  1  0.655264  0.558330  0.954491  1
  O  O52  1  0.282346  0.194127  0.809271  1
  O  O53  1  0.992130  0.132732  0.086069  1
  O  O54  1  0.115626  0.402929  0.141893  1
  O  O55  1  0.344736  0.441670  0.045509  1
  O  O56  1  0.606018  0.080829  0.690450  1
  O  O57  1  0.562400  0.462497  0.407202  1
  O  O58  1  0.562400  0.037503  0.092798  1
  O  O59  1  0.717654  0.805873  0.190729  1
  O  O60  1  0.393982  0.919171  0.309550  1
  O  O61  1  0.115626  0.097071  0.358107  1
  O  O62  1  0.074651  0.669659  0.959019  1
  O  O63  1  0.237679  0.163002  0.994825  1
  O  O64  1  0.344736  0.058330  0.454491  1
  O  O65  1  0.950032  0.563816  0.079248  1
  O  O66  1  0.925349  0.330341  0.040981  1
  O  O67  1  0.762321  0.836998  0.005175  1
  O  O68  1  0.765566  0.132796  0.983710  1
  O  O69  1  0.805492  0.308472  0.682297  1
  O  O70  1  0.282346  0.305873  0.690729  1
  O  O71  1  0.765566  0.367204  0.516290  1
  O  O72  1  0.805492  0.191528  0.817703  1
  O  O73  1  0.237679  0.336998  0.505175  1
  O  O74  1  0.717654  0.694127  0.309271  1
  O  O75  1  0.970292  0.960329  0.263670  1
  O  O76  1  0.049968  0.436184  0.920752  1
  O  O77  1  0.683311  0.610311  0.756707  1
  O  O78  1  0.884374  0.597071  0.858107  1
  O  O79  1  0.194508  0.691528  0.317703  1
  O  O80  1  0.055582  0.475570  0.649058  1
  O  O81  1  0.007870  0.867268  0.913931  1
  O  O82  1  0.884374  0.902929  0.641893  1
  O  O83  1  0.029708  0.039671  0.736330  1
  O  O84  1  0.437600  0.537503  0.592798  1
  O  O85  1  0.194508  0.808472  0.182297  1
  O  O86  1  0.925349  0.169659  0.459019  1
  O  O87  1  0.944418  0.524430  0.350942  1
  O  O88  1  0.752905  0.310961  0.316594  1
  O  O89  1  0.606018  0.419171  0.809550  1
