# generated using pymatgen
data_Nd2Te4O11
_symmetry_space_group_name_H-M   'P 1'
_cell_length_a   5.30343853
_cell_length_b   6.91388936
_cell_length_c   16.48627396
_cell_angle_alpha   79.39420371
_cell_angle_beta   80.74410800
_cell_angle_gamma   67.44717227
_symmetry_Int_Tables_number   1
_chemical_formula_structural   Nd2Te4O11
_chemical_formula_sum   'Nd4 Te8 O22'
_cell_volume   546.02328903
_cell_formula_units_Z   2
loop_
 _symmetry_equiv_pos_site_id
 _symmetry_equiv_pos_as_xyz
  1  'x, y, z'
loop_
 _atom_site_type_symbol
 _atom_site_label
 _atom_site_symmetry_multiplicity
 _atom_site_fract_x
 _atom_site_fract_y
 _atom_site_fract_z
 _atom_site_occupancy
  O  O0  1  0.850044  0.250000  0.750000  1
  O  O1  1  0.149956  0.750000  0.250000  1
  O  O2  1  0.196153  0.875056  0.830506  1
  O  O3  1  0.901715  0.624944  0.669494  1
  O  O4  1  0.803847  0.124944  0.169494  1
  O  O5  1  0.098285  0.375056  0.330506  1
  O  O6  1  0.610278  0.051622  0.900236  1
  O  O7  1  0.562137  0.448378  0.599764  1
  O  O8  1  0.389722  0.948378  0.099764  1
  O  O9  1  0.437863  0.551622  0.400236  1
  O  O10  1  0.044782  0.190032  0.953421  1
  O  O11  1  0.188235  0.309968  0.546579  1
  O  O12  1  0.679878  0.133736  0.373243  1
  O  O13  1  0.186857  0.366264  0.126757  1
  O  O14  1  0.320122  0.866264  0.626757  1
  O  O15  1  0.813143  0.633736  0.873243  1
  O  O16  1  0.252310  0.970937  0.445541  1
  O  O17  1  0.668788  0.529063  0.054459  1
  O  O18  1  0.747690  0.029063  0.554459  1
  O  O19  1  0.331212  0.470937  0.945541  1
  O  O20  1  0.811765  0.690032  0.453421  1
  O  O21  1  0.955218  0.809968  0.046579  1
  Te  Te22  1  0.603774  0.537713  0.698916  1
  Te  Te23  1  0.840403  0.962287  0.801084  1
  Te  Te24  1  0.396226  0.462287  0.301084  1
  Te  Te25  1  0.159597  0.037713  0.198916  1
  Te  Te26  1  0.148450  0.390973  0.874781  1
  Te  Te27  1  0.414204  0.109027  0.625219  1
  Te  Te28  1  0.851550  0.609027  0.125219  1
  Te  Te29  1  0.585796  0.890973  0.374781  1
  Nd  Nd30  1  0.133324  0.698265  0.537905  1
  Nd  Nd31  1  0.369494  0.801735  0.962095  1
  Nd  Nd32  1  0.866676  0.301735  0.462095  1
  Nd  Nd33  1  0.630506  0.198265  0.037905  1
