# generated using pymatgen
data_Tb10B7C10
_symmetry_space_group_name_H-M   'P 1'
_cell_length_a   8.04987363
_cell_length_b   8.04987414
_cell_length_c   23.69018700
_cell_angle_alpha   84.04823154
_cell_angle_beta   84.04823118
_cell_angle_gamma   88.69488607
_symmetry_Int_Tables_number   1
_chemical_formula_structural   Tb10B7C10
_chemical_formula_sum   'Tb40 B28 C40'
_cell_volume   1518.51746793
_cell_formula_units_Z   4
loop_
 _symmetry_equiv_pos_site_id
 _symmetry_equiv_pos_as_xyz
  1  'x, y, z'
loop_
 _atom_site_type_symbol
 _atom_site_label
 _atom_site_symmetry_multiplicity
 _atom_site_fract_x
 _atom_site_fract_y
 _atom_site_fract_z
 _atom_site_occupancy
  Tb  Tb0  1  0.028784  0.375927  0.077729  1
  Tb  Tb1  1  0.697334  0.454000  0.181945  1
  Tb  Tb2  1  0.503905  0.844098  0.182099  1
  Tb  Tb3  1  0.624073  0.971216  0.422271  1
  Tb  Tb4  1  0.021091  0.772382  0.422410  1
  Tb  Tb5  1  0.646285  0.087286  0.682481  1
  Tb  Tb6  1  0.912714  0.353715  0.817519  1
  Tb  Tb7  1  0.777070  0.826901  0.575710  1
  Tb  Tb8  1  0.375927  0.028784  0.577729  1
  Tb  Tb9  1  0.546000  0.302666  0.318055  1
  Tb  Tb10  1  0.624786  0.177513  0.078028  1
  Tb  Tb11  1  0.758616  0.708441  0.303696  1
  Tb  Tb12  1  0.375214  0.822487  0.921972  1
  Tb  Tb13  1  0.353715  0.912714  0.317519  1
  Tb  Tb14  1  0.177513  0.624786  0.578028  1
  Tb  Tb15  1  0.424365  0.574040  0.422662  1
  Tb  Tb16  1  0.173099  0.222930  0.924290  1
  Tb  Tb17  1  0.454000  0.697334  0.681945  1
  Tb  Tb18  1  0.963421  0.106055  0.317706  1
  Tb  Tb19  1  0.291559  0.241384  0.196304  1
  Tb  Tb20  1  0.425960  0.575635  0.077338  1
  Tb  Tb21  1  0.302666  0.546000  0.818055  1
  Tb  Tb22  1  0.844098  0.503905  0.682099  1
  Tb  Tb23  1  0.106055  0.963421  0.817706  1
  Tb  Tb24  1  0.036579  0.893945  0.682294  1
  Tb  Tb25  1  0.708441  0.758616  0.803696  1
  Tb  Tb26  1  0.241384  0.291559  0.696304  1
  Tb  Tb27  1  0.227618  0.978909  0.077590  1
  Tb  Tb28  1  0.822487  0.375214  0.421972  1
  Tb  Tb29  1  0.772382  0.021091  0.922410  1
  Tb  Tb30  1  0.155902  0.496095  0.317901  1
  Tb  Tb31  1  0.574040  0.424365  0.922662  1
  Tb  Tb32  1  0.971216  0.624073  0.922271  1
  Tb  Tb33  1  0.893945  0.036579  0.182294  1
  Tb  Tb34  1  0.575635  0.425960  0.577338  1
  Tb  Tb35  1  0.222930  0.173099  0.424290  1
  Tb  Tb36  1  0.826901  0.777070  0.075710  1
  Tb  Tb37  1  0.978909  0.227618  0.577590  1
  Tb  Tb38  1  0.087286  0.646285  0.182481  1
  Tb  Tb39  1  0.496095  0.155902  0.817901  1
  B  B40  1  0.897011  0.541767  0.519915  1
  B  B41  1  0.694581  0.144894  0.520682  1
  B  B42  1  0.102989  0.458233  0.480085  1
  B  B43  1  0.121546  0.878454  0.250000  1
  B  B44  1  0.878454  0.121546  0.750000  1
  B  B45  1  0.428680  0.571320  0.250000  1
  B  B46  1  0.705860  0.657056  0.475403  1
  B  B47  1  0.904358  0.057468  0.479388  1
  B  B48  1  0.305420  0.855106  0.479318  1
  B  B49  1  0.095642  0.942532  0.520612  1
  B  B50  1  0.930967  0.379335  0.249551  1
  B  B51  1  0.069033  0.620665  0.750449  1
  B  B52  1  0.744362  0.490498  0.019645  1
  B  B53  1  0.458233  0.102989  0.980085  1
  B  B54  1  0.294140  0.342944  0.524597  1
  B  B55  1  0.144894  0.694581  0.020682  1
  B  B56  1  0.379335  0.930967  0.749551  1
  B  B57  1  0.620665  0.069033  0.250449  1
  B  B58  1  0.342944  0.294140  0.024597  1
  B  B59  1  0.657056  0.705860  0.975403  1
  B  B60  1  0.255638  0.509502  0.980355  1
  B  B61  1  0.057468  0.904358  0.979388  1
  B  B62  1  0.490498  0.744362  0.519645  1
  B  B63  1  0.855106  0.305420  0.979318  1
  B  B64  1  0.571320  0.428680  0.750000  1
  B  B65  1  0.509502  0.255638  0.480355  1
  B  B66  1  0.541767  0.897011  0.019915  1
  B  B67  1  0.942532  0.095642  0.020612  1
  C  C68  1  0.254906  0.204638  0.317774  1
  C  C69  1  0.608024  0.456010  0.807744  1
  C  C70  1  0.276318  0.525970  0.917164  1
  C  C71  1  0.675601  0.725807  0.911831  1
  C  C72  1  0.594033  0.141940  0.192651  1
  C  C73  1  0.476404  0.125120  0.916926  1
  C  C74  1  0.324399  0.274193  0.088169  1
  C  C75  1  0.858060  0.405967  0.307349  1
  C  C76  1  0.126890  0.675112  0.083823  1
  C  C77  1  0.525970  0.276318  0.417164  1
  C  C78  1  0.795362  0.745094  0.182226  1
  C  C79  1  0.076587  0.925480  0.583720  1
  C  C80  1  0.675112  0.126890  0.583823  1
  C  C81  1  0.274193  0.324399  0.588169  1
  C  C82  1  0.342643  0.991457  0.691521  1
  C  C83  1  0.074520  0.923413  0.916280  1
  C  C84  1  0.745094  0.795362  0.682226  1
  C  C85  1  0.456010  0.608024  0.307744  1
  C  C86  1  0.873110  0.324888  0.916177  1
  C  C87  1  0.923413  0.074520  0.416280  1
  C  C88  1  0.543990  0.391976  0.692256  1
  C  C89  1  0.008543  0.657357  0.808479  1
  C  C90  1  0.657357  0.008543  0.308479  1
  C  C91  1  0.405967  0.858060  0.807349  1
  C  C92  1  0.141940  0.594033  0.692651  1
  C  C93  1  0.806555  0.058837  0.807540  1
  C  C94  1  0.723682  0.474030  0.082836  1
  C  C95  1  0.391976  0.543990  0.192256  1
  C  C96  1  0.193445  0.941163  0.192460  1
  C  C97  1  0.324888  0.873110  0.416177  1
  C  C98  1  0.058837  0.806555  0.307540  1
  C  C99  1  0.125120  0.476404  0.416926  1
  C  C100  1  0.991457  0.342643  0.191521  1
  C  C101  1  0.941163  0.193445  0.692460  1
  C  C102  1  0.725807  0.675601  0.411831  1
  C  C103  1  0.874880  0.523596  0.583074  1
  C  C104  1  0.925480  0.076587  0.083720  1
  C  C105  1  0.474030  0.723682  0.582836  1
  C  C106  1  0.204638  0.254906  0.817774  1
  C  C107  1  0.523596  0.874880  0.083074  1
