# generated using pymatgen
data_H3CSN(ClO)2
_symmetry_space_group_name_H-M   'P 1'
_cell_length_a   6.40655765
_cell_length_b   9.70130717
_cell_length_c   10.01845614
_cell_angle_alpha   90.00000000
_cell_angle_beta   90.00000000
_cell_angle_gamma   90.00000000
_symmetry_Int_Tables_number   1
_chemical_formula_structural   H3CSN(ClO)2
_chemical_formula_sum   'H12 C4 S4 N4 Cl8 O8'
_cell_volume   622.66692236
_cell_formula_units_Z   4
loop_
 _symmetry_equiv_pos_site_id
 _symmetry_equiv_pos_as_xyz
  1  'x, y, z'
loop_
 _atom_site_type_symbol
 _atom_site_label
 _atom_site_symmetry_multiplicity
 _atom_site_fract_x
 _atom_site_fract_y
 _atom_site_fract_z
 _atom_site_occupancy
  H  H0  1  0.885272  0.843824  0.560556  1
  H  H1  1  0.269136  0.750000  0.075917  1
  H  H2  1  0.114728  0.156176  0.439444  1
  H  H3  1  0.885272  0.656176  0.560556  1
  H  H4  1  0.230864  0.250000  0.575917  1
  H  H5  1  0.730864  0.250000  0.924083  1
  H  H6  1  0.614728  0.343824  0.060556  1
  H  H7  1  0.614728  0.156176  0.060556  1
  H  H8  1  0.114728  0.343824  0.439444  1
  H  H9  1  0.769136  0.750000  0.424082  1
  H  H10  1  0.385272  0.656176  0.939444  1
  H  H11  1  0.385272  0.843824  0.939444  1
  C  C12  1  0.606931  0.250000  0.999812  1
  C  C13  1  0.393069  0.750000  0.000188  1
  C  C14  1  0.106931  0.250000  0.500188  1
  C  C15  1  0.893069  0.750000  0.499812  1
  S  S16  1  0.630459  0.750000  0.091810  1
  S  S17  1  0.869541  0.250000  0.591810  1
  S  S18  1  0.130459  0.750000  0.408190  1
  S  S19  1  0.369541  0.250000  0.908190  1
  N  N20  1  0.841491  0.750000  0.975014  1
  N  N21  1  0.658509  0.250000  0.475014  1
  N  N22  1  0.158509  0.250000  0.024986  1
  N  N23  1  0.341491  0.750000  0.524986  1
  Cl  Cl24  1  0.667219  0.397555  0.374520  1
  Cl  Cl25  1  0.167219  0.102445  0.125480  1
  Cl  Cl26  1  0.167219  0.397555  0.125480  1
  Cl  Cl27  1  0.332781  0.602445  0.625480  1
  Cl  Cl28  1  0.832781  0.897555  0.874520  1
  Cl  Cl29  1  0.667219  0.102445  0.374520  1
  Cl  Cl30  1  0.832781  0.602445  0.874520  1
  Cl  Cl31  1  0.332781  0.897555  0.625480  1
  O  O32  1  0.843293  0.378958  0.661266  1
  O  O33  1  0.656707  0.878958  0.161266  1
  O  O34  1  0.156707  0.878958  0.338734  1
  O  O35  1  0.343293  0.121042  0.838734  1
  O  O36  1  0.843293  0.121042  0.661266  1
  O  O37  1  0.343293  0.378958  0.838734  1
  O  O38  1  0.656707  0.621042  0.161266  1
  O  O39  1  0.156707  0.621042  0.338734  1
