# generated using pymatgen
data_KPO3
_symmetry_space_group_name_H-M   'P 1'
_cell_length_a   4.59309483
_cell_length_b   11.60974574
_cell_length_c   13.91751406
_cell_angle_alpha   112.93028869
_cell_angle_beta   90.00000000
_cell_angle_gamma   90.00000000
_symmetry_Int_Tables_number   1
_chemical_formula_structural   KPO3
_chemical_formula_sum   'K8 P8 O24'
_cell_volume   683.50199478
_cell_formula_units_Z   8
loop_
 _symmetry_equiv_pos_site_id
 _symmetry_equiv_pos_as_xyz
  1  'x, y, z'
loop_
 _atom_site_type_symbol
 _atom_site_label
 _atom_site_symmetry_multiplicity
 _atom_site_fract_x
 _atom_site_fract_y
 _atom_site_fract_z
 _atom_site_occupancy
  K  K0  1  0.217071  0.699814  0.631300  1
  K  K1  1  0.762568  0.831700  0.427266  1
  K  K2  1  0.717071  0.800186  0.868700  1
  K  K3  1  0.782929  0.300186  0.368700  1
  K  K4  1  0.262568  0.668300  0.072734  1
  K  K5  1  0.237432  0.168300  0.572734  1
  K  K6  1  0.282929  0.199814  0.131300  1
  K  K7  1  0.737432  0.331700  0.927266  1
  P  P8  1  0.807403  0.947805  0.162807  1
  P  P9  1  0.308786  0.005740  0.309386  1
  P  P10  1  0.191214  0.505740  0.809386  1
  P  P11  1  0.192597  0.052195  0.837193  1
  P  P12  1  0.692597  0.447805  0.662807  1
  P  P13  1  0.691214  0.994260  0.690614  1
  P  P14  1  0.307403  0.552195  0.337193  1
  P  P15  1  0.808786  0.494260  0.190614  1
  O  O16  1  0.282182  0.429822  0.349151  1
  O  O17  1  0.134679  0.544897  0.231563  1
  O  O18  1  0.217818  0.929822  0.849151  1
  O  O19  1  0.365321  0.044897  0.731563  1
  O  O20  1  0.283085  0.144160  0.338444  1
  O  O21  1  0.634791  0.571228  0.299693  1
  O  O22  1  0.782182  0.070178  0.150849  1
  O  O23  1  0.262454  0.173083  0.925937  1
  O  O24  1  0.365209  0.428772  0.700307  1
  O  O25  1  0.134791  0.928772  0.200307  1
  O  O26  1  0.260745  0.452787  0.889324  1
  O  O27  1  0.739255  0.547213  0.110676  1
  O  O28  1  0.216915  0.644160  0.838444  1
  O  O29  1  0.737546  0.826917  0.074063  1
  O  O30  1  0.717818  0.570178  0.650849  1
  O  O31  1  0.865321  0.455103  0.768437  1
  O  O32  1  0.762454  0.326917  0.574063  1
  O  O33  1  0.239255  0.952787  0.389324  1
  O  O34  1  0.865209  0.071228  0.799693  1
  O  O35  1  0.237546  0.673083  0.425937  1
  O  O36  1  0.760745  0.047213  0.610676  1
  O  O37  1  0.634679  0.955103  0.268437  1
  O  O38  1  0.783085  0.355840  0.161556  1
  O  O39  1  0.716915  0.855840  0.661556  1
