# generated using pymatgen
data_Ba2Cu(PO3)6
_symmetry_space_group_name_H-M   'P 1'
_cell_length_a   7.44073271
_cell_length_b   9.68960588
_cell_length_c   21.70218221
_cell_angle_alpha   98.03310143
_cell_angle_beta   90.00000000
_cell_angle_gamma   90.00000000
_symmetry_Int_Tables_number   1
_chemical_formula_structural   Ba2Cu(PO3)6
_chemical_formula_sum   'Ba8 Cu4 P24 O72'
_cell_volume   1549.32547272
_cell_formula_units_Z   4
loop_
 _symmetry_equiv_pos_site_id
 _symmetry_equiv_pos_as_xyz
  1  'x, y, z'
loop_
 _atom_site_type_symbol
 _atom_site_label
 _atom_site_symmetry_multiplicity
 _atom_site_fract_x
 _atom_site_fract_y
 _atom_site_fract_z
 _atom_site_occupancy
  Ba  Ba0  1  0.851721  0.721888  0.988880  1
  Ba  Ba1  1  0.648279  0.721888  0.488880  1
  Ba  Ba2  1  0.351721  0.278112  0.511120  1
  Ba  Ba3  1  0.613146  0.124593  0.115655  1
  Ba  Ba4  1  0.113146  0.875407  0.384345  1
  Ba  Ba5  1  0.148279  0.278112  0.011120  1
  Ba  Ba6  1  0.386854  0.875407  0.884345  1
  Ba  Ba7  1  0.886854  0.124593  0.615655  1
  Cu  Cu8  1  0.669535  0.377732  0.746180  1
  Cu  Cu9  1  0.169535  0.622268  0.753820  1
  Cu  Cu10  1  0.830465  0.377732  0.246180  1
  Cu  Cu11  1  0.330465  0.622268  0.253820  1
  P  P12  1  0.541467  0.460904  0.894058  1
  P  P13  1  0.389746  0.973930  0.613036  1
  P  P14  1  0.443011  0.100707  0.742642  1
  P  P15  1  0.458533  0.539096  0.105942  1
  P  P16  1  0.556989  0.899293  0.257358  1
  P  P17  1  0.889746  0.026070  0.886964  1
  P  P18  1  0.642642  0.680500  0.746958  1
  P  P19  1  0.645724  0.522775  0.621346  1
  P  P20  1  0.854276  0.522775  0.121346  1
  P  P21  1  0.610254  0.026070  0.386964  1
  P  P22  1  0.145724  0.477225  0.878654  1
  P  P23  1  0.943011  0.899293  0.757358  1
  P  P24  1  0.857358  0.680500  0.246958  1
  P  P25  1  0.958533  0.460904  0.394058  1
  P  P26  1  0.357358  0.319500  0.253042  1
  P  P27  1  0.658970  0.226263  0.960625  1
  P  P28  1  0.158970  0.773737  0.539375  1
  P  P29  1  0.056989  0.100707  0.242642  1
  P  P30  1  0.341030  0.773737  0.039375  1
  P  P31  1  0.110254  0.973930  0.113036  1
  P  P32  1  0.841030  0.226263  0.460625  1
  P  P33  1  0.354276  0.477225  0.378654  1
  P  P34  1  0.142642  0.319500  0.753042  1
  P  P35  1  0.041467  0.539096  0.605942  1
  O  O36  1  0.428294  0.049465  0.417366  1
  O  O37  1  0.920217  0.378243  0.331720  1
  O  O38  1  0.630062  0.385889  0.948862  1
  O  O39  1  0.963311  0.294689  0.722736  1
  O  O40  1  0.236697  0.435125  0.236010  1
  O  O41  1  0.831069  0.564948  0.589122  1
  O  O42  1  0.089724  0.974352  0.187192  1
  O  O43  1  0.610962  0.657546  0.672250  1
  O  O44  1  0.721480  0.905377  0.402777  1
  O  O45  1  0.420217  0.621757  0.168280  1
  O  O46  1  0.748945  0.821948  0.258375  1
  O  O47  1  0.079783  0.621757  0.668280  1
  O  O48  1  0.736697  0.564875  0.263990  1
  O  O49  1  0.019070  0.152945  0.463033  1
  O  O50  1  0.591013  0.188005  0.719020  1
  O  O51  1  0.763303  0.564875  0.763990  1
  O  O52  1  0.889038  0.657546  0.172250  1
  O  O53  1  0.538690  0.955240  0.197635  1
  O  O54  1  0.727960  0.167808  0.399160  1
  O  O55  1  0.461310  0.044760  0.802365  1
  O  O56  1  0.491453  0.476764  0.429017  1
  O  O57  1  0.219131  0.770087  0.983634  1
  O  O58  1  0.536689  0.294689  0.222736  1
  O  O59  1  0.071706  0.049465  0.917366  1
  O  O60  1  0.961310  0.955240  0.697635  1
  O  O61  1  0.170268  0.606617  0.847833  1
  O  O62  1  0.829732  0.393383  0.152167  1
  O  O63  1  0.008547  0.476764  0.929017  1
  O  O64  1  0.869938  0.385889  0.448862  1
  O  O65  1  0.331069  0.435052  0.910878  1
  O  O66  1  0.579783  0.378243  0.831720  1
  O  O67  1  0.778520  0.905377  0.902777  1
  O  O68  1  0.248945  0.178052  0.241625  1
  O  O69  1  0.463311  0.705311  0.777264  1
  O  O70  1  0.084521  0.387095  0.590756  1
  O  O71  1  0.091013  0.811995  0.780980  1
  O  O72  1  0.584521  0.612905  0.909244  1
  O  O73  1  0.389038  0.342454  0.327750  1
  O  O74  1  0.038690  0.044760  0.302365  1
  O  O75  1  0.519070  0.847055  0.036967  1
  O  O76  1  0.908987  0.188005  0.219020  1
  O  O77  1  0.130062  0.614111  0.551138  1
  O  O78  1  0.251055  0.178052  0.741625  1
  O  O79  1  0.408987  0.811995  0.280981  1
  O  O80  1  0.410276  0.974352  0.687192  1
  O  O81  1  0.329732  0.606617  0.347833  1
  O  O82  1  0.168931  0.435052  0.410878  1
  O  O83  1  0.589724  0.025648  0.312808  1
  O  O84  1  0.480930  0.152945  0.963033  1
  O  O85  1  0.263303  0.435125  0.736010  1
  O  O86  1  0.036689  0.705311  0.277264  1
  O  O87  1  0.110962  0.342454  0.827750  1
  O  O88  1  0.272040  0.832192  0.600840  1
  O  O89  1  0.719131  0.229913  0.516366  1
  O  O90  1  0.915479  0.612905  0.409244  1
  O  O91  1  0.910276  0.025648  0.812808  1
  O  O92  1  0.928294  0.950535  0.082634  1
  O  O93  1  0.571706  0.950535  0.582634  1
  O  O94  1  0.278520  0.094623  0.597223  1
  O  O95  1  0.991453  0.523236  0.070983  1
  O  O96  1  0.369938  0.614111  0.051138  1
  O  O97  1  0.668931  0.564948  0.089122  1
  O  O98  1  0.280869  0.770087  0.483634  1
  O  O99  1  0.670268  0.393383  0.652167  1
  O  O100  1  0.227960  0.832192  0.100840  1
  O  O101  1  0.221480  0.094623  0.097223  1
  O  O102  1  0.751055  0.821948  0.758375  1
  O  O103  1  0.780869  0.229913  0.016366  1
  O  O104  1  0.415479  0.387095  0.090756  1
  O  O105  1  0.508547  0.523236  0.570983  1
  O  O106  1  0.980930  0.847055  0.536967  1
  O  O107  1  0.772040  0.167808  0.899160  1
