# generated using pymatgen
data_P4Se3
_symmetry_space_group_name_H-M   'P 1'
_cell_length_a   10.60695287
_cell_length_b   11.89151562
_cell_length_c   14.95032231
_cell_angle_alpha   90.00000000
_cell_angle_beta   90.00000000
_cell_angle_gamma   90.00000000
_symmetry_Int_Tables_number   1
_chemical_formula_structural   P4Se3
_chemical_formula_sum   'P32 Se24'
_cell_volume   1885.72520257
_cell_formula_units_Z   8
loop_
 _symmetry_equiv_pos_site_id
 _symmetry_equiv_pos_as_xyz
  1  'x, y, z'
loop_
 _atom_site_type_symbol
 _atom_site_label
 _atom_site_symmetry_multiplicity
 _atom_site_fract_x
 _atom_site_fract_y
 _atom_site_fract_z
 _atom_site_occupancy
  Se  Se0  1  0.913413  0.550085  0.134604  1
  Se  Se1  1  0.413413  0.449915  0.865396  1
  Se  Se2  1  0.586587  0.050085  0.365396  1
  Se  Se3  1  0.086587  0.949915  0.634604  1
  Se  Se4  1  0.086587  0.449915  0.865396  1
  Se  Se5  1  0.586587  0.550085  0.134604  1
  Se  Se6  1  0.413413  0.949915  0.634604  1
  Se  Se7  1  0.913413  0.050085  0.365396  1
  Se  Se8  1  0.750000  0.336786  0.026689  1
  Se  Se9  1  0.250000  0.663214  0.973311  1
  Se  Se10  1  0.750000  0.836786  0.473311  1
  Se  Se11  1  0.250000  0.163214  0.526689  1
  Se  Se12  1  0.413673  0.152148  0.027560  1
  Se  Se13  1  0.913673  0.847852  0.972440  1
  Se  Se14  1  0.086327  0.652148  0.472440  1
  Se  Se15  1  0.586327  0.347852  0.527560  1
  Se  Se16  1  0.586327  0.847852  0.972440  1
  Se  Se17  1  0.086327  0.152148  0.027560  1
  Se  Se18  1  0.913673  0.347852  0.527560  1
  Se  Se19  1  0.413673  0.652148  0.472440  1
  Se  Se20  1  0.250000  0.944818  0.142464  1
  Se  Se21  1  0.750000  0.055182  0.857536  1
  Se  Se22  1  0.250000  0.444818  0.357536  1
  Se  Se23  1  0.750000  0.555182  0.642464  1
  P  P24  1  0.855588  0.427583  0.242755  1
  P  P25  1  0.355588  0.572417  0.757245  1
  P  P26  1  0.644412  0.927583  0.257245  1
  P  P27  1  0.144412  0.072417  0.742755  1
  P  P28  1  0.144412  0.572417  0.757245  1
  P  P29  1  0.644412  0.427583  0.242755  1
  P  P30  1  0.355588  0.072417  0.742755  1
  P  P31  1  0.855588  0.927583  0.257245  1
  P  P32  1  0.750000  0.288991  0.173035  1
  P  P33  1  0.250000  0.711009  0.826965  1
  P  P34  1  0.750000  0.788991  0.326965  1
  P  P35  1  0.250000  0.211009  0.673035  1
  P  P36  1  0.750000  0.528020  0.037508  1
  P  P37  1  0.250000  0.471980  0.962492  1
  P  P38  1  0.750000  0.028020  0.462492  1
  P  P39  1  0.250000  0.971980  0.537508  1
  P  P40  1  0.355858  0.231150  0.158851  1
  P  P41  1  0.855858  0.768850  0.841149  1
  P  P42  1  0.144142  0.731150  0.341149  1
  P  P43  1  0.644142  0.268850  0.658851  1
  P  P44  1  0.644142  0.768850  0.841149  1
  P  P45  1  0.144142  0.231150  0.158851  1
  P  P46  1  0.855858  0.268850  0.658851  1
  P  P47  1  0.355858  0.731150  0.341149  1
  P  P48  1  0.250000  0.096842  0.233274  1
  P  P49  1  0.750000  0.903158  0.766726  1
  P  P50  1  0.250000  0.596842  0.266726  1
  P  P51  1  0.750000  0.403158  0.733274  1
  P  P52  1  0.250000  0.031126  0.006703  1
  P  P53  1  0.750000  0.968874  0.993297  1
  P  P54  1  0.250000  0.531126  0.493297  1
  P  P55  1  0.750000  0.468874  0.506703  1
