# generated using pymatgen
data_La3CuSiSe7
_symmetry_space_group_name_H-M   'P 1'
_cell_length_a   10.78520509
_cell_length_b   10.78520535
_cell_length_c   6.15494843
_cell_angle_alpha   90.00000000
_cell_angle_beta   90.00000000
_cell_angle_gamma   119.99999921
_symmetry_Int_Tables_number   1
_chemical_formula_structural   La3CuSiSe7
_chemical_formula_sum   'La6 Si2 Cu2 Se14'
_cell_volume   620.02882469
_cell_formula_units_Z   2
loop_
 _symmetry_equiv_pos_site_id
 _symmetry_equiv_pos_as_xyz
  1  'x, y, z'
loop_
 _atom_site_type_symbol
 _atom_site_label
 _atom_site_symmetry_multiplicity
 _atom_site_fract_x
 _atom_site_fract_y
 _atom_site_fract_z
 _atom_site_occupancy
  La  La0  1  0.228918  0.873455  0.736771  1
  La  La1  1  0.644537  0.771082  0.736771  1
  La  La2  1  0.126545  0.355463  0.736771  1
  La  La3  1  0.771082  0.126545  0.236771  1
  La  La4  1  0.355463  0.228918  0.236771  1
  La  La5  1  0.873455  0.644537  0.236771  1
  Si  Si6  1  0.666667  0.333333  0.824638  1
  Si  Si7  1  0.333333  0.666667  0.324638  1
  Cu  Cu8  1  0.000000  0.000000  0.695611  1
  Cu  Cu9  1  0.000000  0.000000  0.195611  1
  Se  Se10  1  0.910472  0.747734  0.718941  1
  Se  Se11  1  0.162739  0.910472  0.218941  1
  Se  Se12  1  0.108381  0.585187  0.469887  1
  Se  Se13  1  0.333333  0.666667  0.955552  1
  Se  Se14  1  0.476806  0.891619  0.469887  1
  Se  Se15  1  0.891619  0.414813  0.969887  1
  Se  Se16  1  0.666667  0.333333  0.455552  1
  Se  Se17  1  0.837261  0.089528  0.718941  1
  Se  Se18  1  0.089528  0.252267  0.218941  1
  Se  Se19  1  0.252267  0.162739  0.718941  1
  Se  Se20  1  0.414813  0.523194  0.469887  1
  Se  Se21  1  0.585187  0.476806  0.969887  1
  Se  Se22  1  0.747734  0.837261  0.218941  1
  Se  Se23  1  0.523194  0.108381  0.969887  1
