# generated using pymatgen
data_Sr10P6BrO24F
_symmetry_space_group_name_H-M   'P 1'
_cell_length_a   9.97649545
_cell_length_b   19.94553822
_cell_length_c   7.31761912
_cell_angle_alpha   90.00000000
_cell_angle_beta   90.00000000
_cell_angle_gamma   120.01215902
_symmetry_Int_Tables_number   1
_chemical_formula_structural   Sr10P6BrO24F
_chemical_formula_sum   'Sr20 P12 Br2 O48 F2'
_cell_volume   1260.87193321
_cell_formula_units_Z   2
loop_
 _symmetry_equiv_pos_site_id
 _symmetry_equiv_pos_as_xyz
  1  'x, y, z'
loop_
 _atom_site_type_symbol
 _atom_site_label
 _atom_site_symmetry_multiplicity
 _atom_site_fract_x
 _atom_site_fract_y
 _atom_site_fract_z
 _atom_site_occupancy
  Br  Br0  1  0.000000  0.000000  0.000000  1
  Br  Br1  1  0.000000  0.000000  0.500000  1
  F  F2  1  0.002164  0.499804  0.250000  1
  F  F3  1  0.997836  0.500196  0.750000  1
  O  O4  1  0.266238  0.954342  0.577358  1
  O  O5  1  0.266238  0.954342  0.922642  1
  O  O6  1  0.144674  0.831957  0.250000  1
  O  O7  1  0.121744  0.788628  0.750000  1
  O  O8  1  0.079946  0.669906  0.577879  1
  O  O9  1  0.079946  0.669906  0.922121  1
  O  O10  1  0.465224  0.938635  0.750000  1
  O  O11  1  0.519204  0.928476  0.250000  1
  O  O12  1  0.336204  0.740985  0.250000  1
  O  O13  1  0.410672  0.763696  0.750000  1
  O  O14  1  0.340562  0.629658  0.078253  1
  O  O15  1  0.340562  0.629658  0.421747  1
  O  O16  1  0.640134  0.864829  0.577119  1
  O  O17  1  0.640134  0.864829  0.922881  1
  O  O18  1  0.262751  0.459742  0.921918  1
  O  O19  1  0.262751  0.459742  0.578082  1
  O  O20  1  0.147150  0.332789  0.250000  1
  O  O21  1  0.578279  0.727357  0.250000  1
  O  O22  1  0.118343  0.295270  0.750000  1
  O  O23  1  0.665274  0.759483  0.750000  1
  O  O24  1  0.091391  0.180462  0.922414  1
  O  O25  1  0.091391  0.180462  0.577586  1
  O  O26  1  0.481460  0.574374  0.750000  1
  O  O27  1  0.461950  0.441039  0.750000  1
  O  O28  1  0.538050  0.558961  0.250000  1
  O  O29  1  0.518540  0.425626  0.250000  1
  O  O30  1  0.908609  0.819538  0.077586  1
  O  O31  1  0.908609  0.819538  0.422414  1
  O  O32  1  0.334726  0.240517  0.250000  1
  O  O33  1  0.881657  0.704730  0.250000  1
  O  O34  1  0.421721  0.272643  0.750000  1
  O  O35  1  0.852850  0.667211  0.750000  1
  O  O36  1  0.737249  0.540258  0.078082  1
  O  O37  1  0.737249  0.540258  0.421918  1
  O  O38  1  0.359866  0.135171  0.077119  1
  O  O39  1  0.359866  0.135171  0.422881  1
  O  O40  1  0.659438  0.370342  0.921747  1
  O  O41  1  0.659438  0.370342  0.578253  1
  O  O42  1  0.589328  0.236304  0.250000  1
  O  O43  1  0.663796  0.259015  0.750000  1
  O  O44  1  0.480796  0.071524  0.750000  1
  O  O45  1  0.534776  0.061365  0.250000  1
  O  O46  1  0.920054  0.330094  0.077879  1
  O  O47  1  0.920054  0.330094  0.422121  1
  O  O48  1  0.878256  0.211372  0.250000  1
  O  O49  1  0.855326  0.168043  0.750000  1
  O  O50  1  0.733762  0.045658  0.422642  1
  O  O51  1  0.733762  0.045658  0.077358  1
  P  P52  1  0.371056  0.982075  0.750000  1
  P  P53  1  0.030526  0.697859  0.750000  1
  P  P54  1  0.396943  0.682516  0.250000  1
  P  P55  1  0.591358  0.812215  0.750000  1
  P  P56  1  0.369036  0.485089  0.750000  1
  P  P57  1  0.034736  0.205002  0.750000  1
  P  P58  1  0.965264  0.794998  0.250000  1
  P  P59  1  0.630964  0.514911  0.250000  1
  P  P60  1  0.408642  0.187785  0.250000  1
  P  P61  1  0.603057  0.317484  0.750000  1
  P  P62  1  0.969474  0.302141  0.250000  1
  P  P63  1  0.628944  0.017925  0.250000  1
  Sr  Sr64  1  0.255088  0.995965  0.250000  1
  Sr  Sr65  1  0.007597  0.623505  0.250000  1
  Sr  Sr66  1  0.332985  0.831857  0.000263  1
  Sr  Sr67  1  0.332985  0.831857  0.499737  1
  Sr  Sr68  1  0.248999  0.619252  0.750000  1
  Sr  Sr69  1  0.244333  0.495900  0.250000  1
  Sr  Sr70  1  0.733434  0.869070  0.250000  1
  Sr  Sr71  1  0.008005  0.134268  0.250000  1
  Sr  Sr72  1  0.666157  0.664896  0.500120  1
  Sr  Sr73  1  0.333843  0.335104  0.000120  1
  Sr  Sr74  1  0.333843  0.335104  0.499880  1
  Sr  Sr75  1  0.666157  0.664896  0.999880  1
  Sr  Sr76  1  0.991995  0.865732  0.750000  1
  Sr  Sr77  1  0.266566  0.130930  0.750000  1
  Sr  Sr78  1  0.755667  0.504100  0.750000  1
  Sr  Sr79  1  0.751001  0.380748  0.250000  1
  Sr  Sr80  1  0.667015  0.168143  0.500263  1
  Sr  Sr81  1  0.667015  0.168143  0.999737  1
  Sr  Sr82  1  0.992403  0.376495  0.750000  1
  Sr  Sr83  1  0.744912  0.004035  0.750000  1
