# generated using pymatgen
data_Tl2Ni(CN)4
_symmetry_space_group_name_H-M   'P 1'
_cell_length_a   6.31324222
_cell_length_b   7.38498637
_cell_length_c   9.48205380
_cell_angle_alpha   90.00000000
_cell_angle_beta   105.70701362
_cell_angle_gamma   90.00000000
_symmetry_Int_Tables_number   1
_chemical_formula_structural   Tl2Ni(CN)4
_chemical_formula_sum   'Tl4 Ni2 C8 N8'
_cell_volume   425.57574413
_cell_formula_units_Z   2
loop_
 _symmetry_equiv_pos_site_id
 _symmetry_equiv_pos_as_xyz
  1  'x, y, z'
loop_
 _atom_site_type_symbol
 _atom_site_label
 _atom_site_symmetry_multiplicity
 _atom_site_fract_x
 _atom_site_fract_y
 _atom_site_fract_z
 _atom_site_occupancy
  Tl  Tl0  1  0.722286  0.347297  0.420213  1
  Tl  Tl1  1  0.222286  0.152703  0.920213  1
  Tl  Tl2  1  0.777714  0.847297  0.079787  1
  Tl  Tl3  1  0.277714  0.652703  0.579787  1
  Ni  Ni4  1  0.000000  0.500000  0.000000  1
  Ni  Ni5  1  0.500000  0.000000  0.500000  1
  C  C6  1  0.309684  0.154187  0.559057  1
  C  C7  1  0.183352  0.501109  0.188380  1
  C  C8  1  0.816648  0.498891  0.811620  1
  C  C9  1  0.690316  0.845813  0.440943  1
  C  C10  1  0.316648  1.001109  0.311620  1
  C  C11  1  0.190316  0.654187  0.940943  1
  C  C12  1  0.683352  -0.001109  0.688380  1
  C  C13  1  0.809684  0.345813  0.059057  1
  N  N14  1  0.700681  0.498230  0.691502  1
  N  N15  1  0.808441  0.745167  0.402470  1
  N  N16  1  0.299319  0.501770  0.308498  1
  N  N17  1  0.799319  0.998230  0.808498  1
  N  N18  1  0.308441  0.754833  0.902470  1
  N  N19  1  0.200681  0.001770  0.191502  1
  N  N20  1  0.691559  0.245167  0.097530  1
  N  N21  1  0.191559  0.254833  0.597530  1
