# generated using pymatgen
data_RbNi2F6
_symmetry_space_group_name_H-M   'P 1'
_cell_length_a   7.21653368
_cell_length_b   7.21733009
_cell_length_c   7.21733010
_cell_angle_alpha   60.00264678
_cell_angle_beta   60.00365026
_cell_angle_gamma   60.00365021
_symmetry_Int_Tables_number   1
_chemical_formula_structural   RbNi2F6
_chemical_formula_sum   'Rb2 Ni4 F12'
_cell_volume   265.82720756
_cell_formula_units_Z   2
loop_
 _symmetry_equiv_pos_site_id
 _symmetry_equiv_pos_as_xyz
  1  'x, y, z'
loop_
 _atom_site_type_symbol
 _atom_site_label
 _atom_site_symmetry_multiplicity
 _atom_site_fract_x
 _atom_site_fract_y
 _atom_site_fract_z
 _atom_site_occupancy
  F  F0  1  0.927922  0.427874  0.322111  1
  F  F1  1  0.677906  0.572126  0.677889  1
  F  F2  1  0.072078  0.177889  0.072126  1
  F  F3  1  0.322094  0.822111  0.927874  1
  F  F4  1  0.072078  0.572126  0.677889  1
  F  F5  1  0.322094  0.427874  0.322111  1
  F  F6  1  0.322110  0.427890  0.927890  1
  F  F7  1  0.677890  0.572110  0.072110  1
  F  F8  1  0.072013  0.177987  0.677987  1
  F  F9  1  0.927987  0.822013  0.322013  1
  F  F10  1  0.677906  0.177889  0.072126  1
  F  F11  1  0.927922  0.822111  0.927874  1
  Ni  Ni12  1  0.000000  0.500000  0.500000  1
  Ni  Ni13  1  0.000000  0.000000  0.000000  1
  Ni  Ni14  1  0.500000  0.500000  0.000000  1
  Ni  Ni15  1  0.000000  0.500000  0.000000  1
  Rb  Rb16  1  0.625096  0.124904  0.624904  1
  Rb  Rb17  1  0.374904  0.875096  0.375096  1
