# generated using pymatgen
data_Ba3GeI2
_symmetry_space_group_name_H-M   'P 1'
_cell_length_a   8.77977143
_cell_length_b   8.77501473
_cell_length_c   15.81721293
_cell_angle_alpha   100.84992065
_cell_angle_beta   100.84092189
_cell_angle_gamma   108.76957297
_symmetry_Int_Tables_number   1
_chemical_formula_structural   Ba3GeI2
_chemical_formula_sum   'Ba12 Ge4 I8'
_cell_volume   1091.90654550
_cell_formula_units_Z   4
loop_
 _symmetry_equiv_pos_site_id
 _symmetry_equiv_pos_as_xyz
  1  'x, y, z'
loop_
 _atom_site_type_symbol
 _atom_site_label
 _atom_site_symmetry_multiplicity
 _atom_site_fract_x
 _atom_site_fract_y
 _atom_site_fract_z
 _atom_site_occupancy
  Ba  Ba0  1  0.833715  0.583738  0.749977  1
  Ba  Ba1  1  0.583716  0.833741  0.249979  1
  Ba  Ba2  1  0.963109  0.250881  0.932184  1
  Ba  Ba3  1  0.681265  0.469082  0.432158  1
  Ba  Ba4  1  0.469101  0.681326  0.932168  1
  Ba  Ba5  1  0.036891  0.749119  0.067816  1
  Ba  Ba6  1  0.250951  0.963116  0.432192  1
  Ba  Ba7  1  0.318735  0.530918  0.567842  1
  Ba  Ba8  1  0.166285  0.416262  0.250023  1
  Ba  Ba9  1  0.416284  0.166259  0.750021  1
  Ba  Ba10  1  0.749049  0.036884  0.567808  1
  Ba  Ba11  1  0.530899  0.318674  0.067832  1
  Ge  Ge12  1  0.709120  0.459101  0.918218  1
  Ge  Ge13  1  0.540908  0.290901  0.581799  1
  Ge  Ge14  1  0.459092  0.709099  0.418201  1
  Ge  Ge15  1  0.290880  0.540899  0.081782  1
  I  I16  1  0.952343  0.202360  0.404636  1
  I  I17  1  0.047657  0.797640  0.595364  1
  I  I18  1  0.629103  0.879078  0.758091  1
  I  I19  1  0.797648  0.047688  0.095387  1
  I  I20  1  0.370897  0.120922  0.241909  1
  I  I21  1  0.120909  0.370900  0.741907  1
  I  I22  1  0.202352  0.952312  0.904613  1
  I  I23  1  0.879091  0.629100  0.258093  1
