# generated using pymatgen
data_HoS
_symmetry_space_group_name_H-M   'P 1'
_cell_length_a   3.72269722
_cell_length_b   3.72269694
_cell_length_c   29.82567292
_cell_angle_alpha   90.82057544
_cell_angle_beta   90.82057556
_cell_angle_gamma   89.97325285
_symmetry_Int_Tables_number   1
_chemical_formula_structural   HoS
_chemical_formula_sum   'Ho2 S2'
_cell_volume   413.25351025
_cell_formula_units_Z   2
loop_
 _symmetry_equiv_pos_site_id
 _symmetry_equiv_pos_as_xyz
  1  'x, y, z'
loop_
 _atom_site_type_symbol
 _atom_site_label
 _atom_site_symmetry_multiplicity
 _atom_site_fract_x
 _atom_site_fract_y
 _atom_site_fract_z
 _atom_site_occupancy
  Ho  Ho0  1  0.998600  0.006690  0.843943  1
  Ho  Ho1  1  0.993310  0.001400  0.156057  1
  S  S2  1  0.496982  0.505092  0.830124  1
  S  S3  1  0.494908  0.503018  0.169876  1
