# generated using pymatgen
data_AgBTe4C(OF4)5
_symmetry_space_group_name_H-M   'P 1'
_cell_length_a   10.24001435
_cell_length_b   12.61395955
_cell_length_c   16.62941609
_cell_angle_alpha   90.00000000
_cell_angle_beta   90.00000000
_cell_angle_gamma   100.08861660
_symmetry_Int_Tables_number   1
_chemical_formula_structural   AgBTe4C(OF4)5
_chemical_formula_sum   'Ag4 B4 Te16 C4 O20 F80'
_cell_volume   2114.76192846
_cell_formula_units_Z   4
loop_
 _symmetry_equiv_pos_site_id
 _symmetry_equiv_pos_as_xyz
  1  'x, y, z'
loop_
 _atom_site_type_symbol
 _atom_site_label
 _atom_site_symmetry_multiplicity
 _atom_site_fract_x
 _atom_site_fract_y
 _atom_site_fract_z
 _atom_site_occupancy
  Ag  Ag0  1  0.646699  0.951333  0.324528  1
  Ag  Ag1  1  0.353301  0.048667  0.675472  1
  Ag  Ag2  1  0.146699  0.451333  0.175472  1
  Ag  Ag3  1  0.853301  0.548667  0.824528  1
  B  B4  1  0.640562  0.051101  0.738344  1
  B  B5  1  0.140562  0.551101  0.761656  1
  B  B6  1  0.859438  0.448899  0.238344  1
  B  B7  1  0.359438  0.948899  0.261656  1
  Te  Te8  1  0.235836  0.755718  0.362043  1
  Te  Te9  1  0.264164  0.744282  0.862043  1
  Te  Te10  1  0.764164  0.244282  0.637957  1
  Te  Te11  1  0.337522  0.461439  0.647926  1
  Te  Te12  1  0.395889  0.128517  0.394139  1
  Te  Te13  1  0.508374  0.831086  0.133313  1
  Te  Te14  1  0.895889  0.628517  0.105861  1
  Te  Te15  1  0.104111  0.371483  0.894139  1
  Te  Te16  1  0.837522  0.961439  0.852074  1
  Te  Te17  1  0.008374  0.331086  0.366687  1
  Te  Te18  1  0.735836  0.255718  0.137957  1
  Te  Te19  1  0.991626  0.668914  0.633313  1
  Te  Te20  1  0.662478  0.538561  0.352074  1
  Te  Te21  1  0.491626  0.168914  0.866687  1
  Te  Te22  1  0.604111  0.871483  0.605861  1
  Te  Te23  1  0.162478  0.038561  0.147926  1
  C  C24  1  0.826907  0.948413  0.375373  1
  C  C25  1  0.173093  0.051587  0.624627  1
  C  C26  1  0.326907  0.448413  0.124627  1
  C  C27  1  0.673093  0.551587  0.875373  1
  O  O28  1  0.752159  0.134570  0.716279  1
  O  O29  1  0.924123  0.944681  0.407655  1
  O  O30  1  0.520515  0.096177  0.769130  1
  O  O31  1  0.318632  0.022486  0.203941  1
  O  O32  1  0.020515  0.596177  0.730870  1
  O  O33  1  0.681368  0.977514  0.796059  1
  O  O34  1  0.252159  0.634570  0.783721  1
  O  O35  1  0.429913  0.008152  0.333577  1
  O  O36  1  0.575877  0.555319  0.907655  1
  O  O37  1  0.479485  0.903823  0.230870  1
  O  O38  1  0.747841  0.365430  0.216279  1
  O  O39  1  0.070087  0.491848  0.833577  1
  O  O40  1  0.181368  0.477514  0.703941  1
  O  O41  1  0.979485  0.403823  0.269130  1
  O  O42  1  0.424123  0.444681  0.092345  1
  O  O43  1  0.570087  0.991848  0.666423  1
  O  O44  1  0.818632  0.522486  0.296059  1
  O  O45  1  0.929913  0.508152  0.166423  1
  O  O46  1  0.247841  0.865430  0.283721  1
  O  O47  1  0.075877  0.055319  0.592345  1
  F  F48  1  0.219856  0.644932  0.437898  1
  F  F49  1  0.488786  0.044691  0.927741  1
  F  F50  1  0.248411  0.849309  0.783234  1
  F  F51  1  0.619397  0.394414  0.383887  1
  F  F52  1  0.214938  0.850145  0.446459  1
  F  F53  1  0.380603  0.605586  0.616113  1
  F  F54  1  0.288122  0.406302  0.878882  1
  F  F55  1  0.251589  0.650691  0.283234  1
  F  F56  1  0.448143  0.773591  0.848244  1
  F  F57  1  0.280144  0.855068  0.937898  1
  F  F58  1  0.630629  0.755367  0.541732  1
  F  F59  1  0.921657  0.337366  0.914402  1
  F  F60  1  0.046550  0.259392  0.459898  1
  F  F61  1  0.877745  0.546489  0.010498  1
  F  F62  1  0.808775  0.631077  0.653078  1
  F  F63  1  0.780144  0.355068  0.562102  1
  F  F64  1  0.986687  0.936024  0.909200  1
  F  F65  1  0.551121  0.507931  0.262053  1
  F  F66  1  0.748411  0.349309  0.716766  1
  F  F67  1  0.262388  0.071483  0.054356  1
  F  F68  1  0.551857  0.226409  0.151756  1
  F  F69  1  0.172479  0.712744  0.612759  1
  F  F70  1  0.051121  0.007931  0.237947  1
  F  F71  1  0.714938  0.350145  0.053541  1
  F  F72  1  0.948879  0.992069  0.762053  1
  F  F73  1  0.719856  0.144932  0.062102  1
  F  F74  1  0.546550  0.759392  0.040102  1
  F  F75  1  0.762388  0.571483  0.445644  1
  F  F76  1  0.130629  0.255367  0.958268  1
  F  F77  1  0.511214  0.955309  0.072259  1
  F  F78  1  0.492816  0.297746  0.810363  1
  F  F79  1  0.953450  0.740608  0.540102  1
  F  F80  1  0.237612  0.428517  0.554356  1
  F  F81  1  0.587430  0.778678  0.694304  1
  F  F82  1  0.453450  0.240608  0.959898  1
  F  F83  1  0.211878  0.093698  0.378882  1
  F  F84  1  0.011214  0.455309  0.427741  1
  F  F85  1  0.948143  0.273591  0.651756  1
  F  F86  1  0.007184  0.202254  0.310363  1
  F  F87  1  0.737612  0.928517  0.945644  1
  F  F88  1  0.579128  0.222344  0.619381  1
  F  F89  1  0.788122  0.906302  0.621118  1
  F  F90  1  0.079128  0.722344  0.880619  1
  F  F91  1  0.420872  0.777656  0.380619  1
  F  F92  1  0.285062  0.649855  0.946459  1
  F  F93  1  0.087430  0.278678  0.805696  1
  F  F94  1  0.308775  0.131077  0.846922  1
  F  F95  1  0.412570  0.221322  0.305696  1
  F  F96  1  0.805707  0.814168  0.825499  1
  F  F97  1  0.988786  0.544691  0.572259  1
  F  F98  1  0.622255  0.953511  0.510498  1
  F  F99  1  0.421657  0.837366  0.585598  1
  F  F100  1  0.122255  0.453511  0.989502  1
  F  F101  1  0.869371  0.744633  0.041732  1
  F  F102  1  0.305707  0.314168  0.674501  1
  F  F103  1  0.785062  0.149855  0.553541  1
  F  F104  1  0.672479  0.212744  0.887241  1
  F  F105  1  0.920872  0.277656  0.119381  1
  F  F106  1  0.691225  0.868923  0.153078  1
  F  F107  1  0.013313  0.063976  0.090800  1
  F  F108  1  0.694293  0.685832  0.325499  1
  F  F109  1  0.119397  0.894414  0.116113  1
  F  F110  1  0.377745  0.046489  0.489502  1
  F  F111  1  0.369371  0.244633  0.458268  1
  F  F112  1  0.827521  0.287256  0.387241  1
  F  F113  1  0.448879  0.492069  0.737947  1
  F  F114  1  0.191225  0.368923  0.346922  1
  F  F115  1  0.880603  0.105586  0.883887  1
  F  F116  1  0.513313  0.563976  0.409200  1
  F  F117  1  0.078343  0.662634  0.085598  1
  F  F118  1  0.751589  0.150691  0.216766  1
  F  F119  1  0.486687  0.436024  0.590800  1
  F  F120  1  0.327521  0.787256  0.112759  1
  F  F121  1  0.992816  0.797746  0.689637  1
  F  F122  1  0.711878  0.593698  0.121118  1
  F  F123  1  0.194293  0.185832  0.174501  1
  F  F124  1  0.912570  0.721322  0.194304  1
  F  F125  1  0.051857  0.726409  0.348244  1
  F  F126  1  0.578343  0.162634  0.414402  1
  F  F127  1  0.507184  0.702254  0.189637  1
