# generated using pymatgen
data_Zr9(NiP2)2
_symmetry_space_group_name_H-M   'P 1'
_cell_length_a   3.70537906
_cell_length_b   12.06831791
_cell_length_c   12.06831791
_cell_angle_alpha   90.00000000
_cell_angle_beta   90.00000000
_cell_angle_gamma   90.00000000
_symmetry_Int_Tables_number   1
_chemical_formula_structural   Zr9(NiP2)2
_chemical_formula_sum   'Zr18 Ni4 P8'
_cell_volume   539.66732897
_cell_formula_units_Z   2
loop_
 _symmetry_equiv_pos_site_id
 _symmetry_equiv_pos_as_xyz
  1  'x, y, z'
loop_
 _atom_site_type_symbol
 _atom_site_label
 _atom_site_symmetry_multiplicity
 _atom_site_fract_x
 _atom_site_fract_y
 _atom_site_fract_z
 _atom_site_occupancy
  Zr  Zr0  1  0.000000  0.000000  0.000000  1
  Zr  Zr1  1  0.000000  0.500000  0.500000  1
  Zr  Zr2  1  0.500000  0.181170  0.102473  1
  Zr  Zr3  1  0.500000  0.897527  0.181170  1
  Zr  Zr4  1  0.500000  0.102473  0.818830  1
  Zr  Zr5  1  0.500000  0.818830  0.897527  1
  Zr  Zr6  1  0.500000  0.681170  0.397527  1
  Zr  Zr7  1  0.500000  0.318830  0.602473  1
  Zr  Zr8  1  0.500000  0.602473  0.681170  1
  Zr  Zr9  1  0.500000  0.397527  0.318830  1
  Zr  Zr10  1  0.000000  0.404274  0.095726  1
  Zr  Zr11  1  0.000000  0.904274  0.404274  1
  Zr  Zr12  1  0.000000  0.095726  0.595726  1
  Zr  Zr13  1  0.000000  0.595726  0.904274  1
  Zr  Zr14  1  0.500000  0.119583  0.380417  1
  Zr  Zr15  1  0.500000  0.619583  0.119583  1
  Zr  Zr16  1  0.500000  0.380417  0.880417  1
  Zr  Zr17  1  0.500000  0.880417  0.619583  1
  Ni  Ni18  1  0.000000  0.246151  0.253849  1
  Ni  Ni19  1  0.000000  0.746151  0.246151  1
  Ni  Ni20  1  0.000000  0.253849  0.753849  1
  Ni  Ni21  1  0.000000  0.753849  0.746151  1
  P  P22  1  0.000000  0.056680  0.224381  1
  P  P23  1  0.000000  0.775619  0.056680  1
  P  P24  1  0.000000  0.224381  0.943320  1
  P  P25  1  0.000000  0.943320  0.775619  1
  P  P26  1  0.000000  0.556680  0.275619  1
  P  P27  1  0.000000  0.443320  0.724381  1
  P  P28  1  0.000000  0.724381  0.556680  1
  P  P29  1  0.000000  0.275619  0.443320  1
