# generated using pymatgen
data_Hg2MoO4
_symmetry_space_group_name_H-M   'P 1'
_cell_length_a   5.05648313
_cell_length_b   7.50052767
_cell_length_c   7.50052707
_cell_angle_alpha   106.82735898
_cell_angle_beta   104.99388366
_cell_angle_gamma   104.99388814
_symmetry_Int_Tables_number   1
_chemical_formula_structural   Hg2MoO4
_chemical_formula_sum   'Hg4 Mo2 O8'
_cell_volume   245.29830948
_cell_formula_units_Z   2
loop_
 _symmetry_equiv_pos_site_id
 _symmetry_equiv_pos_as_xyz
  1  'x, y, z'
loop_
 _atom_site_type_symbol
 _atom_site_label
 _atom_site_symmetry_multiplicity
 _atom_site_fract_x
 _atom_site_fract_y
 _atom_site_fract_z
 _atom_site_occupancy
  Hg  Hg0  1  0.520801  0.246385  0.466367  1
  Hg  Hg1  1  0.979199  0.533633  0.753615  1
  Hg  Hg2  1  0.479199  0.753615  0.533633  1
  Hg  Hg3  1  0.020801  0.466367  0.246385  1
  Mo  Mo4  1  0.250000  0.098673  0.901327  1
  Mo  Mo5  1  0.750000  0.901327  0.098673  1
  O  O6  1  0.699094  0.948070  0.330577  1
  O  O7  1  0.300906  0.051930  0.669423  1
  O  O8  1  0.855091  0.911394  0.817178  1
  O  O9  1  0.355091  0.817178  0.911394  1
  O  O10  1  0.199094  0.330577  0.948070  1
  O  O11  1  0.644909  0.182822  0.088606  1
  O  O12  1  0.144909  0.088606  0.182822  1
  O  O13  1  0.800906  0.669423  0.051930  1
