# generated using pymatgen
data_Y2Si2O7
_symmetry_space_group_name_H-M   'P 1'
_cell_length_a   6.66861619
_cell_length_b   6.70995608
_cell_length_c   12.18106316
_cell_angle_alpha   94.49163884
_cell_angle_beta   91.21597936
_cell_angle_gamma   91.88275734
_symmetry_Int_Tables_number   1
_chemical_formula_structural   Y2Si2O7
_chemical_formula_sum   'Y8 Si8 O28'
_cell_volume   542.93312480
_cell_formula_units_Z   4
loop_
 _symmetry_equiv_pos_site_id
 _symmetry_equiv_pos_as_xyz
  1  'x, y, z'
loop_
 _atom_site_type_symbol
 _atom_site_label
 _atom_site_symmetry_multiplicity
 _atom_site_fract_x
 _atom_site_fract_y
 _atom_site_fract_z
 _atom_site_occupancy
  Y  Y0  1  0.116102  0.092171  0.356945  1
  Y  Y1  1  0.329288  0.827668  0.108128  1
  Y  Y2  1  0.630196  0.783030  0.366498  1
  Y  Y3  1  0.883898  0.907829  0.643055  1
  Y  Y4  1  0.670712  0.172332  0.891872  1
  Y  Y5  1  0.369804  0.216970  0.633502  1
  Y  Y6  1  0.948402  0.670237  0.884866  1
  Y  Y7  1  0.051598  0.329763  0.115134  1
  Si  Si8  1  0.486387  0.664547  0.824173  1
  Si  Si9  1  0.845528  0.852956  0.115424  1
  Si  Si10  1  0.513613  0.335453  0.175827  1
  Si  Si11  1  0.154472  0.147044  0.884576  1
  Si  Si12  1  0.144228  0.627887  0.379629  1
  Si  Si13  1  0.855772  0.372113  0.620371  1
  Si  Si14  1  0.621845  0.274867  0.405789  1
  Si  Si15  1  0.378155  0.725133  0.594211  1
  O  O16  1  0.286103  0.576597  0.488416  1
  O  O17  1  0.234665  0.085197  0.003935  1
  O  O18  1  0.400921  0.568053  0.693496  1
  O  O19  1  0.038242  0.227688  0.577716  1
  O  O20  1  0.384349  0.137923  0.210623  1
  O  O21  1  0.653805  0.789692  0.186302  1
  O  O22  1  0.001643  0.982623  0.815695  1
  O  O23  1  0.001280  0.669316  0.081304  1
  O  O24  1  0.701466  0.296871  0.095059  1
  O  O25  1  0.346195  0.210308  0.813698  1
  O  O26  1  0.075834  0.418230  0.311226  1
  O  O27  1  0.227716  0.903741  0.623467  1
  O  O28  1  0.643596  0.510043  0.872681  1
  O  O29  1  0.587091  0.826251  0.553104  1
  O  O30  1  0.765335  0.914803  0.996065  1
  O  O31  1  0.998357  0.017377  0.184305  1
  O  O32  1  0.924166  0.581770  0.688774  1
  O  O33  1  0.961758  0.772312  0.422284  1
  O  O34  1  0.772284  0.096259  0.376533  1
  O  O35  1  0.599079  0.431947  0.306504  1
  O  O36  1  0.412909  0.173749  0.446896  1
  O  O37  1  0.615651  0.862077  0.789377  1
  O  O38  1  0.712482  0.216177  0.687040  1
  O  O39  1  0.713897  0.423403  0.511584  1
  O  O40  1  0.287518  0.783823  0.312960  1
  O  O41  1  0.356404  0.489957  0.127319  1
  O  O42  1  0.298534  0.703129  0.904941  1
  O  O43  1  0.998720  0.330684  0.918696  1
