# generated using pymatgen
data_TaSi2H35(C3N)4
_symmetry_space_group_name_H-M   'P 1'
_cell_length_a   8.34555473
_cell_length_b   10.25545735
_cell_length_c   14.74779295
_cell_angle_alpha   71.36884400
_cell_angle_beta   87.51390280
_cell_angle_gamma   67.53511533
_symmetry_Int_Tables_number   1
_chemical_formula_structural   TaSi2H35(C3N)4
_chemical_formula_sum   'Ta2 Si4 H70 C24 N8'
_cell_volume   1100.84059315
_cell_formula_units_Z   2
loop_
 _symmetry_equiv_pos_site_id
 _symmetry_equiv_pos_as_xyz
  1  'x, y, z'
loop_
 _atom_site_type_symbol
 _atom_site_label
 _atom_site_symmetry_multiplicity
 _atom_site_fract_x
 _atom_site_fract_y
 _atom_site_fract_z
 _atom_site_occupancy
  Ta  Ta0  1  0.194090  0.077288  0.189895  1
  Ta  Ta1  1  0.805910  0.922712  0.810105  1
  Si  Si2  1  0.442146  0.765844  0.230175  1
  Si  Si3  1  0.557854  0.234156  0.769825  1
  Si  Si4  1  0.819807  0.212673  0.608008  1
  Si  Si5  1  0.180193  0.787327  0.391992  1
  H  H6  1  0.057709  0.297655  0.358704  1
  H  H7  1  0.429514  0.272937  0.034326  1
  H  H8  1  0.094564  0.570105  0.463653  1
  H  H9  1  0.905436  0.429895  0.536347  1
  H  H10  1  0.966276  0.030225  0.404437  1
  H  H11  1  0.212484  0.249090  0.932583  1
  H  H12  1  0.019164  0.370107  0.230687  1
  H  H13  1  0.357038  0.094508  0.424899  1
  H  H14  1  0.323395  0.846536  0.511385  1
  H  H15  1  0.987011  0.752407  0.019266  1
  H  H16  1  0.293211  0.783412  0.804380  1
  H  H17  1  0.382254  0.945727  0.057553  1
  H  H18  1  0.050604  0.416606  0.942780  1
  H  H19  1  0.033724  0.969775  0.595563  1
  H  H20  1  0.640954  0.684028  0.858860  1
  H  H21  1  0.901439  0.880966  0.464828  1
  H  H22  1  0.458810  0.671886  0.499245  1
  H  H23  1  0.690015  0.758861  0.325059  1
  H  H24  1  0.523641  0.838685  0.668737  1
  H  H25  1  0.570486  0.727063  0.965674  1
  H  H26  1  0.806434  0.618707  0.711431  1
  H  H27  1  0.295515  0.662712  0.141182  1
  H  H28  1  0.467728  0.982283  0.353294  1
  H  H29  1  0.476359  0.161316  0.331263  1
  H  H30  1  0.706789  0.216588  0.195620  1
  H  H31  1  0.525806  0.977423  0.125036  1
  H  H32  1  0.280666  0.519016  0.399607  1
  H  H33  1  0.724050  0.313786  0.432314  1
  H  H34  1  0.704485  0.337288  0.858818  1
  H  H35  1  0.868038  0.959400  0.337639  1
  H  H36  1  0.928992  0.373435  0.663773  1
  H  H37  1  0.541190  0.328114  0.500755  1
  H  H38  1  0.309985  0.241139  0.674941  1
  H  H39  1  0.474194  0.022577  0.874964  1
  H  H40  1  0.525597  0.570492  0.150952  1
  H  H41  1  0.407254  0.524573  0.250931  1
  H  H42  1  0.592746  0.475427  0.749069  1
  H  H43  1  0.763317  0.623570  0.265606  1
  H  H44  1  0.071008  0.626565  0.336227  1
  H  H45  1  0.742462  0.553880  0.973795  1
  H  H46  1  0.642962  0.905492  0.575101  1
  H  H47  1  0.193566  0.381293  0.288569  1
  H  H48  1  0.676605  0.153464  0.488615  1
  H  H49  1  0.275950  0.686214  0.567686  1
  H  H50  1  0.012989  0.247593  0.980734  1
  H  H51  1  0.942291  0.702345  0.641296  1
  H  H52  1  0.257538  0.446120  0.026205  1
  H  H53  1  0.236683  0.376430  0.734394  1
  H  H54  1  0.474403  0.429508  0.849048  1
  H  H55  1  0.168235  0.049734  0.812893  1
  H  H56  1  0.532272  0.017717  0.646706  1
  H  H57  1  0.949396  0.583394  0.057220  1
  H  H58  1  0.098561  0.119034  0.535172  1
  H  H59  1  0.730792  0.289129  0.071052  1
  H  H60  1  0.835425  0.325578  0.157203  1
  H  H61  1  0.832879  0.038698  0.061740  1
  H  H62  1  0.658415  0.589109  0.372900  1
  H  H63  1  0.167121  0.961302  0.938260  1
  H  H64  1  0.980836  0.629893  0.769313  1
  H  H65  1  0.831765  0.950266  0.187107  1
  H  H66  1  0.027781  0.896869  0.130444  1
  H  H67  1  0.341585  0.410891  0.627100  1
  H  H68  1  0.131962  0.040600  0.662361  1
  H  H69  1  0.787516  0.750910  0.067417  1
  H  H70  1  0.359046  0.315972  0.141140  1
  H  H71  1  0.617746  0.054273  0.942447  1
  H  H72  1  0.719334  0.480984  0.600393  1
  H  H73  1  0.269208  0.710871  0.928948  1
  H  H74  1  0.164575  0.674422  0.842797  1
  H  H75  1  0.972219  0.103131  0.869556  1
  C  C76  1  0.581602  0.061301  0.869593  1
  C  C77  1  0.910233  0.992648  0.131881  1
  C  C78  1  0.041332  0.072293  0.599899  1
  C  C79  1  0.199932  0.759730  0.856213  1
  C  C80  1  0.414284  0.617347  0.189899  1
  C  C81  1  0.878861  0.689962  0.709218  1
  C  C82  1  0.585716  0.382653  0.810101  1
  C  C83  1  0.608137  0.902572  0.648769  1
  C  C84  1  0.112182  0.294158  0.978540  1
  C  C85  1  0.314059  0.326164  0.069421  1
  C  C86  1  0.657647  0.676151  0.305691  1
  C  C87  1  0.323238  0.744168  0.502555  1
  C  C88  1  0.685941  0.673836  0.930579  1
  C  C89  1  0.121139  0.310038  0.290782  1
  C  C90  1  0.887818  0.705842  0.021460  1
  C  C91  1  0.089767  0.007352  0.868119  1
  C  C92  1  0.342353  0.323849  0.694309  1
  C  C93  1  0.154641  0.609434  0.398083  1
  C  C94  1  0.845359  0.390566  0.601917  1
  C  C95  1  0.800068  0.240270  0.143787  1
  C  C96  1  0.418398  0.938699  0.130407  1
  C  C97  1  0.676762  0.255832  0.497445  1
  C  C98  1  0.958668  0.927707  0.400101  1
  C  C99  1  0.391863  0.097428  0.351231  1
  N  N100  1  0.812951  0.741344  0.924795  1
  N  N101  1  0.236337  0.165635  0.284259  1
  N  N102  1  0.953681  0.105962  0.151897  1
  N  N103  1  0.266610  0.856662  0.286773  1
  N  N104  1  0.046319  0.894038  0.848103  1
  N  N105  1  0.187049  0.258656  0.075205  1
  N  N106  1  0.763663  0.834365  0.715741  1
  N  N107  1  0.733390  0.143338  0.713227  1
