# generated using pymatgen
data_CsNd(PO3)4
_symmetry_space_group_name_H-M   'P 1'
_cell_length_a   9.15407722
_cell_length_b   10.62608951
_cell_length_c   11.38045040
_cell_angle_alpha   106.61459403
_cell_angle_beta   90.00000000
_cell_angle_gamma   90.00000000
_symmetry_Int_Tables_number   1
_chemical_formula_structural   CsNd(PO3)4
_chemical_formula_sum   'Cs4 Nd4 P16 O48'
_cell_volume   1060.78218585
_cell_formula_units_Z   4
loop_
 _symmetry_equiv_pos_site_id
 _symmetry_equiv_pos_as_xyz
  1  'x, y, z'
loop_
 _atom_site_type_symbol
 _atom_site_label
 _atom_site_symmetry_multiplicity
 _atom_site_fract_x
 _atom_site_fract_y
 _atom_site_fract_z
 _atom_site_occupancy
  Cs  Cs0  1  0.565706  0.685577  0.460825  1
  Cs  Cs1  1  0.065706  0.814423  0.039175  1
  Cs  Cs2  1  0.434294  0.314423  0.539175  1
  Cs  Cs3  1  0.934294  0.185577  0.960825  1
  Nd  Nd4  1  0.725990  0.501908  0.818592  1
  Nd  Nd5  1  0.774010  0.001908  0.318592  1
  Nd  Nd6  1  0.225990  0.998092  0.681408  1
  Nd  Nd7  1  0.274010  0.498092  0.181408  1
  P  P8  1  0.824941  0.960937  0.636097  1
  P  P9  1  0.530242  0.247929  0.214951  1
  P  P10  1  0.175059  0.039063  0.363903  1
  P  P11  1  0.896115  0.325297  0.525434  1
  P  P12  1  0.469758  0.752071  0.785049  1
  P  P13  1  0.592938  0.144406  0.758663  1
  P  P14  1  0.103885  0.674703  0.474566  1
  P  P15  1  0.407062  0.855594  0.241337  1
  P  P16  1  0.092938  0.355594  0.741337  1
  P  P17  1  0.675059  0.460937  0.136097  1
  P  P18  1  0.907062  0.644406  0.258663  1
  P  P19  1  0.603885  0.825297  0.025434  1
  P  P20  1  0.396115  0.174703  0.974566  1
  P  P21  1  0.969758  0.747929  0.714951  1
  P  P22  1  0.030242  0.252071  0.285049  1
  P  P23  1  0.324941  0.539063  0.863903  1
  O  O24  1  0.963124  0.400865  0.823019  1
  O  O25  1  0.964474  0.036521  0.669161  1
  O  O26  1  0.450689  0.833674  0.099678  1
  O  O27  1  0.293423  0.068606  0.906407  1
  O  O28  1  0.036876  0.599135  0.176981  1
  O  O29  1  0.097775  0.328352  0.206979  1
  O  O30  1  0.539156  0.858358  0.904603  1
  O  O31  1  0.549311  0.166326  0.900322  1
  O  O32  1  0.080250  0.851353  0.775195  1
  O  O33  1  0.176391  0.238188  0.752212  1
  O  O34  1  0.919750  0.148647  0.224805  1
  O  O35  1  0.463124  0.099135  0.676981  1
  O  O36  1  0.840104  0.815496  0.655753  1
  O  O37  1  0.755531  0.940798  0.512907  1
  O  O38  1  0.706577  0.931394  0.093593  1
  O  O39  1  0.793423  0.431394  0.593593  1
  O  O40  1  0.419750  0.351353  0.275195  1
  O  O41  1  0.206307  0.477343  0.755928  1
  O  O42  1  0.960844  0.358358  0.404603  1
  O  O43  1  0.744469  0.440798  0.012907  1
  O  O44  1  0.676391  0.261812  0.747788  1
  O  O45  1  0.460844  0.141642  0.095397  1
  O  O46  1  0.244469  0.059202  0.487093  1
  O  O47  1  0.159438  0.813122  0.513514  1
  O  O48  1  0.840562  0.186878  0.486486  1
  O  O49  1  0.206577  0.568606  0.406407  1
  O  O50  1  0.293693  0.977343  0.255928  1
  O  O51  1  0.340104  0.684504  0.844247  1
  O  O52  1  0.159896  0.184504  0.344247  1
  O  O53  1  0.793693  0.522657  0.244072  1
  O  O54  1  0.340562  0.313122  0.013514  1
  O  O55  1  0.402225  0.828352  0.706979  1
  O  O56  1  0.659438  0.686878  0.986486  1
  O  O57  1  0.323609  0.738188  0.252212  1
  O  O58  1  0.597775  0.171648  0.293021  1
  O  O59  1  0.659896  0.315496  0.155753  1
  O  O60  1  0.255531  0.559202  0.987093  1
  O  O61  1  0.536876  0.900865  0.323019  1
  O  O62  1  0.706307  0.022657  0.744072  1
  O  O63  1  0.902225  0.671648  0.793021  1
  O  O64  1  0.535526  0.536521  0.169161  1
  O  O65  1  0.049311  0.333674  0.599678  1
  O  O66  1  0.035526  0.963479  0.330839  1
  O  O67  1  0.950689  0.666326  0.400322  1
  O  O68  1  0.823609  0.761812  0.247788  1
  O  O69  1  0.580250  0.648647  0.724805  1
  O  O70  1  0.464474  0.463479  0.830839  1
  O  O71  1  0.039156  0.641642  0.595397  1
