# generated using pymatgen
data_Li4Al3Ge3BrO12
_symmetry_space_group_name_H-M   'P 1'
_cell_length_a   8.77133347
_cell_length_b   8.77133347
_cell_length_c   8.77133347
_cell_angle_alpha   90.00000000
_cell_angle_beta   90.00000000
_cell_angle_gamma   90.00000000
_symmetry_Int_Tables_number   1
_chemical_formula_structural   Li4Al3Ge3BrO12
_chemical_formula_sum   'Li8 Al6 Ge6 Br2 O24'
_cell_volume   674.83386292
_cell_formula_units_Z   2
loop_
 _symmetry_equiv_pos_site_id
 _symmetry_equiv_pos_as_xyz
  1  'x, y, z'
loop_
 _atom_site_type_symbol
 _atom_site_label
 _atom_site_symmetry_multiplicity
 _atom_site_fract_x
 _atom_site_fract_y
 _atom_site_fract_z
 _atom_site_occupancy
  Li  Li0  1  0.819357  0.819357  0.180643  1
  Li  Li1  1  0.680643  0.680643  0.680643  1
  Li  Li2  1  0.819357  0.180643  0.819357  1
  Li  Li3  1  0.680643  0.319357  0.319357  1
  Li  Li4  1  0.180643  0.819357  0.819357  1
  Li  Li5  1  0.319357  0.680643  0.319357  1
  Li  Li6  1  0.319357  0.319357  0.680643  1
  Li  Li7  1  0.180643  0.180643  0.180643  1
  Al  Al8  1  0.000000  0.750000  0.500000  1
  Al  Al9  1  0.250000  0.500000  0.000000  1
  Al  Al10  1  0.500000  0.000000  0.750000  1
  Al  Al11  1  0.500000  0.000000  0.250000  1
  Al  Al12  1  0.000000  0.250000  0.500000  1
  Al  Al13  1  0.750000  0.500000  0.000000  1
  Ge  Ge14  1  0.000000  0.500000  0.250000  1
  Ge  Ge15  1  0.500000  0.750000  0.000000  1
  Ge  Ge16  1  0.500000  0.250000  0.000000  1
  Ge  Ge17  1  0.000000  0.500000  0.750000  1
  Ge  Ge18  1  0.750000  0.000000  0.500000  1
  Ge  Ge19  1  0.250000  0.000000  0.500000  1
  Br  Br20  1  0.000000  0.000000  0.000000  1
  Br  Br21  1  0.500000  0.500000  0.500000  1
  O  O22  1  0.638884  0.360871  0.095185  1
  O  O23  1  0.904815  0.361116  0.360871  1
  O  O24  1  0.639129  0.095185  0.361116  1
  O  O25  1  0.595185  0.860871  0.138884  1
  O  O26  1  0.861116  0.404815  0.860871  1
  O  O27  1  0.095185  0.361116  0.639129  1
  O  O28  1  0.138884  0.404815  0.139129  1
  O  O29  1  0.404815  0.139129  0.138884  1
  O  O30  1  0.138884  0.595185  0.860871  1
  O  O31  1  0.860871  0.861116  0.404815  1
  O  O32  1  0.095185  0.638884  0.360871  1
  O  O33  1  0.861116  0.595185  0.139129  1
  O  O34  1  0.360871  0.904815  0.361116  1
  O  O35  1  0.360871  0.095185  0.638884  1
  O  O36  1  0.638884  0.639129  0.904815  1
  O  O37  1  0.595185  0.139129  0.861116  1
  O  O38  1  0.639129  0.904815  0.638884  1
  O  O39  1  0.139129  0.138884  0.404815  1
  O  O40  1  0.361116  0.639129  0.095185  1
  O  O41  1  0.139129  0.861116  0.595185  1
  O  O42  1  0.404815  0.860871  0.861116  1
  O  O43  1  0.860871  0.138884  0.595185  1
  O  O44  1  0.361116  0.360871  0.904815  1
  O  O45  1  0.904815  0.638884  0.639129  1
