# generated using pymatgen
data_CsS2N(O2F)2
_symmetry_space_group_name_H-M   'P 1'
_cell_length_a   8.11631816
_cell_length_b   8.69918919
_cell_length_c   10.79842905
_cell_angle_alpha   90.00000000
_cell_angle_beta   99.43957109
_cell_angle_gamma   90.00000000
_symmetry_Int_Tables_number   1
_chemical_formula_structural   CsS2N(O2F)2
_chemical_formula_sum   'Cs4 S8 N4 O16 F8'
_cell_volume   752.10333320
_cell_formula_units_Z   4
loop_
 _symmetry_equiv_pos_site_id
 _symmetry_equiv_pos_as_xyz
  1  'x, y, z'
loop_
 _atom_site_type_symbol
 _atom_site_label
 _atom_site_symmetry_multiplicity
 _atom_site_fract_x
 _atom_site_fract_y
 _atom_site_fract_z
 _atom_site_occupancy
  Cs  Cs0  1  0.144692  0.243876  0.911671  1
  Cs  Cs1  1  0.355308  0.743876  0.588329  1
  Cs  Cs2  1  0.855308  0.756124  0.088329  1
  Cs  Cs3  1  0.644692  0.256124  0.411671  1
  S  S4  1  0.181541  0.187545  0.538435  1
  S  S5  1  0.318459  0.687545  0.961565  1
  S  S6  1  0.818459  0.812455  0.461565  1
  S  S7  1  0.681541  0.312455  0.038435  1
  S  S8  1  0.134749  0.397776  0.343516  1
  S  S9  1  0.365251  0.897776  0.156484  1
  S  S10  1  0.865251  0.602224  0.656484  1
  S  S11  1  0.634749  0.102224  0.843516  1
  F  F12  1  0.291734  0.312010  0.630901  1
  F  F13  1  0.208266  0.812010  0.869099  1
  F  F14  1  0.708266  0.687990  0.369099  1
  F  F15  1  0.791734  0.187990  0.130901  1
  F  F16  1  0.168719  0.276473  0.236396  1
  F  F17  1  0.331281  0.776473  0.263604  1
  F  F18  1  0.831281  0.723527  0.763604  1
  F  F19  1  0.668719  0.223527  0.736396  1
  N  N20  1  0.061600  0.292095  0.442322  1
  N  N21  1  0.438400  0.792095  0.057678  1
  N  N22  1  0.938400  0.707905  0.557678  1
  N  N23  1  0.561600  0.207905  0.942322  1
  O  O24  1  0.306143  0.102460  0.485852  1
  O  O25  1  0.193857  0.602460  0.014148  1
  O  O26  1  0.693857  0.897540  0.514148  1
  O  O27  1  0.806143  0.397540  0.985852  1
  O  O28  1  0.083904  0.110884  0.619204  1
  O  O29  1  0.416096  0.610884  0.880796  1
  O  O30  1  0.916096  0.889116  0.380796  1
  O  O31  1  0.583904  0.389116  0.119204  1
  O  O32  1  0.001944  0.493218  0.282447  1
  O  O33  1  0.498056  0.993218  0.217553  1
  O  O34  1  0.998056  0.506782  0.717553  1
  O  O35  1  0.501944  0.006782  0.782447  1
  O  O36  1  0.297357  0.462708  0.386992  1
  O  O37  1  0.202643  0.962708  0.113008  1
  O  O38  1  0.702643  0.537292  0.613008  1
  O  O39  1  0.797357  0.037292  0.886992  1
