# generated using pymatgen
data_Nb3Se10Br3
_symmetry_space_group_name_H-M   'P 1'
_cell_length_a   8.02314036
_cell_length_b   12.91742276
_cell_length_c   19.57805924
_cell_angle_alpha   90.00000000
_cell_angle_beta   90.00000000
_cell_angle_gamma   97.57880505
_symmetry_Int_Tables_number   1
_chemical_formula_structural   Nb3Se10Br3
_chemical_formula_sum   'Nb12 Se40 Br12'
_cell_volume   2011.31183622
_cell_formula_units_Z   4
loop_
 _symmetry_equiv_pos_site_id
 _symmetry_equiv_pos_as_xyz
  1  'x, y, z'
loop_
 _atom_site_type_symbol
 _atom_site_label
 _atom_site_symmetry_multiplicity
 _atom_site_fract_x
 _atom_site_fract_y
 _atom_site_fract_z
 _atom_site_occupancy
  Nb  Nb0  1  0.338049  0.331669  0.851830  1
  Nb  Nb1  1  0.252242  0.250106  0.999888  1
  Nb  Nb2  1  0.747758  0.749894  0.499888  1
  Nb  Nb3  1  0.178129  0.164674  0.147848  1
  Nb  Nb4  1  0.252242  0.250106  0.500112  1
  Nb  Nb5  1  0.178129  0.164674  0.352152  1
  Nb  Nb6  1  0.747758  0.749894  0.000112  1
  Nb  Nb7  1  0.338049  0.331669  0.648170  1
  Nb  Nb8  1  0.661951  0.668331  0.351830  1
  Nb  Nb9  1  0.661951  0.668331  0.148170  1
  Nb  Nb10  1  0.821871  0.835326  0.852152  1
  Nb  Nb11  1  0.821871  0.835326  0.647848  1
  Se  Se12  1  0.048619  0.340508  0.586319  1
  Se  Se13  1  0.284832  0.131546  0.609340  1
  Se  Se14  1  0.891494  0.718624  0.250000  1
  Se  Se15  1  0.018932  0.305647  0.087971  1
  Se  Se16  1  0.108506  0.281376  0.750000  1
  Se  Se17  1  0.032471  0.862822  0.542397  1
  Se  Se18  1  0.857727  0.695914  0.750000  1
  Se  Se19  1  0.951381  0.659492  0.086319  1
  Se  Se20  1  0.951381  0.659492  0.413681  1
  Se  Se21  1  0.763843  0.545102  0.250000  1
  Se  Se22  1  0.548464  0.708591  0.607980  1
  Se  Se23  1  0.284832  0.131546  0.890660  1
  Se  Se24  1  0.278598  0.449034  0.541255  1
  Se  Se25  1  0.943013  0.154436  0.250000  1
  Se  Se26  1  0.583683  0.886620  0.571007  1
  Se  Se27  1  0.981068  0.694353  0.587971  1
  Se  Se28  1  0.536376  0.237467  0.926823  1
  Se  Se29  1  0.715168  0.868454  0.109340  1
  Se  Se30  1  0.463624  0.762533  0.426823  1
  Se  Se31  1  0.416317  0.113380  0.071007  1
  Se  Se32  1  0.721402  0.550966  0.041255  1
  Se  Se33  1  0.451536  0.291409  0.107980  1
  Se  Se34  1  0.056987  0.845564  0.750000  1
  Se  Se35  1  0.416317  0.113380  0.428993  1
  Se  Se36  1  0.142273  0.304086  0.250000  1
  Se  Se37  1  0.536376  0.237467  0.573177  1
  Se  Se38  1  0.981068  0.694353  0.912029  1
  Se  Se39  1  0.018932  0.305647  0.412029  1
  Se  Se40  1  0.583683  0.886620  0.928993  1
  Se  Se41  1  0.967529  0.137178  0.042397  1
  Se  Se42  1  0.278598  0.449034  0.958745  1
  Se  Se43  1  0.463624  0.762533  0.073177  1
  Se  Se44  1  0.548464  0.708591  0.892020  1
  Se  Se45  1  0.236157  0.454898  0.750000  1
  Se  Se46  1  0.967529  0.137178  0.457603  1
  Se  Se47  1  0.715168  0.868454  0.390660  1
  Se  Se48  1  0.032471  0.862822  0.957603  1
  Se  Se49  1  0.451536  0.291409  0.392020  1
  Se  Se50  1  0.721402  0.550966  0.458745  1
  Se  Se51  1  0.048619  0.340508  0.913681  1
  Br  Br52  1  0.612158  0.481563  0.646717  1
  Br  Br53  1  0.387842  0.518437  0.146717  1
  Br  Br54  1  0.380829  0.106566  0.250000  1
  Br  Br55  1  0.090044  0.953318  0.354326  1
  Br  Br56  1  0.387842  0.518437  0.353283  1
  Br  Br57  1  0.525170  0.259471  0.750000  1
  Br  Br58  1  0.909956  0.046682  0.645674  1
  Br  Br59  1  0.474830  0.740529  0.250000  1
  Br  Br60  1  0.619171  0.893434  0.750000  1
  Br  Br61  1  0.909956  0.046682  0.854326  1
  Br  Br62  1  0.612158  0.481563  0.853283  1
  Br  Br63  1  0.090044  0.953318  0.145674  1
