# generated using pymatgen
data_Er2Ni12P7
_symmetry_space_group_name_H-M   'P 1'
_cell_length_a   9.02165107
_cell_length_b   9.02165143
_cell_length_c   3.66604380
_cell_angle_alpha   90.00000000
_cell_angle_beta   90.00000000
_cell_angle_gamma   119.99999866
_symmetry_Int_Tables_number   1
_chemical_formula_structural   Er2Ni12P7
_chemical_formula_sum   'Er2 Ni12 P7'
_cell_volume   258.40466883
_cell_formula_units_Z   1
loop_
 _symmetry_equiv_pos_site_id
 _symmetry_equiv_pos_as_xyz
  1  'x, y, z'
loop_
 _atom_site_type_symbol
 _atom_site_label
 _atom_site_symmetry_multiplicity
 _atom_site_fract_x
 _atom_site_fract_y
 _atom_site_fract_z
 _atom_site_occupancy
  Er  Er0  1  0.333333  0.666667  0.000000  1
  Er  Er1  1  0.666667  0.333333  0.500000  1
  Ni  Ni2  1  0.434450  0.060849  0.000000  1
  Ni  Ni3  1  0.626399  0.565550  0.000000  1
  Ni  Ni4  1  0.939151  0.373601  0.000000  1
  Ni  Ni5  1  0.152747  0.274781  0.000000  1
  Ni  Ni6  1  0.122034  0.847253  0.000000  1
  Ni  Ni7  1  0.725219  0.877966  0.000000  1
  Ni  Ni8  1  0.382198  0.431403  0.500000  1
  Ni  Ni9  1  0.049205  0.617802  0.500000  1
  Ni  Ni10  1  0.568597  0.950795  0.500000  1
  Ni  Ni11  1  0.217055  0.094138  0.500000  1
  Ni  Ni12  1  0.877083  0.782945  0.500000  1
  Ni  Ni13  1  0.905862  0.122917  0.500000  1
  P  P14  1  0.407906  0.293807  0.000000  1
  P  P15  1  0.885901  0.592094  0.000000  1
  P  P16  1  0.706193  0.114099  0.000000  1
  P  P17  1  0.111998  0.406087  0.500000  1
  P  P18  1  0.294089  0.888002  0.500000  1
  P  P19  1  0.593913  0.705911  0.500000  1
  P  P20  1  0.000000  0.000000  0.000000  1
