# generated using pymatgen
data_K3FeO3
_symmetry_space_group_name_H-M   'P 1'
_cell_length_a   6.60398726
_cell_length_b   6.72076468
_cell_length_c   6.72076468
_cell_angle_alpha   114.95795131
_cell_angle_beta   96.06946480
_cell_angle_gamma   96.06946497
_symmetry_Int_Tables_number   1
_chemical_formula_structural   K3FeO3
_chemical_formula_sum   'K6 Fe2 O6'
_cell_volume   265.15606678
_cell_formula_units_Z   2
loop_
 _symmetry_equiv_pos_site_id
 _symmetry_equiv_pos_as_xyz
  1  'x, y, z'
loop_
 _atom_site_type_symbol
 _atom_site_label
 _atom_site_symmetry_multiplicity
 _atom_site_fract_x
 _atom_site_fract_y
 _atom_site_fract_z
 _atom_site_occupancy
  O  O0  1  0.735190  0.840685  0.567948  1
  O  O1  1  0.160931  0.901563  0.901563  1
  O  O2  1  0.839069  0.098437  0.098437  1
  O  O3  1  0.264810  0.159315  0.432052  1
  O  O4  1  0.264810  0.432052  0.159315  1
  O  O5  1  0.735190  0.567948  0.840685  1
  K  K6  1  0.352077  0.626919  0.626919  1
  K  K7  1  0.000000  0.742388  0.257612  1
  K  K8  1  0.500000  0.807765  0.192235  1
  K  K9  1  0.000000  0.257612  0.742388  1
  K  K10  1  0.647923  0.373081  0.373081  1
  K  K11  1  0.500000  0.192235  0.807765  1
  Fe  Fe12  1  0.854518  0.828271  0.828271  1
  Fe  Fe13  1  0.145482  0.171729  0.171729  1
