# generated using pymatgen
data_Rb3Cr(HO)6
_symmetry_space_group_name_H-M   'P 1'
_cell_length_a   8.09691492
_cell_length_b   8.09691372
_cell_length_c   8.09691379
_cell_angle_alpha   85.70633455
_cell_angle_beta   85.70633487
_cell_angle_gamma   85.70633725
_symmetry_Int_Tables_number   1
_chemical_formula_structural   Rb3Cr(HO)6
_chemical_formula_sum   'Rb6 Cr2 H12 O12'
_cell_volume   526.57632430
_cell_formula_units_Z   2
loop_
 _symmetry_equiv_pos_site_id
 _symmetry_equiv_pos_as_xyz
  1  'x, y, z'
loop_
 _atom_site_type_symbol
 _atom_site_label
 _atom_site_symmetry_multiplicity
 _atom_site_fract_x
 _atom_site_fract_y
 _atom_site_fract_z
 _atom_site_occupancy
  Cr  Cr0  1  0.000000  0.000000  0.000000  1
  Cr  Cr1  1  0.500000  0.500000  0.500000  1
  Rb  Rb2  1  0.640307  0.859693  0.250000  1
  Rb  Rb3  1  0.250000  0.640307  0.859693  1
  Rb  Rb4  1  0.859693  0.250000  0.640307  1
  Rb  Rb5  1  0.359693  0.140307  0.750000  1
  Rb  Rb6  1  0.750000  0.359693  0.140307  1
  Rb  Rb7  1  0.140307  0.750000  0.359693  1
  O  O8  1  0.454098  0.553879  0.285115  1
  O  O9  1  0.285115  0.454098  0.553879  1
  O  O10  1  0.553879  0.285115  0.454098  1
  O  O11  1  0.946121  0.045902  0.214885  1
  O  O12  1  0.214885  0.946121  0.045902  1
  O  O13  1  0.045902  0.214885  0.946121  1
  O  O14  1  0.545902  0.446121  0.714885  1
  O  O15  1  0.714885  0.545902  0.446121  1
  O  O16  1  0.446121  0.714885  0.545902  1
  O  O17  1  0.053879  0.954098  0.785115  1
  O  O18  1  0.785115  0.053879  0.954098  1
  O  O19  1  0.954098  0.785115  0.053879  1
  H  H20  1  0.279384  0.404725  0.141059  1
  H  H21  1  0.141059  0.279384  0.404725  1
  H  H22  1  0.404725  0.141059  0.279384  1
  H  H23  1  0.095275  0.220616  0.358941  1
  H  H24  1  0.358941  0.095275  0.220616  1
  H  H25  1  0.220616  0.358941  0.095275  1
  H  H26  1  0.720616  0.595275  0.858941  1
  H  H27  1  0.858941  0.720616  0.595275  1
  H  H28  1  0.595275  0.858941  0.720616  1
  H  H29  1  0.904725  0.779384  0.641059  1
  H  H30  1  0.641059  0.904725  0.779384  1
  H  H31  1  0.779384  0.641059  0.904725  1
