# generated using pymatgen
data_Te4As2S(OF6)2
_symmetry_space_group_name_H-M   'P 1'
_cell_length_a   9.18763934
_cell_length_b   10.11248926
_cell_length_c   18.82809693
_cell_angle_alpha   90.00000000
_cell_angle_beta   90.00000000
_cell_angle_gamma   90.00000000
_symmetry_Int_Tables_number   1
_chemical_formula_structural   Te4As2S(OF6)2
_chemical_formula_sum   'Te16 As8 S4 O8 F48'
_cell_volume   1749.31668110
_cell_formula_units_Z   4
loop_
 _symmetry_equiv_pos_site_id
 _symmetry_equiv_pos_as_xyz
  1  'x, y, z'
loop_
 _atom_site_type_symbol
 _atom_site_label
 _atom_site_symmetry_multiplicity
 _atom_site_fract_x
 _atom_site_fract_y
 _atom_site_fract_z
 _atom_site_occupancy
  Te  Te0  1  0.678868  0.884484  0.789141  1
  Te  Te1  1  0.685854  0.616713  0.932984  1
  Te  Te2  1  0.178868  0.884484  0.710859  1
  Te  Te3  1  0.178868  0.615516  0.710859  1
  Te  Te4  1  0.314146  0.116713  0.067016  1
  Te  Te5  1  0.185854  0.616713  0.567016  1
  Te  Te6  1  0.685854  0.883287  0.932984  1
  Te  Te7  1  0.321132  0.115516  0.210859  1
  Te  Te8  1  0.678868  0.615516  0.789141  1
  Te  Te9  1  0.814146  0.116713  0.432984  1
  Te  Te10  1  0.321132  0.384484  0.210859  1
  Te  Te11  1  0.185854  0.883287  0.567016  1
  Te  Te12  1  0.314146  0.383287  0.067016  1
  Te  Te13  1  0.821132  0.384484  0.289141  1
  Te  Te14  1  0.814146  0.383287  0.432984  1
  Te  Te15  1  0.821132  0.115516  0.289141  1
  As  As16  1  0.175976  0.750000  0.918895  1
  As  As17  1  0.608032  0.750000  0.144875  1
  As  As18  1  0.108032  0.750000  0.355125  1
  As  As19  1  0.675976  0.750000  0.581105  1
  As  As20  1  0.391968  0.250000  0.855125  1
  As  As21  1  0.824024  0.250000  0.081105  1
  As  As22  1  0.324024  0.250000  0.418895  1
  As  As23  1  0.891968  0.250000  0.644875  1
  S  S24  1  0.930472  0.250000  0.862513  1
  S  S25  1  0.569528  0.750000  0.362513  1
  S  S26  1  0.430472  0.250000  0.637487  1
  S  S27  1  0.069528  0.750000  0.137487  1
  O  O28  1  0.151548  0.872575  0.139856  1
  O  O29  1  0.348452  0.127425  0.639856  1
  O  O30  1  0.848452  0.127425  0.860144  1
  O  O31  1  0.651548  0.872575  0.360144  1
  O  O32  1  0.348452  0.372575  0.639856  1
  O  O33  1  0.848452  0.372575  0.860144  1
  O  O34  1  0.151548  0.627425  0.139856  1
  O  O35  1  0.651548  0.627425  0.360144  1
  F  F36  1  0.959769  0.250000  0.013902  1
  F  F37  1  0.078172  0.873174  0.871098  1
  F  F38  1  0.493950  0.373964  0.900131  1
  F  F39  1  0.288079  0.125901  0.812768  1
  F  F40  1  0.274466  0.874056  0.964491  1
  F  F41  1  0.921828  0.126826  0.128902  1
  F  F42  1  0.225534  0.374056  0.464491  1
  F  F43  1  0.725534  0.125944  0.035509  1
  F  F44  1  0.921828  0.373174  0.128902  1
  F  F45  1  0.288079  0.374099  0.812768  1
  F  F46  1  0.578172  0.873174  0.628902  1
  F  F47  1  0.459769  0.250000  0.486098  1
  F  F48  1  0.006050  0.626036  0.400131  1
  F  F49  1  0.788079  0.125901  0.687232  1
  F  F50  1  0.765424  0.250000  0.571555  1
  F  F51  1  0.019242  0.250000  0.715597  1
  F  F52  1  0.234576  0.750000  0.428445  1
  F  F53  1  0.689628  0.250000  0.150241  1
  F  F54  1  0.310372  0.750000  0.849759  1
  F  F55  1  0.540231  0.750000  0.513902  1
  F  F56  1  0.711921  0.625901  0.187232  1
  F  F57  1  0.506050  0.626036  0.099869  1
  F  F58  1  0.189628  0.250000  0.349759  1
  F  F59  1  0.040231  0.750000  0.986098  1
  F  F60  1  0.211921  0.874099  0.312768  1
  F  F61  1  0.421828  0.373174  0.371098  1
  F  F62  1  0.506050  0.873964  0.099869  1
  F  F63  1  0.993950  0.373964  0.599869  1
  F  F64  1  0.519242  0.250000  0.784403  1
  F  F65  1  0.734576  0.750000  0.071555  1
  F  F66  1  0.774466  0.874056  0.535509  1
  F  F67  1  0.980758  0.750000  0.284403  1
  F  F68  1  0.774466  0.625944  0.535509  1
  F  F69  1  0.493950  0.126036  0.900131  1
  F  F70  1  0.480758  0.750000  0.215597  1
  F  F71  1  0.993950  0.126036  0.599869  1
  F  F72  1  0.006050  0.873964  0.400131  1
  F  F73  1  0.078172  0.626826  0.871098  1
  F  F74  1  0.578172  0.626826  0.628902  1
  F  F75  1  0.711921  0.874099  0.187232  1
  F  F76  1  0.788079  0.374099  0.687232  1
  F  F77  1  0.225534  0.125944  0.464491  1
  F  F78  1  0.265424  0.250000  0.928445  1
  F  F79  1  0.725534  0.374056  0.035509  1
  F  F80  1  0.211921  0.625901  0.312768  1
  F  F81  1  0.421828  0.126826  0.371098  1
  F  F82  1  0.810372  0.750000  0.650241  1
  F  F83  1  0.274466  0.625944  0.964491  1
