# generated using pymatgen
data_Ca4Al6WO16
_symmetry_space_group_name_H-M   'P 1'
_cell_length_a   7.47473728
_cell_length_b   7.47473778
_cell_length_c   11.74055547
_cell_angle_alpha   90.00000000
_cell_angle_beta   90.00000000
_cell_angle_gamma   91.08706676
_symmetry_Int_Tables_number   1
_chemical_formula_structural   Ca4Al6WO16
_chemical_formula_sum   'Ca8 Al12 W2 O32'
_cell_volume   655.84674612
_cell_formula_units_Z   2
loop_
 _symmetry_equiv_pos_site_id
 _symmetry_equiv_pos_as_xyz
  1  'x, y, z'
loop_
 _atom_site_type_symbol
 _atom_site_label
 _atom_site_symmetry_multiplicity
 _atom_site_fract_x
 _atom_site_fract_y
 _atom_site_fract_z
 _atom_site_occupancy
  Ca  Ca0  1  0.393634  0.893634  0.056498  1
  Ca  Ca1  1  0.867642  0.749471  0.249989  1
  Ca  Ca2  1  0.367642  0.249471  0.750011  1
  Ca  Ca3  1  0.893634  0.393634  0.943502  1
  Ca  Ca4  1  0.249471  0.367642  0.249989  1
  Ca  Ca5  1  0.393585  0.893585  0.443451  1
  Ca  Ca6  1  0.893585  0.393585  0.556549  1
  Ca  Ca7  1  0.749471  0.867642  0.750011  1
  Al  Al8  1  0.604514  0.454700  0.099533  1
  Al  Al9  1  0.454700  0.604514  0.900467  1
  Al  Al10  1  0.104514  0.954700  0.900467  1
  Al  Al11  1  0.809543  0.809543  0.000000  1
  Al  Al12  1  0.104550  0.954732  0.599524  1
  Al  Al13  1  0.809548  0.809548  0.500000  1
  Al  Al14  1  0.604550  0.454732  0.400476  1
  Al  Al15  1  0.309543  0.309543  0.000000  1
  Al  Al16  1  0.954700  0.104514  0.099533  1
  Al  Al17  1  0.954732  0.104550  0.400476  1
  Al  Al18  1  0.454732  0.604550  0.599524  1
  Al  Al19  1  0.309548  0.309548  0.500000  1
  W  W20  1  0.634715  0.134715  0.249998  1
  W  W21  1  0.134715  0.634715  0.750002  1
  O  O22  1  0.927123  0.675023  0.640541  1
  O  O23  1  0.791835  0.603867  0.421000  1
  O  O24  1  0.603867  0.791835  0.579000  1
  O  O25  1  0.261613  0.761613  0.623703  1
  O  O26  1  0.675023  0.927123  0.359459  1
  O  O27  1  0.261676  0.761676  0.876241  1
  O  O28  1  0.879530  0.052343  0.937510  1
  O  O29  1  0.379530  0.552343  0.062490  1
  O  O30  1  0.927200  0.675120  0.859533  1
  O  O31  1  0.291835  0.103867  0.579000  1
  O  O32  1  0.175023  0.427123  0.640541  1
  O  O33  1  0.427123  0.175023  0.359459  1
  O  O34  1  0.552331  0.379528  0.562483  1
  O  O35  1  0.175120  0.427200  0.859533  1
  O  O36  1  0.761676  0.261676  0.123759  1
  O  O37  1  0.675120  0.927200  0.140467  1
  O  O38  1  0.562894  0.446612  0.250014  1
  O  O39  1  0.062894  0.946612  0.749986  1
  O  O40  1  0.552343  0.379530  0.937510  1
  O  O41  1  0.603871  0.791797  0.920983  1
  O  O42  1  0.052331  0.879528  0.437517  1
  O  O43  1  0.379528  0.552331  0.437517  1
  O  O44  1  0.427200  0.175120  0.140467  1
  O  O45  1  0.291797  0.103871  0.920983  1
  O  O46  1  0.446612  0.562894  0.749986  1
  O  O47  1  0.103871  0.291797  0.079017  1
  O  O48  1  0.946612  0.062894  0.250014  1
  O  O49  1  0.879528  0.052331  0.562483  1
  O  O50  1  0.052343  0.879530  0.062490  1
  O  O51  1  0.103867  0.291835  0.421000  1
  O  O52  1  0.761613  0.261613  0.376297  1
  O  O53  1  0.791797  0.603871  0.079017  1
