# generated using pymatgen
data_Al5Mo
_symmetry_space_group_name_H-M   'P 1'
_cell_length_a   4.94101585
_cell_length_b   4.94101557
_cell_length_c   43.98126612
_cell_angle_alpha   90.00000000
_cell_angle_beta   90.00000000
_cell_angle_gamma   120.00000187
_symmetry_Int_Tables_number   1
_chemical_formula_structural   Al5Mo
_chemical_formula_sum   'Al50 Mo10'
_cell_volume   929.88837986
_cell_formula_units_Z   10
loop_
 _symmetry_equiv_pos_site_id
 _symmetry_equiv_pos_as_xyz
  1  'x, y, z'
loop_
 _atom_site_type_symbol
 _atom_site_label
 _atom_site_symmetry_multiplicity
 _atom_site_fract_x
 _atom_site_fract_y
 _atom_site_fract_z
 _atom_site_occupancy
  Al  Al0  1  0.333220  0.325011  0.550009  1
  Al  Al1  1  0.989819  0.667646  0.949853  1
  Al  Al2  1  0.000000  0.000000  0.100238  1
  Al  Al3  1  0.991791  0.666780  0.550009  1
  Al  Al4  1  0.998028  0.341980  0.049879  1
  Al  Al5  1  0.333333  0.666667  0.901638  1
  Al  Al6  1  0.666708  0.677745  0.849995  1
  Al  Al7  1  0.011036  0.333292  0.849995  1
  Al  Al8  1  0.666695  0.990974  0.350013  1
  Al  Al9  1  0.009026  0.675720  0.350013  1
  Al  Al10  1  0.666667  0.333333  0.398503  1
  Al  Al11  1  0.666667  0.333333  0.898378  1
  Al  Al12  1  0.333333  0.666667  0.698249  1
  Al  Al13  1  0.000000  0.000000  0.298205  1
  Al  Al14  1  0.989484  0.324759  0.650122  1
  Al  Al15  1  0.000000  0.000000  0.199861  1
  Al  Al16  1  0.658284  0.999898  0.149983  1
  Al  Al17  1  0.658020  0.656048  0.049879  1
  Al  Al18  1  0.000000  0.000000  0.798349  1
  Al  Al19  1  0.332101  0.008824  0.449892  1
  Al  Al20  1  0.001221  0.343402  0.250110  1
  Al  Al21  1  0.322255  0.988964  0.849995  1
  Al  Al22  1  0.001005  0.656415  0.750145  1
  Al  Al23  1  0.677827  0.010181  0.949853  1
  Al  Al24  1  0.666667  0.333333  0.100086  1
  Al  Al25  1  0.343952  0.001972  0.049879  1
  Al  Al26  1  0.341614  0.341716  0.149983  1
  Al  Al27  1  0.674989  0.008209  0.550009  1
  Al  Al28  1  0.333333  0.666667  0.401799  1
  Al  Al29  1  0.666667  0.333333  0.599925  1
  Al  Al30  1  0.000000  0.000000  0.001758  1
  Al  Al31  1  0.342180  0.998779  0.250110  1
  Al  Al32  1  0.000102  0.658386  0.149983  1
  Al  Al33  1  0.343585  0.344590  0.750145  1
  Al  Al34  1  0.332354  0.322173  0.949853  1
  Al  Al35  1  0.333333  0.666667  0.199875  1
  Al  Al36  1  0.324280  0.333305  0.350013  1
  Al  Al37  1  0.655410  0.998995  0.750145  1
  Al  Al38  1  0.991176  0.323277  0.449892  1
  Al  Al39  1  0.666667  0.333333  0.301517  1
  Al  Al40  1  0.676723  0.667899  0.449892  1
  Al  Al41  1  0.333333  0.666667  0.599753  1
  Al  Al42  1  0.333333  0.666667  0.998547  1
  Al  Al43  1  0.656598  0.657820  0.250110  1
  Al  Al44  1  0.000000  0.000000  0.500110  1
  Al  Al45  1  0.000000  0.000000  0.701461  1
  Al  Al46  1  0.335275  0.010516  0.650122  1
  Al  Al47  1  0.666667  0.333333  0.801616  1
  Al  Al48  1  0.675241  0.664725  0.650122  1
  Al  Al49  1  0.333333  0.666667  0.500119  1
  Mo  Mo50  1  0.333333  0.666667  0.099224  1
  Mo  Mo51  1  0.333333  0.666667  0.800249  1
  Mo  Mo52  1  0.666667  0.333333  0.700992  1
  Mo  Mo53  1  0.000000  0.000000  0.399298  1
  Mo  Mo54  1  0.666667  0.333333  0.499353  1
  Mo  Mo55  1  0.000000  0.000000  0.899749  1
  Mo  Mo56  1  0.000000  0.000000  0.600788  1
  Mo  Mo57  1  0.666667  0.333333  0.200641  1
  Mo  Mo58  1  0.666667  0.333333  0.999010  1
  Mo  Mo59  1  0.333333  0.666667  0.300706  1
