# generated using pymatgen
data_Sr6(RhO3)5
_symmetry_space_group_name_H-M   'P 1'
_cell_length_a   12.11729618
_cell_length_b   12.11729628
_cell_length_c   12.11729606
_cell_angle_alpha   107.30858578
_cell_angle_beta   107.30858590
_cell_angle_gamma   107.30858243
_symmetry_Int_Tables_number   1
_chemical_formula_structural   Sr6(RhO3)5
_chemical_formula_sum   'Sr24 Rh20 O60'
_cell_volume   1469.05760421
_cell_formula_units_Z   4
loop_
 _symmetry_equiv_pos_site_id
 _symmetry_equiv_pos_as_xyz
  1  'x, y, z'
loop_
 _atom_site_type_symbol
 _atom_site_label
 _atom_site_symmetry_multiplicity
 _atom_site_fract_x
 _atom_site_fract_y
 _atom_site_fract_z
 _atom_site_occupancy
  Sr  Sr0  1  0.657408  1.000000  0.342592  1
  Sr  Sr1  1  1.002584  0.676310  0.823753  1
  Sr  Sr2  1  0.158180  1.000000  0.841820  1
  Sr  Sr3  1  0.676310  0.823753  1.002584  1
  Sr  Sr4  1  0.500000  0.176262  0.823738  1
  Sr  Sr5  1  0.835115  0.658503  0.498557  1
  Sr  Sr6  1  0.164885  0.501443  0.341497  1
  Sr  Sr7  1  0.000000  0.841820  0.158180  1
  Sr  Sr8  1  0.341497  0.164885  0.501443  1
  Sr  Sr9  1  0.176262  0.823738  0.500000  1
  Sr  Sr10  1  0.323158  0.500000  0.676842  1
  Sr  Sr11  1  -0.002584  0.176247  0.323690  1
  Sr  Sr12  1  0.176247  0.323690  -0.002584  1
  Sr  Sr13  1  0.342592  0.657408  1.000000  1
  Sr  Sr14  1  0.823738  0.500000  0.176262  1
  Sr  Sr15  1  0.498557  0.835115  0.658503  1
  Sr  Sr16  1  0.323690  -0.002584  0.176247  1
  Sr  Sr17  1  0.501443  0.341497  0.164885  1
  Sr  Sr18  1  0.658503  0.498557  0.835115  1
  Sr  Sr19  1  0.841820  0.158180  1.000000  1
  Sr  Sr20  1  0.000000  0.342592  0.657408  1
  Sr  Sr21  1  0.676842  0.323158  0.500000  1
  Sr  Sr22  1  0.823753  1.002584  0.676310  1
  Sr  Sr23  1  0.500000  0.676842  0.323158  1
  Rh  Rh24  1  0.403926  0.402164  0.904139  1
  Rh  Rh25  1  0.596074  0.095861  0.597836  1
  Rh  Rh26  1  0.292539  0.292539  0.292539  1
  Rh  Rh27  1  0.206676  0.705829  0.206822  1
  Rh  Rh28  1  0.999790  0.000210  0.500000  1
  Rh  Rh29  1  0.402164  0.904139  0.403926  1
  Rh  Rh30  1  0.705829  0.206822  0.206676  1
  Rh  Rh31  1  0.793324  0.793178  0.294171  1
  Rh  Rh32  1  0.206822  0.206676  0.705829  1
  Rh  Rh33  1  0.793178  0.294171  0.793324  1
  Rh  Rh34  1  0.904139  0.403926  0.402164  1
  Rh  Rh35  1  0.707461  0.707461  0.707461  1
  Rh  Rh36  1  0.500000  0.999790  0.000210  1
  Rh  Rh37  1  0.000210  0.500000  0.999790  1
  Rh  Rh38  1  0.096382  0.096382  0.096382  1
  Rh  Rh39  1  0.095861  0.597836  0.596074  1
  Rh  Rh40  1  0.903618  0.903618  0.903618  1
  Rh  Rh41  1  0.500000  0.500000  0.500000  1
  Rh  Rh42  1  0.597836  0.596074  0.095861  1
  Rh  Rh43  1  0.294171  0.793324  0.793178  1
  O  O44  1  0.920889  0.456258  0.808170  1
  O  O45  1  0.615737  0.779773  0.183018  1
  O  O46  1  0.386910  0.317786  0.723301  1
  O  O47  1  0.919825  0.955123  0.307834  1
  O  O48  1  0.107229  0.271912  0.196940  1
  O  O49  1  0.044877  0.080175  0.692166  1
  O  O50  1  0.499256  0.085514  0.419630  1
  O  O51  1  0.781413  0.683970  0.118053  1
  O  O52  1  0.456258  0.808170  0.920889  1
  O  O53  1  0.577969  0.192299  0.045045  1
  O  O54  1  0.218587  0.881947  0.316030  1
  O  O55  1  0.118053  0.781413  0.683970  1
  O  O56  1  0.220227  0.384263  0.816982  1
  O  O57  1  0.317786  0.723301  0.386910  1
  O  O58  1  0.669490  0.520272  0.631200  1
  O  O59  1  0.955123  0.307834  0.919825  1
  O  O60  1  0.384263  0.816982  0.220227  1
  O  O61  1  0.543742  0.079111  0.191830  1
  O  O62  1  0.307834  0.919825  0.955123  1
  O  O63  1  0.917459  1.000000  0.082541  1
  O  O64  1  0.914486  0.500744  0.580370  1
  O  O65  1  0.000000  0.082541  0.917459  1
  O  O66  1  0.085514  0.419630  0.499256  1
  O  O67  1  0.479728  0.330510  0.368800  1
  O  O68  1  0.183018  0.615737  0.779773  1
  O  O69  1  0.191830  0.543742  0.079111  1
  O  O70  1  0.082541  0.917459  1.000000  1
  O  O71  1  0.271912  0.196940  0.107229  1
  O  O72  1  0.500744  0.580370  0.914486  1
  O  O73  1  0.316030  0.218587  0.881947  1
  O  O74  1  0.582718  0.417282  0.000000  1
  O  O75  1  0.807701  0.422031  0.954955  1
  O  O76  1  0.196940  0.107229  0.271912  1
  O  O77  1  0.045045  0.577969  0.192299  1
  O  O78  1  0.683970  0.118053  0.781413  1
  O  O79  1  0.079111  0.191830  0.543742  1
  O  O80  1  0.080175  0.692166  0.044877  1
  O  O81  1  1.000000  0.582718  0.417282  1
  O  O82  1  0.692166  0.044877  0.080175  1
  O  O83  1  0.803060  0.728088  0.892771  1
  O  O84  1  0.881947  0.316030  0.218587  1
  O  O85  1  0.330510  0.368800  0.479728  1
  O  O86  1  0.892771  0.803060  0.728088  1
  O  O87  1  0.682214  0.613090  0.276699  1
  O  O88  1  0.520272  0.631200  0.669490  1
  O  O89  1  0.808170  0.920889  0.456258  1
  O  O90  1  0.613090  0.276699  0.682214  1
  O  O91  1  0.419630  0.499256  0.085514  1
  O  O92  1  0.368800  0.479728  0.330510  1
  O  O93  1  0.276699  0.682214  0.613090  1
  O  O94  1  0.728088  0.892771  0.803060  1
  O  O95  1  0.580370  0.914486  0.500744  1
  O  O96  1  0.631200  0.669490  0.520272  1
  O  O97  1  0.417282  0.000000  0.582718  1
  O  O98  1  0.723301  0.386910  0.317786  1
  O  O99  1  0.422031  0.954955  0.807701  1
  O  O100  1  0.192299  0.045045  0.577969  1
  O  O101  1  0.779773  0.183018  0.615737  1
  O  O102  1  0.816982  0.220227  0.384263  1
  O  O103  1  0.954955  0.807701  0.422031  1
