# generated using pymatgen
data_BaTa2O6
_symmetry_space_group_name_H-M   'P 1'
_cell_length_a   21.43814386
_cell_length_b   21.43814382
_cell_length_c   3.97948051
_cell_angle_alpha   90.00000000
_cell_angle_beta   90.00000000
_cell_angle_gamma   120.00000006
_symmetry_Int_Tables_number   1
_chemical_formula_structural   BaTa2O6
_chemical_formula_sum   'Ba12 Ta24 O72'
_cell_volume   1583.91318694
_cell_formula_units_Z   12
loop_
 _symmetry_equiv_pos_site_id
 _symmetry_equiv_pos_as_xyz
  1  'x, y, z'
loop_
 _atom_site_type_symbol
 _atom_site_label
 _atom_site_symmetry_multiplicity
 _atom_site_fract_x
 _atom_site_fract_y
 _atom_site_fract_z
 _atom_site_occupancy
  Ba  Ba0  1  0.817806  0.635612  0.000000  1
  Ba  Ba1  1  0.333333  0.666667  0.000000  1
  Ba  Ba2  1  0.500000  0.500000  0.000000  1
  Ba  Ba3  1  0.666667  0.333333  0.000000  1
  Ba  Ba4  1  0.817806  0.182194  0.000000  1
  Ba  Ba5  1  0.182194  0.364388  0.000000  1
  Ba  Ba6  1  0.500000  0.000000  0.000000  1
  Ba  Ba7  1  0.635612  0.817806  0.000000  1
  Ba  Ba8  1  0.000000  0.000000  0.500000  1
  Ba  Ba9  1  0.182194  0.817806  0.000000  1
  Ba  Ba10  1  0.000000  0.500000  0.000000  1
  Ba  Ba11  1  0.364388  0.182194  0.000000  1
  Ta  Ta12  1  0.163760  0.507254  0.500000  1
  Ta  Ta13  1  0.308225  0.000000  0.500000  1
  Ta  Ta14  1  0.000000  0.308225  0.500000  1
  Ta  Ta15  1  0.691775  0.691775  0.500000  1
  Ta  Ta16  1  0.203491  0.101745  0.500000  1
  Ta  Ta17  1  0.836240  0.492746  0.500000  1
  Ta  Ta18  1  0.691775  0.000000  0.500000  1
  Ta  Ta19  1  0.163760  0.656507  0.500000  1
  Ta  Ta20  1  0.796509  0.898255  0.500000  1
  Ta  Ta21  1  0.898255  0.101745  0.500000  1
  Ta  Ta22  1  1.000000  0.691775  0.500000  1
  Ta  Ta23  1  0.507254  0.343493  0.500000  1
  Ta  Ta24  1  0.656507  0.492746  0.500000  1
  Ta  Ta25  1  0.656507  0.163760  0.500000  1
  Ta  Ta26  1  0.343493  0.836240  0.500000  1
  Ta  Ta27  1  0.343493  0.507254  0.500000  1
  Ta  Ta28  1  0.492746  0.656507  0.500000  1
  Ta  Ta29  1  0.492746  0.836240  0.500000  1
  Ta  Ta30  1  0.101745  0.203491  0.500000  1
  Ta  Ta31  1  0.836240  0.343493  0.500000  1
  Ta  Ta32  1  0.898255  0.796509  0.500000  1
  Ta  Ta33  1  0.308225  0.308225  0.500000  1
  Ta  Ta34  1  0.101745  0.898255  0.500000  1
  Ta  Ta35  1  0.507254  0.163760  0.500000  1
  O  O36  1  0.493170  0.661753  0.000000  1
  O  O37  1  0.831417  0.493170  0.000000  1
  O  O38  1  0.105223  0.894777  0.000000  1
  O  O39  1  0.205805  0.283875  0.500000  1
  O  O40  1  0.894777  0.789553  0.000000  1
  O  O41  1  0.078070  0.794195  0.500000  1
  O  O42  1  0.237477  0.762523  0.500000  1
  O  O43  1  0.920846  0.587265  0.500000  1
  O  O44  1  1.000000  0.873731  0.500000  1
  O  O45  1  0.105223  0.210447  0.000000  1
  O  O46  1  1.000000  0.310851  0.000000  1
  O  O47  1  0.237477  0.474954  0.500000  1
  O  O48  1  0.383697  0.616303  0.500000  1
  O  O49  1  0.078070  0.283875  0.500000  1
  O  O50  1  0.412735  0.079154  0.500000  1
  O  O51  1  0.333581  0.412735  0.500000  1
  O  O52  1  0.666419  0.587265  0.500000  1
  O  O53  1  0.831417  0.338247  0.000000  1
  O  O54  1  0.587265  0.666419  0.500000  1
  O  O55  1  0.762523  0.237477  0.500000  1
  O  O56  1  0.794195  0.716125  0.500000  1
  O  O57  1  0.095059  0.547530  0.500000  1
  O  O58  1  0.716125  0.794195  0.500000  1
  O  O59  1  0.333581  0.920846  0.500000  1
  O  O60  1  0.310851  0.310851  0.000000  1
  O  O61  1  0.493170  0.831417  0.000000  1
  O  O62  1  0.452470  0.547530  0.500000  1
  O  O63  1  0.894777  0.105223  0.000000  1
  O  O64  1  0.920846  0.333581  0.500000  1
  O  O65  1  0.794195  0.078070  0.500000  1
  O  O66  1  0.716125  0.921930  0.500000  1
  O  O67  1  0.079154  0.412735  0.500000  1
  O  O68  1  0.338247  0.506830  0.000000  1
  O  O69  1  0.412735  0.333581  0.500000  1
  O  O70  1  0.000000  0.126269  0.500000  1
  O  O71  1  0.168583  0.661753  0.000000  1
  O  O72  1  0.547530  0.452470  0.500000  1
  O  O73  1  0.383697  0.767395  0.500000  1
  O  O74  1  0.873731  0.000000  0.500000  1
  O  O75  1  0.168583  0.506830  0.000000  1
  O  O76  1  0.689149  0.689149  0.000000  1
  O  O77  1  0.283875  0.205805  0.500000  1
  O  O78  1  0.232605  0.616303  0.500000  1
  O  O79  1  0.283875  0.078070  0.500000  1
  O  O80  1  0.689149  0.000000  0.000000  1
  O  O81  1  0.767395  0.383697  0.500000  1
  O  O82  1  0.474954  0.237477  0.500000  1
  O  O83  1  0.452470  0.904941  0.500000  1
  O  O84  1  0.666419  0.079154  0.500000  1
  O  O85  1  0.587265  0.920846  0.500000  1
  O  O86  1  0.904941  0.452470  0.500000  1
  O  O87  1  0.873731  0.873731  0.500000  1
  O  O88  1  0.506830  0.338247  0.000000  1
  O  O89  1  0.762523  0.525046  0.500000  1
  O  O90  1  0.661753  0.168583  0.000000  1
  O  O91  1  0.126269  0.126269  0.500000  1
  O  O92  1  0.921930  0.716125  0.500000  1
  O  O93  1  0.616303  0.383697  0.500000  1
  O  O94  1  0.921930  0.205805  0.500000  1
  O  O95  1  0.000000  0.689149  0.000000  1
  O  O96  1  0.616303  0.232605  0.500000  1
  O  O97  1  0.789553  0.894777  0.000000  1
  O  O98  1  0.310851  0.000000  0.000000  1
  O  O99  1  0.525046  0.762523  0.500000  1
  O  O100  1  0.547530  0.095059  0.500000  1
  O  O101  1  0.205805  0.921930  0.500000  1
  O  O102  1  0.126269  0.000000  0.500000  1
  O  O103  1  0.661753  0.493170  0.000000  1
  O  O104  1  0.079154  0.666419  0.500000  1
  O  O105  1  0.210447  0.105223  0.000000  1
  O  O106  1  0.506830  0.168583  0.000000  1
  O  O107  1  0.338247  0.831417  0.000000  1
