# generated using pymatgen
data_SN
_symmetry_space_group_name_H-M   'P 1'
_cell_length_a   7.69121101
_cell_length_b   9.22858422
_cell_length_c   9.51327100
_cell_angle_alpha   90.00000000
_cell_angle_beta   90.00000000
_cell_angle_gamma   90.00000000
_symmetry_Int_Tables_number   1
_chemical_formula_structural   SN
_chemical_formula_sum   'S16 N16'
_cell_volume   675.24235347
_cell_formula_units_Z   16
loop_
 _symmetry_equiv_pos_site_id
 _symmetry_equiv_pos_as_xyz
  1  'x, y, z'
loop_
 _atom_site_type_symbol
 _atom_site_label
 _atom_site_symmetry_multiplicity
 _atom_site_fract_x
 _atom_site_fract_y
 _atom_site_fract_z
 _atom_site_occupancy
  S  S0  1  0.784366  0.917237  0.858920  1
  S  S1  1  0.425375  0.789024  0.476674  1
  S  S2  1  0.715634  0.917237  0.141080  1
  S  S3  1  0.425375  0.289024  0.023326  1
  S  S4  1  0.925375  0.710976  0.023326  1
  S  S5  1  0.284366  0.082763  0.858920  1
  S  S6  1  0.215634  0.082763  0.141080  1
  S  S7  1  0.074625  0.289024  0.976674  1
  S  S8  1  0.574625  0.710976  0.976674  1
  S  S9  1  0.715634  0.417237  0.358920  1
  S  S10  1  0.784366  0.417237  0.641080  1
  S  S11  1  0.074625  0.789024  0.523326  1
  S  S12  1  0.925375  0.210976  0.476674  1
  S  S13  1  0.215634  0.582763  0.358920  1
  S  S14  1  0.574625  0.210976  0.523326  1
  S  S15  1  0.284366  0.582763  0.641080  1
  N  N16  1  0.750000  0.614946  0.000000  1
  N  N17  1  0.250000  0.486714  0.500000  1
  N  N18  1  0.750000  0.114946  0.500000  1
  N  N19  1  0.250000  0.385054  0.000000  1
  N  N20  1  0.885735  0.313985  0.340933  1
  N  N21  1  0.385735  0.686015  0.340933  1
  N  N22  1  0.114265  0.186015  0.840933  1
  N  N23  1  0.614265  0.313985  0.659067  1
  N  N24  1  0.750000  0.513286  0.500000  1
  N  N25  1  0.614265  0.813985  0.840933  1
  N  N26  1  0.385735  0.186015  0.159067  1
  N  N27  1  0.114265  0.686015  0.659067  1
  N  N28  1  0.885735  0.813985  0.159067  1
  N  N29  1  0.250000  0.986714  0.000000  1
  N  N30  1  0.750000  0.013286  0.000000  1
  N  N31  1  0.250000  0.885054  0.500000  1
