# generated using pymatgen
data_Na5Lu(WO4)4
_symmetry_space_group_name_H-M   'P 1'
_cell_length_a   9.96365921
_cell_length_b   9.96365949
_cell_length_c   9.96365970
_cell_angle_alpha   108.96572600
_cell_angle_beta   108.96572660
_cell_angle_gamma   110.48700709
_symmetry_Int_Tables_number   1
_chemical_formula_structural   Na5Lu(WO4)4
_chemical_formula_sum   'Na10 Lu2 W8 O32'
_cell_volume   761.25849581
_cell_formula_units_Z   2
loop_
 _symmetry_equiv_pos_site_id
 _symmetry_equiv_pos_as_xyz
  1  'x, y, z'
loop_
 _atom_site_type_symbol
 _atom_site_label
 _atom_site_symmetry_multiplicity
 _atom_site_fract_x
 _atom_site_fract_y
 _atom_site_fract_z
 _atom_site_occupancy
  W  W0  1  0.722953  0.565796  0.523894  1
  W  W1  1  0.065796  0.041903  0.842843  1
  W  W2  1  0.699060  0.222953  0.657157  1
  W  W3  1  0.541903  0.199060  0.976106  1
  W  W4  1  0.277047  0.434204  0.476106  1
  W  W5  1  0.934204  0.958097  0.157157  1
  W  W6  1  0.300940  0.777047  0.342843  1
  W  W7  1  0.458097  0.800940  0.023894  1
  Lu  Lu8  1  0.375000  0.125000  0.250000  1
  Lu  Lu9  1  0.625000  0.875000  0.750000  1
  Na  Na10  1  0.875000  0.625000  0.250000  1
  Na  Na11  1  0.125000  0.375000  0.750000  1
  Na  Na12  1  0.389261  0.464294  0.162154  1
  Na  Na13  1  0.964294  0.302141  0.075033  1
  Na  Na14  1  0.727108  0.889261  0.424967  1
  Na  Na15  1  0.802141  0.227108  0.337846  1
  Na  Na16  1  0.610739  0.535706  0.837846  1
  Na  Na17  1  0.035706  0.697859  0.924967  1
  Na  Na18  1  0.272892  0.110739  0.575033  1
  Na  Na19  1  0.197859  0.772892  0.662154  1
  O  O20  1  0.941790  0.659216  0.647004  1
  O  O21  1  0.159216  0.012211  0.717426  1
  O  O22  1  0.794786  0.441790  0.782574  1
  O  O23  1  0.512211  0.294786  0.852996  1
  O  O24  1  0.058210  0.340784  0.352996  1
  O  O25  1  0.840784  0.987789  0.282574  1
  O  O26  1  0.205214  0.558210  0.217426  1
  O  O27  1  0.487789  0.705214  0.147004  1
  O  O28  1  0.694080  0.622273  0.365270  1
  O  O29  1  0.122273  0.257003  0.928193  1
  O  O30  1  0.828810  0.194080  0.571807  1
  O  O31  1  0.757003  0.328810  0.134730  1
  O  O32  1  0.305920  0.377727  0.634730  1
  O  O33  1  0.877727  0.742997  0.071807  1
  O  O34  1  0.171190  0.805920  0.428193  1
  O  O35  1  0.242997  0.671190  0.865270  1
  O  O36  1  0.646030  0.343543  0.422043  1
  O  O37  1  0.843543  0.921500  0.697513  1
  O  O38  1  0.723987  0.146030  0.802487  1
  O  O39  1  0.421500  0.223987  0.077957  1
  O  O40  1  0.353970  0.656457  0.577957  1
  O  O41  1  0.156457  0.078500  0.302487  1
  O  O42  1  0.276013  0.853970  0.197513  1
  O  O43  1  0.578500  0.776013  0.922043  1
  O  O44  1  0.634707  0.632251  0.653234  1
  O  O45  1  0.132251  0.979017  0.997544  1
  O  O46  1  0.481473  0.134707  0.502456  1
  O  O47  1  0.479017  0.981473  0.846766  1
  O  O48  1  0.365293  0.367749  0.346766  1
  O  O49  1  0.867749  0.020983  0.002456  1
  O  O50  1  0.518527  0.865293  0.497544  1
  O  O51  1  0.520983  0.018527  0.153234  1
