# generated using pymatgen
data_V2Se2O9
_symmetry_space_group_name_H-M   'P 1'
_cell_length_a   8.18170622
_cell_length_b   8.85628665
_cell_length_c   10.52978940
_cell_angle_alpha   90.00000000
_cell_angle_beta   90.00000000
_cell_angle_gamma   102.15639091
_symmetry_Int_Tables_number   1
_chemical_formula_structural   V2Se2O9
_chemical_formula_sum   'V8 Se8 O36'
_cell_volume   745.87485184
_cell_formula_units_Z   4
loop_
 _symmetry_equiv_pos_site_id
 _symmetry_equiv_pos_as_xyz
  1  'x, y, z'
loop_
 _atom_site_type_symbol
 _atom_site_label
 _atom_site_symmetry_multiplicity
 _atom_site_fract_x
 _atom_site_fract_y
 _atom_site_fract_z
 _atom_site_occupancy
  Se  Se0  1  0.888939  0.638022  0.836768  1
  Se  Se1  1  0.611061  0.861978  0.336768  1
  Se  Se2  1  0.111061  0.361978  0.163232  1
  Se  Se3  1  0.388939  0.138022  0.663232  1
  Se  Se4  1  0.440591  0.628294  0.654814  1
  Se  Se5  1  0.059409  0.871706  0.154814  1
  Se  Se6  1  0.559409  0.371706  0.345186  1
  Se  Se7  1  0.940591  0.128294  0.845186  1
  V  V8  1  0.844971  0.717486  0.531724  1
  V  V9  1  0.655029  0.782514  0.031724  1
  V  V10  1  0.155029  0.282514  0.468276  1
  V  V11  1  0.344971  0.217486  0.968276  1
  V  V12  1  0.773358  0.291985  0.604301  1
  V  V13  1  0.726642  0.208015  0.104301  1
  V  V14  1  0.226642  0.708015  0.395699  1
  V  V15  1  0.273358  0.791985  0.895699  1
  O  O16  1  0.935183  0.882163  0.588288  1
  O  O17  1  0.564817  0.617837  0.088288  1
  O  O18  1  0.064817  0.117837  0.411712  1
  O  O19  1  0.435183  0.382163  0.911712  1
  O  O20  1  0.834816  0.581797  0.678185  1
  O  O21  1  0.665184  0.918203  0.178185  1
  O  O22  1  0.165184  0.418203  0.321815  1
  O  O23  1  0.334816  0.081797  0.821815  1
  O  O24  1  0.604706  0.736982  0.572831  1
  O  O25  1  0.895294  0.763018  0.072831  1
  O  O26  1  0.395294  0.263018  0.427169  1
  O  O27  1  0.104706  0.236982  0.927169  1
  O  O28  1  0.771466  0.763793  0.361127  1
  O  O29  1  0.728534  0.736207  0.861127  1
  O  O30  1  0.228534  0.236207  0.638873  1
  O  O31  1  0.271466  0.263793  0.138873  1
  O  O32  1  0.012347  0.651037  0.455971  1
  O  O33  1  0.487653  0.848963  0.955971  1
  O  O34  1  0.987653  0.348963  0.544029  1
  O  O35  1  0.512347  0.151037  0.044029  1
  O  O36  1  0.703507  0.420986  0.470114  1
  O  O37  1  0.796493  0.079014  0.970114  1
  O  O38  1  0.296493  0.579014  0.529886  1
  O  O39  1  0.203507  0.920986  0.029886  1
  O  O40  1  0.555025  0.292782  0.686061  1
  O  O41  1  0.944975  0.207218  0.186061  1
  O  O42  1  0.444975  0.707218  0.313939  1
  O  O43  1  0.055025  0.792782  0.813939  1
  O  O44  1  0.860943  0.275568  0.774136  1
  O  O45  1  0.639057  0.224432  0.274136  1
  O  O46  1  0.139057  0.724432  0.225864  1
  O  O47  1  0.360943  0.775568  0.725864  1
  O  O48  1  0.720571  0.117649  0.551609  1
  O  O49  1  0.779429  0.382351  0.051609  1
  O  O50  1  0.279429  0.882351  0.448391  1
  O  O51  1  0.220571  0.617649  0.948391  1
