# generated using pymatgen
data_Ca2YAs(WO6)2
_symmetry_space_group_name_H-M   'P 1'
_cell_length_a   5.20893519
_cell_length_b   5.20893475
_cell_length_c   17.67691274
_cell_angle_alpha   98.47265012
_cell_angle_beta   98.47264941
_cell_angle_gamma   90.00000431
_symmetry_Int_Tables_number   1
_chemical_formula_structural   Ca2YAs(WO6)2
_chemical_formula_sum   'Ca4 Y2 As2 W4 O24'
_cell_volume   469.10030933
_cell_formula_units_Z   2
loop_
 _symmetry_equiv_pos_site_id
 _symmetry_equiv_pos_as_xyz
  1  'x, y, z'
loop_
 _atom_site_type_symbol
 _atom_site_label
 _atom_site_symmetry_multiplicity
 _atom_site_fract_x
 _atom_site_fract_y
 _atom_site_fract_z
 _atom_site_occupancy
  Ca  Ca0  1  0.461334  0.211334  0.422670  1
  Ca  Ca1  1  0.211334  0.461334  0.922670  1
  Ca  Ca2  1  0.538666  0.788666  0.577330  1
  Ca  Ca3  1  0.788666  0.538666  0.077330  1
  Y  Y4  1  0.875000  0.125000  0.250000  1
  Y  Y5  1  0.125000  0.875000  0.750000  1
  As  As6  1  0.625000  0.375000  0.750000  1
  As  As7  1  0.375000  0.625000  0.250000  1
  W  W8  1  0.300298  0.050298  0.100597  1
  W  W9  1  0.699702  0.949702  0.899403  1
  W  W10  1  0.949702  0.699702  0.399403  1
  W  W11  1  0.050298  0.300298  0.600597  1
  O  O12  1  0.459065  0.198159  0.804261  1
  O  O13  1  0.606102  0.459065  0.304261  1
  O  O14  1  0.198159  0.845196  0.304261  1
  O  O15  1  0.845196  0.606102  0.804261  1
  O  O16  1  0.540935  0.801841  0.195739  1
  O  O17  1  0.393898  0.540935  0.695739  1
  O  O18  1  0.801841  0.154804  0.695739  1
  O  O19  1  0.154804  0.393898  0.195739  1
  O  O20  1  0.964819  0.096164  0.857441  1
  O  O21  1  0.761277  0.964819  0.357441  1
  O  O22  1  0.096164  0.392621  0.357441  1
  O  O23  1  0.392621  0.761277  0.857441  1
  O  O24  1  0.135156  0.258945  0.036031  1
  O  O25  1  0.777086  0.135156  0.536031  1
  O  O26  1  0.258945  0.400874  0.536031  1
  O  O27  1  0.400874  0.777086  0.036031  1
  O  O28  1  0.864844  0.741055  0.963969  1
  O  O29  1  0.222914  0.864844  0.463969  1
  O  O30  1  0.741055  0.599126  0.463969  1
  O  O31  1  0.599126  0.222914  0.963969  1
  O  O32  1  0.607379  0.238723  0.142559  1
  O  O33  1  0.903836  0.607379  0.642559  1
  O  O34  1  0.238723  0.035181  0.642559  1
  O  O35  1  0.035181  0.903836  0.142559  1
