# generated using pymatgen
data_Sr2AlCO3F5
_symmetry_space_group_name_H-M   'P 1'
_cell_length_a   5.51977319
_cell_length_b   8.85456836
_cell_length_c   13.31269808
_cell_angle_alpha   90.00000000
_cell_angle_beta   98.28791898
_cell_angle_gamma   90.00000000
_symmetry_Int_Tables_number   1
_chemical_formula_structural   Sr2AlCO3F5
_chemical_formula_sum   'Sr8 Al4 C4 O12 F20'
_cell_volume   643.86553315
_cell_formula_units_Z   4
loop_
 _symmetry_equiv_pos_site_id
 _symmetry_equiv_pos_as_xyz
  1  'x, y, z'
loop_
 _atom_site_type_symbol
 _atom_site_label
 _atom_site_symmetry_multiplicity
 _atom_site_fract_x
 _atom_site_fract_y
 _atom_site_fract_z
 _atom_site_occupancy
  Sr  Sr0  1  0.716406  0.140765  0.411485  1
  Sr  Sr1  1  0.783594  0.640765  0.088515  1
  Sr  Sr2  1  0.290562  0.391139  0.598474  1
  Sr  Sr3  1  0.209438  0.891139  0.901526  1
  Sr  Sr4  1  0.709438  0.608861  0.401526  1
  Sr  Sr5  1  0.283594  0.859235  0.588515  1
  Sr  Sr6  1  0.790562  0.108861  0.098474  1
  Sr  Sr7  1  0.216406  0.359235  0.911485  1
  Al  Al8  1  0.133459  0.871957  0.330357  1
  Al  Al9  1  0.866541  0.128043  0.669643  1
  Al  Al10  1  0.633459  0.628043  0.830357  1
  Al  Al11  1  0.366541  0.371957  0.169643  1
  C  C12  1  0.187214  0.375304  0.361447  1
  C  C13  1  0.687214  0.124696  0.861447  1
  C  C14  1  0.312786  0.875304  0.138553  1
  C  C15  1  0.812786  0.624696  0.638553  1
  O  O16  1  0.092369  0.876202  0.088795  1
  O  O17  1  0.907631  0.123798  0.911205  1
  O  O18  1  0.354750  0.871011  0.236721  1
  O  O19  1  0.497533  0.878906  0.087593  1
  O  O20  1  0.002467  0.378906  0.412407  1
  O  O21  1  0.592369  0.623798  0.588795  1
  O  O22  1  0.645250  0.128989  0.763279  1
  O  O23  1  0.145250  0.371011  0.263279  1
  O  O24  1  0.854750  0.628989  0.736721  1
  O  O25  1  0.502467  0.121094  0.912407  1
  O  O26  1  0.997533  0.621094  0.587593  1
  O  O27  1  0.407631  0.376202  0.411205  1
  F  F28  1  0.064041  0.273402  0.733934  1
  F  F29  1  0.197265  0.224379  0.091273  1
  F  F30  1  0.080188  0.128675  0.570036  1
  F  F31  1  0.580188  0.371325  0.070036  1
  F  F32  1  0.919812  0.871325  0.429964  1
  F  F33  1  0.051644  0.972506  0.726291  1
  F  F34  1  0.564041  0.226598  0.233934  1
  F  F35  1  0.675180  0.993749  0.588773  1
  F  F36  1  0.802735  0.775621  0.908727  1
  F  F37  1  0.824820  0.493749  0.911227  1
  F  F38  1  0.948356  0.027494  0.273709  1
  F  F39  1  0.435959  0.773402  0.766066  1
  F  F40  1  0.935959  0.726598  0.266066  1
  F  F41  1  0.302735  0.724379  0.408727  1
  F  F42  1  0.697265  0.275621  0.591273  1
  F  F43  1  0.324820  0.006251  0.411227  1
  F  F44  1  0.419812  0.628675  0.929964  1
  F  F45  1  0.175180  0.506251  0.088773  1
  F  F46  1  0.551644  0.527494  0.226291  1
  F  F47  1  0.448356  0.472506  0.773709  1
