# generated using pymatgen
data_Ho2CdSe4
_symmetry_space_group_name_H-M   'P 1'
_cell_length_a   8.35748845
_cell_length_b   8.35748850
_cell_length_c   41.62866758
_cell_angle_alpha   59.87374966
_cell_angle_beta   59.87374944
_cell_angle_gamma   59.99999838
_symmetry_Int_Tables_number   1
_chemical_formula_structural   Ho2CdSe4
_chemical_formula_sum   'Ho20 Cd10 Se40'
_cell_volume   2052.09605555
_cell_formula_units_Z   10
loop_
 _symmetry_equiv_pos_site_id
 _symmetry_equiv_pos_as_xyz
  1  'x, y, z'
loop_
 _atom_site_type_symbol
 _atom_site_label
 _atom_site_symmetry_multiplicity
 _atom_site_fract_x
 _atom_site_fract_y
 _atom_site_fract_z
 _atom_site_occupancy
  Cd  Cd0  1  0.247719  0.247719  0.051369  1
  Cd  Cd1  1  0.247238  0.247238  0.251657  1
  Cd  Cd2  1  0.620978  0.620978  0.027413  1
  Cd  Cd3  1  0.246717  0.246717  0.451970  1
  Cd  Cd4  1  0.621852  0.621852  0.226889  1
  Cd  Cd5  1  0.249079  0.249079  0.650553  1
  Cd  Cd6  1  0.621570  0.621570  0.427058  1
  Cd  Cd7  1  0.000797  0.000797  0.599522  1
  Cd  Cd8  1  0.000298  0.000298  0.799821  1
  Cd  Cd9  1  0.250626  0.250626  0.849624  1
  Ho  Ho10  1  0.001816  0.001816  0.998910  1
  Ho  Ho11  1  0.131375  0.622907  0.124562  1
  Ho  Ho12  1  0.002732  0.002732  0.198361  1
  Ho  Ho13  1  0.622907  0.131375  0.124562  1
  Ho  Ho14  1  0.622907  0.622907  0.124562  1
  Ho  Ho15  1  0.131239  0.623048  0.324533  1
  Ho  Ho16  1  0.002782  0.002782  0.398331  1
  Ho  Ho17  1  0.623048  0.131239  0.324533  1
  Ho  Ho18  1  0.623048  0.623048  0.324533  1
  Ho  Ho19  1  0.129197  0.623093  0.524924  1
  Ho  Ho20  1  0.623093  0.129197  0.524924  1
  Ho  Ho21  1  0.623093  0.623093  0.524924  1
  Ho  Ho22  1  0.125074  0.625272  0.724877  1
  Ho  Ho23  1  0.625272  0.125074  0.724877  1
  Ho  Ho24  1  0.625608  0.625608  0.624635  1
  Ho  Ho25  1  0.126939  0.624926  0.924642  1
  Ho  Ho26  1  0.625272  0.625272  0.724877  1
  Ho  Ho27  1  0.624926  0.126939  0.924642  1
  Ho  Ho28  1  0.625642  0.625642  0.824615  1
  Ho  Ho29  1  0.624926  0.624926  0.924642  1
  Se  Se30  1  0.381411  0.381411  0.076621  1
  Se  Se31  1  0.381411  0.854072  0.076621  1
  Se  Se32  1  0.381483  0.381483  0.171110  1
  Se  Se33  1  0.854072  0.381411  0.076621  1
  Se  Se34  1  0.400961  0.866960  0.173024  1
  Se  Se35  1  0.381479  0.381479  0.276659  1
  Se  Se36  1  0.867771  0.867771  0.079337  1
  Se  Se37  1  0.381479  0.853747  0.276659  1
  Se  Se38  1  0.866960  0.400961  0.173024  1
  Se  Se39  1  0.381307  0.381307  0.371216  1
  Se  Se40  1  0.866960  0.866960  0.173024  1
  Se  Se41  1  0.853747  0.381479  0.276659  1
  Se  Se42  1  0.381316  0.381316  0.476909  1
  Se  Se43  1  0.400950  0.866883  0.373057  1
  Se  Se44  1  0.868091  0.868091  0.279145  1
  Se  Se45  1  0.866883  0.400950  0.373057  1
  Se  Se46  1  0.381430  0.381430  0.571142  1
  Se  Se47  1  0.381316  0.852825  0.476909  1
  Se  Se48  1  0.852825  0.381316  0.476909  1
  Se  Se49  1  0.866883  0.866883  0.373057  1
  Se  Se50  1  0.397876  0.867476  0.573434  1
  Se  Se51  1  0.382364  0.382364  0.676595  1
  Se  Se52  1  0.867943  0.867943  0.479234  1
  Se  Se53  1  0.382364  0.852298  0.676595  1
  Se  Se54  1  0.867476  0.397876  0.573434  1
  Se  Se55  1  0.382507  0.382507  0.770496  1
  Se  Se56  1  0.852298  0.382364  0.676595  1
  Se  Se57  1  0.867476  0.867476  0.573434  1
  Se  Se58  1  0.397053  0.867524  0.773580  1
  Se  Se59  1  0.382607  0.382607  0.876259  1
  Se  Se60  1  0.867780  0.867780  0.679332  1
  Se  Se61  1  0.382607  0.853492  0.876259  1
  Se  Se62  1  0.867524  0.397053  0.773580  1
  Se  Se63  1  0.382226  0.382226  0.970664  1
  Se  Se64  1  0.853492  0.382607  0.876259  1
  Se  Se65  1  0.867524  0.867524  0.773580  1
  Se  Se66  1  0.399756  0.867454  0.973067  1
  Se  Se67  1  0.867717  0.867717  0.879370  1
  Se  Se68  1  0.867454  0.399756  0.973067  1
  Se  Se69  1  0.867454  0.867454  0.973067  1
