# generated using pymatgen
data_Sr4U2O9
_symmetry_space_group_name_H-M   'P 1'
_cell_length_a   18.18210762
_cell_length_b   8.70160416
_cell_length_c   10.55281160
_cell_angle_alpha   66.64281475
_cell_angle_beta   55.05858327
_cell_angle_gamma   45.80626573
_symmetry_Int_Tables_number   1
_chemical_formula_structural   Sr4U2O9
_chemical_formula_sum   'Sr16 U8 O36'
_cell_volume   981.28045514
_cell_formula_units_Z   4
loop_
 _symmetry_equiv_pos_site_id
 _symmetry_equiv_pos_as_xyz
  1  'x, y, z'
loop_
 _atom_site_type_symbol
 _atom_site_label
 _atom_site_symmetry_multiplicity
 _atom_site_fract_x
 _atom_site_fract_y
 _atom_site_fract_z
 _atom_site_occupancy
  O  O0  1  0.111808  0.320941  0.060845  1
  O  O1  1  0.129049  0.457274  0.265623  1
  O  O2  1  0.001985  0.214017  0.945247  1
  O  O3  1  0.140583  0.216219  0.559281  1
  O  O4  1  0.004265  0.707679  0.562100  1
  O  O5  1  0.050197  0.962629  0.273888  1
  O  O6  1  0.277354  0.064943  0.724137  1
  O  O7  1  0.332298  0.265274  0.418676  1
  O  O8  1  0.449329  0.324295  0.043964  1
  O  O9  1  0.171182  0.816964  0.439172  1
  O  O10  1  0.329558  0.779229  0.059602  1
  O  O11  1  0.181958  0.561863  0.772387  1
  O  O12  1  0.484806  0.438113  0.227492  1
  O  O13  1  0.337195  0.220638  0.940383  1
  O  O14  1  0.495499  0.182955  0.560812  1
  O  O15  1  0.217426  0.675681  0.956077  1
  O  O16  1  0.334315  0.734786  0.581389  1
  O  O17  1  0.389308  0.935053  0.275870  1
  O  O18  1  0.616437  0.037390  0.726149  1
  O  O19  1  0.662367  0.292324  0.437930  1
  O  O20  1  0.778610  0.327423  0.050998  1
  O  O21  1  0.526082  0.783750  0.440721  1
  O  O22  1  0.664677  0.785991  0.054790  1
  O  O23  1  0.537600  0.542701  0.734438  1
  O  O24  1  0.794606  0.460194  0.261127  1
  O  O25  1  0.678634  0.220333  0.923875  1
  O  O26  1  0.812215  0.211788  0.553127  1
  O  O27  1  0.554830  0.679001  0.939219  1
  O  O28  1  0.677889  0.696367  0.558908  1
  O  O29  1  0.721612  0.953257  0.277499  1
  O  O30  1  0.945060  0.046690  0.722518  1
  O  O31  1  0.988762  0.303617  0.441072  1
  O  O32  1  0.854438  0.788234  0.446865  1
  O  O33  1  0.987971  0.779839  0.076082  1
  O  O34  1  0.871997  0.539855  0.738898  1
  O  O35  1  0.888093  0.672561  0.949000  1
  Sr  Sr36  1  0.168674  1.000512  0.995305  1
  Sr  Sr37  1  0.231962  0.042238  0.246128  1
  Sr  Sr38  1  0.093563  0.455599  0.755212  1
  Sr  Sr39  1  0.497993  -0.000491  0.004697  1
  Sr  Sr40  1  0.243181  0.552213  0.241272  1
  Sr  Sr41  1  0.562823  0.049828  0.251527  1
  Sr  Sr42  1  0.333354  0.500016  0.499964  1
  Sr  Sr43  1  0.103833  0.950215  0.748491  1
  Sr  Sr44  1  0.423503  0.447830  0.758692  1
  Sr  Sr45  1  0.833318  0.000025  0.000016  1
  Sr  Sr46  1  0.573142  0.544469  0.244726  1
  Sr  Sr47  1  0.898172  0.046626  0.247050  1
  Sr  Sr48  1  0.434723  0.957659  0.753891  1
  Sr  Sr49  1  0.760261  0.448150  0.754754  1
  Sr  Sr50  1  0.906368  0.551802  0.245244  1
  Sr  Sr51  1  0.768449  0.953473  0.752934  1
  U  U52  1  0.997979  0.005045  0.497531  1
  U  U53  1  0.000749  0.498598  0.501371  1
  U  U54  1  0.162887  0.503130  1.004205  1
  U  U55  1  0.333326  0.000007  0.500018  1
  U  U56  1  0.503782  0.496900  -0.004245  1
  U  U57  1  0.668692  0.994911  0.502471  1
  U  U58  1  0.665909  0.501374  0.498614  1
  U  U59  1  0.833360  0.500003  0.999968  1
