# generated using pymatgen
data_LiNiPO4
_symmetry_space_group_name_H-M   'P 1'
_cell_length_a   9.87957095
_cell_length_b   9.91366600
_cell_length_c   16.57137456
_cell_angle_alpha   80.89677429
_cell_angle_beta   90.00000000
_cell_angle_gamma   60.11370607
_symmetry_Int_Tables_number   1
_chemical_formula_structural   LiNiPO4
_chemical_formula_sum   'Li16 Ni16 P16 O64'
_cell_volume   1383.57924409
_cell_formula_units_Z   16
loop_
 _symmetry_equiv_pos_site_id
 _symmetry_equiv_pos_as_xyz
  1  'x, y, z'
loop_
 _atom_site_type_symbol
 _atom_site_label
 _atom_site_symmetry_multiplicity
 _atom_site_fract_x
 _atom_site_fract_y
 _atom_site_fract_z
 _atom_site_occupancy
  Li  Li0  1  0.265788  0.851058  0.872981  1
  Li  Li1  1  0.772991  0.785950  0.874058  1
  Li  Li2  1  0.883154  0.851058  0.372981  1
  Li  Li3  1  0.441059  0.785950  0.374058  1
  Li  Li4  1  0.334991  0.671469  0.622131  1
  Li  Li5  1  0.891296  0.605013  0.622715  1
  Li  Li6  1  0.993540  0.671469  0.122131  1
  Li  Li7  1  0.503692  0.605013  0.122715  1
  Li  Li8  1  0.279392  0.340027  0.873218  1
  Li  Li9  1  0.782422  0.281303  0.876423  1
  Li  Li10  1  0.380581  0.340027  0.373218  1
  Li  Li11  1  0.936276  0.281303  0.376423  1
  Li  Li12  1  0.830872  0.169165  0.623967  1
  Li  Li13  1  0.393596  0.106830  0.619231  1
  Li  Li14  1  -0.000037  0.169165  0.123967  1
  Li  Li15  1  0.499574  0.106830  0.119231  1
  Ni  Ni16  1  0.807726  0.988851  0.996022  1
  Ni  Ni17  1  0.203422  0.988851  0.496022  1
  Ni  Ni18  1  0.589289  0.710141  0.752634  1
  Ni  Ni19  1  0.087706  0.667825  0.753514  1
  Ni  Ni20  1  0.307323  0.546853  0.997000  1
  Ni  Ni21  1  0.805347  0.492845  0.994163  1
  Ni  Ni22  1  0.700571  0.710141  0.252634  1
  Ni  Ni23  1  0.244468  0.667825  0.253514  1
  Ni  Ni24  1  0.145825  0.546853  0.497000  1
  Ni  Ni25  1  0.701808  0.492845  0.494163  1
  Ni  Ni26  1  0.564372  0.250901  0.742363  1
  Ni  Ni27  1  0.094471  0.159717  0.751377  1
  Ni  Ni28  1  0.301656  0.045646  0.992218  1
  Ni  Ni29  1  0.184727  0.250901  0.242363  1
  Ni  Ni30  1  0.745812  0.159717  0.251377  1
  Ni  Ni31  1  0.652698  0.045646  0.492218  1
  O  O32  1  0.074672  0.971051  0.792587  1
  O  O33  1  0.745814  0.828487  0.988354  1
  O  O34  1  0.578437  0.886424  0.800646  1
  O  O35  1  0.561802  0.941468  0.565569  1
  O  O36  1  0.236858  0.775879  0.986160  1
  O  O37  1  0.931831  0.819641  0.817185  1
  O  O38  1  0.954278  0.971051  0.292587  1
  O  O39  1  0.138049  0.863208  0.572123  1
  O  O40  1  0.425699  0.828487  0.488354  1
  O  O41  1  0.535139  0.886424  0.300646  1
  O  O42  1  0.496730  0.941468  0.065569  1
  O  O43  1  0.485728  0.751116  0.641397  1
  O  O44  1  0.992824  0.732638  0.639071  1
  O  O45  1  0.434510  0.685805  0.821720  1
  O  O46  1  0.987263  0.775879  0.486160  1
  O  O47  1  0.248527  0.819641  0.317185  1
  O  O48  1  0.998742  0.863208  0.072123  1
  O  O49  1  0.840585  0.556464  0.881789  1
  O  O50  1  0.708650  0.655943  0.546530  1
  O  O51  1  0.314296  0.574394  0.732368  1
  O  O52  1  0.811486  0.585681  0.729585  1
  O  O53  1  0.763156  0.751116  0.141397  1
  O  O54  1  0.274537  0.732638  0.139071  1
  O  O55  1  0.879685  0.685805  0.321720  1
  O  O56  1  0.337459  0.504066  0.884956  1
  O  O57  1  0.082715  0.471962  0.799126  1
  O  O58  1  0.342640  0.520266  0.547023  1
  O  O59  1  0.602952  0.556464  0.381790  1
  O  O60  1  0.635408  0.655943  0.046530  1
  O  O61  1  0.111310  0.574394  0.232368  1
  O  O62  1  0.602834  0.585681  0.229585  1
  O  O63  1  0.743194  0.333037  0.987403  1
  O  O64  1  0.583766  0.397924  0.805504  1
  O  O65  1  0.158474  0.504066  0.384956  1
  O  O66  1  0.059026  0.438382  0.570046  1
  O  O67  1  0.233193  0.274185  0.982737  1
  O  O68  1  0.949090  0.308785  0.820651  1
  O  O69  1  0.445324  0.471962  0.299126  1
  O  O70  1  0.637174  0.365683  0.570255  1
  O  O71  1  0.137094  0.520266  0.047023  1
  O  O72  1  0.923769  0.333037  0.487403  1
  O  O73  1  0.018311  0.397924  0.305504  1
  O  O74  1  0.502592  0.438382  0.070046  1
  O  O75  1  0.485250  0.242001  0.635246  1
  O  O76  1  0.984460  0.241010  0.639450  1
  O  O77  1  0.454256  0.172439  0.819827  1
  O  O78  1  0.492622  0.274185  0.482737  1
  O  O79  1  0.742125  0.308785  0.320651  1
  O  O80  1  0.997143  0.365683  0.070255  1
  O  O81  1  0.854019  0.052877  0.887934  1
  O  O82  1  0.207629  0.157000  0.545094  1
  O  O83  1  0.790680  0.105744  0.735848  1
  O  O84  1  0.313659  0.087345  0.725970  1
  O  O85  1  0.272749  0.242001  0.135246  1
  O  O86  1  0.774530  0.241010  0.139450  1
  O  O87  1  0.329727  0.013576  0.877724  1
  O  O88  1  0.373305  0.172439  0.319827  1
  O  O89  1  0.841771  0.015001  0.554069  1
  O  O90  1  0.093102  0.052877  0.387934  1
  O  O91  1  0.635370  0.157000  0.045094  1
  O  O92  1  0.103576  0.105744  0.235848  1
  O  O93  1  0.598998  0.087345  0.225970  1
  O  O94  1  0.656697  0.013576  0.377725  1
  O  O95  1  0.143230  0.015001  0.054069  1
  P  P96  1  0.912191  0.987144  0.807996  1
  P  P97  1  0.100665  0.987144  0.307996  1
  P  P98  1  0.989964  0.848089  0.563408  1
  P  P99  1  0.546767  0.794741  0.560597  1
  P  P100  1  0.161947  0.848089  0.063408  1
  P  P101  1  0.658492  0.794741  0.060597  1
  P  P102  1  0.419706  0.541070  0.811820  1
  P  P103  1  0.923023  0.478822  0.807729  1
  P  P104  1  0.039223  0.541070  0.311820  1
  P  P105  1  0.598155  0.478822  0.307729  1
  P  P106  1  0.488926  0.351544  0.558305  1
  P  P107  1  0.044810  0.292441  0.560881  1
  P  P108  1  0.159530  0.351544  0.058305  1
  P  P109  1  0.662748  0.292441  0.060881  1
  P  P110  1  0.422353  0.039195  0.805790  1
  P  P111  1  0.538453  0.039195  0.305790  1
