# generated using pymatgen
data_MnC5(O2F)2
_symmetry_space_group_name_H-M   'P 1'
_cell_length_a   8.22320165
_cell_length_b   8.60360622
_cell_length_c   10.95932537
_cell_angle_alpha   90.00000000
_cell_angle_beta   90.00000000
_cell_angle_gamma   89.88920389
_symmetry_Int_Tables_number   1
_chemical_formula_structural   MnC5(O2F)2
_chemical_formula_sum   'Mn4 C20 O16 F8'
_cell_volume   775.36193069
_cell_formula_units_Z   4
loop_
 _symmetry_equiv_pos_site_id
 _symmetry_equiv_pos_as_xyz
  1  'x, y, z'
loop_
 _atom_site_type_symbol
 _atom_site_label
 _atom_site_symmetry_multiplicity
 _atom_site_fract_x
 _atom_site_fract_y
 _atom_site_fract_z
 _atom_site_occupancy
  Mn  Mn0  1  0.034920  0.604352  0.411592  1
  Mn  Mn1  1  0.534920  0.104352  0.088408  1
  Mn  Mn2  1  0.465080  0.895648  0.911592  1
  Mn  Mn3  1  0.965080  0.395648  0.588408  1
  C  C4  1  0.673614  0.807067  0.915905  1
  C  C5  1  0.616850  0.302182  0.078984  1
  C  C6  1  0.560980  0.117278  0.899686  1
  C  C7  1  0.747737  0.031323  0.111267  1
  C  C8  1  0.983462  0.398312  0.755532  1
  C  C9  1  0.116850  0.802182  0.421016  1
  C  C10  1  0.483462  0.898312  0.744468  1
  C  C11  1  0.252263  0.968677  0.888733  1
  C  C12  1  0.439020  0.882722  0.100314  1
  C  C13  1  0.247737  0.531323  0.388733  1
  C  C14  1  0.516538  0.101688  0.255532  1
  C  C15  1  0.326386  0.192933  0.084095  1
  C  C16  1  0.939020  0.382722  0.399686  1
  C  C17  1  0.826386  0.692933  0.415905  1
  C  C18  1  0.016538  0.601688  0.244468  1
  C  C19  1  0.752263  0.468677  0.611267  1
  C  C20  1  0.173614  0.307067  0.584095  1
  C  C21  1  0.383150  0.697818  0.921016  1
  C  C22  1  0.060980  0.617278  0.600314  1
  C  C23  1  0.883150  0.197818  0.578984  1
  O  O24  1  0.120903  0.005624  0.865275  1
  O  O25  1  0.298095  0.245524  0.589421  1
  O  O26  1  0.833343  0.072551  0.570746  1
  O  O27  1  0.166657  0.927449  0.429254  1
  O  O28  1  0.879097  0.994376  0.134725  1
  O  O29  1  0.333343  0.572551  0.929254  1
  O  O30  1  0.620903  0.505624  0.634725  1
  O  O31  1  0.201905  0.254476  0.089421  1
  O  O32  1  0.994407  0.400705  0.860704  1
  O  O33  1  0.666657  0.427449  0.070746  1
  O  O34  1  0.379097  0.494376  0.365275  1
  O  O35  1  0.798095  0.745524  0.910579  1
  O  O36  1  0.494407  0.900705  0.639296  1
  O  O37  1  0.701905  0.754476  0.410579  1
  O  O38  1  0.005593  0.599295  0.139296  1
  O  O39  1  0.505593  0.099295  0.360704  1
  F  F40  1  0.973197  0.728942  0.661197  1
  F  F41  1  0.783870  0.366818  0.354169  1
  F  F42  1  0.526803  0.771058  0.161197  1
  F  F43  1  0.716130  0.133182  0.854169  1
  F  F44  1  0.026803  0.271058  0.338803  1
  F  F45  1  0.283870  0.866819  0.145831  1
  F  F46  1  0.473197  0.228942  0.838803  1
  F  F47  1  0.216130  0.633181  0.645831  1
