# generated using pymatgen
data_Cr11Ge8
_symmetry_space_group_name_H-M   'P 1'
_cell_length_a   4.91784627
_cell_length_b   13.18063671
_cell_length_c   15.75546850
_cell_angle_alpha   90.00000000
_cell_angle_beta   90.00000000
_cell_angle_gamma   90.00000000
_symmetry_Int_Tables_number   1
_chemical_formula_structural   Cr11Ge8
_chemical_formula_sum   'Cr44 Ge32'
_cell_volume   1021.27490507
_cell_formula_units_Z   4
loop_
 _symmetry_equiv_pos_site_id
 _symmetry_equiv_pos_as_xyz
  1  'x, y, z'
loop_
 _atom_site_type_symbol
 _atom_site_label
 _atom_site_symmetry_multiplicity
 _atom_site_fract_x
 _atom_site_fract_y
 _atom_site_fract_z
 _atom_site_occupancy
  Cr  Cr0  1  0.004322  0.559967  0.877743  1
  Cr  Cr1  1  0.750000  0.751270  0.468553  1
  Cr  Cr2  1  0.750000  0.864426  0.658168  1
  Cr  Cr3  1  0.495678  0.559967  0.877743  1
  Cr  Cr4  1  0.250000  0.065176  0.809418  1
  Cr  Cr5  1  0.250000  0.307845  0.251153  1
  Cr  Cr6  1  0.250000  0.869021  0.541773  1
  Cr  Cr7  1  0.750000  0.380377  0.508058  1
  Cr  Cr8  1  0.250000  0.807845  0.248847  1
  Cr  Cr9  1  0.504322  0.440033  0.122257  1
  Cr  Cr10  1  0.250000  0.619623  0.491942  1
  Cr  Cr11  1  0.250000  0.960033  0.092870  1
  Cr  Cr12  1  0.750000  0.251270  0.031447  1
  Cr  Cr13  1  0.750000  0.880377  0.991942  1
  Cr  Cr14  1  0.250000  0.135574  0.341832  1
  Cr  Cr15  1  0.250000  0.460033  0.407130  1
  Cr  Cr16  1  0.509453  0.862977  0.825693  1
  Cr  Cr17  1  0.250000  0.119623  0.008058  1
  Cr  Cr18  1  0.009453  0.637023  0.325693  1
  Cr  Cr19  1  0.250000  0.635574  0.158168  1
  Cr  Cr20  1  0.750000  0.039967  0.907130  1
  Cr  Cr21  1  0.750000  0.434824  0.309418  1
  Cr  Cr22  1  0.509453  0.362977  0.674307  1
  Cr  Cr23  1  0.990547  0.362977  0.674307  1
  Cr  Cr24  1  0.995678  0.940033  0.377743  1
  Cr  Cr25  1  0.490547  0.137023  0.174307  1
  Cr  Cr26  1  0.250000  0.248730  0.531447  1
  Cr  Cr27  1  0.990547  0.862977  0.825693  1
  Cr  Cr28  1  0.750000  0.934824  0.190582  1
  Cr  Cr29  1  0.250000  0.748730  0.968553  1
  Cr  Cr30  1  0.750000  0.192155  0.751153  1
  Cr  Cr31  1  0.750000  0.630979  0.041773  1
  Cr  Cr32  1  0.750000  0.364426  0.841832  1
  Cr  Cr33  1  0.995678  0.440033  0.122257  1
  Cr  Cr34  1  0.250000  0.369021  0.958227  1
  Cr  Cr35  1  0.490547  0.637023  0.325693  1
  Cr  Cr36  1  0.504322  0.940033  0.377743  1
  Cr  Cr37  1  0.250000  0.565176  0.690582  1
  Cr  Cr38  1  0.750000  0.692155  0.748847  1
  Cr  Cr39  1  0.495678  0.059967  0.622257  1
  Cr  Cr40  1  0.004322  0.059967  0.622257  1
  Cr  Cr41  1  0.750000  0.130979  0.458227  1
  Cr  Cr42  1  0.750000  0.539967  0.592870  1
  Cr  Cr43  1  0.009453  0.137023  0.174307  1
  Ge  Ge44  1  0.250000  0.703456  0.800748  1
  Ge  Ge45  1  0.250000  0.491500  0.255257  1
  Ge  Ge46  1  0.750000  0.551422  0.439141  1
  Ge  Ge47  1  0.250000  0.556354  0.017148  1
  Ge  Ge48  1  0.998419  0.287685  0.388366  1
  Ge  Ge49  1  0.250000  0.056354  0.482852  1
  Ge  Ge50  1  0.750000  0.087722  0.304129  1
  Ge  Ge51  1  0.250000  0.991500  0.244743  1
  Ge  Ge52  1  0.750000  0.587722  0.195871  1
  Ge  Ge53  1  0.001581  0.212315  0.888366  1
  Ge  Ge54  1  0.498419  0.712315  0.611634  1
  Ge  Ge55  1  0.250000  0.275974  0.094750  1
  Ge  Ge56  1  0.250000  0.775974  0.405250  1
  Ge  Ge57  1  0.998419  0.787685  0.111634  1
  Ge  Ge58  1  0.750000  0.508500  0.744743  1
  Ge  Ge59  1  0.750000  0.943646  0.517148  1
  Ge  Ge60  1  0.750000  0.051422  0.060859  1
  Ge  Ge61  1  0.750000  0.008500  0.755257  1
  Ge  Ge62  1  0.250000  0.412278  0.804129  1
  Ge  Ge63  1  0.001581  0.712315  0.611634  1
  Ge  Ge64  1  0.750000  0.724026  0.905250  1
  Ge  Ge65  1  0.250000  0.912278  0.695871  1
  Ge  Ge66  1  0.750000  0.296544  0.199252  1
  Ge  Ge67  1  0.501581  0.287685  0.388366  1
  Ge  Ge68  1  0.250000  0.203456  0.699252  1
  Ge  Ge69  1  0.750000  0.796544  0.300748  1
  Ge  Ge70  1  0.750000  0.224026  0.594750  1
  Ge  Ge71  1  0.498419  0.212315  0.888366  1
  Ge  Ge72  1  0.501581  0.787685  0.111634  1
  Ge  Ge73  1  0.750000  0.443646  0.982852  1
  Ge  Ge74  1  0.250000  0.448578  0.560859  1
  Ge  Ge75  1  0.250000  0.948578  0.939141  1
