# generated using pymatgen
data_LiCu4(PO4)3
_symmetry_space_group_name_H-M   'P 1'
_cell_length_a   6.02545795
_cell_length_b   14.38277291
_cell_length_c   10.25601115
_cell_angle_alpha   90.00000000
_cell_angle_beta   90.00000000
_cell_angle_gamma   90.00000000
_symmetry_Int_Tables_number   1
_chemical_formula_structural   LiCu4(PO4)3
_chemical_formula_sum   'Li4 Cu16 P12 O48'
_cell_volume   888.81457513
_cell_formula_units_Z   4
loop_
 _symmetry_equiv_pos_site_id
 _symmetry_equiv_pos_as_xyz
  1  'x, y, z'
loop_
 _atom_site_type_symbol
 _atom_site_label
 _atom_site_symmetry_multiplicity
 _atom_site_fract_x
 _atom_site_fract_y
 _atom_site_fract_z
 _atom_site_occupancy
  Cu  Cu0  1  0.053018  0.633513  0.848795  1
  Cu  Cu1  1  0.053018  0.866487  0.848795  1
  Cu  Cu2  1  0.145883  0.585846  0.441110  1
  Cu  Cu3  1  0.145883  0.914154  0.441110  1
  Cu  Cu4  1  0.354117  0.085846  0.941110  1
  Cu  Cu5  1  0.354117  0.414154  0.941110  1
  Cu  Cu6  1  0.446982  0.133513  0.348795  1
  Cu  Cu7  1  0.446982  0.366487  0.348795  1
  Cu  Cu8  1  0.553018  0.633513  0.651205  1
  Cu  Cu9  1  0.553018  0.866487  0.651205  1
  Cu  Cu10  1  0.645883  0.585846  0.058890  1
  Cu  Cu11  1  0.645883  0.914154  0.058890  1
  Cu  Cu12  1  0.854117  0.085846  0.558890  1
  Cu  Cu13  1  0.854117  0.414154  0.558890  1
  Cu  Cu14  1  0.946982  0.133513  0.151205  1
  Cu  Cu15  1  0.946982  0.366487  0.151205  1
  Li  Li16  1  0.062790  0.250000  0.726964  1
  Li  Li17  1  0.437210  0.750000  0.226964  1
  Li  Li18  1  0.562790  0.250000  0.773036  1
  Li  Li19  1  0.937210  0.750000  0.273036  1
  O  O20  1  0.041846  0.112983  0.967814  1
  O  O21  1  0.041846  0.387017  0.967814  1
  O  O22  1  0.038269  0.012465  0.203094  1
  O  O23  1  0.038269  0.487535  0.203094  1
  O  O24  1  0.044380  0.750000  0.455254  1
  O  O25  1  0.074181  0.660261  0.662621  1
  O  O26  1  0.074181  0.839739  0.662621  1
  O  O27  1  0.161952  0.048364  0.545189  1
  O  O28  1  0.161952  0.451636  0.545189  1
  O  O29  1  0.186475  0.646756  0.237432  1
  O  O30  1  0.186475  0.853244  0.237432  1
  O  O31  1  0.215189  0.750000  0.886729  1
  O  O32  1  0.284811  0.250000  0.386729  1
  O  O33  1  0.313525  0.146756  0.737432  1
  O  O34  1  0.313525  0.353244  0.737432  1
  O  O35  1  0.338048  0.548364  0.045189  1
  O  O36  1  0.338048  0.951636  0.045189  1
  O  O37  1  0.425819  0.160261  0.162621  1
  O  O38  1  0.425819  0.339739  0.162621  1
  O  O39  1  0.455620  0.250000  0.955254  1
  O  O40  1  0.461731  0.512465  0.703094  1
  O  O41  1  0.461731  0.987535  0.703094  1
  O  O42  1  0.458154  0.612983  0.467814  1
  O  O43  1  0.458154  0.887017  0.467814  1
  O  O44  1  0.541846  0.112983  0.532186  1
  O  O45  1  0.541846  0.387017  0.532186  1
  O  O46  1  0.538269  0.012465  0.296906  1
  O  O47  1  0.538269  0.487535  0.296906  1
  O  O48  1  0.544380  0.750000  0.044746  1
  O  O49  1  0.574181  0.660261  0.837379  1
  O  O50  1  0.574181  0.839739  0.837379  1
  O  O51  1  0.661952  0.048364  0.954811  1
  O  O52  1  0.661952  0.451636  0.954811  1
  O  O53  1  0.686475  0.646756  0.262568  1
  O  O54  1  0.686475  0.853244  0.262568  1
  O  O55  1  0.715189  0.750000  0.613271  1
  O  O56  1  0.784811  0.250000  0.113271  1
  O  O57  1  0.813525  0.146756  0.762568  1
  O  O58  1  0.813525  0.353244  0.762568  1
  O  O59  1  0.838048  0.548364  0.454811  1
  O  O60  1  0.838048  0.951636  0.454811  1
  O  O61  1  0.925819  0.160261  0.337379  1
  O  O62  1  0.925819  0.339739  0.337379  1
  O  O63  1  0.955620  0.250000  0.544746  1
  O  O64  1  0.961731  0.512465  0.796906  1
  O  O65  1  0.961731  0.987535  0.796906  1
  O  O66  1  0.958154  0.612983  0.032186  1
  O  O67  1  0.958154  0.887017  0.032186  1
  P  P68  1  0.020106  0.250000  0.400477  1
  P  P69  1  0.134639  0.572748  0.133753  1
  P  P70  1  0.134639  0.927252  0.133753  1
  P  P71  1  0.365361  0.072748  0.633753  1
  P  P72  1  0.365361  0.427252  0.633753  1
  P  P73  1  0.479894  0.750000  0.900477  1
  P  P74  1  0.520106  0.250000  0.099523  1
  P  P75  1  0.634639  0.572748  0.366247  1
  P  P76  1  0.634639  0.927252  0.366247  1
  P  P77  1  0.865361  0.072748  0.866247  1
  P  P78  1  0.865361  0.427252  0.866247  1
  P  P79  1  0.979894  0.750000  0.599523  1
