# generated using pymatgen
data_K4Cr(NO5)2
_symmetry_space_group_name_H-M   'P 1'
_cell_length_a   9.98099906
_cell_length_b   10.34172820
_cell_length_c   11.33874048
_cell_angle_alpha   90.00000000
_cell_angle_beta   90.00000000
_cell_angle_gamma   106.10306836
_symmetry_Int_Tables_number   1
_chemical_formula_structural   K4Cr(NO5)2
_chemical_formula_sum   'K16 Cr4 N8 O40'
_cell_volume   1124.47241913
_cell_formula_units_Z   4
loop_
 _symmetry_equiv_pos_site_id
 _symmetry_equiv_pos_as_xyz
  1  'x, y, z'
loop_
 _atom_site_type_symbol
 _atom_site_label
 _atom_site_symmetry_multiplicity
 _atom_site_fract_x
 _atom_site_fract_y
 _atom_site_fract_z
 _atom_site_occupancy
  K  K0  1  0.106833  0.081818  0.372706  1
  K  K1  1  0.533754  0.359386  0.376949  1
  K  K2  1  0.532796  0.361104  0.880166  1
  K  K3  1  0.893167  0.918182  0.627294  1
  K  K4  1  0.885608  0.902244  0.124972  1
  K  K5  1  0.606833  0.081818  0.127295  1
  K  K6  1  0.466246  0.640614  0.623051  1
  K  K7  1  0.393167  0.918182  0.872706  1
  K  K8  1  0.033754  0.359386  0.123051  1
  K  K9  1  0.032796  0.361104  0.619834  1
  K  K10  1  0.467204  0.638896  0.119834  1
  K  K11  1  0.967204  0.638896  0.380166  1
  K  K12  1  0.966246  0.640614  0.876949  1
  K  K13  1  0.385608  0.902244  0.375028  1
  K  K14  1  0.114392  0.097756  0.875028  1
  K  K15  1  0.614392  0.097756  0.624972  1
  Cr  Cr16  1  0.190529  0.795135  0.116691  1
  Cr  Cr17  1  0.809471  0.204865  0.883309  1
  Cr  Cr18  1  0.309471  0.204865  0.616691  1
  Cr  Cr19  1  0.690529  0.795135  0.383309  1
  N  N20  1  0.269795  0.505459  0.859610  1
  N  N21  1  0.230205  0.494541  0.359610  1
  N  N22  1  0.702819  0.847719  0.871375  1
  N  N23  1  0.730205  0.494541  0.140390  1
  N  N24  1  0.769795  0.505459  0.640390  1
  N  N25  1  0.797181  0.152281  0.371375  1
  N  N26  1  0.297181  0.152281  0.128625  1
  N  N27  1  0.202819  0.847719  0.628625  1
  O  O28  1  0.669800  0.152348  0.371601  1
  O  O29  1  0.847465  0.371332  0.895071  1
  O  O30  1  0.363697  0.858332  0.117177  1
  O  O31  1  0.858615  0.146859  0.274302  1
  O  O32  1  0.641385  0.853141  0.774302  1
  O  O33  1  0.652535  0.628668  0.395071  1
  O  O34  1  0.395149  0.577315  0.875279  1
  O  O35  1  0.141385  0.853141  0.725698  1
  O  O36  1  0.361674  0.155810  0.031954  1
  O  O37  1  0.308316  0.454124  0.288898  1
  O  O38  1  0.636303  0.141668  0.882823  1
  O  O39  1  0.376124  0.142927  0.501563  1
  O  O40  1  0.874265  0.161044  0.758605  1
  O  O41  1  0.347465  0.371332  0.604929  1
  O  O42  1  0.625735  0.838956  0.258605  1
  O  O43  1  0.861674  0.155810  0.468046  1
  O  O44  1  0.374265  0.161044  0.741395  1
  O  O45  1  0.330200  0.847652  0.628399  1
  O  O46  1  0.863697  0.858332  0.382823  1
  O  O47  1  0.138326  0.844190  0.531954  1
  O  O48  1  0.830200  0.847652  0.871601  1
  O  O49  1  0.273866  0.605214  0.413902  1
  O  O50  1  0.726134  0.394786  0.586098  1
  O  O51  1  0.895149  0.577315  0.624721  1
  O  O52  1  0.773866  0.605214  0.086098  1
  O  O53  1  0.191684  0.545876  0.788898  1
  O  O54  1  0.136303  0.141668  0.617177  1
  O  O55  1  0.169800  0.152348  0.128399  1
  O  O56  1  0.876124  0.142927  0.998437  1
  O  O57  1  0.125735  0.838956  0.241395  1
  O  O58  1  0.104851  0.422685  0.375279  1
  O  O59  1  0.123876  0.857073  0.001563  1
  O  O60  1  0.623876  0.857073  0.498437  1
  O  O61  1  0.226134  0.394786  0.913902  1
  O  O62  1  0.604851  0.422685  0.124721  1
  O  O63  1  0.808316  0.454124  0.211102  1
  O  O64  1  0.638326  0.844190  0.968046  1
  O  O65  1  0.152535  0.628668  0.104929  1
  O  O66  1  0.358615  0.146859  0.225698  1
  O  O67  1  0.691684  0.545876  0.711102  1
