# generated using pymatgen
data_TlIn5Se7
_symmetry_space_group_name_H-M   'P 1'
_cell_length_a   4.14039609
_cell_length_b   9.63180143
_cell_length_c   18.17619190
_cell_angle_alpha   100.98425027
_cell_angle_beta   90.00000000
_cell_angle_gamma   90.00000000
_symmetry_Int_Tables_number   1
_chemical_formula_structural   TlIn5Se7
_chemical_formula_sum   'Tl2 In10 Se14'
_cell_volume   711.57728202
_cell_formula_units_Z   2
loop_
 _symmetry_equiv_pos_site_id
 _symmetry_equiv_pos_as_xyz
  1  'x, y, z'
loop_
 _atom_site_type_symbol
 _atom_site_label
 _atom_site_symmetry_multiplicity
 _atom_site_fract_x
 _atom_site_fract_y
 _atom_site_fract_z
 _atom_site_occupancy
  Tl  Tl0  1  0.750000  0.977316  0.272063  1
  Tl  Tl1  1  0.250000  0.022684  0.727937  1
  In  In2  1  0.250000  0.171026  0.534113  1
  In  In3  1  0.250000  0.679119  0.813388  1
  In  In4  1  0.750000  0.828974  0.465887  1
  In  In5  1  0.750000  0.320881  0.186612  1
  In  In6  1  0.750000  0.567773  0.122506  1
  In  In7  1  0.250000  0.852396  0.046634  1
  In  In8  1  0.250000  0.484252  0.397734  1
  In  In9  1  0.250000  0.432227  0.877494  1
  In  In10  1  0.750000  0.515748  0.602266  1
  In  In11  1  0.750000  0.147604  0.953366  1
  Se  Se12  1  0.750000  0.736288  0.727681  1
  Se  Se13  1  0.250000  0.379383  0.656393  1
  Se  Se14  1  0.750000  0.330631  0.467180  1
  Se  Se15  1  0.250000  0.335522  0.006391  1
  Se  Se16  1  0.250000  0.669369  0.532820  1
  Se  Se17  1  0.750000  0.056699  0.091122  1
  Se  Se18  1  0.750000  0.664478  0.993609  1
  Se  Se19  1  0.250000  0.742797  0.177067  1
  Se  Se20  1  0.250000  0.263712  0.272319  1
  Se  Se21  1  0.750000  0.620617  0.343607  1
  Se  Se22  1  0.250000  0.970288  0.409136  1
  Se  Se23  1  0.250000  0.943300  0.908878  1
  Se  Se24  1  0.750000  0.029712  0.590864  1
  Se  Se25  1  0.750000  0.257203  0.822932  1
