# generated using pymatgen
data_CsNdHgSe3
_symmetry_space_group_name_H-M   'P 1'
_cell_length_a   4.40435207
_cell_length_b   8.44769622
_cell_length_c   11.41526356
_cell_angle_alpha   90.00000000
_cell_angle_beta   90.00000000
_cell_angle_gamma   105.11062966
_symmetry_Int_Tables_number   1
_chemical_formula_structural   CsNdHgSe3
_chemical_formula_sum   'Cs2 Nd2 Hg2 Se6'
_cell_volume   410.03835084
_cell_formula_units_Z   2
loop_
 _symmetry_equiv_pos_site_id
 _symmetry_equiv_pos_as_xyz
  1  'x, y, z'
loop_
 _atom_site_type_symbol
 _atom_site_label
 _atom_site_symmetry_multiplicity
 _atom_site_fract_x
 _atom_site_fract_y
 _atom_site_fract_z
 _atom_site_occupancy
  Hg  Hg0  1  0.455693  0.911386  0.750000  1
  Hg  Hg1  1  0.544307  0.088614  0.250000  1
  Nd  Nd2  1  0.000000  0.000000  0.000000  1
  Nd  Nd3  1  0.000000  0.000000  0.500000  1
  Cs  Cs4  1  0.743624  0.487248  0.750000  1
  Cs  Cs5  1  0.256376  0.512752  0.250000  1
  Se  Se6  1  0.377943  0.755885  0.952793  1
  Se  Se7  1  0.622057  0.244115  0.047207  1
  Se  Se8  1  0.622057  0.244115  0.452793  1
  Se  Se9  1  0.377943  0.755885  0.547207  1
  Se  Se10  1  0.061428  0.122857  0.750000  1
  Se  Se11  1  0.938572  0.877143  0.250000  1
