# generated using pymatgen
data_Cs3GaAs2
_symmetry_space_group_name_H-M   'P 1'
_cell_length_a   9.02561688
_cell_length_b   11.58325585
_cell_length_c   19.78619097
_cell_angle_alpha   99.72323009
_cell_angle_beta   90.00000000
_cell_angle_gamma   90.00000000
_symmetry_Int_Tables_number   1
_chemical_formula_structural   Cs3GaAs2
_chemical_formula_sum   'Cs24 Ga8 As16'
_cell_volume   2038.85288613
_cell_formula_units_Z   8
loop_
 _symmetry_equiv_pos_site_id
 _symmetry_equiv_pos_as_xyz
  1  'x, y, z'
loop_
 _atom_site_type_symbol
 _atom_site_label
 _atom_site_symmetry_multiplicity
 _atom_site_fract_x
 _atom_site_fract_y
 _atom_site_fract_z
 _atom_site_occupancy
  Cs  Cs0  1  0.920726  0.624539  0.889207  1
  Cs  Cs1  1  0.420726  0.375461  0.610793  1
  Cs  Cs2  1  0.079274  0.375461  0.110793  1
  Cs  Cs3  1  0.579274  0.624539  0.389207  1
  Cs  Cs4  1  0.379116  0.707448  0.839856  1
  Cs  Cs5  1  0.879116  0.292552  0.660144  1
  Cs  Cs6  1  0.620884  0.292552  0.160144  1
  Cs  Cs7  1  0.120884  0.707448  0.339856  1
  Cs  Cs8  1  0.528050  0.846319  0.031227  1
  Cs  Cs9  1  0.028050  0.153681  0.468773  1
  Cs  Cs10  1  0.471950  0.153681  0.968773  1
  Cs  Cs11  1  0.971950  0.846319  0.531227  1
  Cs  Cs12  1  0.408107  0.741060  0.576017  1
  Cs  Cs13  1  0.908107  0.258940  0.923983  1
  Cs  Cs14  1  0.591893  0.258940  0.423983  1
  Cs  Cs15  1  0.091893  0.741060  0.076017  1
  Cs  Cs16  1  0.047886  0.921860  0.758388  1
  Cs  Cs17  1  0.547886  0.078140  0.741612  1
  Cs  Cs18  1  0.952114  0.078140  0.241612  1
  Cs  Cs19  1  0.452114  0.921860  0.258388  1
  Cs  Cs20  1  0.745567  0.639970  0.708017  1
  Cs  Cs21  1  0.245567  0.360030  0.791983  1
  Cs  Cs22  1  0.254433  0.360030  0.291983  1
  Cs  Cs23  1  0.754433  0.639970  0.208017  1
  Ga  Ga24  1  0.880628  0.953585  0.943815  1
  Ga  Ga25  1  0.380628  0.046415  0.556185  1
  Ga  Ga26  1  0.119372  0.046415  0.056185  1
  Ga  Ga27  1  0.619372  0.953585  0.443815  1
  Ga  Ga28  1  0.055726  0.538926  0.576054  1
  Ga  Ga29  1  0.555726  0.461074  0.923946  1
  Ga  Ga30  1  0.944274  0.461074  0.423946  1
  Ga  Ga31  1  0.444274  0.538926  0.076054  1
  As  As32  1  0.699736  0.894882  0.858293  1
  As  As33  1  0.199736  0.105118  0.641707  1
  As  As34  1  0.300264  0.105118  0.141707  1
  As  As35  1  0.800264  0.894882  0.358293  1
  As  As36  1  0.844475  0.045718  0.065448  1
  As  As37  1  0.344475  0.954282  0.434552  1
  As  As38  1  0.155525  0.954282  0.934552  1
  As  As39  1  0.655525  0.045718  0.565448  1
  As  As40  1  0.796316  0.508120  0.531526  1
  As  As41  1  0.296316  0.491880  0.968474  1
  As  As42  1  0.203684  0.491880  0.468474  1
  As  As43  1  0.703684  0.508120  0.031526  1
  As  As44  1  0.143118  0.600705  0.690520  1
  As  As45  1  0.643118  0.399295  0.809480  1
  As  As46  1  0.856882  0.399295  0.309480  1
  As  As47  1  0.356882  0.600705  0.190520  1
