# generated using pymatgen
data_BaU(SiO4)2
_symmetry_space_group_name_H-M   'P 1'
_cell_length_a   5.74999337
_cell_length_b   7.68919425
_cell_length_c   8.85268716
_cell_angle_alpha   90.00000000
_cell_angle_beta   108.95102545
_cell_angle_gamma   90.00000000
_symmetry_Int_Tables_number   1
_chemical_formula_structural   BaU(SiO4)2
_chemical_formula_sum   'Ba2 U2 Si4 O16'
_cell_volume   370.18686357
_cell_formula_units_Z   2
loop_
 _symmetry_equiv_pos_site_id
 _symmetry_equiv_pos_as_xyz
  1  'x, y, z'
loop_
 _atom_site_type_symbol
 _atom_site_label
 _atom_site_symmetry_multiplicity
 _atom_site_fract_x
 _atom_site_fract_y
 _atom_site_fract_z
 _atom_site_occupancy
  Ba  Ba0  1  0.786716  0.250000  0.573432  1
  Ba  Ba1  1  0.213284  0.750000  0.426568  1
  U  U2  1  0.121061  0.250000  0.242123  1
  U  U3  1  0.878939  0.750000  0.757877  1
  Si  Si4  1  0.594753  0.959759  0.189506  1
  Si  Si5  1  0.405247  0.040241  0.810494  1
  Si  Si6  1  0.594753  0.540241  0.189506  1
  Si  Si7  1  0.405247  0.459759  0.810494  1
  O  O8  1  0.869521  0.461574  0.278624  1
  O  O9  1  0.988402  0.750000  0.976804  1
  O  O10  1  0.130479  0.961574  0.721376  1
  O  O11  1  0.011598  0.250000  0.023196  1
  O  O12  1  0.409103  0.038426  0.278624  1
  O  O13  1  0.869521  0.038426  0.278624  1
  O  O14  1  0.590897  0.961574  0.721376  1
  O  O15  1  0.409103  0.461574  0.278624  1
  O  O16  1  0.590897  0.538426  0.721376  1
  O  O17  1  0.232237  0.250000  0.464475  1
  O  O18  1  0.393178  0.250000  0.786355  1
  O  O19  1  0.500000  0.500000  0.000000  1
  O  O20  1  0.130479  0.538426  0.721376  1
  O  O21  1  0.767763  0.750000  0.535525  1
  O  O22  1  0.500000  0.000000  0.000000  1
  O  O23  1  0.606822  0.750000  0.213645  1
