# generated using pymatgen
data_La3(SiNi)4
_symmetry_space_group_name_H-M   'P 1'
_cell_length_a   4.17747423
_cell_length_b   4.12661677
_cell_length_c   12.17247895
_cell_angle_alpha   99.76731814
_cell_angle_beta   99.88757683
_cell_angle_gamma   89.97682656
_symmetry_Int_Tables_number   1
_chemical_formula_structural   La3(SiNi)4
_chemical_formula_sum   'La3 Si4 Ni4'
_cell_volume   203.63684845
_cell_formula_units_Z   1
loop_
 _symmetry_equiv_pos_site_id
 _symmetry_equiv_pos_as_xyz
  1  'x, y, z'
loop_
 _atom_site_type_symbol
 _atom_site_label
 _atom_site_symmetry_multiplicity
 _atom_site_fract_x
 _atom_site_fract_y
 _atom_site_fract_z
 _atom_site_occupancy
  La  La0  1  0.850000  0.349986  0.700003  1
  La  La1  1  0.000000  0.000000  0.000000  1
  La  La2  1  0.150000  0.650014  0.299997  1
  Si  Si3  1  0.700915  0.200901  0.401758  1
  Si  Si4  1  0.448233  0.448248  0.896476  1
  Si  Si5  1  0.551767  0.551752  0.103524  1
  Si  Si6  1  0.299085  0.799099  0.598242  1
  Ni  Ni7  1  0.248545  0.248490  0.497014  1
  Ni  Ni8  1  0.751455  0.751510  0.502986  1
  Ni  Ni9  1  0.599605  0.099590  0.199143  1
  Ni  Ni10  1  0.400395  0.900410  0.800857  1
