# generated using pymatgen
data_Cs2Ga3As5O18
_symmetry_space_group_name_H-M   'P 1'
_cell_length_a   5.20441330
_cell_length_b   12.72945866
_cell_length_c   14.02768201
_cell_angle_alpha   93.91639405
_cell_angle_beta   100.69058761
_cell_angle_gamma   90.00000052
_symmetry_Int_Tables_number   1
_chemical_formula_structural   Cs2Ga3As5O18
_chemical_formula_sum   'Cs4 Ga6 As10 O36'
_cell_volume   910.98637425
_cell_formula_units_Z   2
loop_
 _symmetry_equiv_pos_site_id
 _symmetry_equiv_pos_as_xyz
  1  'x, y, z'
loop_
 _atom_site_type_symbol
 _atom_site_label
 _atom_site_symmetry_multiplicity
 _atom_site_fract_x
 _atom_site_fract_y
 _atom_site_fract_z
 _atom_site_occupancy
  Cs  Cs0  1  0.574144  0.339428  0.257275  1
  Cs  Cs1  1  0.425856  0.660572  0.742725  1
  Cs  Cs2  1  0.316869  0.160572  0.742725  1
  Cs  Cs3  1  0.683131  0.839428  0.257275  1
  Ga  Ga4  1  0.869023  0.886026  0.601171  1
  Ga  Ga5  1  0.130977  0.113974  0.398829  1
  Ga  Ga6  1  0.732148  0.386026  0.601171  1
  Ga  Ga7  1  0.500000  0.500000  0.000000  1
  Ga  Ga8  1  0.267852  0.613974  0.398829  1
  Ga  Ga9  1  0.500000  0.000000  0.000000  1
  As  As10  1  0.932853  0.415575  0.861423  1
  As  As11  1  0.296619  0.873225  0.458736  1
  As  As12  1  0.253323  0.750000  0.000000  1
  As  As13  1  0.703381  0.126775  0.541264  1
  As  As14  1  0.837883  0.626775  0.541264  1
  As  As15  1  0.067147  0.584425  0.138577  1
  As  As16  1  0.746677  0.250000  1.000000  1
  As  As17  1  0.162117  0.373225  0.458736  1
  As  As18  1  0.071431  0.084425  0.138577  1
  As  As19  1  0.928569  0.915575  0.861423  1
  O  O20  1  0.148244  0.008981  0.919321  1
  O  O21  1  0.360369  0.379777  0.571895  1
  O  O22  1  0.788084  0.388631  0.744642  1
  O  O23  1  0.639631  0.620223  0.428105  1
  O  O24  1  0.162505  0.963855  0.378383  1
  O  O25  1  0.631486  0.884628  0.476183  1
  O  O26  1  0.738729  0.562530  0.121785  1
  O  O27  1  0.616944  0.937470  0.878215  1
  O  O28  1  0.956558  0.888631  0.744642  1
  O  O29  1  0.228923  0.491019  0.080679  1
  O  O30  1  0.813595  0.238950  0.612724  1
  O  O31  1  0.186405  0.761050  0.387276  1
  O  O32  1  0.837495  0.036145  0.621617  1
  O  O33  1  0.555460  0.144777  0.954875  1
  O  O34  1  0.001096  0.784296  0.905245  1
  O  O35  1  0.155302  0.615372  0.523817  1
  O  O36  1  0.368514  0.115372  0.523817  1
  O  O37  1  0.211526  0.879777  0.571895  1
  O  O38  1  0.215878  0.463855  0.378383  1
  O  O39  1  0.211916  0.611369  0.255358  1
  O  O40  1  0.799129  0.738950  0.612724  1
  O  O41  1  0.771077  0.508981  0.919321  1
  O  O42  1  0.904149  0.284296  0.905245  1
  O  O43  1  0.200871  0.261050  0.387276  1
  O  O44  1  0.095851  0.715704  0.094755  1
  O  O45  1  0.261271  0.437470  0.878215  1
  O  O46  1  0.998904  0.215704  0.094755  1
  O  O47  1  0.600585  0.355223  0.045125  1
  O  O48  1  0.788474  0.120223  0.428105  1
  O  O49  1  0.444540  0.855223  0.045125  1
  O  O50  1  0.399415  0.644777  0.954875  1
  O  O51  1  0.844698  0.384628  0.476183  1
  O  O52  1  0.784122  0.536145  0.621617  1
  O  O53  1  0.851756  0.991019  0.080679  1
  O  O54  1  0.383056  0.062530  0.121785  1
  O  O55  1  0.043442  0.111369  0.255358  1
