# generated using pymatgen
data_Te2Xe(OF5)2
_symmetry_space_group_name_H-M   'P 1'
_cell_length_a   9.88284931
_cell_length_b   10.71772246
_cell_length_c   10.88290330
_cell_angle_alpha   106.96810106
_cell_angle_beta   90.00000000
_cell_angle_gamma   90.00000000
_symmetry_Int_Tables_number   1
_chemical_formula_structural   Te2Xe(OF5)2
_chemical_formula_sum   'Te8 Xe4 O8 F40'
_cell_volume   1102.55335477
_cell_formula_units_Z   4
loop_
 _symmetry_equiv_pos_site_id
 _symmetry_equiv_pos_as_xyz
  1  'x, y, z'
loop_
 _atom_site_type_symbol
 _atom_site_label
 _atom_site_symmetry_multiplicity
 _atom_site_fract_x
 _atom_site_fract_y
 _atom_site_fract_z
 _atom_site_occupancy
  Te  Te0  1  0.785288  0.675424  0.660069  1
  Te  Te1  1  0.714712  0.675424  0.160069  1
  Te  Te2  1  0.285288  0.324576  0.839931  1
  Te  Te3  1  0.795788  0.169932  0.649723  1
  Te  Te4  1  0.204212  0.830068  0.350277  1
  Te  Te5  1  0.295788  0.830068  0.850277  1
  Te  Te6  1  0.704212  0.169932  0.149723  1
  Te  Te7  1  0.214712  0.324576  0.339931  1
  Xe  Xe8  1  0.000000  0.500000  0.000000  1
  Xe  Xe9  1  0.500000  0.500000  0.500000  1
  Xe  Xe10  1  0.000000  0.000000  0.000000  1
  Xe  Xe11  1  0.500000  0.000000  0.500000  1
  O  O12  1  0.343069  0.953392  0.351504  1
  O  O13  1  0.156931  0.953392  0.851504  1
  O  O14  1  0.118308  0.320648  0.926295  1
  O  O15  1  0.618308  0.679352  0.573705  1
  O  O16  1  0.881692  0.679352  0.073705  1
  O  O17  1  0.843069  0.046608  0.148496  1
  O  O18  1  0.381692  0.320648  0.426295  1
  O  O19  1  0.656931  0.046608  0.648496  1
  F  F20  1  0.763408  0.824266  0.293665  1
  F  F21  1  0.949557  0.677290  0.747593  1
  F  F22  1  0.783066  0.567477  0.255182  1
  F  F23  1  0.283066  0.432523  0.244818  1
  F  F24  1  0.254765  0.725890  0.185703  1
  F  F25  1  0.585881  0.077941  0.227120  1
  F  F26  1  0.152303  0.473977  0.465473  1
  F  F27  1  0.236592  0.175734  0.706335  1
  F  F28  1  0.745235  0.274110  0.814297  1
  F  F29  1  0.736592  0.824266  0.793665  1
  F  F30  1  0.550443  0.677290  0.247593  1
  F  F31  1  0.065672  0.708475  0.342446  1
  F  F32  1  0.050443  0.322710  0.252407  1
  F  F33  1  0.684342  0.271125  0.574583  1
  F  F34  1  0.245235  0.725890  0.685703  1
  F  F35  1  0.634165  0.783733  0.073321  1
  F  F36  1  0.914119  0.077941  0.727120  1
  F  F37  1  0.754765  0.274110  0.314297  1
  F  F38  1  0.216934  0.432523  0.744818  1
  F  F39  1  0.859415  0.078518  0.485413  1
  F  F40  1  0.449557  0.322710  0.752407  1
  F  F41  1  0.414119  0.922059  0.772880  1
  F  F42  1  0.315658  0.728875  0.425417  1
  F  F43  1  0.847697  0.526023  0.534527  1
  F  F44  1  0.640585  0.078518  0.985413  1
  F  F45  1  0.565672  0.291525  0.157554  1
  F  F46  1  0.359415  0.921482  0.014587  1
  F  F47  1  0.134165  0.216267  0.426679  1
  F  F48  1  0.434328  0.708475  0.842446  1
  F  F49  1  0.263408  0.175734  0.206335  1
  F  F50  1  0.716934  0.567477  0.755182  1
  F  F51  1  0.184342  0.728875  0.925417  1
  F  F52  1  0.347697  0.473977  0.965473  1
  F  F53  1  0.652303  0.526023  0.034527  1
  F  F54  1  0.365835  0.216267  0.926679  1
  F  F55  1  0.865835  0.783733  0.573321  1
  F  F56  1  0.085881  0.922059  0.272880  1
  F  F57  1  0.815658  0.271125  0.074583  1
  F  F58  1  0.140585  0.921482  0.514587  1
  F  F59  1  0.934328  0.291525  0.657554  1
