# generated using pymatgen
data_Li4Mo5O17
_symmetry_space_group_name_H-M   'P 1'
_cell_length_a   6.90335621
_cell_length_b   9.64131737
_cell_length_c   11.08043103
_cell_angle_alpha   73.07132813
_cell_angle_beta   88.57590283
_cell_angle_gamma   69.69031620
_symmetry_Int_Tables_number   1
_chemical_formula_structural   Li4Mo5O17
_chemical_formula_sum   'Li8 Mo10 O34'
_cell_volume   659.27433156
_cell_formula_units_Z   2
loop_
 _symmetry_equiv_pos_site_id
 _symmetry_equiv_pos_as_xyz
  1  'x, y, z'
loop_
 _atom_site_type_symbol
 _atom_site_label
 _atom_site_symmetry_multiplicity
 _atom_site_fract_x
 _atom_site_fract_y
 _atom_site_fract_z
 _atom_site_occupancy
  Mo  Mo0  1  0.362193  0.878450  0.023842  1
  Mo  Mo1  1  0.637807  0.121550  0.976158  1
  Mo  Mo2  1  0.738739  0.543967  0.147348  1
  Mo  Mo3  1  0.261261  0.456033  0.852652  1
  Mo  Mo4  1  0.520600  0.710271  0.796824  1
  Mo  Mo5  1  0.479400  0.289729  0.203176  1
  Mo  Mo6  1  0.616370  0.692825  0.388787  1
  Mo  Mo7  1  0.383630  0.307175  0.611213  1
  Mo  Mo8  1  0.153232  0.057435  0.664106  1
  Mo  Mo9  1  0.846768  0.942565  0.335894  1
  Li  Li10  1  0.255774  0.050089  0.361483  1
  Li  Li11  1  0.744226  0.949911  0.638517  1
  Li  Li12  1  0.799973  0.283561  0.434711  1
  Li  Li13  1  0.200027  0.716439  0.565289  1
  Li  Li14  1  0.193142  0.596424  0.311440  1
  Li  Li15  1  0.806858  0.403576  0.688560  1
  Li  Li16  1  0.968189  0.784982  0.933928  1
  Li  Li17  1  0.031811  0.215018  0.066072  1
  O  O18  1  0.309822  0.068569  0.035602  1
  O  O19  1  0.690178  0.931431  0.964398  1
  O  O20  1  0.342537  0.828892  0.650423  1
  O  O21  1  0.657463  0.171108  0.349577  1
  O  O22  1  0.341564  0.917788  0.841926  1
  O  O23  1  0.658436  0.082212  0.158074  1
  O  O24  1  0.137010  0.839002  0.057917  1
  O  O25  1  0.862990  0.160998  0.942083  1
  O  O26  1  0.788564  0.352306  0.136305  1
  O  O27  1  0.211436  0.647694  0.863695  1
  O  O28  1  0.954315  0.589297  0.095883  1
  O  O29  1  0.045685  0.410703  0.904117  1
  O  O30  1  0.552590  0.664614  0.987621  1
  O  O31  1  0.447410  0.335386  0.012379  1
  O  O32  1  0.752233  0.598143  0.537835  1
  O  O33  1  0.247767  0.401857  0.462165  1
  O  O34  1  0.949848  0.996322  0.729430  1
  O  O35  1  0.050152  0.003678  0.270570  1
  O  O36  1  0.745537  0.753390  0.763252  1
  O  O37  1  0.254463  0.246610  0.236748  1
  O  O38  1  0.584922  0.516240  0.790615  1
  O  O39  1  0.415078  0.483760  0.209385  1
  O  O40  1  0.084772  0.117478  0.497520  1
  O  O41  1  0.915228  0.882522  0.502480  1
  O  O42  1  0.540692  0.752363  0.176915  1
  O  O43  1  0.459308  0.247637  0.823085  1
  O  O44  1  0.548346  0.902139  0.373236  1
  O  O45  1  0.451654  0.097861  0.626764  1
  O  O46  1  0.767477  0.501973  0.325930  1
  O  O47  1  0.232523  0.498027  0.674070  1
  O  O48  1  0.096884  0.245036  0.691892  1
  O  O49  1  0.903116  0.754964  0.308108  1
  O  O50  1  0.368930  0.675895  0.414085  1
  O  O51  1  0.631070  0.324105  0.585915  1
