# generated using pymatgen
data_B
_symmetry_space_group_name_H-M   'P 1'
_cell_length_a   4.97209805
_cell_length_b   8.67487139
_cell_length_c   8.67487139
_cell_angle_alpha   90.00000000
_cell_angle_beta   90.00000000
_cell_angle_gamma   90.00000000
_symmetry_Int_Tables_number   1
_chemical_formula_structural   B
_chemical_formula_sum   B48
_cell_volume   374.16725174
_cell_formula_units_Z   48
loop_
 _symmetry_equiv_pos_site_id
 _symmetry_equiv_pos_as_xyz
  1  'x, y, z'
loop_
 _atom_site_type_symbol
 _atom_site_label
 _atom_site_symmetry_multiplicity
 _atom_site_fract_x
 _atom_site_fract_y
 _atom_site_fract_z
 _atom_site_occupancy
  B  B0  1  0.906431  0.416037  0.829242  1
  B  B1  1  0.411368  0.727210  0.583004  1
  B  B2  1  0.588632  0.272790  0.583004  1
  B  B3  1  0.617215  0.874943  0.125057  1
  B  B4  1  0.882785  0.625057  0.374943  1
  B  B5  1  0.906431  0.170758  0.583963  1
  B  B6  1  0.588632  0.727210  0.416996  1
  B  B7  1  0.411368  0.416996  0.272790  1
  B  B8  1  0.093569  0.170758  0.416037  1
  B  B9  1  0.411368  0.272790  0.416996  1
  B  B10  1  0.576735  0.755846  0.755846  1
  B  B11  1  0.923265  0.255846  0.255846  1
  B  B12  1  0.406431  0.083963  0.329242  1
  B  B13  1  0.906431  0.583963  0.170758  1
  B  B14  1  0.423265  0.755846  0.244154  1
  B  B15  1  0.906431  0.829242  0.416037  1
  B  B16  1  0.088632  0.916996  0.772790  1
  B  B17  1  0.076735  0.744154  0.255846  1
  B  B18  1  0.911368  0.772790  0.083004  1
  B  B19  1  0.593569  0.083963  0.670758  1
  B  B20  1  0.088632  0.083004  0.227210  1
  B  B21  1  0.411368  0.583004  0.727210  1
  B  B22  1  0.406431  0.670758  0.916037  1
  B  B23  1  0.576735  0.244154  0.244154  1
  B  B24  1  0.911368  0.227210  0.916996  1
  B  B25  1  0.093569  0.583963  0.829242  1
  B  B26  1  0.593569  0.670758  0.083963  1
  B  B27  1  0.882785  0.374943  0.625057  1
  B  B28  1  0.593569  0.329242  0.916037  1
  B  B29  1  0.076735  0.255846  0.744154  1
  B  B30  1  0.382785  0.125057  0.125057  1
  B  B31  1  0.923265  0.744154  0.744154  1
  B  B32  1  0.911368  0.916996  0.227210  1
  B  B33  1  0.911368  0.083004  0.772790  1
  B  B34  1  0.588632  0.583004  0.272790  1
  B  B35  1  0.088632  0.772790  0.916996  1
  B  B36  1  0.088632  0.227210  0.083004  1
  B  B37  1  0.588632  0.416996  0.727210  1
  B  B38  1  0.406431  0.916037  0.670758  1
  B  B39  1  0.093569  0.829242  0.583963  1
  B  B40  1  0.117215  0.625057  0.625057  1
  B  B41  1  0.093569  0.416037  0.170758  1
  B  B42  1  0.423265  0.244154  0.755846  1
  B  B43  1  0.617215  0.125057  0.874943  1
  B  B44  1  0.406431  0.329242  0.083963  1
  B  B45  1  0.117215  0.374943  0.374943  1
  B  B46  1  0.382785  0.874943  0.874943  1
  B  B47  1  0.593569  0.916037  0.329242  1
