# generated using pymatgen
data_Cs3Ge4Au
_symmetry_space_group_name_H-M   'P 1'
_cell_length_a   6.24731216
_cell_length_b   7.31261324
_cell_length_c   13.26010358
_cell_angle_alpha   90.00000000
_cell_angle_beta   90.00000000
_cell_angle_gamma   90.00000000
_symmetry_Int_Tables_number   1
_chemical_formula_structural   Cs3Ge4Au
_chemical_formula_sum   'Cs6 Ge8 Au2'
_cell_volume   605.77692715
_cell_formula_units_Z   2
loop_
 _symmetry_equiv_pos_site_id
 _symmetry_equiv_pos_as_xyz
  1  'x, y, z'
loop_
 _atom_site_type_symbol
 _atom_site_label
 _atom_site_symmetry_multiplicity
 _atom_site_fract_x
 _atom_site_fract_y
 _atom_site_fract_z
 _atom_site_occupancy
  Au  Au0  1  0.300295  0.250000  0.750000  1
  Au  Au1  1  0.699705  0.750000  0.250000  1
  Ge  Ge2  1  0.067480  0.561890  0.250000  1
  Ge  Ge3  1  0.067480  0.938110  0.250000  1
  Ge  Ge4  1  0.932520  0.061890  0.750000  1
  Ge  Ge5  1  0.932520  0.438110  0.750000  1
  Ge  Ge6  1  0.663491  0.250000  0.644807  1
  Ge  Ge7  1  0.663491  0.250000  0.855193  1
  Ge  Ge8  1  0.336509  0.750000  0.355193  1
  Ge  Ge9  1  0.336509  0.750000  0.144807  1
  Cs  Cs10  1  0.157459  0.250000  0.016350  1
  Cs  Cs11  1  0.157459  0.250000  0.483650  1
  Cs  Cs12  1  0.842541  0.750000  0.983650  1
  Cs  Cs13  1  0.842541  0.750000  0.516350  1
  Cs  Cs14  1  0.572940  0.250000  0.250000  1
  Cs  Cs15  1  0.427060  0.750000  0.750000  1
