# generated using pymatgen
data_Na3Zr2Si2PO12
_symmetry_space_group_name_H-M   'P 1'
_cell_length_a   9.15085399
_cell_length_b   18.31347918
_cell_length_c   9.31796972
_cell_angle_alpha   61.44671810
_cell_angle_beta   61.40959474
_cell_angle_gamma   60.20910854
_symmetry_Int_Tables_number   1
_chemical_formula_structural   Na3Zr2Si2PO12
_chemical_formula_sum   'Na12 Zr8 Si8 P4 O48'
_cell_volume   1129.25904411
_cell_formula_units_Z   4
loop_
 _symmetry_equiv_pos_site_id
 _symmetry_equiv_pos_as_xyz
  1  'x, y, z'
loop_
 _atom_site_type_symbol
 _atom_site_label
 _atom_site_symmetry_multiplicity
 _atom_site_fract_x
 _atom_site_fract_y
 _atom_site_fract_z
 _atom_site_occupancy
  Na  Na0  1  0.052100  0.156504  0.921857  1
  Na  Na1  1  0.341936  0.019391  0.441641  1
  Na  Na2  1  0.607348  0.193098  0.257808  1
  Na  Na3  1  0.394412  0.303961  0.748168  1
  Na  Na4  1  0.310465  0.526789  0.415401  1
  Na  Na5  1  0.052968  0.655882  0.918598  1
  Na  Na6  1  0.944468  0.346502  0.082971  1
  Na  Na7  1  0.690798  0.473499  0.581096  1
  Na  Na8  1  0.608586  0.695960  0.250249  1
  Na  Na9  1  0.393340  0.800529  0.758299  1
  Na  Na10  1  0.942977  0.849455  0.090268  1
  Na  Na11  1  0.729677  0.960447  0.637717  1
  O  O12  1  0.109048  0.003008  0.084489  1
  O  O13  1  0.015659  0.055473  0.579355  1
  O  O14  1  0.068478  0.217609  0.291042  1
  O  O15  1  0.262460  0.316672  0.050987  1
  O  O16  1  0.110101  0.502406  0.084300  1
  O  O17  1  0.422755  0.144293  0.224384  1
  O  O18  1  0.245842  0.263703  0.380713  1
  O  O19  1  0.061905  0.389423  0.750577  1
  O  O20  1  0.291167  0.211545  0.718991  1
  O  O21  1  0.005594  0.554532  0.584583  1
  O  O22  1  0.430627  0.034300  0.797949  1
  O  O23  1  0.475072  0.377609  0.116812  1
  O  O24  1  0.070966  0.714068  0.296583  1
  O  O25  1  0.780202  0.029785  0.248499  1
  O  O26  1  0.366102  0.371649  0.445316  1
  O  O27  1  0.639832  0.126604  0.559323  1
  O  O28  1  0.223190  0.469563  0.746868  1
  O  O29  1  0.521899  0.123780  0.885744  1
  O  O30  1  0.258048  0.816934  0.055101  1
  O  O31  1  0.575003  0.464234  0.203429  1
  O  O32  1  0.710224  0.287473  0.279598  1
  O  O33  1  0.424918  0.644243  0.220182  1
  O  O34  1  0.936455  0.110346  0.250209  1
  O  O35  1  0.250411  0.761548  0.381841  1
  O  O36  1  0.756975  0.236160  0.618244  1
  O  O37  1  0.052948  0.892254  0.747691  1
  O  O38  1  0.578635  0.355819  0.776009  1
  O  O39  1  0.889875  1.000389  0.909440  1
  O  O40  1  0.289698  0.711444  0.723035  1
  O  O41  1  0.430074  0.535033  0.794248  1
  O  O42  1  0.740842  0.183745  0.947342  1
  O  O43  1  0.472536  0.878280  0.120477  1
  O  O44  1  0.779681  0.530743  0.250747  1
  O  O45  1  0.369897  0.869616  0.450009  1
  O  O46  1  0.634512  0.629555  0.552608  1
  O  O47  1  0.222918  0.965756  0.752300  1
  O  O48  1  0.931359  0.285472  0.705324  1
  O  O49  1  0.527846  0.622894  0.881130  1
  O  O50  1  0.576383  0.963952  0.206104  1
  O  O51  1  0.995754  0.445573  0.414253  1
  O  O52  1  0.712574  0.788168  0.277110  1
  O  O53  1  0.940954  0.610499  0.248143  1
  O  O54  1  0.754555  0.737780  0.617283  1
  O  O55  1  0.578305  0.854650  0.783033  1
  O  O56  1  0.893073  0.497430  0.914094  1
  O  O57  1  0.746067  0.682144  0.944491  1
  O  O58  1  0.930329  0.787649  0.703537  1
  O  O59  1  -0.001971  0.944605  0.413186  1
  P  P60  1  0.043950  0.478813  0.748898  1
  P  P61  1  0.956890  0.020729  0.250309  1
  P  P62  1  0.043159  0.979670  0.747104  1
  P  P63  1  0.959095  0.521210  0.249208  1
  Si  Si64  1  0.248780  0.236027  0.235327  1
  Si  Si65  1  0.471461  0.123899  0.738522  1
  Si  Si66  1  0.530108  0.375865  0.262535  1
  Si  Si67  1  0.249560  0.734805  0.237124  1
  Si  Si68  1  0.753253  0.264469  0.763033  1
  Si  Si69  1  0.472253  0.623825  0.736552  1
  Si  Si70  1  0.530477  0.876122  0.264623  1
  Si  Si71  1  0.754098  0.764589  0.762375  1
  Zr  Zr72  1  0.153784  0.322967  0.555845  1
  Zr  Zr73  1  0.644897  0.077515  0.057348  1
  Zr  Zr74  1  0.356460  0.423355  0.942154  1
  Zr  Zr75  1  0.850828  0.177100  0.441867  1
  Zr  Zr76  1  0.158462  0.821916  0.554406  1
  Zr  Zr77  1  0.647770  0.576282  0.055694  1
  Zr  Zr78  1  0.354387  0.923565  0.945152  1
  Zr  Zr79  1  0.847480  0.677552  0.443237  1
