# generated using pymatgen
data_U7(Pd3S4)8
_symmetry_space_group_name_H-M   'P 1'
_cell_length_a   13.38159418
_cell_length_b   13.38159404
_cell_length_c   11.58879983
_cell_angle_alpha   54.73561048
_cell_angle_beta   54.73561089
_cell_angle_gamma   90.00000080
_symmetry_Int_Tables_number   1
_chemical_formula_structural   U7(Pd3S4)8
_chemical_formula_sum   'U7 Pd24 S32'
_cell_volume   1198.10130512
_cell_formula_units_Z   1
loop_
 _symmetry_equiv_pos_site_id
 _symmetry_equiv_pos_as_xyz
  1  'x, y, z'
loop_
 _atom_site_type_symbol
 _atom_site_label
 _atom_site_symmetry_multiplicity
 _atom_site_fract_x
 _atom_site_fract_y
 _atom_site_fract_z
 _atom_site_occupancy
  Pd  Pd0  1  0.128316  0.248966  0.000000  1
  Pd  Pd1  1  0.128316  0.751034  1.000000  1
  Pd  Pd2  1  0.126688  0.376230  0.247540  1
  Pd  Pd3  1  0.120650  0.871684  0.256632  1
  Pd  Pd4  1  0.376230  0.249541  1.000000  1
  Pd  Pd5  1  0.376230  0.750459  1.000000  1
  Pd  Pd6  1  0.248966  0.120650  0.502068  1
  Pd  Pd7  1  0.249541  0.873312  0.500917  1
  Pd  Pd8  1  0.248966  0.377282  0.502068  1
  Pd  Pd9  1  0.249541  0.625771  0.500917  1
  Pd  Pd10  1  0.623770  0.249541  0.000000  1
  Pd  Pd11  1  0.623770  0.750459  0.000000  1
  Pd  Pd12  1  0.622718  0.871684  0.256632  1
  Pd  Pd13  1  0.625771  0.376230  0.247540  1
  Pd  Pd14  1  0.377282  0.128316  0.743368  1
  Pd  Pd15  1  0.374229  0.623770  0.752460  1
  Pd  Pd16  1  0.871684  0.248966  0.000000  1
  Pd  Pd17  1  0.871684  0.751034  1.000000  1
  Pd  Pd18  1  0.750459  0.126688  0.499083  1
  Pd  Pd19  1  0.750459  0.374229  0.499083  1
  Pd  Pd20  1  0.751034  0.622718  0.497932  1
  Pd  Pd21  1  0.751034  0.879350  0.497932  1
  Pd  Pd22  1  0.879350  0.128316  0.743368  1
  Pd  Pd23  1  0.873312  0.623770  0.752460  1
  S  S24  1  0.000875  0.250315  0.248820  1
  S  S25  1  0.000000  0.738150  0.261850  1
  S  S26  1  0.249440  0.999125  0.250570  1
  S  S27  1  0.250315  0.500010  0.250549  1
  S  S28  1  1.000000  1.000000  0.738150  1
  S  S29  1  0.999125  0.499135  0.751180  1
  S  S30  1  1.000000  0.261850  0.738150  1
  S  S31  1  0.250315  0.249440  0.250549  1
  S  S32  1  0.249440  0.750305  0.250570  1
  S  S33  1  0.999125  0.749685  0.751180  1
  S  S34  1  0.499135  0.249440  0.250549  1
  S  S35  1  0.261850  0.261850  0.738150  1
  S  S36  1  0.499990  0.999125  0.250570  1
  S  S37  1  0.261850  1.000000  0.738150  1
  S  S38  1  0.499135  0.500010  0.250549  1
  S  S39  1  0.499990  0.750305  0.250570  1
  S  S40  1  0.249695  0.499135  0.751180  1
  S  S41  1  0.249695  0.749685  0.751180  1
  S  S42  1  0.738150  0.000000  0.261850  1
  S  S43  1  0.500010  0.000875  0.749430  1
  S  S44  1  0.750305  0.500865  0.248820  1
  S  S45  1  0.500865  0.499990  0.749451  1
  S  S46  1  0.750305  0.250315  0.248820  1
  S  S47  1  0.500010  0.249695  0.749430  1
  S  S48  1  0.738150  0.738150  0.261850  1
  S  S49  1  0.500865  0.750560  0.749451  1
  S  S50  1  0.750560  0.249695  0.749430  1
  S  S51  1  0.749685  0.750560  0.749451  1
  S  S52  1  0.000000  0.000000  0.261850  1
  S  S53  1  0.750560  0.000875  0.749430  1
  S  S54  1  0.000875  0.500865  0.248820  1
  S  S55  1  0.749685  0.499990  0.749451  1
  U  U56  1  0.500000  0.500000  0.000000  1
  U  U57  1  0.500000  0.000000  0.000000  1
  U  U58  1  0.500000  0.000000  0.500000  1
  U  U59  1  0.500000  0.500000  0.500000  1
  U  U60  1  0.000000  0.500000  0.000000  1
  U  U61  1  0.000000  0.000000  0.500000  1
  U  U62  1  0.000000  0.500000  0.500000  1
