# generated using pymatgen
data_NaV6O11
_symmetry_space_group_name_H-M   'P 1'
_cell_length_a   5.87278878
_cell_length_b   5.87278896
_cell_length_c   13.52697030
_cell_angle_alpha   90.00000000
_cell_angle_beta   90.00000000
_cell_angle_gamma   120.00000495
_symmetry_Int_Tables_number   1
_chemical_formula_structural   NaV6O11
_chemical_formula_sum   'Na2 V12 O22'
_cell_volume   404.03586926
_cell_formula_units_Z   2
loop_
 _symmetry_equiv_pos_site_id
 _symmetry_equiv_pos_as_xyz
  1  'x, y, z'
loop_
 _atom_site_type_symbol
 _atom_site_label
 _atom_site_symmetry_multiplicity
 _atom_site_fract_x
 _atom_site_fract_y
 _atom_site_fract_z
 _atom_site_occupancy
  O  O0  1  0.825631  0.174368  0.925304  1
  O  O1  1  0.174369  0.348737  0.425304  1
  O  O2  1  0.333334  0.666667  0.916983  1
  O  O3  1  0.666667  0.333333  0.416983  1
  O  O4  1  0.666667  0.333333  0.083017  1
  O  O5  1  0.333334  0.666667  0.583017  1
  O  O6  1  0.852498  0.704995  0.250000  1
  O  O7  1  0.147501  0.852498  0.750000  1
  O  O8  1  0.704996  0.852498  0.750000  1
  O  O9  1  0.295004  0.147502  0.250000  1
  O  O10  1  0.852498  0.147502  0.250000  1
  O  O11  1  0.651263  0.825632  0.425304  1
  O  O12  1  0.174369  0.348737  0.074696  1
  O  O13  1  0.825631  0.174368  0.574696  1
  O  O14  1  0.348736  0.174368  0.574696  1
  O  O15  1  0.651263  0.825632  0.074696  1
  O  O16  1  0.174369  0.825632  0.074696  1
  O  O17  1  0.825632  0.651262  0.925304  1
  O  O18  1  0.174369  0.825632  0.425304  1
  O  O19  1  0.825632  0.651262  0.574696  1
  O  O20  1  0.348736  0.174368  0.925304  1
  O  O21  1  0.147502  0.295005  0.750000  1
  Na  Na22  1  0.333334  0.666667  0.250000  1
  Na  Na23  1  0.666667  0.333333  0.750000  1
  V  V24  1  0.666667  0.333333  0.250000  1
  V  V25  1  0.333334  0.666667  0.750000  1
  V  V26  1  0.000000  0.000000  0.351438  1
  V  V27  1  0.000000  0.000000  0.851437  1
  V  V28  1  0.000000  0.000000  0.648563  1
  V  V29  1  0.000000  0.000000  0.148563  1
  V  V30  1  0.500001  0.000000  0.500000  1
  V  V31  1  0.500000  0.500001  0.000000  1
  V  V32  1  0.000001  0.500001  0.000000  1
  V  V33  1  0.000001  0.500001  0.500000  1
  V  V34  1  0.500000  0.500001  0.500000  1
  V  V35  1  0.500001  0.000000  0.000000  1
