# generated using pymatgen
data_TcSb(OF4)2
_symmetry_space_group_name_H-M   'P 1'
_cell_length_a   7.55426629
_cell_length_b   9.70802534
_cell_length_c   10.73213871
_cell_angle_alpha   90.00000000
_cell_angle_beta   90.00000000
_cell_angle_gamma   93.02986479
_symmetry_Int_Tables_number   1
_chemical_formula_structural   TcSb(OF4)2
_chemical_formula_sum   'Tc4 Sb4 O8 F32'
_cell_volume   785.96272856
_cell_formula_units_Z   4
loop_
 _symmetry_equiv_pos_site_id
 _symmetry_equiv_pos_as_xyz
  1  'x, y, z'
loop_
 _atom_site_type_symbol
 _atom_site_label
 _atom_site_symmetry_multiplicity
 _atom_site_fract_x
 _atom_site_fract_y
 _atom_site_fract_z
 _atom_site_occupancy
  Tc  Tc0  1  0.630925  0.162394  0.327213  1
  Tc  Tc1  1  0.869075  0.337606  0.827213  1
  Tc  Tc2  1  0.369075  0.837606  0.672787  1
  Tc  Tc3  1  0.130925  0.662394  0.172787  1
  Sb  Sb4  1  0.717036  0.812725  0.978038  1
  Sb  Sb5  1  0.782964  0.687275  0.478038  1
  Sb  Sb6  1  0.217036  0.312725  0.521962  1
  Sb  Sb7  1  0.282964  0.187275  0.021962  1
  O  O8  1  0.715991  0.190240  0.469999  1
  O  O9  1  0.284009  0.809760  0.530001  1
  O  O10  1  0.213689  0.925425  0.745240  1
  O  O11  1  0.215991  0.690240  0.030001  1
  O  O12  1  0.713689  0.425425  0.754760  1
  O  O13  1  0.784009  0.309760  0.969999  1
  O  O14  1  0.286311  0.574575  0.245240  1
  O  O15  1  0.786311  0.074575  0.254760  1
  F  F16  1  0.783938  0.003415  0.986845  1
  F  F17  1  0.466317  0.019718  0.362012  1
  F  F18  1  0.830259  0.166116  0.755746  1
  F  F19  1  0.350060  0.378477  0.030169  1
  F  F20  1  0.283938  0.503415  0.513155  1
  F  F21  1  0.533683  0.980282  0.637988  1
  F  F22  1  0.850060  0.878477  0.469831  1
  F  F23  1  0.041376  0.350923  0.653048  1
  F  F24  1  0.889518  0.776601  0.112266  1
  F  F25  1  0.330259  0.666116  0.744254  1
  F  F26  1  0.149940  0.121523  0.530169  1
  F  F27  1  0.169741  0.833884  0.244254  1
  F  F28  1  0.042396  0.337010  0.397894  1
  F  F29  1  0.716062  0.496585  0.486845  1
  F  F30  1  0.610482  0.723399  0.612266  1
  F  F31  1  0.389518  0.276601  0.387734  1
  F  F32  1  0.393506  0.287329  0.644222  1
  F  F33  1  0.649940  0.621523  0.969831  1
  F  F34  1  0.106494  0.212671  0.144222  1
  F  F35  1  0.957604  0.662990  0.602106  1
  F  F36  1  0.216062  0.996585  0.013155  1
  F  F37  1  0.541376  0.850923  0.846952  1
  F  F38  1  0.033683  0.480282  0.862012  1
  F  F39  1  0.457604  0.162990  0.897894  1
  F  F40  1  0.606494  0.712671  0.355778  1
  F  F41  1  0.110482  0.223399  0.887734  1
  F  F42  1  0.458624  0.149077  0.153048  1
  F  F43  1  0.669741  0.333884  0.255746  1
  F  F44  1  0.893506  0.787329  0.855778  1
  F  F45  1  0.966317  0.519718  0.137988  1
  F  F46  1  0.542396  0.837010  0.102106  1
  F  F47  1  0.958624  0.649077  0.346952  1
