# generated using pymatgen
data_Ta2Tl3Cu3S8
_symmetry_space_group_name_H-M   'P 1'
_cell_length_a   5.58450644
_cell_length_b   7.44226569
_cell_length_c   10.30150307
_cell_angle_alpha   96.18321829
_cell_angle_beta   105.72759525
_cell_angle_gamma   90.00779794
_symmetry_Int_Tables_number   1
_chemical_formula_structural   Ta2Tl3Cu3S8
_chemical_formula_sum   'Ta2 Tl3 Cu3 S8'
_cell_volume   409.52554485
_cell_formula_units_Z   1
loop_
 _symmetry_equiv_pos_site_id
 _symmetry_equiv_pos_as_xyz
  1  'x, y, z'
loop_
 _atom_site_type_symbol
 _atom_site_label
 _atom_site_symmetry_multiplicity
 _atom_site_fract_x
 _atom_site_fract_y
 _atom_site_fract_z
 _atom_site_occupancy
  Ta  Ta0  1  0.400888  0.189744  0.259901  1
  Ta  Ta1  1  0.141180  0.810291  0.740092  1
  Tl  Tl2  1  0.311792  0.287804  0.633893  1
  Tl  Tl3  1  0.677816  0.712181  0.366122  1
  Tl  Tl4  1  0.012296  0.500005  0.000014  1
  Cu  Cu5  1  0.268520  -0.000001  0.000033  1
  Cu  Cu6  1  0.896369  0.180352  0.251130  1
  Cu  Cu7  1  0.645422  0.819634  0.748903  1
  S  S8  1  0.306379  0.871629  0.568784  1
  S  S9  1  0.132190  0.940160  0.187557  1
  S  S10  1  0.737469  0.128466  0.431232  1
  S  S11  1  0.179647  0.426045  0.327291  1
  S  S12  1  0.944821  0.059799  0.812471  1
  S  S13  1  0.465306  0.747128  0.922010  1
  S  S14  1  0.543137  0.252797  0.077965  1
  S  S15  1  0.852468  0.573966  0.672602  1
