# generated using pymatgen
data_P2H17C4NO8
_symmetry_space_group_name_H-M   'P 1'
_cell_length_a   8.19781769
_cell_length_b   8.72042414
_cell_length_c   16.92537097
_cell_angle_alpha   93.10893753
_cell_angle_beta   90.00000000
_cell_angle_gamma   90.00000000
_symmetry_Int_Tables_number   1
_chemical_formula_structural   P2H17C4NO8
_chemical_formula_sum   'P8 H68 C16 N4 O32'
_cell_volume   1208.18768606
_cell_formula_units_Z   4
loop_
 _symmetry_equiv_pos_site_id
 _symmetry_equiv_pos_as_xyz
  1  'x, y, z'
loop_
 _atom_site_type_symbol
 _atom_site_label
 _atom_site_symmetry_multiplicity
 _atom_site_fract_x
 _atom_site_fract_y
 _atom_site_fract_z
 _atom_site_occupancy
  P  P0  1  0.063051  0.271411  0.967002  1
  P  P1  1  0.180284  0.889386  0.154799  1
  P  P2  1  0.819716  0.110614  0.845201  1
  P  P3  1  0.680284  0.610614  0.345201  1
  P  P4  1  0.436949  0.771411  0.467002  1
  P  P5  1  0.936949  0.728589  0.032998  1
  P  P6  1  0.319716  0.389386  0.654799  1
  P  P7  1  0.563051  0.228589  0.532998  1
  H  H8  1  0.968837  0.511399  0.160946  1
  H  H9  1  0.583887  0.667794  0.716653  1
  H  H10  1  0.492935  0.921842  0.861522  1
  H  H11  1  0.564534  0.606885  0.180112  1
  H  H12  1  0.734023  0.817338  0.709229  1
  H  H13  1  0.765977  0.317338  0.209229  1
  H  H14  1  0.064342  0.399274  0.462254  1
  H  H15  1  0.793688  0.023927  0.110779  1
  H  H16  1  0.395682  0.390478  0.910286  1
  H  H17  1  0.531163  0.011399  0.660946  1
  H  H18  1  0.992935  0.578158  0.638478  1
  H  H19  1  0.468837  0.988601  0.339054  1
  H  H20  1  0.676413  0.701354  0.581468  1
  H  H21  1  0.265977  0.182662  0.290771  1
  H  H22  1  0.329270  0.050073  0.628768  1
  H  H23  1  0.791441  0.634640  0.743636  1
  H  H24  1  0.083887  0.832206  0.783347  1
  H  H25  1  0.176413  0.798646  0.918532  1
  H  H26  1  0.507065  0.078158  0.138478  1
  H  H27  1  0.234023  0.682662  0.790771  1
  H  H28  1  0.916113  0.167794  0.216653  1
  H  H29  1  0.170730  0.550073  0.128768  1
  H  H30  1  0.820781  0.729938  0.210494  1
  H  H31  1  0.323587  0.298646  0.418532  1
  H  H32  1  0.007065  0.421842  0.361522  1
  H  H33  1  0.179219  0.270062  0.789506  1
  H  H34  1  0.564342  0.100726  0.037746  1
  H  H35  1  0.096893  0.239821  0.617058  1
  H  H36  1  0.149661  0.514268  0.971606  1
  H  H37  1  0.435466  0.393115  0.819888  1
  H  H38  1  0.859186  0.924072  0.935049  1
  H  H39  1  0.823587  0.201354  0.081468  1
  H  H40  1  0.031163  0.488601  0.839054  1
  H  H41  1  0.891519  0.391105  0.773201  1
  H  H42  1  0.064534  0.893115  0.319888  1
  H  H43  1  0.596893  0.260179  0.882942  1
  H  H44  1  0.708559  0.134640  0.243636  1
  H  H45  1  0.104318  0.890478  0.410286  1
  H  H46  1  0.435658  0.899274  0.962254  1
  H  H47  1  0.359186  0.575928  0.564951  1
  H  H48  1  0.206312  0.976073  0.889221  1
  H  H49  1  0.459834  0.733194  0.896280  1
  H  H50  1  0.850339  0.485732  0.028394  1
  H  H51  1  0.293688  0.476073  0.389221  1
  H  H52  1  0.640814  0.424072  0.435049  1
  H  H53  1  0.649661  0.985732  0.528394  1
  H  H54  1  0.608481  0.891105  0.273201  1
  H  H55  1  0.670730  0.949927  0.371232  1
  H  H56  1  0.208559  0.365360  0.256364  1
  H  H57  1  0.291441  0.865360  0.756364  1
  H  H58  1  0.959834  0.766806  0.603720  1
  H  H59  1  0.350339  0.014268  0.471606  1
  H  H60  1  0.540166  0.266806  0.103720  1
  H  H61  1  0.416113  0.332206  0.283347  1
  H  H62  1  0.040166  0.233194  0.396280  1
  H  H63  1  0.829270  0.449927  0.871232  1
  H  H64  1  0.903107  0.760179  0.382942  1
  H  H65  1  0.391519  0.108895  0.726799  1
  H  H66  1  0.108481  0.608895  0.226799  1
  H  H67  1  0.935466  0.106885  0.680112  1
  H  H68  1  0.320781  0.770062  0.289506  1
  H  H69  1  0.403107  0.739821  0.117058  1
  H  H70  1  0.895682  0.109522  0.589714  1
  H  H71  1  0.935658  0.600726  0.537746  1
  H  H72  1  0.706312  0.523927  0.610779  1
  H  H73  1  0.140814  0.075928  0.064951  1
  H  H74  1  0.679219  0.229938  0.710494  1
  H  H75  1  0.604318  0.609522  0.089714  1
  C  C76  1  0.931511  0.404711  0.835096  1
  C  C77  1  0.788768  0.193338  0.203322  1
  C  C78  1  0.510608  0.749585  0.363080  1
  C  C79  1  0.010608  0.750415  0.136920  1
  C  C80  1  0.431511  0.095289  0.664904  1
  C  C81  1  0.211232  0.806662  0.796678  1
  C  C82  1  0.920935  0.646398  0.598768  1
  C  C83  1  0.079065  0.353602  0.401232  1
  C  C84  1  0.989392  0.249585  0.863080  1
  C  C85  1  0.420935  0.853602  0.901232  1
  C  C86  1  0.711232  0.693338  0.703322  1
  C  C87  1  0.579065  0.146398  0.098768  1
  C  C88  1  0.288768  0.306662  0.296678  1
  C  C89  1  0.568489  0.904711  0.335096  1
  C  C90  1  0.489392  0.250415  0.636920  1
  C  C91  1  0.068489  0.595289  0.164904  1
  N  N92  1  0.745585  0.636582  0.620554  1
  N  N93  1  0.754415  0.136582  0.120554  1
  N  N94  1  0.245585  0.863418  0.879446  1
  N  N95  1  0.254415  0.363418  0.379446  1
  O  O96  1  0.923712  0.323345  0.022405  1
  O  O97  1  0.377708  0.685705  0.316554  1
  O  O98  1  0.302149  0.904768  0.465074  1
  O  O99  1  0.850016  0.875871  0.013538  1
  O  O100  1  0.330687  0.835255  0.103423  1
  O  O101  1  0.011688  0.891004  0.372879  1
  O  O102  1  0.649984  0.375871  0.513538  1
  O  O103  1  0.877708  0.814295  0.183446  1
  O  O104  1  0.710965  0.599235  0.256781  1
  O  O105  1  0.870449  0.950786  0.874319  1
  O  O106  1  0.622292  0.314295  0.683446  1
  O  O107  1  0.830687  0.664745  0.396578  1
  O  O108  1  0.149984  0.124129  0.986462  1
  O  O109  1  0.802149  0.595232  0.034926  1
  O  O110  1  0.129551  0.049214  0.125681  1
  O  O111  1  0.370449  0.549214  0.625681  1
  O  O112  1  0.197851  0.404768  0.965074  1
  O  O113  1  0.076288  0.676655  0.977595  1
  O  O114  1  0.576288  0.823345  0.522405  1
  O  O115  1  0.988312  0.108996  0.627121  1
  O  O116  1  0.122292  0.185705  0.816554  1
  O  O117  1  0.511688  0.608996  0.127121  1
  O  O118  1  0.289035  0.400765  0.743219  1
  O  O119  1  0.210965  0.900765  0.243219  1
  O  O120  1  0.423712  0.176655  0.477595  1
  O  O121  1  0.169313  0.335255  0.603422  1
  O  O122  1  0.789035  0.099235  0.756781  1
  O  O123  1  0.350016  0.624129  0.486462  1
  O  O124  1  0.488312  0.391004  0.872879  1
  O  O125  1  0.669313  0.164745  0.896578  1
  O  O126  1  0.697851  0.095232  0.534926  1
  O  O127  1  0.629551  0.450786  0.374319  1
