# generated using pymatgen
data_Ba2Zn(BO3)2
_symmetry_space_group_name_H-M   'P 1'
_cell_length_a   8.86034328
_cell_length_b   10.25503060
_cell_length_c   15.29637863
_cell_angle_alpha   90.00000000
_cell_angle_beta   90.00000000
_cell_angle_gamma   90.00000000
_symmetry_Int_Tables_number   1
_chemical_formula_structural   Ba2Zn(BO3)2
_chemical_formula_sum   'Ba16 Zn8 B16 O48'
_cell_volume   1389.87625051
_cell_formula_units_Z   8
loop_
 _symmetry_equiv_pos_site_id
 _symmetry_equiv_pos_as_xyz
  1  'x, y, z'
loop_
 _atom_site_type_symbol
 _atom_site_label
 _atom_site_symmetry_multiplicity
 _atom_site_fract_x
 _atom_site_fract_y
 _atom_site_fract_z
 _atom_site_occupancy
  Ba  Ba0  1  0.135975  0.625996  0.386503  1
  Ba  Ba1  1  0.135975  0.125996  0.113497  1
  Ba  Ba2  1  0.208164  0.677582  0.114015  1
  Ba  Ba3  1  0.791836  0.177582  0.885985  1
  Ba  Ba4  1  0.690406  0.413857  0.099122  1
  Ba  Ba5  1  0.864025  0.125996  0.613497  1
  Ba  Ba6  1  0.673631  0.889381  0.117614  1
  Ba  Ba7  1  0.791836  0.677582  0.614015  1
  Ba  Ba8  1  0.673631  0.389381  0.382386  1
  Ba  Ba9  1  0.309594  0.413857  0.599122  1
  Ba  Ba10  1  0.326369  0.389381  0.882386  1
  Ba  Ba11  1  0.309594  0.913857  0.900878  1
  Ba  Ba12  1  0.690406  0.913857  0.400878  1
  Ba  Ba13  1  0.864025  0.625996  0.886503  1
  Ba  Ba14  1  0.326369  0.889381  0.617614  1
  Ba  Ba15  1  0.208164  0.177582  0.385985  1
  Zn  Zn16  1  0.506099  0.649988  0.288008  1
  Zn  Zn17  1  0.012435  0.903168  0.274223  1
  Zn  Zn18  1  0.987565  0.903168  0.774223  1
  Zn  Zn19  1  0.012435  0.403168  0.225777  1
  Zn  Zn20  1  0.987565  0.403168  0.725777  1
  Zn  Zn21  1  0.493901  0.149988  0.711992  1
  Zn  Zn22  1  0.493901  0.649988  0.788008  1
  Zn  Zn23  1  0.506099  0.149988  0.211992  1
  B  B24  1  0.654348  0.911320  0.764294  1
  B  B25  1  0.553763  0.172227  0.513607  1
  B  B26  1  0.840638  0.156824  0.250596  1
  B  B27  1  0.989350  0.921430  0.985031  1
  B  B28  1  0.553763  0.672227  0.986393  1
  B  B29  1  0.159362  0.156824  0.750596  1
  B  B30  1  0.159362  0.656824  0.749404  1
  B  B31  1  0.345652  0.411320  0.235706  1
  B  B32  1  0.989350  0.421430  0.514969  1
  B  B33  1  0.010650  0.921430  0.485031  1
  B  B34  1  0.446237  0.172227  0.013607  1
  B  B35  1  0.010650  0.421430  0.014969  1
  B  B36  1  0.446237  0.672227  0.486393  1
  B  B37  1  0.840638  0.656824  0.249404  1
  B  B38  1  0.345652  0.911320  0.264294  1
  B  B39  1  0.654348  0.411320  0.735706  1
  O  O40  1  0.657424  0.776132  0.765701  1
  O  O41  1  0.342576  0.776132  0.265701  1
  O  O42  1  0.479285  0.980692  0.274361  1
  O  O43  1  -0.001084  0.366144  0.099021  1
  O  O44  1  0.292861  0.225179  0.735714  1
  O  O45  1  0.529659  0.594525  0.911623  1
  O  O46  1  0.788394  0.479863  0.747589  1
  O  O47  1  0.520715  0.980692  0.774361  1
  O  O48  1  0.691088  0.158368  0.469715  1
  O  O49  1  0.105294  0.890740  0.042360  1
  O  O50  1  0.479285  0.480692  0.225639  1
  O  O51  1  0.124771  0.006072  0.508450  1
  O  O52  1  0.470341  0.594525  0.411623  1
  O  O53  1  0.529659  0.094525  0.588377  1
  O  O54  1  0.308912  0.158368  0.969715  1
  O  O55  1  0.028168  0.224976  0.770673  1
  O  O56  1  0.520715  0.480692  0.725639  1
  O  O57  1  0.447771  0.260330  0.483476  1
  O  O58  1  0.447771  0.760330  0.016524  1
  O  O59  1  0.308912  0.658368  0.530285  1
  O  O60  1  1.001084  0.366144  0.599021  1
  O  O61  1  0.470341  0.094525  0.088377  1
  O  O62  1  0.211606  0.979863  0.252411  1
  O  O63  1  0.894706  0.390740  0.957640  1
  O  O64  1  0.124771  0.506072  0.991550  1
  O  O65  1  0.028168  0.724976  0.729327  1
  O  O66  1  0.342576  0.276132  0.234299  1
  O  O67  1  0.788394  0.979863  0.752411  1
  O  O68  1  0.875229  0.006072  0.008450  1
  O  O69  1  1.001084  0.866144  0.900979  1
  O  O70  1  0.875229  0.506072  0.491550  1
  O  O71  1  0.707139  0.725179  0.264286  1
  O  O72  1  0.691088  0.658368  0.030285  1
  O  O73  1  0.552229  0.260330  0.983476  1
  O  O74  1  -0.001084  0.866144  0.400979  1
  O  O75  1  0.894706  0.890740  0.542360  1
  O  O76  1  0.211606  0.479863  0.247589  1
  O  O77  1  0.707139  0.225179  0.235714  1
  O  O78  1  0.843518  0.021707  0.244609  1
  O  O79  1  0.156482  0.521707  0.755391  1
  O  O80  1  0.843518  0.521707  0.255391  1
  O  O81  1  0.292861  0.725179  0.764286  1
  O  O82  1  0.156482  0.021707  0.744609  1
  O  O83  1  0.971832  0.224976  0.270673  1
  O  O84  1  0.105294  0.390740  0.457640  1
  O  O85  1  0.552229  0.760330  0.516524  1
  O  O86  1  0.971832  0.724976  0.229327  1
  O  O87  1  0.657424  0.276132  0.734299  1
