# generated using pymatgen
data_Sn(S4I)4
_symmetry_space_group_name_H-M   'P 1'
_cell_length_a   12.43936895
_cell_length_b   13.03781714
_cell_length_c   13.32733412
_cell_angle_alpha   77.13630417
_cell_angle_beta   62.18058773
_cell_angle_gamma   61.50712590
_symmetry_Int_Tables_number   1
_chemical_formula_structural   Sn(S4I)4
_chemical_formula_sum   'Sn2 S32 I8'
_cell_volume   1680.09690425
_cell_formula_units_Z   2
loop_
 _symmetry_equiv_pos_site_id
 _symmetry_equiv_pos_as_xyz
  1  'x, y, z'
loop_
 _atom_site_type_symbol
 _atom_site_label
 _atom_site_symmetry_multiplicity
 _atom_site_fract_x
 _atom_site_fract_y
 _atom_site_fract_z
 _atom_site_occupancy
  Sn  Sn0  1  0.748044  0.500000  0.500000  1
  Sn  Sn1  1  -0.001956  0.000000  0.000000  1
  S  S2  1  0.525870  0.220581  0.996563  1
  S  S3  1  0.126598  0.509117  0.200293  1
  S  S4  1  0.743014  0.779419  0.003437  1
  S  S5  1  0.462659  0.862715  0.341039  1
  S  S6  1  0.836008  0.490883  0.799707  1
  S  S7  1  0.684023  0.170559  0.494484  1
  S  S8  1  0.078189  0.818977  0.517055  1
  S  S9  1  0.188676  0.347044  0.142823  1
  S  S10  1  0.346705  0.020728  0.289246  1
  S  S11  1  0.666414  0.137285  0.658961  1
  S  S12  1  0.553699  0.362715  0.158961  1
  S  S13  1  0.272433  0.720581  0.503437  1
  S  S14  1  0.345244  0.318977  0.982945  1
  S  S15  1  0.117433  0.479272  0.789246  1
  S  S16  1  0.604582  0.329441  0.994484  1
  S  S17  1  0.414221  0.181023  0.482945  1
  S  S18  1  0.457410  0.009434  0.803777  1
  S  S19  1  0.011187  0.509434  0.696223  1
  S  S20  1  0.081499  0.847044  0.357177  1
  S  S21  1  0.076890  0.009117  0.299707  1
  S  S22  1  0.656679  0.979272  0.710754  1
  S  S23  1  0.928507  0.670559  0.005516  1
  S  S24  1  0.385715  0.990883  0.700293  1
  S  S25  1  0.678543  0.652956  0.857177  1
  S  S26  1  0.216844  0.490566  0.303777  1
  S  S27  1  0.075374  0.637285  0.841039  1
  S  S28  1  0.647166  0.681023  0.017055  1
  S  S29  1  0.349067  0.829441  0.505516  1
  S  S30  1  0.285720  0.152956  0.642823  1
  S  S31  1  0.385951  0.520728  0.210754  1
  S  S32  1  0.270621  0.990566  0.196223  1
  S  S33  1  0.496451  0.279419  0.496563  1
  I  I34  1  0.220172  0.805518  0.997805  1
  I  I35  1  0.780366  0.996340  0.187922  1
  I  I36  1  0.023496  0.194482  0.002195  1
  I  I37  1  0.964628  0.003660  0.812078  1
  I  I38  1  0.967977  0.305518  0.502195  1
  I  I39  1  0.775690  0.694482  0.497805  1
  I  I40  1  0.526706  0.503660  0.687922  1
  I  I41  1  0.718288  0.496340  0.312078  1
