# generated using pymatgen
data_H32RuC8N4Cl7
_symmetry_space_group_name_H-M   'P 1'
_cell_length_a   8.85219779
_cell_length_b   10.28499184
_cell_length_c   13.00028576
_cell_angle_alpha   90.00000000
_cell_angle_beta   90.00000000
_cell_angle_gamma   90.00000000
_symmetry_Int_Tables_number   1
_chemical_formula_structural   H32RuC8N4Cl7
_chemical_formula_sum   'H64 Ru2 C16 N8 Cl14'
_cell_volume   1183.60818343
_cell_formula_units_Z   2
loop_
 _symmetry_equiv_pos_site_id
 _symmetry_equiv_pos_as_xyz
  1  'x, y, z'
loop_
 _atom_site_type_symbol
 _atom_site_label
 _atom_site_symmetry_multiplicity
 _atom_site_fract_x
 _atom_site_fract_y
 _atom_site_fract_z
 _atom_site_occupancy
  H  H0  1  0.049962  0.178783  0.559772  1
  H  H1  1  0.049962  0.821217  0.440228  1
  H  H2  1  0.950038  0.321217  0.059772  1
  H  H3  1  0.950038  0.678783  0.940228  1
  H  H4  1  0.134276  0.326197  0.576037  1
  H  H5  1  0.134276  0.673803  0.423963  1
  H  H6  1  0.865724  0.173803  0.076037  1
  H  H7  1  0.865724  0.826197  0.923963  1
  H  H8  1  0.528142  0.368069  0.741467  1
  H  H9  1  0.528142  0.631931  0.258533  1
  H  H10  1  0.471858  0.131931  0.241467  1
  H  H11  1  0.471858  0.868069  0.758533  1
  H  H12  1  0.522548  0.263809  0.839898  1
  H  H13  1  0.522548  0.736191  0.160102  1
  H  H14  1  0.477452  0.236191  0.339898  1
  H  H15  1  0.477452  0.763809  0.660102  1
  H  H16  1  0.901282  0.345633  0.484257  1
  H  H17  1  0.901282  0.654366  0.515743  1
  H  H18  1  0.098718  0.154366  0.984257  1
  H  H19  1  0.098718  0.845634  0.015743  1
  H  H20  1  0.889943  0.426305  0.605943  1
  H  H21  1  0.889943  0.573695  0.394057  1
  H  H22  1  0.110057  0.073695  0.105943  1
  H  H23  1  0.110057  0.926305  0.894057  1
  H  H24  1  0.805125  0.269324  0.588731  1
  H  H25  1  0.805125  0.730676  0.411269  1
  H  H26  1  0.194875  0.230676  0.088731  1
  H  H27  1  0.194875  0.769324  0.911269  1
  H  H28  1  0.163883  0.197313  0.726842  1
  H  H29  1  0.163883  0.802687  0.273158  1
  H  H30  1  0.836117  0.302687  0.226842  1
  H  H31  1  0.836117  0.697313  0.773158  1
  H  H32  1  0.962285  0.179908  0.734733  1
  H  H33  1  0.962285  0.820092  0.265267  1
  H  H34  1  0.037715  0.320092  0.234733  1
  H  H35  1  0.037715  0.679908  0.765267  1
  H  H36  1  0.048479  0.336696  0.752546  1
  H  H37  1  0.048479  0.663304  0.247454  1
  H  H38  1  0.951521  0.163304  0.252546  1
  H  H39  1  0.951521  0.836696  0.747454  1
  H  H40  1  0.768109  0.361054  0.827728  1
  H  H41  1  0.768109  0.638946  0.172272  1
  H  H42  1  0.231891  0.138946  0.327728  1
  H  H43  1  0.231891  0.861054  0.672272  1
  H  H44  1  0.677463  0.404501  0.944910  1
  H  H45  1  0.677463  0.595499  0.055090  1
  H  H46  1  0.322537  0.095499  0.444910  1
  H  H47  1  0.322537  0.904501  0.555090  1
  H  H48  1  0.682060  0.518812  0.839518  1
  H  H49  1  0.682060  0.481188  0.160482  1
  H  H50  1  0.317940  0.981188  0.339518  1
  H  H51  1  0.317940  0.018812  0.660482  1
  H  H52  1  0.293892  0.380731  0.828047  1
  H  H53  1  0.293892  0.619269  0.171953  1
  H  H54  1  0.706108  0.119269  0.328047  1
  H  H55  1  0.706108  0.880731  0.671953  1
  H  H56  1  0.395546  0.530070  0.839761  1
  H  H57  1  0.395546  0.469930  0.160239  1
  H  H58  1  0.604454  0.969930  0.339761  1
  H  H59  1  0.604454  0.030070  0.660239  1
  H  H60  1  0.389625  0.415793  0.945554  1
  H  H61  1  0.389625  0.584207  0.054446  1
  H  H62  1  0.610375  0.084207  0.445554  1
  H  H63  1  0.610375  0.915793  0.554446  1
  Ru  Ru64  1  0.422579  0.500000  0.500000  1
  Ru  Ru65  1  0.577421  0.000000  0.000000  1
  C  C66  1  0.900083  0.332021  0.567669  1
  C  C67  1  0.900083  0.667979  0.432331  1
  C  C68  1  0.099917  0.167979  0.067669  1
  C  C69  1  0.099917  0.832021  0.932331  1
  C  C70  1  0.055072  0.243906  0.711177  1
  C  C71  1  0.055072  0.756094  0.288823  1
  C  C72  1  0.944928  0.256094  0.211177  1
  C  C73  1  0.944928  0.743906  0.788823  1
  C  C74  1  0.674920  0.416368  0.861252  1
  C  C75  1  0.674920  0.583632  0.138748  1
  C  C76  1  0.325080  0.083632  0.361252  1
  C  C77  1  0.325080  0.916368  0.638748  1
  C  C78  1  0.392737  0.427595  0.861944  1
  C  C79  1  0.392737  0.572405  0.138056  1
  C  C80  1  0.607263  0.072405  0.361944  1
  C  C81  1  0.607263  0.927595  0.638056  1
  N  N82  1  0.043949  0.268984  0.598909  1
  N  N83  1  0.043949  0.731016  0.401091  1
  N  N84  1  0.956051  0.231016  0.098909  1
  N  N85  1  0.956051  0.768984  0.901091  1
  N  N86  1  0.530425  0.362165  0.821600  1
  N  N87  1  0.530425  0.637835  0.178400  1
  N  N88  1  0.469575  0.137835  0.321600  1
  N  N89  1  0.469575  0.862165  0.678400  1
  Cl  Cl90  1  0.229397  0.428921  0.384462  1
  Cl  Cl91  1  0.229397  0.571079  0.615538  1
  Cl  Cl92  1  0.770603  0.071079  0.884462  1
  Cl  Cl93  1  0.770603  0.928921  0.115538  1
  Cl  Cl94  1  0.427377  0.290909  0.581777  1
  Cl  Cl95  1  0.427377  0.709091  0.418223  1
  Cl  Cl96  1  0.572623  0.209091  0.081777  1
  Cl  Cl97  1  0.572623  0.790909  0.918223  1
  Cl  Cl98  1  0.608405  0.426763  0.379581  1
  Cl  Cl99  1  0.608405  0.573237  0.620419  1
  Cl  Cl100  1  0.391595  0.073237  0.879581  1
  Cl  Cl101  1  0.391595  0.926763  0.120419  1
  Cl  Cl102  1  0.983828  0.000000  0.500000  1
  Cl  Cl103  1  0.016172  0.500000  0.000000  1
