# generated using pymatgen
data_CSNCl
_symmetry_space_group_name_H-M   'P 1'
_cell_length_a   6.69315651
_cell_length_b   7.77210281
_cell_length_c   13.94906739
_cell_angle_alpha   90.00000000
_cell_angle_beta   90.00000000
_cell_angle_gamma   114.34913195
_symmetry_Int_Tables_number   1
_chemical_formula_structural   CSNCl
_chemical_formula_sum   'C8 S8 N8 Cl8'
_cell_volume   661.08443478
_cell_formula_units_Z   8
loop_
 _symmetry_equiv_pos_site_id
 _symmetry_equiv_pos_as_xyz
  1  'x, y, z'
loop_
 _atom_site_type_symbol
 _atom_site_label
 _atom_site_symmetry_multiplicity
 _atom_site_fract_x
 _atom_site_fract_y
 _atom_site_fract_z
 _atom_site_occupancy
  C  C0  1  0.818149  0.838859  0.053543  1
  C  C1  1  0.538961  0.206935  0.625207  1
  C  C2  1  0.181851  0.161141  0.946457  1
  C  C3  1  0.961039  0.793065  0.125207  1
  C  C4  1  0.681851  0.161141  0.553543  1
  C  C5  1  0.318149  0.838859  0.446457  1
  C  C6  1  0.461039  0.793065  0.374793  1
  C  C7  1  0.038961  0.206935  0.874793  1
  S  S8  1  0.727892  0.863972  0.863667  1
  S  S9  1  0.227892  0.863972  0.636333  1
  S  S10  1  0.772108  0.136028  0.363667  1
  S  S11  1  0.852234  0.086160  0.071731  1
  S  S12  1  0.647766  0.913840  0.571731  1
  S  S13  1  0.352234  0.086160  0.428269  1
  S  S14  1  0.147766  0.913840  0.928269  1
  S  S15  1  0.272108  0.136028  0.136333  1
  N  N16  1  0.871615  0.806406  0.953254  1
  N  N17  1  0.360825  0.086221  0.661532  1
  N  N18  1  0.139175  0.913779  0.161532  1
  N  N19  1  0.860825  0.086221  0.838468  1
  N  N20  1  0.371615  0.806406  0.546746  1
  N  N21  1  0.639175  0.913779  0.338468  1
  N  N22  1  0.628385  0.193594  0.453254  1
  N  N23  1  0.128385  0.193594  0.046746  1
  Cl  Cl24  1  0.128220  0.440797  0.838690  1
  Cl  Cl25  1  0.871780  0.559203  0.161310  1
  Cl  Cl26  1  0.966413  0.292411  0.575128  1
  Cl  Cl27  1  0.628220  0.440797  0.661310  1
  Cl  Cl28  1  0.371780  0.559203  0.338690  1
  Cl  Cl29  1  0.033587  0.707589  0.424872  1
  Cl  Cl30  1  0.533587  0.707589  0.075128  1
  Cl  Cl31  1  0.466413  0.292411  0.924872  1
