# generated using pymatgen
data_CsBe4Al4(B3O7)4
_symmetry_space_group_name_H-M   'P 1'
_cell_length_a   7.41822027
_cell_length_b   7.41822027
_cell_length_c   7.41822027
_cell_angle_alpha   90.00000000
_cell_angle_beta   90.00000000
_cell_angle_gamma   90.00000000
_symmetry_Int_Tables_number   1
_chemical_formula_structural   CsBe4Al4(B3O7)4
_chemical_formula_sum   'Cs1 Be4 Al4 B12 O28'
_cell_volume   408.22460192
_cell_formula_units_Z   1
loop_
 _symmetry_equiv_pos_site_id
 _symmetry_equiv_pos_as_xyz
  1  'x, y, z'
loop_
 _atom_site_type_symbol
 _atom_site_label
 _atom_site_symmetry_multiplicity
 _atom_site_fract_x
 _atom_site_fract_y
 _atom_site_fract_z
 _atom_site_occupancy
  Cs  Cs0  1  0.000000  0.000000  0.000000  1
  B  B1  1  0.249494  0.500000  0.000000  1
  B  B2  1  0.750506  0.000000  0.500000  1
  B  B3  1  0.000000  0.500000  0.249494  1
  B  B4  1  0.000000  0.500000  0.750506  1
  B  B5  1  0.500000  0.750506  0.000000  1
  B  B6  1  0.500000  0.249494  0.000000  1
  B  B7  1  0.000000  0.249494  0.500000  1
  B  B8  1  0.500000  0.000000  0.249494  1
  B  B9  1  0.000000  0.750506  0.500000  1
  B  B10  1  0.500000  0.000000  0.750506  1
  B  B11  1  0.750506  0.500000  0.000000  1
  B  B12  1  0.249494  0.000000  0.500000  1
  Be  Be13  1  0.739869  0.739869  0.739869  1
  Be  Be14  1  0.260131  0.739869  0.260131  1
  Be  Be15  1  0.260131  0.260131  0.739869  1
  Be  Be16  1  0.739869  0.260131  0.260131  1
  Al  Al17  1  0.360365  0.360365  0.360365  1
  Al  Al18  1  0.639635  0.360365  0.639635  1
  Al  Al19  1  0.639635  0.639635  0.360365  1
  Al  Al20  1  0.360365  0.639635  0.639635  1
  O  O21  1  0.618444  0.618444  0.618444  1
  O  O22  1  0.381556  0.618444  0.381556  1
  O  O23  1  0.381556  0.381556  0.618444  1
  O  O24  1  0.618444  0.381556  0.381556  1
  O  O25  1  0.362089  0.362089  0.095163  1
  O  O26  1  0.637911  0.095163  0.637911  1
  O  O27  1  0.637911  0.904837  0.362089  1
  O  O28  1  0.904837  0.637911  0.362089  1
  O  O29  1  0.095163  0.637911  0.637911  1
  O  O30  1  0.362089  0.637911  0.904837  1
  O  O31  1  0.637911  0.362089  0.904837  1
  O  O32  1  0.095163  0.362089  0.362089  1
  O  O33  1  0.362089  0.095163  0.362089  1
  O  O34  1  0.904837  0.362089  0.637911  1
  O  O35  1  0.362089  0.904837  0.637911  1
  O  O36  1  0.637911  0.637911  0.095163  1
  O  O37  1  0.137028  0.137028  0.596399  1
  O  O38  1  0.862972  0.596399  0.862972  1
  O  O39  1  0.862972  0.403601  0.137028  1
  O  O40  1  0.403601  0.862972  0.137028  1
  O  O41  1  0.596399  0.862972  0.862972  1
  O  O42  1  0.137028  0.862972  0.403601  1
  O  O43  1  0.862972  0.137028  0.403601  1
  O  O44  1  0.596399  0.137028  0.137028  1
  O  O45  1  0.137028  0.596399  0.137028  1
  O  O46  1  0.403601  0.137028  0.862972  1
  O  O47  1  0.137028  0.403601  0.862972  1
  O  O48  1  0.862972  0.862972  0.596399  1
