# generated using pymatgen
data_Ba2Li3TaN4
_symmetry_space_group_name_H-M   'P 1'
_cell_length_a   5.71871728
_cell_length_b   6.36180223
_cell_length_c   10.16649738
_cell_angle_alpha   81.17255080
_cell_angle_beta   73.66451438
_cell_angle_gamma   63.28782845
_symmetry_Int_Tables_number   1
_chemical_formula_structural   Ba2Li3TaN4
_chemical_formula_sum   'Ba4 Li6 Ta2 N8'
_cell_volume   316.90139577
_cell_formula_units_Z   2
loop_
 _symmetry_equiv_pos_site_id
 _symmetry_equiv_pos_as_xyz
  1  'x, y, z'
loop_
 _atom_site_type_symbol
 _atom_site_label
 _atom_site_symmetry_multiplicity
 _atom_site_fract_x
 _atom_site_fract_y
 _atom_site_fract_z
 _atom_site_occupancy
  Ba  Ba0  1  0.871318  0.305792  0.888227  1
  Ba  Ba1  1  0.128682  0.694208  0.111773  1
  Ba  Ba2  1  0.565387  0.194149  0.611749  1
  Ba  Ba3  1  0.434613  0.805851  0.388251  1
  Li  Li4  1  0.884384  0.750002  0.749997  1
  Li  Li5  1  0.115616  0.249998  0.250003  1
  Li  Li6  1  0.382691  0.190052  0.957588  1
  Li  Li7  1  0.030350  0.309952  0.542414  1
  Li  Li8  1  0.969650  0.690048  0.457586  1
  Li  Li9  1  0.617309  0.809948  0.042412  1
  Ta  Ta10  1  0.362573  0.750014  0.749944  1
  Ta  Ta11  1  0.637427  0.249986  0.250056  1
  N  N12  1  0.293448  0.389358  0.387216  1
  N  N13  1  0.082640  0.991372  0.662302  1
  N  N14  1  0.917360  0.008628  0.337698  1
  N  N15  1  0.236293  0.508575  0.837701  1
  N  N16  1  0.430002  0.889350  0.887222  1
  N  N17  1  0.763707  0.491425  0.162299  1
  N  N18  1  0.706552  0.610642  0.612784  1
  N  N19  1  0.569998  0.110650  0.112778  1
