# generated using pymatgen
data_Na2Zn3(SiO4)2
_symmetry_space_group_name_H-M   'P 1'
_cell_length_a   5.18970071
_cell_length_b   8.93809695
_cell_length_c   13.61295856
_cell_angle_alpha   72.07151897
_cell_angle_beta   79.64971441
_cell_angle_gamma   88.94840594
_symmetry_Int_Tables_number   1
_chemical_formula_structural   Na2Zn3(SiO4)2
_chemical_formula_sum   'Na6 Zn9 Si6 O24'
_cell_volume   590.55199691
_cell_formula_units_Z   3
loop_
 _symmetry_equiv_pos_site_id
 _symmetry_equiv_pos_as_xyz
  1  'x, y, z'
loop_
 _atom_site_type_symbol
 _atom_site_label
 _atom_site_symmetry_multiplicity
 _atom_site_fract_x
 _atom_site_fract_y
 _atom_site_fract_z
 _atom_site_occupancy
  Na  Na0  1  0.431645  0.407171  0.233802  1
  Na  Na1  1  0.405894  0.037780  0.309203  1
  Na  Na2  1  0.274528  0.929008  0.555554  1
  Na  Na3  1  0.715162  0.022624  0.639241  1
  Na  Na4  1  0.595580  0.876590  0.903674  1
  Na  Na5  1  0.478524  0.779414  0.155415  1
  Zn  Zn6  1  0.939223  0.558713  0.317585  1
  Zn  Zn7  1  0.267182  0.288786  0.502575  1
  Zn  Zn8  1  0.612187  0.514922  0.960554  1
  Zn  Zn9  1  0.931103  0.250477  0.145811  1
  Zn  Zn10  1  0.275471  0.463351  0.671434  1
  Zn  Zn11  1  0.866007  0.816478  0.461931  1
  Zn  Zn12  1  0.002033  0.999619  0.999117  1
  Zn  Zn13  1  0.689678  0.269199  0.809422  1
  Zn  Zn14  1  0.193476  0.716965  0.821307  1
  Si  Si15  1  0.393785  0.649444  0.415053  1
  Si  Si16  1  0.185071  0.103053  0.749281  1
  Si  Si17  1  0.030322  0.624535  0.063258  1
  Si  Si18  1  0.755090  0.633780  0.717555  1
  Si  Si19  1  0.837712  0.188224  0.396627  1
  Si  Si20  1  0.479246  0.158301  0.050292  1
  O  O21  1  0.887104  0.464846  0.716220  1
  O  O22  1  0.358206  0.009370  0.023762  1
  O  O23  1  0.431637  0.611667  0.731069  1
  O  O24  1  0.760393  0.099545  0.090179  1
  O  O25  1  0.394002  0.246038  0.741783  1
  O  O26  1  0.103399  0.699213  0.381329  1
  O  O27  1  0.573492  0.157437  0.488645  1
  O  O28  1  0.142414  0.596326  0.171665  1
  O  O29  1  0.539549  0.311668  0.942605  1
  O  O30  1  0.288059  0.640526  0.966075  1
  O  O31  1  0.571219  0.605635  0.315103  1
  O  O32  1  0.018024  0.032904  0.420925  1
  O  O33  1  0.859768  0.782847  0.031849  1
  O  O34  1  0.361468  0.492803  0.520620  1
  O  O35  1  0.929883  0.089126  0.847001  1
  O  O36  1  0.299653  0.209795  0.145514  1
  O  O37  1  0.878417  0.778869  0.615257  1
  O  O38  1  0.814968  0.672245  0.825079  1
  O  O39  1  0.078041  0.145629  0.638977  1
  O  O40  1  0.733416  0.226146  0.285139  1
  O  O41  1  0.037115  0.337681  0.391824  1
  O  O42  1  0.830139  0.474882  0.071342  1
  O  O43  1  0.338035  0.936387  0.771207  1
  O  O44  1  0.509781  0.802877  0.437339  1
