# generated using pymatgen
data_Tl2Cu3(SeO3)6
_symmetry_space_group_name_H-M   'P 1'
_cell_length_a   4.85234113
_cell_length_b   9.82928322
_cell_length_c   10.21161304
_cell_angle_alpha   67.86275115
_cell_angle_beta   82.13238701
_cell_angle_gamma   79.47687066
_symmetry_Int_Tables_number   1
_chemical_formula_structural   Tl2Cu3(SeO3)6
_chemical_formula_sum   'Tl2 Cu3 Se6 O18'
_cell_volume   442.31216622
_cell_formula_units_Z   1
loop_
 _symmetry_equiv_pos_site_id
 _symmetry_equiv_pos_as_xyz
  1  'x, y, z'
loop_
 _atom_site_type_symbol
 _atom_site_label
 _atom_site_symmetry_multiplicity
 _atom_site_fract_x
 _atom_site_fract_y
 _atom_site_fract_z
 _atom_site_occupancy
  Tl  Tl0  1  0.446857  0.315808  0.677905  1
  Tl  Tl1  1  0.553143  0.684192  0.322095  1
  Cu  Cu2  1  0.206035  0.529935  0.086523  1
  Cu  Cu3  1  0.793965  0.470065  0.913477  1
  Cu  Cu4  1  0.000000  0.000000  0.000000  1
  Se  Se5  1  0.624733  0.784313  0.962095  1
  Se  Se6  1  0.912776  0.924439  0.349709  1
  Se  Se7  1  0.087224  0.075561  0.650291  1
  Se  Se8  1  0.311096  0.642940  0.678922  1
  Se  Se9  1  0.688904  0.357060  0.321078  1
  Se  Se10  1  0.375267  0.215687  0.037905  1
  O  O11  1  0.900580  0.641176  0.957629  1
  O  O12  1  0.574247  0.577572  0.576796  1
  O  O13  1  0.261901  0.145810  0.923388  1
  O  O14  1  0.978162  0.036106  0.174491  1
  O  O15  1  0.099420  0.358824  0.042371  1
  O  O16  1  0.425753  0.422428  0.423204  1
  O  O17  1  0.870384  0.509589  0.269081  1
  O  O18  1  0.374797  0.696245  0.094661  1
  O  O19  1  0.738099  0.854190  0.076612  1
  O  O20  1  0.483702  0.619192  0.824920  1
  O  O21  1  0.432292  0.106278  0.637387  1
  O  O22  1  0.516298  0.380808  0.175080  1
  O  O23  1  0.928568  0.253199  0.635452  1
  O  O24  1  0.567708  0.893722  0.362613  1
  O  O25  1  0.071432  0.746801  0.364548  1
  O  O26  1  0.021838  0.963894  0.825509  1
  O  O27  1  0.129616  0.490411  0.730919  1
  O  O28  1  0.625203  0.303755  0.905339  1
