# generated using pymatgen
data_Ba3Na2Cr4F20
_symmetry_space_group_name_H-M   'P 1'
_cell_length_a   5.54881059
_cell_length_b   7.41403762
_cell_length_c   21.02565008
_cell_angle_alpha   90.00000000
_cell_angle_beta   90.00000000
_cell_angle_gamma   90.79376648
_symmetry_Int_Tables_number   1
_chemical_formula_structural   Ba3Na2Cr4F20
_chemical_formula_sum   'Ba6 Na4 Cr8 F40'
_cell_volume   864.89311569
_cell_formula_units_Z   2
loop_
 _symmetry_equiv_pos_site_id
 _symmetry_equiv_pos_as_xyz
  1  'x, y, z'
loop_
 _atom_site_type_symbol
 _atom_site_label
 _atom_site_symmetry_multiplicity
 _atom_site_fract_x
 _atom_site_fract_y
 _atom_site_fract_z
 _atom_site_occupancy
  Ba  Ba0  1  0.971963  0.005926  0.776783  1
  Ba  Ba1  1  0.471963  0.505926  0.723217  1
  Ba  Ba2  1  0.528037  0.494074  0.276783  1
  Ba  Ba3  1  0.500000  0.500000  0.500000  1
  Ba  Ba4  1  0.028037  0.994074  0.223217  1
  Ba  Ba5  1  0.000000  0.000000  0.000000  1
  Na  Na6  1  0.983220  0.773791  0.408979  1
  Na  Na7  1  0.483220  0.273791  0.091021  1
  Na  Na8  1  0.016780  0.226209  0.591021  1
  Na  Na9  1  0.516780  0.726209  0.908979  1
  Cr  Cr10  1  0.480984  0.786966  0.103358  1
  Cr  Cr11  1  0.527109  0.031932  0.638376  1
  Cr  Cr12  1  0.980984  0.286966  0.396642  1
  Cr  Cr13  1  0.027109  0.531932  0.861624  1
  Cr  Cr14  1  0.472891  0.968068  0.361624  1
  Cr  Cr15  1  0.019016  0.713034  0.603358  1
  Cr  Cr16  1  0.519016  0.213034  0.896642  1
  Cr  Cr17  1  0.972891  0.468068  0.138376  1
  F  F18  1  0.753439  0.642499  0.821650  1
  F  F19  1  0.259794  0.794305  0.320992  1
  F  F20  1  0.759794  0.294305  0.179008  1
  F  F21  1  0.822008  0.354605  0.907935  1
  F  F22  1  0.767038  0.935513  0.111476  1
  F  F23  1  0.553468  0.228731  0.805702  1
  F  F24  1  0.066980  0.372218  0.789436  1
  F  F25  1  0.267038  0.435513  0.388524  1
  F  F26  1  0.500631  0.188004  0.988169  1
  F  F27  1  0.784297  0.500711  0.392597  1
  F  F28  1  0.740206  0.205695  0.679008  1
  F  F29  1  0.746561  0.857501  0.321650  1
  F  F30  1  0.946532  0.271269  0.305702  1
  F  F31  1  0.177992  0.645395  0.092065  1
  F  F32  1  0.246561  0.357501  0.178350  1
  F  F33  1  0.232962  0.064487  0.888524  1
  F  F34  1  0.566980  0.872218  0.710564  1
  F  F35  1  0.446532  0.771269  0.194298  1
  F  F36  1  0.053468  0.728731  0.694298  1
  F  F37  1  0.672947  0.563715  0.098208  1
  F  F38  1  0.499369  0.811996  0.011831  1
  F  F39  1  0.677992  0.145395  0.407935  1
  F  F40  1  0.504949  0.806145  0.432814  1
  F  F41  1  0.000631  0.688004  0.511831  1
  F  F42  1  0.433020  0.127782  0.289436  1
  F  F43  1  0.732962  0.564487  0.611476  1
  F  F44  1  0.322008  0.854605  0.592065  1
  F  F45  1  0.215703  0.499289  0.607403  1
  F  F46  1  0.284297  0.000711  0.107403  1
  F  F47  1  0.495051  0.193855  0.567186  1
  F  F48  1  0.933020  0.627782  0.210564  1
  F  F49  1  0.999369  0.311996  0.488169  1
  F  F50  1  0.172947  0.063715  0.401792  1
  F  F51  1  0.995051  0.693855  0.932814  1
  F  F52  1  0.240206  0.705695  0.820992  1
  F  F53  1  0.327053  0.436285  0.901792  1
  F  F54  1  0.715703  0.999289  0.892597  1
  F  F55  1  0.253439  0.142499  0.678350  1
  F  F56  1  0.827053  0.936285  0.598208  1
  F  F57  1  0.004949  0.306145  0.067186  1
