# generated using pymatgen
data_Li2MnP2O7
_symmetry_space_group_name_H-M   'P 1'
_cell_length_a   13.13581960
_cell_length_b   5.07445238
_cell_length_c   8.64027302
_cell_angle_alpha   90.00000000
_cell_angle_beta   102.13262826
_cell_angle_gamma   90.00000000
_symmetry_Int_Tables_number   1
_chemical_formula_structural   Li2MnP2O7
_chemical_formula_sum   'Li8 Mn4 P8 O28'
_cell_volume   563.07120189
_cell_formula_units_Z   4
loop_
 _symmetry_equiv_pos_site_id
 _symmetry_equiv_pos_as_xyz
  1  'x, y, z'
loop_
 _atom_site_type_symbol
 _atom_site_label
 _atom_site_symmetry_multiplicity
 _atom_site_fract_x
 _atom_site_fract_y
 _atom_site_fract_z
 _atom_site_occupancy
  Li  Li0  1  0.077888  0.274530  0.583137  1
  Li  Li1  1  0.320853  0.257044  0.369056  1
  Li  Li2  1  0.179147  0.757044  0.130944  1
  Li  Li3  1  0.922112  0.725470  0.416863  1
  Li  Li4  1  0.679147  0.742956  0.630944  1
  Li  Li5  1  0.577888  0.225470  0.083137  1
  Li  Li6  1  0.422112  0.774530  0.916863  1
  Li  Li7  1  0.820853  0.242956  0.869056  1
  Mn  Mn8  1  0.479951  0.750740  0.263350  1
  Mn  Mn9  1  0.020049  0.250740  0.236650  1
  Mn  Mn10  1  0.520049  0.249260  0.736650  1
  Mn  Mn11  1  0.979951  0.749260  0.763350  1
  P  P12  1  0.873757  0.740868  0.067480  1
  P  P13  1  0.854433  0.230244  0.528857  1
  P  P14  1  0.373757  0.759132  0.567480  1
  P  P15  1  0.126243  0.259132  0.932520  1
  P  P16  1  0.354433  0.269756  0.028857  1
  P  P17  1  0.145567  0.769756  0.471143  1
  P  P18  1  0.645567  0.730244  0.971143  1
  P  P19  1  0.626243  0.240868  0.432520  1
  O  O20  1  0.140574  0.596285  0.323623  1
  O  O21  1  0.434059  0.181104  0.931504  1
  O  O22  1  0.934059  0.318896  0.431503  1
  O  O23  1  0.104539  0.556369  0.939023  1
  O  O24  1  0.561077  0.371329  0.285059  1
  O  O25  1  0.604539  0.943631  0.439023  1
  O  O26  1  0.378205  0.620106  0.411382  1
  O  O27  1  0.244334  0.217612  0.906817  1
  O  O28  1  0.938923  0.871329  0.214941  1
  O  O29  1  0.878205  0.879894  0.911382  1
  O  O30  1  0.065941  0.681104  0.568496  1
  O  O31  1  0.755666  0.782388  0.093183  1
  O  O32  1  0.859687  0.934061  0.565299  1
  O  O33  1  0.859426  0.403715  0.676377  1
  O  O34  1  0.438923  0.628671  0.714941  1
  O  O35  1  0.359687  0.565939  0.065299  1
  O  O36  1  0.565941  0.818896  0.068497  1
  O  O37  1  0.359426  0.096285  0.176377  1
  O  O38  1  0.895461  0.443631  0.060977  1
  O  O39  1  0.140313  0.065939  0.434701  1
  O  O40  1  0.640313  0.434061  0.934701  1
  O  O41  1  0.395461  0.056369  0.560977  1
  O  O42  1  0.744334  0.282388  0.406817  1
  O  O43  1  0.121795  0.120106  0.088618  1
  O  O44  1  0.255666  0.717612  0.593183  1
  O  O45  1  0.621795  0.379894  0.588618  1
  O  O46  1  0.640574  0.903715  0.823623  1
  O  O47  1  0.061077  0.128671  0.785059  1
