# generated using pymatgen
data_Rb16Yb3Ti13(PO4)24
_symmetry_space_group_name_H-M   'P 1'
_cell_length_a   10.16216564
_cell_length_b   10.15983440
_cell_length_c   20.32323886
_cell_angle_alpha   89.93269085
_cell_angle_beta   89.97664136
_cell_angle_gamma   90.32053291
_symmetry_Int_Tables_number   1
_chemical_formula_structural   Rb16Yb3Ti13(PO4)24
_chemical_formula_sum   'Rb16 Yb3 Ti13 P24 O96'
_cell_volume   2098.25703065
_cell_formula_units_Z   1
loop_
 _symmetry_equiv_pos_site_id
 _symmetry_equiv_pos_as_xyz
  1  'x, y, z'
loop_
 _atom_site_type_symbol
 _atom_site_label
 _atom_site_symmetry_multiplicity
 _atom_site_fract_x
 _atom_site_fract_y
 _atom_site_fract_z
 _atom_site_occupancy
  O  O0  1  0.005828  0.077951  0.173172  1
  O  O1  1  0.004743  0.106282  0.667484  1
  O  O2  1  0.026282  0.931995  0.400597  1
  O  O3  1  0.991736  0.971587  0.895414  1
  O  O4  1  0.027919  0.809826  0.128448  1
  O  O5  1  0.010483  0.787734  0.621932  1
  O  O6  1  0.035976  0.290675  0.236926  1
  O  O7  1  0.030544  0.304137  0.743495  1
  O  O8  1  0.065360  0.170720  0.375176  1
  O  O9  1  0.079671  0.199229  0.867674  1
  O  O10  1  0.078267  0.378928  0.000998  1
  O  O11  1  0.084601  0.350031  0.505258  1
  O  O12  1  0.136812  0.992793  0.293272  1
  O  O13  1  0.144687  1.005046  0.797447  1
  O  O14  1  0.199517  0.761633  0.236531  1
  O  O15  1  0.203923  0.745749  0.747855  1
  O  O16  1  0.191968  0.733677  0.043065  1
  O  O17  1  0.190045  0.723529  0.538991  1
  O  O18  1  0.210496  0.524920  0.265395  1
  O  O19  1  0.209232  0.504392  0.769188  1
  O  O20  1  0.245413  0.434121  0.416909  1
  O  O21  1  0.229726  0.422612  0.903931  1
  O  O22  1  0.257357  0.020509  0.401487  1
  O  O23  1  0.226401  0.017016  0.914276  1
  O  O24  1  0.251071  0.975438  0.165562  1
  O  O25  1  0.256320  0.990418  0.643977  1
  O  O26  1  0.276992  0.592645  0.151825  1
  O  O27  1  0.273759  0.587335  0.656904  1
  O  O28  1  0.293980  0.501436  0.017037  1
  O  O29  1  0.297337  0.471166  0.535925  1
  O  O30  1  0.329367  0.246550  0.281370  1
  O  O31  1  0.306075  0.269129  0.794728  1
  O  O32  1  0.306824  0.241554  0.490983  1
  O  O33  1  0.295439  0.261426  0.994767  1
  O  O34  1  0.346204  0.011350  0.053757  1
  O  O35  1  0.370941  0.001435  0.534857  1
  O  O36  1  0.423228  0.653049  0.249687  1
  O  O37  1  0.422929  0.635096  0.753726  1
  O  O38  1  0.418102  0.810266  0.118752  1
  O  O39  1  0.416723  0.809041  0.611169  1
  O  O40  1  0.467476  0.702925  0.995740  1
  O  O41  1  0.454551  0.700511  0.489551  1
  O  O42  1  0.478019  0.197914  0.378620  1
  O  O43  1  0.495030  0.197589  0.868944  1
  O  O44  1  0.487200  0.037629  0.156106  1
  O  O45  1  0.497818  0.035422  0.641281  1
  O  O46  1  0.492595  0.915861  0.424739  1
  O  O47  1  0.489404  0.891725  0.915747  1
  O  O48  1  0.502398  0.415162  0.317439  1
  O  O49  1  0.509278  0.415839  0.813072  1
  O  O50  1  0.516883  0.533662  0.100696  1
  O  O51  1  0.519900  0.546648  0.602366  1
  O  O52  1  0.529918  0.658241  0.878968  1
  O  O53  1  0.519433  0.694339  0.371371  1
  O  O54  1  0.524078  0.205934  0.746869  1
  O  O55  1  0.570615  0.197635  0.265195  1
  O  O56  1  0.580323  0.306057  0.140850  1
  O  O57  1  0.587125  0.313855  0.632387  1
  O  O58  1  0.591053  0.143988  0.494076  1
  O  O59  1  0.603309  0.164166  0.997992  1
  O  O60  1  0.647661  0.509746  0.206868  1
  O  O61  1  0.654980  0.510628  0.705586  1
  O  O62  1  0.698651  0.741524  0.265726  1
  O  O63  1  0.661942  0.753105  0.766438  1
  O  O64  1  0.685350  0.774565  0.458197  1
  O  O65  1  0.692889  0.767822  0.958140  1
  O  O66  1  0.707356  0.975272  0.228476  1
  O  O67  1  0.690863  0.990504  0.734939  1
  O  O68  1  0.732540  0.084711  0.097213  1
  O  O69  1  0.733657  0.086485  0.594514  1
  O  O70  1  0.753296  0.465373  0.096108  1
  O  O71  1  0.754041  0.482560  0.591841  1
  O  O72  1  0.727960  0.522634  0.350349  1
  O  O73  1  0.752565  0.526468  0.841923  1
  O  O74  1  0.777568  0.921032  0.344995  1
  O  O75  1  0.756896  0.913348  0.848778  1
  O  O76  1  0.804435  0.016172  0.480335  1
  O  O77  1  0.797808  0.011462  0.984148  1
  O  O78  1  0.810096  0.222241  0.203231  1
  O  O79  1  0.803115  0.231958  0.707589  1
  O  O80  1  0.812312  0.254176  0.511328  1
  O  O81  1  0.832434  0.247768  0.013086  1
  O  O82  1  0.845370  0.494465  0.458925  1
  O  O83  1  0.846658  0.491777  0.956631  1
  O  O84  1  0.919529  0.850791  0.247299  1
  O  O85  1  0.889399  0.842517  0.747323  1
  O  O86  1  0.897672  0.692384  0.384651  1
  O  O87  1  0.916262  0.693342  0.888682  1
  O  O88  1  0.958049  0.786823  0.503329  1
  O  O89  1  0.964291  0.803450  0.008785  1
  O  O90  1  0.978177  0.303219  0.118543  1
  O  O91  1  0.964214  0.333802  0.625706  1
  O  O92  1  0.967582  0.466869  0.351084  1
  O  O93  1  0.987828  0.466491  0.853383  1
  O  O94  1  0.988349  0.590576  0.072903  1
  O  O95  1  0.998453  0.572859  0.563357  1
  P  P96  1  0.044077  0.731740  0.063133  1
  P  P97  1  0.041710  0.719446  0.557834  1
  P  P98  1  0.120260  0.034068  0.366962  1
  P  P99  1  0.115996  0.047497  0.866792  1
  P  P100  1  0.231388  0.374886  0.484863  1
  P  P101  1  0.224745  0.387768  0.978658  1
  P  P102  1  0.278092  0.631628  0.226232  1
  P  P103  1  0.277045  0.620338  0.731831  1
  P  P104  1  0.375331  0.957380  0.120842  1
  P  P105  1  0.382818  0.958406  0.608253  1
  P  P106  1  0.465564  0.266794  0.309429  1
  P  P107  1  0.457023  0.272221  0.807466  1
  P  P108  1  0.546005  0.760876  0.935659  1
  P  P109  1  0.538596  0.772310  0.436520  1
  P  P110  1  0.623706  0.453270  0.136914  1
  P  P111  1  0.629096  0.461093  0.634598  1
  P  P112  1  0.736864  0.127791  0.023694  1
  P  P113  1  0.731877  0.124496  0.520533  1
  P  P114  1  0.777175  0.872439  0.272287  1
  P  P115  1  0.755658  0.875490  0.774493  1
  P  P116  1  0.862267  0.542950  0.386846  1
  P  P117  1  0.875419  0.545566  0.886561  1
  P  P118  1  0.958816  0.222511  0.183560  1
  P  P119  1  0.951500  0.238935  0.686242  1
  Rb  Rb120  1  0.077712  0.074273  0.033234  1
  Rb  Rb121  1  0.076122  0.065425  0.533603  1
  Rb  Rb122  1  0.200189  0.699697  0.392137  1
  Rb  Rb123  1  0.208103  0.720076  0.896858  1
  Rb  Rb124  1  0.288153  0.296704  0.145714  1
  Rb  Rb125  1  0.288977  0.286575  0.650853  1
  Rb  Rb126  1  0.428017  0.934566  0.287125  1
  Rb  Rb127  1  0.416544  0.934401  0.782026  1
  Rb  Rb128  1  0.562674  0.424505  0.963115  1
  Rb  Rb129  1  0.561378  0.428800  0.464368  1
  Rb  Rb130  1  0.708325  0.792339  0.103519  1
  Rb  Rb131  1  0.711923  0.796176  0.605835  1
  Rb  Rb132  1  0.800293  0.214867  0.351580  1
  Rb  Rb133  1  0.788417  0.203282  0.854403  1
  Rb  Rb134  1  0.937094  0.562755  0.216860  1
  Rb  Rb135  1  0.938210  0.575936  0.714117  1
  Ti  Ti136  1  0.089918  0.914833  0.208270  1
  Ti  Ti137  1  0.139574  0.357899  0.823003  1
  Ti  Ti138  1  0.359723  0.647431  0.070078  1
  Ti  Ti139  1  0.357750  0.638691  0.573094  1
  Ti  Ti140  1  0.415065  0.086750  0.453521  1
  Ti  Ti141  1  0.584187  0.586835  0.292827  1
  Ti  Ti142  1  0.587598  0.584416  0.792871  1
  Ti  Ti143  1  0.645458  0.138792  0.180831  1
  Ti  Ti144  1  0.641192  0.144125  0.677462  1
  Ti  Ti145  1  0.857409  0.855127  0.428897  1
  Ti  Ti146  1  0.855083  0.862003  0.929651  1
  Ti  Ti147  1  0.913485  0.412855  0.541848  1
  Ti  Ti148  1  0.913437  0.412656  0.042836  1
  Yb  Yb149  1  0.082269  0.914224  0.704837  1
  Yb  Yb150  1  0.150260  0.351132  0.324989  1
  Yb  Yb151  1  0.415497  0.085514  0.957069  1
