# generated using pymatgen
data_LiGd6B3O14
_symmetry_space_group_name_H-M   'P 1'
_cell_length_a   8.53941374
_cell_length_b   9.02766077
_cell_length_c   15.80023917
_cell_angle_alpha   90.00000000
_cell_angle_beta   90.00000000
_cell_angle_gamma   92.11529149
_symmetry_Int_Tables_number   1
_chemical_formula_structural   LiGd6B3O14
_chemical_formula_sum   'Li4 Gd24 B12 O56'
_cell_volume   1217.22512914
_cell_formula_units_Z   4
loop_
 _symmetry_equiv_pos_site_id
 _symmetry_equiv_pos_as_xyz
  1  'x, y, z'
loop_
 _atom_site_type_symbol
 _atom_site_label
 _atom_site_symmetry_multiplicity
 _atom_site_fract_x
 _atom_site_fract_y
 _atom_site_fract_z
 _atom_site_occupancy
  Li  Li0  1  0.178286  0.062446  0.394199  1
  Li  Li1  1  0.678286  0.562446  0.105801  1
  Li  Li2  1  0.321714  0.437554  0.894199  1
  Li  Li3  1  0.821714  0.937554  0.605801  1
  Gd  Gd4  1  0.448054  0.783329  0.513742  1
  Gd  Gd5  1  0.227537  0.075119  0.643629  1
  Gd  Gd6  1  0.641649  0.194019  0.177674  1
  Gd  Gd7  1  0.799786  0.562748  0.504258  1
  Gd  Gd8  1  0.141649  0.694019  0.322326  1
  Gd  Gd9  1  0.358351  0.805981  0.822326  1
  Gd  Gd10  1  0.700214  0.937252  0.004258  1
  Gd  Gd11  1  0.078707  0.665924  0.665888  1
  Gd  Gd12  1  0.727537  0.575119  0.856371  1
  Gd  Gd13  1  0.858351  0.305981  0.677674  1
  Gd  Gd14  1  0.551946  0.216671  0.486258  1
  Gd  Gd15  1  0.578707  0.165924  0.834112  1
  Gd  Gd16  1  0.272463  0.424881  0.143629  1
  Gd  Gd17  1  0.948054  0.283329  0.986258  1
  Gd  Gd18  1  0.039660  0.055207  0.174210  1
  Gd  Gd19  1  0.200214  0.437252  0.495742  1
  Gd  Gd20  1  0.772463  0.924881  0.356371  1
  Gd  Gd21  1  0.921293  0.334076  0.334112  1
  Gd  Gd22  1  0.421293  0.834076  0.165888  1
  Gd  Gd23  1  0.539660  0.555207  0.325790  1
  Gd  Gd24  1  0.299786  0.062748  0.995742  1
  Gd  Gd25  1  0.960340  0.944793  0.825790  1
  Gd  Gd26  1  0.460340  0.444793  0.674210  1
  Gd  Gd27  1  0.051946  0.716671  0.013742  1
  B  B28  1  0.070485  0.527432  0.827422  1
  B  B29  1  0.929515  0.472568  0.172578  1
  B  B30  1  0.319968  0.277314  0.306977  1
  B  B31  1  0.063759  0.855443  0.499617  1
  B  B32  1  0.429515  0.972568  0.327422  1
  B  B33  1  0.819968  0.777314  0.193023  1
  B  B34  1  0.436241  0.644557  0.999617  1
  B  B35  1  0.936241  0.144557  0.500383  1
  B  B36  1  0.180032  0.222686  0.806977  1
  B  B37  1  0.570485  0.027432  0.672578  1
  B  B38  1  0.680032  0.722686  0.693023  1
  B  B39  1  0.563759  0.355443  0.000383  1
  O  O40  1  0.029575  0.882356  0.415543  1
  O  O41  1  0.192443  0.895760  0.098148  1
  O  O42  1  0.323701  0.274320  0.775866  1
  O  O43  1  0.161847  0.876518  0.914623  1
  O  O44  1  0.542528  0.719991  0.051041  1
  O  O45  1  0.009319  0.535953  0.410677  1
  O  O46  1  0.467395  0.990374  0.411782  1
  O  O47  1  0.345418  0.622191  0.232250  1
  O  O48  1  0.437324  0.322578  0.249312  1
  O  O49  1  0.042528  0.219991  0.448959  1
  O  O50  1  0.532605  0.009626  0.588218  1
  O  O51  1  0.838153  0.123482  0.085377  1
  O  O52  1  0.676299  0.725680  0.224134  1
  O  O53  1  0.654582  0.377809  0.767750  1
  O  O54  1  0.970425  0.117644  0.584457  1
  O  O55  1  0.207898  0.905264  0.533399  1
  O  O56  1  0.649344  0.703143  0.607609  1
  O  O57  1  0.844464  0.778641  0.920723  1
  O  O58  1  0.344464  0.278641  0.579277  1
  O  O59  1  0.655536  0.721359  0.420723  1
  O  O60  1  0.062676  0.177422  0.749312  1
  O  O61  1  0.154582  0.877809  0.732250  1
  O  O62  1  0.937324  0.822578  0.250688  1
  O  O63  1  0.792102  0.094736  0.466601  1
  O  O64  1  0.292102  0.594736  0.033399  1
  O  O65  1  0.350656  0.296857  0.392391  1
  O  O66  1  0.957472  0.780009  0.551041  1
  O  O67  1  0.215381  0.576450  0.797256  1
  O  O68  1  0.951887  0.503253  0.768082  1
  O  O69  1  0.807557  0.104240  0.901852  1
  O  O70  1  0.707898  0.405264  0.966601  1
  O  O71  1  0.548113  0.996747  0.268082  1
  O  O72  1  0.155536  0.221359  0.079277  1
  O  O73  1  0.048113  0.496747  0.231918  1
  O  O74  1  0.661847  0.376518  0.585377  1
  O  O75  1  0.990681  0.464047  0.589323  1
  O  O76  1  0.457472  0.280009  0.948959  1
  O  O77  1  0.715381  0.076450  0.702744  1
  O  O78  1  0.470425  0.617644  0.915543  1
  O  O79  1  0.490681  0.964047  0.910677  1
  O  O80  1  0.529575  0.382356  0.084457  1
  O  O81  1  0.032605  0.509626  0.911782  1
  O  O82  1  0.509319  0.035953  0.089323  1
  O  O83  1  0.692443  0.395760  0.401852  1
  O  O84  1  0.338153  0.623482  0.414623  1
  O  O85  1  0.845418  0.122191  0.267750  1
  O  O86  1  0.284619  0.923550  0.297256  1
  O  O87  1  0.850656  0.796857  0.107609  1
  O  O88  1  0.823701  0.774320  0.724134  1
  O  O89  1  0.307557  0.604240  0.598148  1
  O  O90  1  0.451887  0.003253  0.731918  1
  O  O91  1  0.784619  0.423550  0.202744  1
  O  O92  1  0.149344  0.203143  0.892391  1
  O  O93  1  0.176299  0.225680  0.275866  1
  O  O94  1  0.967395  0.490374  0.088218  1
  O  O95  1  0.562676  0.677422  0.750688  1
