# generated using pymatgen
data_Cs3AlO3
_symmetry_space_group_name_H-M   'P 1'
_cell_length_a   7.28388945
_cell_length_b   13.05653491
_cell_length_c   14.65446139
_cell_angle_alpha   90.00000000
_cell_angle_beta   92.79647506
_cell_angle_gamma   90.00000000
_symmetry_Int_Tables_number   1
_chemical_formula_structural   Cs3AlO3
_chemical_formula_sum   'Cs24 Al8 O24'
_cell_volume   1392.01414664
_cell_formula_units_Z   8
loop_
 _symmetry_equiv_pos_site_id
 _symmetry_equiv_pos_as_xyz
  1  'x, y, z'
loop_
 _atom_site_type_symbol
 _atom_site_label
 _atom_site_symmetry_multiplicity
 _atom_site_fract_x
 _atom_site_fract_y
 _atom_site_fract_z
 _atom_site_occupancy
  Cs  Cs0  1  0.826987  0.304257  0.963555  1
  Cs  Cs1  1  0.816909  0.649529  0.258271  1
  Cs  Cs2  1  0.173013  0.695743  0.036445  1
  Cs  Cs3  1  0.683092  0.149297  0.741527  1
  Cs  Cs4  1  0.673072  0.804831  0.036045  1
  Cs  Cs5  1  0.653404  0.439195  0.636182  1
  Cs  Cs6  1  0.326928  0.195169  0.963955  1
  Cs  Cs7  1  0.183091  0.350471  0.741729  1
  Cs  Cs8  1  0.326928  0.304831  0.463955  1
  Cs  Cs9  1  0.846607  0.939277  0.364312  1
  Cs  Cs10  1  0.653404  0.060805  0.136182  1
  Cs  Cs11  1  0.673072  0.695169  0.536045  1
  Cs  Cs12  1  0.846607  0.560723  0.864312  1
  Cs  Cs13  1  0.316908  0.850703  0.258473  1
  Cs  Cs14  1  0.183091  0.149529  0.241729  1
  Cs  Cs15  1  0.826987  0.195743  0.463555  1
  Cs  Cs16  1  0.153393  0.439277  0.135688  1
  Cs  Cs17  1  0.346596  0.560805  0.363818  1
  Cs  Cs18  1  0.153393  0.060723  0.635688  1
  Cs  Cs19  1  0.173013  0.804257  0.536445  1
  Cs  Cs20  1  0.683092  0.350703  0.241527  1
  Cs  Cs21  1  0.316908  0.649297  0.758473  1
  Cs  Cs22  1  0.346596  0.939195  0.863818  1
  Cs  Cs23  1  0.816909  0.850471  0.758271  1
  Al  Al24  1  0.084084  0.544572  0.570252  1
  Al  Al25  1  0.915916  0.455428  0.429748  1
  Al  Al26  1  0.584164  0.955199  0.570098  1
  Al  Al27  1  0.084084  0.955428  0.070252  1
  Al  Al28  1  0.584164  0.544801  0.070098  1
  Al  Al29  1  0.415836  0.044801  0.429902  1
  Al  Al30  1  0.415836  0.455199  0.929902  1
  Al  Al31  1  0.915916  0.044572  0.929748  1
  O  O32  1  0.035095  0.099201  0.838113  1
  O  O33  1  0.989866  0.587926  0.456852  1
  O  O34  1  0.488731  0.912091  0.456878  1
  O  O35  1  0.324903  0.938858  0.084121  1
  O  O36  1  0.465103  0.901130  0.662029  1
  O  O37  1  0.964905  0.599201  0.661887  1
  O  O38  1  0.534897  0.401130  0.837971  1
  O  O39  1  0.010134  0.087926  0.043148  1
  O  O40  1  0.175096  0.437763  0.916490  1
  O  O41  1  0.675097  0.438858  0.415879  1
  O  O42  1  0.035095  0.400799  0.338113  1
  O  O43  1  0.324903  0.561142  0.584121  1
  O  O44  1  0.824904  0.937763  0.583510  1
  O  O45  1  0.511269  0.412091  0.043122  1
  O  O46  1  0.511269  0.087909  0.543122  1
  O  O47  1  0.175096  0.062237  0.416490  1
  O  O48  1  0.465103  0.598870  0.162029  1
  O  O49  1  0.534897  0.098870  0.337971  1
  O  O50  1  0.824904  0.562237  0.083510  1
  O  O51  1  0.010134  0.412074  0.543148  1
  O  O52  1  0.675097  0.061142  0.915879  1
  O  O53  1  0.989866  0.912074  0.956852  1
  O  O54  1  0.964905  0.900799  0.161887  1
  O  O55  1  0.488731  0.587909  0.956878  1
