# generated using pymatgen
data_TlInSe2
_symmetry_space_group_name_H-M   'P 1'
_cell_length_a   6.76502667
_cell_length_b   6.76504419
_cell_length_c   6.76502750
_cell_angle_alpha   105.83661692
_cell_angle_beta   105.83696955
_cell_angle_gamma   117.01359241
_symmetry_Int_Tables_number   1
_chemical_formula_structural   TlInSe2
_chemical_formula_sum   'Tl2 In2 Se4'
_cell_volume   235.19929986
_cell_formula_units_Z   2
loop_
 _symmetry_equiv_pos_site_id
 _symmetry_equiv_pos_as_xyz
  1  'x, y, z'
loop_
 _atom_site_type_symbol
 _atom_site_label
 _atom_site_symmetry_multiplicity
 _atom_site_fract_x
 _atom_site_fract_y
 _atom_site_fract_z
 _atom_site_occupancy
  Tl  Tl0  1  0.250002  0.750000  0.500002  1
  Tl  Tl1  1  0.749998  0.250000  0.499998  1
  In  In2  1  0.249999  0.250000  -0.000001  1
  In  In3  1  0.750001  0.750000  0.000001  1
  Se  Se4  1  0.819282  0.680720  0.500001  1
  Se  Se5  1  0.680719  0.180720  0.861439  1
  Se  Se6  1  0.319281  0.819280  0.138561  1
  Se  Se7  1  0.180718  0.319280  0.499999  1
