# generated using pymatgen
data_S4N5F
_symmetry_space_group_name_H-M   'P 1'
_cell_length_a   6.50688193
_cell_length_b   11.07943160
_cell_length_c   11.49968391
_cell_angle_alpha   65.88758650
_cell_angle_beta   89.19050189
_cell_angle_gamma   82.43566942
_symmetry_Int_Tables_number   1
_chemical_formula_structural   S4N5F
_chemical_formula_sum   'S16 N20 F4'
_cell_volume   749.39844075
_cell_formula_units_Z   4
loop_
 _symmetry_equiv_pos_site_id
 _symmetry_equiv_pos_as_xyz
  1  'x, y, z'
loop_
 _atom_site_type_symbol
 _atom_site_label
 _atom_site_symmetry_multiplicity
 _atom_site_fract_x
 _atom_site_fract_y
 _atom_site_fract_z
 _atom_site_occupancy
  S  S0  1  0.082869  0.233474  0.947150  1
  S  S1  1  0.917131  0.766526  0.052850  1
  S  S2  1  0.683317  0.171423  0.918890  1
  S  S3  1  0.316683  0.828577  0.081110  1
  S  S4  1  0.003225  0.164208  0.748706  1
  S  S5  1  0.996775  0.835792  0.251294  1
  S  S6  1  0.014538  0.439501  0.694756  1
  S  S7  1  0.985462  0.560499  0.305244  1
  N  N8  1  0.850934  0.201872  0.000414  1
  N  N9  1  0.149066  0.798128  0.999586  1
  N  N10  1  0.768446  0.141153  0.801770  1
  N  N11  1  0.231554  0.858847  0.198230  1
  N  N12  1  0.981442  0.331022  0.645167  1
  N  N13  1  0.018558  0.668978  0.354833  1
  N  N14  1  0.040604  0.398932  0.841315  1
  N  N15  1  0.959396  0.601068  0.158685  1
  N  N16  1  0.164690  0.149765  0.863113  1
  N  N17  1  0.835310  0.850235  0.136887  1
  F  F18  1  0.540522  0.328204  0.842977  1
  F  F19  1  0.459478  0.671796  0.157023  1
  S  S20  1  0.787536  0.134552  0.376943  1
  S  S21  1  0.212464  0.865448  0.623057  1
  S  S22  1  0.473455  0.224680  0.506795  1
  S  S23  1  0.526545  0.775320  0.493205  1
  S  S24  1  0.380816  0.180091  0.286793  1
  S  S25  1  0.619184  0.819909  0.713207  1
  S  S26  1  0.651918  0.370986  0.153330  1
  S  S27  1  0.348082  0.629014  0.846670  1
  N  N28  1  0.708549  0.164796  0.499850  1
  N  N29  1  0.291451  0.835204  0.500150  1
  N  N30  1  0.311412  0.218898  0.406095  1
  N  N31  1  0.688588  0.781102  0.593905  1
  N  N32  1  0.429778  0.329060  0.165533  1
  N  N33  1  0.570222  0.670940  0.834467  1
  N  N34  1  0.821504  0.289105  0.261187  1
  N  N35  1  0.178496  0.710895  0.738813  1
  N  N36  1  0.605607  0.085081  0.316796  1
  N  N37  1  0.394393  0.914919  0.683204  1
  F  F38  1  0.485602  0.391827  0.447445  1
  F  F39  1  0.514398  0.608173  0.552555  1
