# generated using pymatgen
data_SiO2
_symmetry_space_group_name_H-M   'P 1'
_cell_length_a   9.04988595
_cell_length_b   9.05888458
_cell_length_c   16.23303011
_cell_angle_alpha   90.00000000
_cell_angle_beta   90.00000000
_cell_angle_gamma   90.00000000
_symmetry_Int_Tables_number   1
_chemical_formula_structural   SiO2
_chemical_formula_sum   'Si32 O64'
_cell_volume   1330.81420125
_cell_formula_units_Z   32
loop_
 _symmetry_equiv_pos_site_id
 _symmetry_equiv_pos_as_xyz
  1  'x, y, z'
loop_
 _atom_site_type_symbol
 _atom_site_label
 _atom_site_symmetry_multiplicity
 _atom_site_fract_x
 _atom_site_fract_y
 _atom_site_fract_z
 _atom_site_occupancy
  Si  Si0  1  0.553397  0.969585  0.656351  1
  Si  Si1  1  0.219907  0.196931  0.093663  1
  Si  Si2  1  0.446603  0.030415  0.343649  1
  Si  Si3  1  0.280093  0.696931  0.093663  1
  Si  Si4  1  0.053397  0.530415  0.343649  1
  Si  Si5  1  0.946603  0.030415  0.156351  1
  Si  Si6  1  0.053399  0.469717  0.156296  1
  Si  Si7  1  0.219922  0.696831  0.906301  1
  Si  Si8  1  0.446603  0.469585  0.843649  1
  Si  Si9  1  0.719922  0.696831  0.593699  1
  Si  Si10  1  0.446601  0.530283  0.656296  1
  Si  Si11  1  0.780078  0.196831  0.593699  1
  Si  Si12  1  0.280093  0.803069  0.593663  1
  Si  Si13  1  0.553399  0.030283  0.843704  1
  Si  Si14  1  0.719907  0.303069  0.906337  1
  Si  Si15  1  0.946601  0.969717  0.343704  1
  Si  Si16  1  0.553399  0.469717  0.343704  1
  Si  Si17  1  0.219907  0.303069  0.593663  1
  Si  Si18  1  0.553397  0.530415  0.156351  1
  Si  Si19  1  0.053397  0.969585  0.843649  1
  Si  Si20  1  0.780078  0.303169  0.093699  1
  Si  Si21  1  0.780093  0.803069  0.906337  1
  Si  Si22  1  0.946601  0.530283  0.843704  1
  Si  Si23  1  0.280078  0.196831  0.906301  1
  Si  Si24  1  0.719922  0.803169  0.093699  1
  Si  Si25  1  0.219922  0.803169  0.406301  1
  Si  Si26  1  0.946603  0.469585  0.656351  1
  Si  Si27  1  0.446601  0.969717  0.156296  1
  Si  Si28  1  0.780093  0.696931  0.406337  1
  Si  Si29  1  0.719907  0.196931  0.406337  1
  Si  Si30  1  0.280078  0.303169  0.406301  1
  Si  Si31  1  0.053399  0.030283  0.656296  1
  O  O32  1  0.675842  0.663728  0.152677  1
  O  O33  1  0.324158  0.163728  0.347323  1
  O  O34  1  0.627276  0.877524  0.875196  1
  O  O35  1  0.127276  0.622476  0.124804  1
  O  O36  1  0.413880  0.575047  0.097529  1
  O  O37  1  0.824158  0.336272  0.652677  1
  O  O38  1  0.824132  0.836430  0.347389  1
  O  O39  1  0.127297  0.377661  0.375138  1
  O  O40  1  0.627297  0.377661  0.124862  1
  O  O41  1  0.372703  0.622339  0.875138  1
  O  O42  1  0.996300  0.999940  0.749972  1
  O  O43  1  0.872724  0.377524  0.875196  1
  O  O44  1  0.175868  0.336430  0.152611  1
  O  O45  1  0.749951  0.245935  0.000030  1
  O  O46  1  0.586124  0.574941  0.597488  1
  O  O47  1  0.324158  0.336272  0.847323  1
  O  O48  1  0.086124  0.574941  0.902512  1
  O  O49  1  0.627297  0.122339  0.624862  1
  O  O50  1  0.496300  0.500060  0.250028  1
  O  O51  1  0.750049  0.754065  0.500030  1
  O  O52  1  0.675842  0.836272  0.652677  1
  O  O53  1  0.250049  0.754065  0.999970  1
  O  O54  1  0.249951  0.245935  0.499970  1
  O  O55  1  0.324132  0.663570  0.652611  1
  O  O56  1  0.913880  0.575047  0.402471  1
  O  O57  1  0.872724  0.122476  0.375196  1
  O  O58  1  0.913880  0.924953  0.902471  1
  O  O59  1  0.127276  0.877524  0.624804  1
  O  O60  1  0.413880  0.924953  0.597529  1
  O  O61  1  0.824132  0.663570  0.847389  1
  O  O62  1  0.372724  0.377524  0.624804  1
  O  O63  1  0.675868  0.336430  0.347389  1
  O  O64  1  0.913876  0.425059  0.097488  1
  O  O65  1  0.250049  0.745935  0.499970  1
  O  O66  1  0.675868  0.163570  0.847389  1
  O  O67  1  0.175868  0.163570  0.652611  1
  O  O68  1  0.413876  0.425059  0.402512  1
  O  O69  1  0.127297  0.122339  0.875138  1
  O  O70  1  0.372703  0.877661  0.375138  1
  O  O71  1  0.586120  0.424953  0.902471  1
  O  O72  1  0.750049  0.745935  0.000030  1
  O  O73  1  0.086120  0.424953  0.597529  1
  O  O74  1  0.003700  0.000060  0.250028  1
  O  O75  1  0.627276  0.622476  0.375196  1
  O  O76  1  0.003700  0.499940  0.750028  1
  O  O77  1  0.503700  0.499940  0.749972  1
  O  O78  1  0.872703  0.877661  0.124862  1
  O  O79  1  0.086120  0.075047  0.097529  1
  O  O80  1  0.913876  0.074941  0.597488  1
  O  O81  1  0.586124  0.925059  0.097488  1
  O  O82  1  0.175842  0.663728  0.347323  1
  O  O83  1  0.503700  0.000060  0.249972  1
  O  O84  1  0.175842  0.836272  0.847323  1
  O  O85  1  0.996300  0.500060  0.249972  1
  O  O86  1  0.872703  0.622339  0.624862  1
  O  O87  1  0.749951  0.254065  0.500030  1
  O  O88  1  0.372724  0.122476  0.124804  1
  O  O89  1  0.086124  0.925059  0.402512  1
  O  O90  1  0.824158  0.163728  0.152677  1
  O  O91  1  0.324132  0.836430  0.152611  1
  O  O92  1  0.413876  0.074941  0.902512  1
  O  O93  1  0.586120  0.075047  0.402471  1
  O  O94  1  0.496300  0.999940  0.750028  1
  O  O95  1  0.249951  0.254065  0.999970  1
