# generated using pymatgen
data_LiMnP2O7
_symmetry_space_group_name_H-M   'P 1'
_cell_length_a   12.55366651
_cell_length_b   5.16747849
_cell_length_c   8.41197456
_cell_angle_alpha   90.00000000
_cell_angle_beta   99.85724325
_cell_angle_gamma   90.00000000
_symmetry_Int_Tables_number   1
_chemical_formula_structural   LiMnP2O7
_chemical_formula_sum   'Li4 Mn4 P8 O28'
_cell_volume   537.63568185
_cell_formula_units_Z   4
loop_
 _symmetry_equiv_pos_site_id
 _symmetry_equiv_pos_as_xyz
  1  'x, y, z'
loop_
 _atom_site_type_symbol
 _atom_site_label
 _atom_site_symmetry_multiplicity
 _atom_site_fract_x
 _atom_site_fract_y
 _atom_site_fract_z
 _atom_site_occupancy
  Li  Li0  1  0.810641  0.246465  0.871103  1
  Li  Li1  1  0.310641  0.253535  0.371103  1
  Li  Li2  1  0.417712  0.788941  0.914295  1
  Li  Li3  1  0.917712  0.711059  0.414295  1
  Mn  Mn4  1  0.484982  0.730622  0.250925  1
  Mn  Mn5  1  0.984982  0.769378  0.750925  1
  Mn  Mn6  1  0.025725  0.249674  0.257919  1
  Mn  Mn7  1  0.525725  0.250326  0.757919  1
  P  P8  1  0.381448  0.766143  0.572071  1
  P  P9  1  0.616470  0.214882  0.426429  1
  P  P10  1  0.859283  0.227041  0.531030  1
  P  P11  1  0.881448  0.733857  0.072071  1
  P  P12  1  0.116470  0.285118  0.926429  1
  P  P13  1  0.643523  0.740798  0.968922  1
  P  P14  1  0.143523  0.759202  0.468922  1
  P  P15  1  0.359283  0.272959  0.031030  1
  O  O16  1  0.134811  0.557568  0.335278  1
  O  O17  1  0.931985  0.329817  0.413522  1
  O  O18  1  0.941631  0.881380  0.217252  1
  O  O19  1  0.431985  0.170183  0.913522  1
  O  O20  1  0.558237  0.806010  0.074124  1
  O  O21  1  0.743338  0.239878  0.416367  1
  O  O22  1  0.108980  0.183792  0.096582  1
  O  O23  1  0.585394  0.928644  0.405498  1
  O  O24  1  0.562313  0.384564  0.291895  1
  O  O25  1  0.890238  0.856667  0.907281  1
  O  O26  1  0.634811  0.942432  0.835278  1
  O  O27  1  0.904062  0.441786  0.078845  1
  O  O28  1  0.404062  0.058214  0.578845  1
  O  O29  1  0.876606  0.938627  0.573555  1
  O  O30  1  0.143559  0.041193  0.414943  1
  O  O31  1  0.608980  0.316208  0.596582  1
  O  O32  1  0.376606  0.561373  0.073555  1
  O  O33  1  0.643559  0.458807  0.914943  1
  O  O34  1  0.390238  0.643333  0.407281  1
  O  O35  1  0.756932  0.781424  0.090733  1
  O  O36  1  0.243338  0.260122  0.916367  1
  O  O37  1  0.058237  0.693990  0.574124  1
  O  O38  1  0.441631  0.618620  0.717252  1
  O  O39  1  0.062313  0.115436  0.791895  1
  O  O40  1  0.363444  0.098179  0.176365  1
  O  O41  1  0.256932  0.718576  0.590733  1
  O  O42  1  0.085394  0.571356  0.905498  1
  O  O43  1  0.863444  0.401821  0.676365  1
