# generated using pymatgen
data_NaB3O5
_symmetry_space_group_name_H-M   'P 1'
_cell_length_a   10.24992643
_cell_length_b   10.97455812
_cell_length_c   11.58234650
_cell_angle_alpha   90.00000000
_cell_angle_beta   90.00000000
_cell_angle_gamma   104.70189749
_symmetry_Int_Tables_number   1
_chemical_formula_structural   NaB3O5
_chemical_formula_sum   'Na12 B36 O60'
_cell_volume   1260.22264652
_cell_formula_units_Z   12
loop_
 _symmetry_equiv_pos_site_id
 _symmetry_equiv_pos_as_xyz
  1  'x, y, z'
loop_
 _atom_site_type_symbol
 _atom_site_label
 _atom_site_symmetry_multiplicity
 _atom_site_fract_x
 _atom_site_fract_y
 _atom_site_fract_z
 _atom_site_occupancy
  Na  Na0  1  0.929195  0.122464  0.633604  1
  Na  Na1  1  0.929195  0.622464  0.866396  1
  Na  Na2  1  0.070805  0.877536  0.366396  1
  Na  Na3  1  0.410454  0.086704  0.367836  1
  Na  Na4  1  0.649859  0.612053  0.346927  1
  Na  Na5  1  0.589546  0.913296  0.632164  1
  Na  Na6  1  0.649859  0.112053  0.153073  1
  Na  Na7  1  0.350141  0.887947  0.846927  1
  Na  Na8  1  0.410454  0.586704  0.132164  1
  Na  Na9  1  0.070805  0.377536  0.133604  1
  Na  Na10  1  0.350141  0.387947  0.653073  1
  Na  Na11  1  0.589546  0.413296  0.867836  1
  B  B12  1  0.291513  0.406597  0.909901  1
  B  B13  1  0.588126  0.383649  0.175438  1
  B  B14  1  0.727247  0.503691  0.602590  1
  B  B15  1  0.727247  0.003691  0.897410  1
  B  B16  1  0.411874  0.116351  0.675438  1
  B  B17  1  0.294979  0.712807  0.473781  1
  B  B18  1  0.291513  0.906597  0.590099  1
  B  B19  1  0.088244  0.906332  0.699169  1
  B  B20  1  0.911756  0.093668  0.300831  1
  B  B21  1  0.088244  0.406332  0.800831  1
  B  B22  1  0.708487  0.593403  0.090099  1
  B  B23  1  0.705021  0.287193  0.526219  1
  B  B24  1  0.790831  0.733540  0.554532  1
  B  B25  1  0.386624  0.344851  0.305204  1
  B  B26  1  0.197334  0.084559  0.572043  1
  B  B27  1  0.802666  0.915441  0.427957  1
  B  B28  1  0.121651  0.626005  0.330063  1
  B  B29  1  0.411874  0.616351  0.824562  1
  B  B30  1  0.386624  0.844851  0.194796  1
  B  B31  1  0.802666  0.415441  0.072043  1
  B  B32  1  0.708487  0.093403  0.409901  1
  B  B33  1  0.878349  0.373995  0.669937  1
  B  B34  1  0.878349  0.873995  0.830063  1
  B  B35  1  0.705021  0.787193  0.973781  1
  B  B36  1  0.790831  0.233540  0.945468  1
  B  B37  1  0.209169  0.266460  0.445468  1
  B  B38  1  0.588126  0.883649  0.324562  1
  B  B39  1  0.613376  0.155149  0.805204  1
  B  B40  1  0.272753  0.996309  0.102590  1
  B  B41  1  0.197334  0.584559  0.927957  1
  B  B42  1  0.272753  0.496309  0.397410  1
  B  B43  1  0.911756  0.593668  0.199169  1
  B  B44  1  0.121651  0.126005  0.169937  1
  B  B45  1  0.613376  0.655149  0.694796  1
  B  B46  1  0.209169  0.766460  0.054532  1
  B  B47  1  0.294979  0.212807  0.026219  1
  O  O48  1  0.597579  0.009948  0.335268  1
  O  O49  1  0.380153  0.966039  0.178937  1
  O  O50  1  0.243146  0.987003  0.507404  1
  O  O51  1  0.097466  0.026179  0.661678  1
  O  O52  1  0.320530  0.672512  0.871845  1
  O  O53  1  0.787266  0.612021  0.526278  1
  O  O54  1  0.756854  0.512997  0.007404  1
  O  O55  1  0.183264  0.843096  0.671453  1
  O  O56  1  0.983713  0.344482  0.728220  1
  O  O57  1  0.642694  0.185772  0.460171  1
  O  O58  1  0.482019  0.308002  0.238951  1
  O  O59  1  0.212734  0.887979  0.026278  1
  O  O60  1  0.662412  0.395708  0.529939  1
  O  O61  1  0.402421  0.490052  0.835268  1
  O  O62  1  0.703887  0.755767  0.641882  1
  O  O63  1  0.165727  0.519631  0.319278  1
  O  O64  1  0.983713  0.844482  0.771780  1
  O  O65  1  0.337588  0.604292  0.470061  1
  O  O66  1  0.243146  0.487003  0.992596  1
  O  O67  1  0.016287  0.155518  0.228220  1
  O  O68  1  0.517981  0.191998  0.738951  1
  O  O69  1  0.165727  0.019631  0.180722  1
  O  O70  1  0.703887  0.255767  0.858118  1
  O  O71  1  0.296113  0.244233  0.358118  1
  O  O72  1  0.212734  0.387979  0.473722  1
  O  O73  1  0.597579  0.509948  0.164732  1
  O  O74  1  0.787266  0.112021  0.973722  1
  O  O75  1  0.679470  0.327488  0.128155  1
  O  O76  1  0.619847  0.033961  0.821063  1
  O  O77  1  0.132774  0.665415  0.996361  1
  O  O78  1  0.402421  0.990052  0.664732  1
  O  O79  1  0.814551  0.277374  0.595029  1
  O  O80  1  0.867226  0.834585  0.496361  1
  O  O81  1  0.097466  0.526179  0.838322  1
  O  O82  1  0.834273  0.480369  0.680722  1
  O  O83  1  0.619847  0.533961  0.678937  1
  O  O84  1  0.185449  0.222626  0.095029  1
  O  O85  1  0.816736  0.656904  0.171453  1
  O  O86  1  0.756854  0.012997  0.492596  1
  O  O87  1  0.834273  0.980369  0.819278  1
  O  O88  1  0.132774  0.165415  0.503639  1
  O  O89  1  0.183264  0.343096  0.828547  1
  O  O90  1  0.867226  0.334585  0.003639  1
  O  O91  1  0.296113  0.744233  0.141882  1
  O  O92  1  0.357306  0.314228  0.960171  1
  O  O93  1  0.517981  0.691998  0.761049  1
  O  O94  1  0.185449  0.722626  0.404971  1
  O  O95  1  0.902534  0.473821  0.161678  1
  O  O96  1  0.662412  0.895708  0.970061  1
  O  O97  1  0.814551  0.777374  0.904971  1
  O  O98  1  0.679470  0.827488  0.371845  1
  O  O99  1  0.902534  0.973821  0.338322  1
  O  O100  1  0.016287  0.655518  0.271780  1
  O  O101  1  0.380153  0.466039  0.321063  1
  O  O102  1  0.320530  0.172512  0.628155  1
  O  O103  1  0.482019  0.808002  0.261049  1
  O  O104  1  0.642694  0.685772  0.039829  1
  O  O105  1  0.357306  0.814228  0.539829  1
  O  O106  1  0.337588  0.104292  0.029939  1
  O  O107  1  0.816736  0.156904  0.328547  1
