# generated using pymatgen
data_CSNF5
_symmetry_space_group_name_H-M   'P 1'
_cell_length_a   6.08164542
_cell_length_b   8.48035618
_cell_length_c   9.87387618
_cell_angle_alpha   90.00000000
_cell_angle_beta   90.00000000
_cell_angle_gamma   90.00000000
_symmetry_Int_Tables_number   1
_chemical_formula_structural   CSNF5
_chemical_formula_sum   'C4 S4 N4 F20'
_cell_volume   509.24041783
_cell_formula_units_Z   4
loop_
 _symmetry_equiv_pos_site_id
 _symmetry_equiv_pos_as_xyz
  1  'x, y, z'
loop_
 _atom_site_type_symbol
 _atom_site_label
 _atom_site_symmetry_multiplicity
 _atom_site_fract_x
 _atom_site_fract_y
 _atom_site_fract_z
 _atom_site_occupancy
  C  C0  1  0.750000  0.581437  0.045301  1
  C  C1  1  0.250000  0.418563  0.954699  1
  C  C2  1  0.250000  0.081437  0.454699  1
  C  C3  1  0.750000  0.918563  0.545301  1
  S  S4  1  0.250000  0.574836  0.695729  1
  S  S5  1  0.750000  0.425164  0.304271  1
  S  S6  1  0.250000  0.925164  0.195729  1
  S  S7  1  0.750000  0.074836  0.804271  1
  N  N8  1  0.250000  0.018007  0.347629  1
  N  N9  1  0.750000  0.981993  0.652371  1
  N  N10  1  0.750000  0.518007  0.152371  1
  N  N11  1  0.250000  0.481993  0.847629  1
  F  F12  1  0.750000  0.162879  0.947385  1
  F  F13  1  0.513181  0.924665  0.195518  1
  F  F14  1  0.250000  0.091748  0.119958  1
  F  F15  1  0.750000  0.908252  0.880042  1
  F  F16  1  0.750000  0.242303  0.729167  1
  F  F17  1  0.250000  0.837121  0.052615  1
  F  F18  1  0.250000  0.662879  0.552615  1
  F  F19  1  0.750000  0.257697  0.229167  1
  F  F20  1  0.750000  0.337121  0.447385  1
  F  F21  1  0.250000  0.408252  0.619958  1
  F  F22  1  0.513181  0.575335  0.695518  1
  F  F23  1  0.013181  0.075335  0.804482  1
  F  F24  1  0.486819  0.075335  0.804482  1
  F  F25  1  0.250000  0.757697  0.270833  1
  F  F26  1  0.986819  0.575335  0.695518  1
  F  F27  1  0.013181  0.424665  0.304482  1
  F  F28  1  0.986819  0.924665  0.195518  1
  F  F29  1  0.250000  0.742303  0.770833  1
  F  F30  1  0.750000  0.591748  0.380042  1
  F  F31  1  0.486819  0.424665  0.304482  1
