# generated using pymatgen
data_Tl4SnSe3
_symmetry_space_group_name_H-M   'P 1'
_cell_length_a   8.69779593
_cell_length_b   8.70539784
_cell_length_c   26.98818294
_cell_angle_alpha   90.02842946
_cell_angle_beta   90.00000000
_cell_angle_gamma   90.00000000
_symmetry_Int_Tables_number   1
_chemical_formula_structural   Tl4SnSe3
_chemical_formula_sum   'Tl32 Sn8 Se24'
_cell_volume   2043.48488361
_cell_formula_units_Z   8
loop_
 _symmetry_equiv_pos_site_id
 _symmetry_equiv_pos_as_xyz
  1  'x, y, z'
loop_
 _atom_site_type_symbol
 _atom_site_label
 _atom_site_symmetry_multiplicity
 _atom_site_fract_x
 _atom_site_fract_y
 _atom_site_fract_z
 _atom_site_occupancy
  Se  Se0  1  0.084398  0.565890  0.120615  1
  Se  Se1  1  0.058248  0.604852  0.622442  1
  Se  Se2  1  0.101398  0.941585  0.377470  1
  Se  Se3  1  0.103462  0.944104  0.879199  1
  Se  Se4  1  0.243885  0.259359  0.528979  1
  Se  Se5  1  0.232281  0.251828  0.023025  1
  Se  Se6  1  0.253252  0.255187  0.279518  1
  Se  Se7  1  0.252791  0.261434  0.779256  1
  Se  Se8  1  0.408456  0.894595  0.127502  1
  Se  Se9  1  0.439106  0.607232  0.371427  1
  Se  Se10  1  0.393459  0.940961  0.626958  1
  Se  Se11  1  0.439848  0.606034  0.873791  1
  Se  Se12  1  0.603462  0.055896  0.370801  1
  Se  Se13  1  0.584398  0.434110  0.129385  1
  Se  Se14  1  0.601398  0.058415  0.872530  1
  Se  Se15  1  0.558248  0.395148  0.627558  1
  Se  Se16  1  0.732281  0.748172  0.226975  1
  Se  Se17  1  0.743885  0.740641  0.721021  1
  Se  Se18  1  0.752791  0.738566  0.470744  1
  Se  Se19  1  0.753252  0.744813  0.970482  1
  Se  Se20  1  0.908456  0.105405  0.122498  1
  Se  Se21  1  0.893459  0.059039  0.623042  1
  Se  Se22  1  0.939848  0.393966  0.376209  1
  Se  Se23  1  0.939106  0.392768  0.878573  1
  Sn  Sn24  1  0.268850  0.243017  0.630515  1
  Sn  Sn25  1  0.226503  0.240722  0.381558  1
  Sn  Sn26  1  0.230743  0.243695  0.881964  1
  Sn  Sn27  1  0.456343  0.650191  0.192625  1
  Sn  Sn28  1  0.730743  0.756305  0.368036  1
  Sn  Sn29  1  0.768850  0.756983  0.619485  1
  Sn  Sn30  1  0.726503  0.759278  0.868442  1
  Sn  Sn31  1  0.956343  0.349809  0.057375  1
  Tl  Tl32  1  0.073030  0.865352  0.192995  1
  Tl  Tl33  1  0.081963  0.626261  0.448471  1
  Tl  Tl34  1  0.085964  0.883580  0.699416  1
  Tl  Tl35  1  0.079649  0.620376  0.951334  1
  Tl  Tl36  1  0.127988  0.581387  0.299722  1
  Tl  Tl37  1  0.119640  0.588502  0.803944  1
  Tl  Tl38  1  0.126046  0.925121  0.050620  1
  Tl  Tl39  1  0.121603  0.918963  0.548533  1
  Tl  Tl40  1  0.257908  0.254875  0.153029  1
  Tl  Tl41  1  0.370916  0.576544  0.049599  1
  Tl  Tl42  1  0.372924  0.912662  0.298018  1
  Tl  Tl43  1  0.379336  0.587852  0.552048  1
  Tl  Tl44  1  0.371260  0.921869  0.798724  1
  Tl  Tl45  1  0.414961  0.884786  0.449381  1
  Tl  Tl46  1  0.409354  0.885276  0.949754  1
  Tl  Tl47  1  0.414433  0.624976  0.699698  1
  Tl  Tl48  1  0.579649  0.379624  0.298666  1
  Tl  Tl49  1  0.573030  0.134648  0.057005  1
  Tl  Tl50  1  0.581963  0.373739  0.801529  1
  Tl  Tl51  1  0.585964  0.116420  0.550584  1
  Tl  Tl52  1  0.626046  0.074879  0.199380  1
  Tl  Tl53  1  0.621603  0.081037  0.701467  1
  Tl  Tl54  1  0.627988  0.418613  0.950278  1
  Tl  Tl55  1  0.619640  0.411498  0.446056  1
  Tl  Tl56  1  0.757908  0.745125  0.096971  1
  Tl  Tl57  1  0.870916  0.423456  0.200401  1
  Tl  Tl58  1  0.879336  0.412148  0.697952  1
  Tl  Tl59  1  0.872924  0.087338  0.951982  1
  Tl  Tl60  1  0.871260  0.078131  0.451276  1
  Tl  Tl61  1  0.909354  0.114724  0.300246  1
  Tl  Tl62  1  0.914961  0.115214  0.800619  1
  Tl  Tl63  1  0.914433  0.375024  0.550302  1
