# generated using pymatgen
data_Ti6In2Si2P12O49
_symmetry_space_group_name_H-M   'P 1'
_cell_length_a   15.86898602
_cell_length_b   15.86898591
_cell_length_c   15.86898621
_cell_angle_alpha   31.39560034
_cell_angle_beta   31.39560098
_cell_angle_gamma   31.39560019
_symmetry_Int_Tables_number   1
_chemical_formula_structural   Ti6In2Si2P12O49
_chemical_formula_sum   'Ti6 In2 Si2 P12 O49'
_cell_volume   962.66369796
_cell_formula_units_Z   1
loop_
 _symmetry_equiv_pos_site_id
 _symmetry_equiv_pos_as_xyz
  1  'x, y, z'
loop_
 _atom_site_type_symbol
 _atom_site_label
 _atom_site_symmetry_multiplicity
 _atom_site_fract_x
 _atom_site_fract_y
 _atom_site_fract_z
 _atom_site_occupancy
  Ti  Ti0  1  0.344029  0.344029  0.344029  1
  Ti  Ti1  1  0.930535  0.930535  0.930535  1
  Ti  Ti2  1  0.756028  0.756028  0.756028  1
  Ti  Ti3  1  0.243972  0.243972  0.243972  1
  Ti  Ti4  1  0.069465  0.069465  0.069465  1
  Ti  Ti5  1  0.655971  0.655971  0.655971  1
  In  In6  1  0.172932  0.172932  0.172932  1
  In  In7  1  0.827068  0.827068  0.827068  1
  Si  Si8  1  0.464375  0.464375  0.464375  1
  Si  Si9  1  0.535625  0.535625  0.535625  1
  P  P10  1  0.876405  0.172087  0.584205  1
  P  P11  1  0.172087  0.584205  0.876405  1
  P  P12  1  0.827913  0.415795  0.123595  1
  P  P13  1  0.293794  0.006832  0.578138  1
  P  P14  1  0.578138  0.293794  0.006832  1
  P  P15  1  0.123595  0.827913  0.415795  1
  P  P16  1  0.421862  0.706206  0.993168  1
  P  P17  1  0.993168  0.421862  0.706206  1
  P  P18  1  0.415795  0.123595  0.827913  1
  P  P19  1  0.706206  0.993168  0.421862  1
  P  P20  1  0.006832  0.578138  0.293794  1
  P  P21  1  0.584205  0.876405  0.172087  1
  O  O22  1  0.731144  0.380532  0.535716  1
  O  O23  1  0.915651  0.349359  0.191567  1
  O  O24  1  0.044098  0.233999  0.861772  1
  O  O25  1  0.535716  0.731144  0.380532  1
  O  O26  1  0.400489  0.055975  0.173359  1
  O  O27  1  0.191567  0.915651  0.349359  1
  O  O28  1  0.719249  0.900657  0.092013  1
  O  O29  1  0.944025  0.826641  0.599511  1
  O  O30  1  0.831844  0.474703  0.739161  1
  O  O31  1  0.464284  0.268856  0.619468  1
  O  O32  1  0.577532  0.478515  0.840378  1
  O  O33  1  0.599511  0.944025  0.826641  1
  O  O34  1  0.739161  0.831844  0.474703  1
  O  O35  1  0.233999  0.861772  0.044098  1
  O  O36  1  0.280751  0.099343  0.907987  1
  O  O37  1  0.055975  0.173359  0.400489  1
  O  O38  1  0.521485  0.159622  0.422468  1
  O  O39  1  0.168156  0.525297  0.260839  1
  O  O40  1  0.650641  0.808433  0.084349  1
  O  O41  1  0.619468  0.464284  0.268856  1
  O  O42  1  0.478515  0.840378  0.577532  1
  O  O43  1  0.474703  0.739161  0.831844  1
  O  O44  1  0.268856  0.619468  0.464284  1
  O  O45  1  0.422468  0.521485  0.159622  1
  O  O46  1  0.349359  0.191567  0.915651  1
  O  O47  1  0.826641  0.599511  0.944025  1
  O  O48  1  0.380532  0.535716  0.731144  1
  O  O49  1  0.706381  0.936196  0.565335  1
  O  O50  1  0.092013  0.719249  0.900657  1
  O  O51  1  0.434665  0.293619  0.063804  1
  O  O52  1  0.500000  0.500000  0.500000  1
  O  O53  1  0.138228  0.955902  0.766001  1
  O  O54  1  0.099343  0.907987  0.280751  1
  O  O55  1  0.159622  0.422468  0.521485  1
  O  O56  1  0.808433  0.084349  0.650641  1
  O  O57  1  0.861772  0.044098  0.233999  1
  O  O58  1  0.907987  0.280751  0.099343  1
  O  O59  1  0.565335  0.706381  0.936196  1
  O  O60  1  0.900657  0.092013  0.719249  1
  O  O61  1  0.766001  0.138228  0.955902  1
  O  O62  1  0.293619  0.063804  0.434665  1
  O  O63  1  0.063804  0.434665  0.293619  1
  O  O64  1  0.525297  0.260839  0.168156  1
  O  O65  1  0.084349  0.650641  0.808433  1
  O  O66  1  0.840378  0.577532  0.478515  1
  O  O67  1  0.955902  0.766001  0.138228  1
  O  O68  1  0.260839  0.168156  0.525297  1
  O  O69  1  0.173359  0.400489  0.055975  1
  O  O70  1  0.936196  0.565335  0.706381  1
