# generated using pymatgen
data_RuCl(OF3)2
_symmetry_space_group_name_H-M   'P 1'
_cell_length_a   5.84341580
_cell_length_b   7.19862812
_cell_length_c   7.60062389
_cell_angle_alpha   90.56253639
_cell_angle_beta   90.00000000
_cell_angle_gamma   90.00000000
_symmetry_Int_Tables_number   1
_chemical_formula_structural   RuCl(OF3)2
_chemical_formula_sum   'Ru2 Cl2 O4 F12'
_cell_volume   319.70162161
_cell_formula_units_Z   2
loop_
 _symmetry_equiv_pos_site_id
 _symmetry_equiv_pos_as_xyz
  1  'x, y, z'
loop_
 _atom_site_type_symbol
 _atom_site_label
 _atom_site_symmetry_multiplicity
 _atom_site_fract_x
 _atom_site_fract_y
 _atom_site_fract_z
 _atom_site_occupancy
  Ru  Ru0  1  0.001568  0.750000  0.250000  1
  Ru  Ru1  1  0.998432  0.250000  0.750000  1
  Cl  Cl2  1  0.643117  0.250000  0.250000  1
  Cl  Cl3  1  0.356883  0.750000  0.750000  1
  O  O4  1  0.484712  0.745436  0.589930  1
  O  O5  1  0.515288  0.245436  0.089930  1
  O  O6  1  0.484712  0.754564  0.910070  1
  O  O7  1  0.515288  0.254564  0.410070  1
  F  F8  1  0.241602  0.432625  0.758355  1
  F  F9  1  -0.001301  0.758743  1.001455  1
  F  F10  1  0.758398  0.932625  0.258355  1
  F  F11  1  0.775558  0.436749  0.757255  1
  F  F12  1  0.241602  0.067375  0.741645  1
  F  F13  1  0.224442  0.563251  0.242745  1
  F  F14  1  1.001301  0.258743  0.501455  1
  F  F15  1  0.224442  0.936749  0.257255  1
  F  F16  1  0.758398  0.567375  0.241645  1
  F  F17  1  -0.001301  0.741257  0.498545  1
  F  F18  1  1.001301  0.241257  -0.001455  1
  F  F19  1  0.775558  0.063251  0.742745  1
