# generated using pymatgen
data_MoCl5
_symmetry_space_group_name_H-M   'P 1'
_cell_length_a   6.46835397
_cell_length_b   6.95229197
_cell_length_c   9.49701302
_cell_angle_alpha   109.69222571
_cell_angle_beta   91.33193522
_cell_angle_gamma   116.76275949
_symmetry_Int_Tables_number   1
_chemical_formula_structural   MoCl5
_chemical_formula_sum   'Mo2 Cl10'
_cell_volume   351.16510525
_cell_formula_units_Z   2
loop_
 _symmetry_equiv_pos_site_id
 _symmetry_equiv_pos_as_xyz
  1  'x, y, z'
loop_
 _atom_site_type_symbol
 _atom_site_label
 _atom_site_symmetry_multiplicity
 _atom_site_fract_x
 _atom_site_fract_y
 _atom_site_fract_z
 _atom_site_occupancy
  Mo  Mo0  1  0.105282  0.714923  0.714265  1
  Mo  Mo1  1  0.894718  0.285077  0.285735  1
  Cl  Cl2  1  0.233902  0.683093  0.461509  1
  Cl  Cl3  1  0.113359  0.136256  0.354251  1
  Cl  Cl4  1  0.766098  0.316907  0.538491  1
  Cl  Cl5  1  0.430739  0.069488  0.835057  1
  Cl  Cl6  1  0.886641  0.863744  0.645749  1
  Cl  Cl7  1  0.569261  0.930512  0.164943  1
  Cl  Cl8  1  0.054858  0.306772  0.077456  1
  Cl  Cl9  1  0.292808  0.512398  0.737955  1
  Cl  Cl10  1  0.707192  0.487602  0.262045  1
  Cl  Cl11  1  0.945142  0.693228  0.922544  1
