# generated using pymatgen
data_Ba6CdAg2(SnS4)4
_symmetry_space_group_name_H-M   'P 1'
_cell_length_a   12.94995858
_cell_length_b   12.94995848
_cell_length_c   12.94995878
_cell_angle_alpha   109.39326803
_cell_angle_beta   109.39326785
_cell_angle_gamma   109.62724172
_symmetry_Int_Tables_number   1
_chemical_formula_structural   Ba6CdAg2(SnS4)4
_chemical_formula_sum   'Ba12 Cd2 Ag4 Sn8 S32'
_cell_volume   1671.78651822
_cell_formula_units_Z   2
loop_
 _symmetry_equiv_pos_site_id
 _symmetry_equiv_pos_as_xyz
  1  'x, y, z'
loop_
 _atom_site_type_symbol
 _atom_site_label
 _atom_site_symmetry_multiplicity
 _atom_site_fract_x
 _atom_site_fract_y
 _atom_site_fract_z
 _atom_site_occupancy
  Ag  Ag0  1  0.250000  0.125051  0.875051  1
  Ag  Ag1  1  0.625051  0.750000  0.375051  1
  Ag  Ag2  1  0.750000  0.374949  0.624949  1
  Ag  Ag3  1  0.874949  0.250000  0.124949  1
  Ba  Ba4  1  0.017494  0.267494  0.750000  1
  Ba  Ba5  1  0.250000  0.767946  0.517946  1
  Ba  Ba6  1  0.232054  0.250000  0.482054  1
  Ba  Ba7  1  0.250000  0.480931  0.230931  1
  Ba  Ba8  1  0.267946  0.750000  0.017946  1
  Ba  Ba9  1  0.732506  0.982506  0.750000  1
  Ba  Ba10  1  0.519069  0.250000  0.769069  1
  Ba  Ba11  1  0.750000  0.732054  0.982054  1
  Ba  Ba12  1  0.482506  0.232506  0.250000  1
  Ba  Ba13  1  0.980931  0.750000  0.730931  1
  Ba  Ba14  1  0.767494  0.517494  0.250000  1
  Ba  Ba15  1  0.750000  0.019069  0.269069  1
  Cd  Cd16  1  0.125000  0.875000  0.250000  1
  Cd  Cd17  1  0.375000  0.625000  0.750000  1
  S  S18  1  0.000576  0.771963  0.498971  1
  S  S19  1  0.305772  0.980434  0.957610  1
  S  S20  1  0.176525  0.649199  0.693698  1
  S  S21  1  0.023894  0.040586  0.849256  1
  S  S22  1  0.001604  0.272991  0.501029  1
  S  S23  1  0.044499  0.850801  0.027326  1
  S  S24  1  0.019566  0.477176  0.325338  1
  S  S25  1  0.149199  0.676525  0.193698  1
  S  S26  1  0.194228  0.151838  0.674662  1
  S  S27  1  0.517173  0.823475  0.972674  1
  S  S28  1  0.350801  0.544499  0.527326  1
  S  S29  1  0.455501  0.482827  0.806302  1
  S  S30  1  0.480434  0.805772  0.457610  1
  S  S31  1  0.498396  0.999424  0.271387  1
  S  S32  1  0.228037  0.227009  0.228613  1
  S  S33  1  0.271963  0.500576  0.998971  1
  S  S34  1  0.323475  0.017173  0.472674  1
  S  S35  1  0.522824  0.348162  0.542390  1
  S  S36  1  0.727009  0.728037  0.728613  1
  S  S37  1  0.499424  0.998396  0.771387  1
  S  S38  1  0.540586  0.523894  0.349256  1
  S  S39  1  0.825363  0.976106  0.516693  1
  S  S40  1  0.651838  0.694228  0.174662  1
  S  S41  1  0.476106  0.325363  0.016693  1
  S  S42  1  0.691330  0.174637  0.650744  1
  S  S43  1  0.808670  0.459414  0.483307  1
  S  S44  1  0.959414  0.308670  0.983307  1
  S  S45  1  0.977176  0.519566  0.825338  1
  S  S46  1  0.982827  0.955501  0.306302  1
  S  S47  1  0.674637  0.191330  0.150744  1
  S  S48  1  0.772991  0.501604  0.001029  1
  S  S49  1  0.848162  0.022824  0.042390  1
  Sn  Sn50  1  0.001394  0.957759  0.503544  1
  Sn  Sn51  1  0.997850  0.454215  0.496456  1
  Sn  Sn52  1  0.042241  0.045785  0.043635  1
  Sn  Sn53  1  0.502150  0.998606  0.456365  1
  Sn  Sn54  1  0.498606  0.002150  0.956365  1
  Sn  Sn55  1  0.545785  0.542241  0.543635  1
  Sn  Sn56  1  0.457759  0.501394  0.003544  1
  Sn  Sn57  1  0.954215  0.497850  0.996456  1
