# generated using pymatgen
data_CdI2
_symmetry_space_group_name_H-M   'P 1'
_cell_length_a   4.33787816
_cell_length_b   4.33787843
_cell_length_c   101.76092256
_cell_angle_alpha   90.00000000
_cell_angle_beta   90.00000000
_cell_angle_gamma   119.99999792
_symmetry_Int_Tables_number   1
_chemical_formula_structural   CdI2
_chemical_formula_sum   'Cd13 I26'
_cell_volume   1658.31260916
_cell_formula_units_Z   13
loop_
 _symmetry_equiv_pos_site_id
 _symmetry_equiv_pos_as_xyz
  1  'x, y, z'
loop_
 _atom_site_type_symbol
 _atom_site_label
 _atom_site_symmetry_multiplicity
 _atom_site_fract_x
 _atom_site_fract_y
 _atom_site_fract_z
 _atom_site_occupancy
  Cd  Cd0  1  0.000000  0.000000  0.711737  1
  Cd  Cd1  1  0.333333  0.666667  0.326834  1
  Cd  Cd2  1  0.333333  0.666667  0.557665  1
  Cd  Cd3  1  0.000000  0.000000  0.096018  1
  Cd  Cd4  1  0.000000  0.000000  0.634719  1
  Cd  Cd5  1  0.333333  0.666667  0.865400  1
  Cd  Cd6  1  0.333333  0.666667  0.942254  1
  Cd  Cd7  1  0.333333  0.666667  0.480955  1
  Cd  Cd8  1  0.333333  0.666667  0.404030  1
  Cd  Cd9  1  0.000000  0.000000  0.249975  1
  Cd  Cd10  1  0.333333  0.666667  0.019145  1
  Cd  Cd11  1  0.000000  0.000000  0.788147  1
  Cd  Cd12  1  0.000000  0.000000  0.173110  1
  I  I13  1  0.333333  0.666667  0.617836  1
  I  I14  1  0.666667  0.333333  0.651603  1
  I  I15  1  0.000000  0.000000  0.540777  1
  I  I16  1  0.000000  0.000000  0.848522  1
  I  I17  1  0.333333  0.666667  0.233081  1
  I  I18  1  0.000000  0.000000  0.309947  1
  I  I19  1  0.000000  0.000000  0.387148  1
  I  I20  1  0.666667  0.333333  0.959146  1
  I  I21  1  0.666667  0.333333  0.728631  1
  I  I22  1  0.666667  0.333333  0.190009  1
  I  I23  1  0.666667  0.333333  0.805050  1
  I  I24  1  0.000000  0.000000  0.464058  1
  I  I25  1  0.666667  0.333333  0.343722  1
  I  I26  1  0.666667  0.333333  0.574556  1
  I  I27  1  0.666667  0.333333  0.036030  1
  I  I28  1  0.666667  0.333333  0.266872  1
  I  I29  1  0.333333  0.666667  0.771253  1
  I  I30  1  0.333333  0.666667  0.694838  1
  I  I31  1  0.666667  0.333333  0.112904  1
  I  I32  1  0.333333  0.666667  0.079132  1
  I  I33  1  0.666667  0.333333  0.882285  1
  I  I34  1  0.666667  0.333333  0.420925  1
  I  I35  1  0.333333  0.666667  0.156214  1
  I  I36  1  0.000000  0.000000  0.002256  1
  I  I37  1  0.666667  0.333333  0.497854  1
  I  I38  1  0.000000  0.000000  0.925359  1
