# generated using pymatgen
data_Na3CrF6
_symmetry_space_group_name_H-M   'P 1'
_cell_length_a   5.56700436
_cell_length_b   5.80145466
_cell_length_c   8.05771555
_cell_angle_alpha   90.00000000
_cell_angle_beta   90.41959480
_cell_angle_gamma   90.00000000
_symmetry_Int_Tables_number   1
_chemical_formula_structural   Na3CrF6
_chemical_formula_sum   'Na6 Cr2 F12'
_cell_volume   260.23083191
_cell_formula_units_Z   2
loop_
 _symmetry_equiv_pos_site_id
 _symmetry_equiv_pos_as_xyz
  1  'x, y, z'
loop_
 _atom_site_type_symbol
 _atom_site_label
 _atom_site_symmetry_multiplicity
 _atom_site_fract_x
 _atom_site_fract_y
 _atom_site_fract_z
 _atom_site_occupancy
  F  F0  1  0.668228  0.222177  0.426873  1
  F  F1  1  0.831772  0.722177  0.073127  1
  F  F2  1  0.331772  0.777823  0.573127  1
  F  F3  1  0.168228  0.277823  0.926873  1
  F  F4  1  0.214631  0.321561  0.552856  1
  F  F5  1  0.285369  0.821561  0.947144  1
  F  F6  1  0.785369  0.678439  0.447144  1
  F  F7  1  0.714631  0.178439  0.052856  1
  F  F8  1  0.118816  0.057819  0.225303  1
  F  F9  1  0.381184  0.557819  0.274697  1
  F  F10  1  0.881184  0.942181  0.774697  1
  F  F11  1  0.618816  0.442181  0.725303  1
  Na  Na12  1  0.017319  0.557174  0.744283  1
  Na  Na13  1  0.482681  0.057174  0.755717  1
  Na  Na14  1  0.982681  0.442826  0.255717  1
  Na  Na15  1  0.517319  0.942826  0.244283  1
  Na  Na16  1  0.500000  0.500000  0.000000  1
  Na  Na17  1  0.000000  0.000000  0.500000  1
  Cr  Cr18  1  0.500000  0.500000  0.500000  1
  Cr  Cr19  1  0.000000  0.000000  0.000000  1
