# generated using pymatgen
data_K2PtC4(BrN2)2
_symmetry_space_group_name_H-M   'P 1'
_cell_length_a   7.31402319
_cell_length_b   8.80648728
_cell_length_c   9.26229115
_cell_angle_alpha   90.00000000
_cell_angle_beta   90.00000000
_cell_angle_gamma   106.70916364
_symmetry_Int_Tables_number   1
_chemical_formula_structural   K2PtC4(BrN2)2
_chemical_formula_sum   'K4 Pt2 C8 Br4 N8'
_cell_volume   571.40187485
_cell_formula_units_Z   2
loop_
 _symmetry_equiv_pos_site_id
 _symmetry_equiv_pos_as_xyz
  1  'x, y, z'
loop_
 _atom_site_type_symbol
 _atom_site_label
 _atom_site_symmetry_multiplicity
 _atom_site_fract_x
 _atom_site_fract_y
 _atom_site_fract_z
 _atom_site_occupancy
  K  K0  1  0.497188  0.121731  0.719861  1
  K  K1  1  0.502812  0.378269  0.219861  1
  K  K2  1  0.497188  0.621731  0.780139  1
  K  K3  1  0.502812  0.878269  0.280139  1
  Pt  Pt4  1  0.000000  0.000000  0.000000  1
  Pt  Pt5  1  0.000000  0.500000  0.500000  1
  C  C6  1  0.806190  0.291957  0.453600  1
  C  C7  1  0.797971  0.110246  0.037447  1
  C  C8  1  0.193810  0.208043  0.953600  1
  C  C9  1  0.193810  0.708043  0.546400  1
  C  C10  1  0.797971  0.610246  0.462553  1
  C  C11  1  0.202029  0.889754  0.962553  1
  C  C12  1  0.202029  0.389754  0.537447  1
  C  C13  1  0.806190  0.791957  0.046400  1
  Br  Br14  1  0.103347  0.534118  0.238118  1
  Br  Br15  1  0.103347  0.034118  0.261882  1
  Br  Br16  1  0.896653  0.465882  0.761882  1
  Br  Br17  1  0.896653  0.965882  0.738118  1
  N  N18  1  0.313047  0.325567  0.927488  1
  N  N19  1  0.324470  0.331735  0.560422  1
  N  N20  1  0.675530  0.668265  0.439578  1
  N  N21  1  0.686953  0.674433  0.072512  1
  N  N22  1  0.675530  0.168265  0.060422  1
  N  N23  1  0.324470  0.831735  0.939578  1
  N  N24  1  0.686953  0.174433  0.427488  1
  N  N25  1  0.313047  0.825567  0.572512  1
