# generated using pymatgen
data_K6HgS4
_symmetry_space_group_name_H-M   'P 1'
_cell_length_a   10.10284757
_cell_length_b   10.10284758
_cell_length_c   7.79280725
_cell_angle_alpha   90.00000000
_cell_angle_beta   90.00000000
_cell_angle_gamma   120.00000001
_symmetry_Int_Tables_number   1
_chemical_formula_structural   K6HgS4
_chemical_formula_sum   'K12 Hg2 S8'
_cell_volume   688.83018070
_cell_formula_units_Z   2
loop_
 _symmetry_equiv_pos_site_id
 _symmetry_equiv_pos_as_xyz
  1  'x, y, z'
loop_
 _atom_site_type_symbol
 _atom_site_label
 _atom_site_symmetry_multiplicity
 _atom_site_fract_x
 _atom_site_fract_y
 _atom_site_fract_z
 _atom_site_occupancy
  S  S0  1  0.189509  0.379018  0.398073  1
  S  S1  1  0.810491  0.189509  0.898073  1
  S  S2  1  0.189509  0.810491  0.398073  1
  S  S3  1  0.810491  0.620982  0.898073  1
  S  S4  1  0.666667  0.333333  0.344551  1
  S  S5  1  0.333333  0.666667  0.844551  1
  S  S6  1  0.379018  0.189509  0.898073  1
  S  S7  1  0.620982  0.810491  0.398073  1
  K  K8  1  0.851372  0.702745  0.291603  1
  K  K9  1  0.530297  0.060593  0.623931  1
  K  K10  1  0.060593  0.530297  0.123931  1
  K  K11  1  0.939407  0.469703  0.623931  1
  K  K12  1  0.530297  0.469703  0.623931  1
  K  K13  1  0.469703  0.939407  0.123931  1
  K  K14  1  0.702745  0.851372  0.791603  1
  K  K15  1  0.297255  0.148628  0.291603  1
  K  K16  1  0.851372  0.148628  0.291603  1
  K  K17  1  0.148628  0.297255  0.791603  1
  K  K18  1  0.469703  0.530297  0.123931  1
  K  K19  1  0.148628  0.851372  0.791603  1
  Hg  Hg20  1  0.666667  0.333333  0.002627  1
  Hg  Hg21  1  0.333333  0.666667  0.502627  1
