# generated using pymatgen
data_Sb2BrF15
_symmetry_space_group_name_H-M   'P 1'
_cell_length_a   5.41200705
_cell_length_b   14.62609795
_cell_length_c   14.82987332
_cell_angle_alpha   90.00000000
_cell_angle_beta   90.00000000
_cell_angle_gamma   93.10503324
_symmetry_Int_Tables_number   1
_chemical_formula_structural   Sb2BrF15
_chemical_formula_sum   'Sb8 Br4 F60'
_cell_volume   1172.15818142
_cell_formula_units_Z   4
loop_
 _symmetry_equiv_pos_site_id
 _symmetry_equiv_pos_as_xyz
  1  'x, y, z'
loop_
 _atom_site_type_symbol
 _atom_site_label
 _atom_site_symmetry_multiplicity
 _atom_site_fract_x
 _atom_site_fract_y
 _atom_site_fract_z
 _atom_site_occupancy
  Sb  Sb0  1  0.092619  0.151938  0.647171  1
  Sb  Sb1  1  0.379316  0.315605  0.854840  1
  Sb  Sb2  1  0.907381  0.848062  0.352829  1
  Sb  Sb3  1  0.092619  0.651938  0.852829  1
  Sb  Sb4  1  0.907381  0.348062  0.147171  1
  Sb  Sb5  1  0.620684  0.184395  0.354840  1
  Sb  Sb6  1  0.379316  0.815605  0.645160  1
  Sb  Sb7  1  0.620684  0.684395  0.145160  1
  Br  Br8  1  0.727617  0.481719  0.653650  1
  Br  Br9  1  0.272383  0.518281  0.346350  1
  Br  Br10  1  0.272383  0.018281  0.153650  1
  Br  Br11  1  0.727617  0.981719  0.846350  1
  F  F12  1  0.624543  0.416400  0.163994  1
  F  F13  1  0.531450  0.900682  0.565018  1
  F  F14  1  0.206341  0.239706  0.939457  1
  F  F15  1  0.101757  0.885014  0.668393  1
  F  F16  1  0.816972  0.725007  0.842538  1
  F  F17  1  0.468550  0.599318  0.065018  1
  F  F18  1  0.409392  0.590150  0.428394  1
  F  F19  1  0.537460  0.880446  0.750777  1
  F  F20  1  0.352058  0.761525  0.148676  1
  F  F21  1  0.049284  0.924502  0.442670  1
  F  F22  1  0.062107  0.425083  0.245215  1
  F  F23  1  0.101757  0.385014  0.831607  1
  F  F24  1  0.462540  0.619554  0.250777  1
  F  F25  1  0.452365  0.545584  0.648307  1
  F  F26  1  0.452365  0.045584  0.851693  1
  F  F27  1  0.736160  0.261202  0.072563  1
  F  F28  1  0.547635  0.454416  0.351693  1
  F  F29  1  0.590608  0.909850  0.928394  1
  F  F30  1  0.537460  0.380446  0.749223  1
  F  F31  1  0.856193  0.058320  0.926417  1
  F  F32  1  0.856193  0.558320  0.573583  1
  F  F33  1  0.647942  0.738475  0.648676  1
  F  F34  1  0.793659  0.260294  0.439457  1
  F  F35  1  0.230255  0.228795  0.756239  1
  F  F36  1  0.793659  0.760294  0.060543  1
  F  F37  1  0.999818  0.917591  0.859099  1
  F  F38  1  0.898243  0.614986  0.168393  1
  F  F39  1  0.206341  0.739706  0.560543  1
  F  F40  1  0.950716  0.075498  0.557330  1
  F  F41  1  0.937893  0.074917  0.745215  1
  F  F42  1  0.898243  0.114986  0.331607  1
  F  F43  1  0.183028  0.774993  0.342538  1
  F  F44  1  0.143807  0.941680  0.073583  1
  F  F45  1  0.769745  0.771205  0.243761  1
  F  F46  1  0.624543  0.916400  0.336006  1
  F  F47  1  0.183028  0.274993  0.157462  1
  F  F48  1  0.547635  0.954416  0.148307  1
  F  F49  1  0.000182  0.082409  0.140901  1
  F  F50  1  0.062107  0.925083  0.254785  1
  F  F51  1  0.950716  0.575498  0.942670  1
  F  F52  1  0.999818  0.417591  0.640901  1
  F  F53  1  0.531450  0.400682  0.934982  1
  F  F54  1  0.769745  0.271205  0.256239  1
  F  F55  1  0.937893  0.574917  0.754785  1
  F  F56  1  0.462540  0.119554  0.249223  1
  F  F57  1  0.352058  0.261525  0.351324  1
  F  F58  1  0.736160  0.761202  0.427437  1
  F  F59  1  0.647942  0.238475  0.851324  1
  F  F60  1  0.230255  0.728795  0.743761  1
  F  F61  1  0.049284  0.424502  0.057330  1
  F  F62  1  0.409392  0.090150  0.071606  1
  F  F63  1  0.000182  0.582409  0.359099  1
  F  F64  1  0.375457  0.083600  0.663994  1
  F  F65  1  0.375457  0.583600  0.836006  1
  F  F66  1  0.590608  0.409850  0.571606  1
  F  F67  1  0.468550  0.099318  0.434982  1
  F  F68  1  0.143807  0.441680  0.426417  1
  F  F69  1  0.263840  0.738798  0.927437  1
  F  F70  1  0.816972  0.225007  0.657462  1
  F  F71  1  0.263840  0.238798  0.572563  1
