# generated using pymatgen
data_AsPCl3OF5
_symmetry_space_group_name_H-M   'P 1'
_cell_length_a   6.17431889
_cell_length_b   7.91728170
_cell_length_c   20.05813373
_cell_angle_alpha   90.00000000
_cell_angle_beta   90.00000000
_cell_angle_gamma   107.39057911
_symmetry_Int_Tables_number   1
_chemical_formula_structural   AsPCl3OF5
_chemical_formula_sum   'As4 P4 Cl12 O4 F20'
_cell_volume   935.69824528
_cell_formula_units_Z   4
loop_
 _symmetry_equiv_pos_site_id
 _symmetry_equiv_pos_as_xyz
  1  'x, y, z'
loop_
 _atom_site_type_symbol
 _atom_site_label
 _atom_site_symmetry_multiplicity
 _atom_site_fract_x
 _atom_site_fract_y
 _atom_site_fract_z
 _atom_site_occupancy
  As  As0  1  0.046931  0.181680  0.877089  1
  As  As1  1  0.546931  0.681680  0.622911  1
  As  As2  1  0.953069  0.818320  0.122911  1
  As  As3  1  0.453069  0.318320  0.377089  1
  P  P4  1  0.135417  0.317736  0.610182  1
  P  P5  1  0.864583  0.682265  0.389818  1
  P  P6  1  0.635417  0.817735  0.889818  1
  P  P7  1  0.364583  0.182264  0.110182  1
  Cl  Cl8  1  0.968364  0.341698  0.691297  1
  Cl  Cl9  1  0.205389  0.358816  0.129289  1
  Cl  Cl10  1  0.468364  0.841698  0.808703  1
  Cl  Cl11  1  0.294611  0.141184  0.629289  1
  Cl  Cl12  1  0.794611  0.641184  0.870711  1
  Cl  Cl13  1  0.088771  0.780246  0.460160  1
  Cl  Cl14  1  0.411229  0.719754  0.960160  1
  Cl  Cl15  1  0.911229  0.219754  0.539840  1
  Cl  Cl16  1  0.031636  0.658302  0.308703  1
  Cl  Cl17  1  0.531636  0.158302  0.191297  1
  Cl  Cl18  1  0.588771  0.280246  0.039840  1
  Cl  Cl19  1  0.705389  0.858816  0.370711  1
  O  O20  1  0.208548  0.007930  0.084561  1
  O  O21  1  0.708548  0.507930  0.415439  1
  O  O22  1  0.791452  0.992070  0.915439  1
  O  O23  1  0.291452  0.492070  0.584561  1
  F  F24  1  0.470198  0.450859  0.305356  1
  F  F25  1  0.228904  0.076045  0.914402  1
  F  F26  1  0.229611  0.145854  0.345104  1
  F  F27  1  0.729611  0.645854  0.154896  1
  F  F28  1  0.536750  0.794251  0.547864  1
  F  F29  1  0.659524  0.230468  0.342684  1
  F  F30  1  0.159524  0.730468  0.157316  1
  F  F31  1  0.970198  0.950859  0.194644  1
  F  F32  1  0.270389  0.354146  0.845104  1
  F  F33  1  0.963250  0.705749  0.047864  1
  F  F34  1  0.271096  0.423955  0.414402  1
  F  F35  1  0.728904  0.576045  0.585598  1
  F  F36  1  0.529802  0.549141  0.694644  1
  F  F37  1  0.029802  0.049141  0.805356  1
  F  F38  1  0.771096  0.923955  0.085598  1
  F  F39  1  0.840476  0.269532  0.842684  1
  F  F40  1  0.036750  0.294251  0.952136  1
  F  F41  1  0.463250  0.205749  0.452136  1
  F  F42  1  0.340476  0.769532  0.657316  1
  F  F43  1  0.770389  0.854146  0.654896  1
