# generated using pymatgen
data_Sr2SmGaCu2O7
_symmetry_space_group_name_H-M   'P 1'
_cell_length_a   5.45263640
_cell_length_b   5.57180813
_cell_length_c   12.24403868
_cell_angle_alpha   103.15402622
_cell_angle_beta   102.86698522
_cell_angle_gamma   89.99636405
_symmetry_Int_Tables_number   1
_chemical_formula_structural   Sr2SmGaCu2O7
_chemical_formula_sum   'Sr4 Sm2 Ga2 Cu4 O14'
_cell_volume   352.62853172
_cell_formula_units_Z   2
loop_
 _symmetry_equiv_pos_site_id
 _symmetry_equiv_pos_as_xyz
  1  'x, y, z'
loop_
 _atom_site_type_symbol
 _atom_site_label
 _atom_site_symmetry_multiplicity
 _atom_site_fract_x
 _atom_site_fract_y
 _atom_site_fract_z
 _atom_site_occupancy
  Sm  Sm0  1  0.500676  0.499988  0.999985  1
  Sm  Sm1  1  0.000715  0.999972  0.999983  1
  Sr  Sr2  1  0.346169  0.365491  0.695505  1
  Sr  Sr3  1  0.650655  0.634559  0.304529  1
  Sr  Sr4  1  0.846175  0.829934  0.695499  1
  Sr  Sr5  1  0.150689  0.170076  0.304519  1
  Cu  Cu6  1  0.927388  0.425051  0.852293  1
  Cu  Cu7  1  0.074930  0.574881  0.147726  1
  Cu  Cu8  1  0.427443  0.926923  0.852330  1
  Cu  Cu9  1  0.574930  0.073097  0.147650  1
  Ga  Ga10  1  0.716092  0.181639  0.499979  1
  Ga  Ga11  1  0.216152  0.818383  0.499999  1
  O  O12  1  0.867329  0.871353  0.500003  1
  O  O13  1  0.367301  0.128686  0.500013  1
  O  O14  1  0.184439  0.182924  0.866721  1
  O  O15  1  0.317712  0.817086  0.133297  1
  O  O16  1  0.684443  0.183544  0.866720  1
  O  O17  1  0.817634  0.816514  0.133282  1
  O  O18  1  0.686628  0.684872  0.872851  1
  O  O19  1  0.813714  0.315039  0.127158  1
  O  O20  1  0.186595  0.687730  0.872859  1
  O  O21  1  0.313751  0.312262  0.127133  1
  O  O22  1  0.353939  0.773435  0.645620  1
  O  O23  1  0.708256  0.226566  0.354363  1
  O  O24  1  0.853930  0.372111  0.645626  1
  O  O25  1  0.208314  0.627880  0.354359  1
