# generated using pymatgen
data_Fe3B7IO13
_symmetry_space_group_name_H-M   'P 1'
_cell_length_a   8.71374870
_cell_length_b   8.71374947
_cell_length_c   8.71374891
_cell_angle_alpha   61.92061689
_cell_angle_beta   61.92061412
_cell_angle_gamma   61.92061784
_symmetry_Int_Tables_number   1
_chemical_formula_structural   Fe3B7IO13
_chemical_formula_sum   'Fe6 B14 I2 O26'
_cell_volume   487.95285715
_cell_formula_units_Z   2
loop_
 _symmetry_equiv_pos_site_id
 _symmetry_equiv_pos_as_xyz
  1  'x, y, z'
loop_
 _atom_site_type_symbol
 _atom_site_label
 _atom_site_symmetry_multiplicity
 _atom_site_fract_x
 _atom_site_fract_y
 _atom_site_fract_z
 _atom_site_occupancy
  Fe  Fe0  1  0.008095  0.532703  0.519201  1
  Fe  Fe1  1  0.032703  0.508095  0.019201  1
  Fe  Fe2  1  0.019201  0.032703  0.508095  1
  Fe  Fe3  1  0.508095  0.019201  0.032703  1
  Fe  Fe4  1  0.532703  0.519201  0.008095  1
  Fe  Fe5  1  0.519201  0.008095  0.532703  1
  B  B6  1  0.344323  0.674482  0.446820  1
  B  B7  1  0.750387  0.735870  0.281904  1
  B  B8  1  0.781904  0.235870  0.250387  1
  B  B9  1  0.674482  0.446820  0.344323  1
  B  B10  1  0.844323  0.946820  0.174482  1
  B  B11  1  0.446820  0.344323  0.674482  1
  B  B12  1  0.235870  0.250387  0.781904  1
  B  B13  1  0.946820  0.174482  0.844323  1
  B  B14  1  0.106984  0.106984  0.106984  1
  B  B15  1  0.606984  0.606984  0.606984  1
  B  B16  1  0.735870  0.281904  0.750387  1
  B  B17  1  0.281904  0.750387  0.735870  1
  B  B18  1  0.250387  0.781904  0.235870  1
  B  B19  1  0.174482  0.844323  0.946820  1
  I  I20  1  0.269961  0.269961  0.269961  1
  I  I21  1  0.769961  0.769961  0.769961  1
  O  O22  1  0.713743  0.914519  0.134850  1
  O  O23  1  0.103047  0.959509  0.265537  1
  O  O24  1  0.134850  0.713743  0.914519  1
  O  O25  1  0.959509  0.265537  0.103047  1
  O  O26  1  0.074819  0.278598  0.749475  1
  O  O27  1  0.459509  0.603047  0.765537  1
  O  O28  1  0.748933  0.281810  0.913748  1
  O  O29  1  0.914519  0.134850  0.713743  1
  O  O30  1  0.778598  0.574819  0.249475  1
  O  O31  1  0.248933  0.413748  0.781810  1
  O  O32  1  0.000283  0.000283  0.000283  1
  O  O33  1  0.913748  0.748933  0.281810  1
  O  O34  1  0.265537  0.103047  0.959509  1
  O  O35  1  0.278598  0.749475  0.074819  1
  O  O36  1  0.413748  0.781810  0.248933  1
  O  O37  1  0.781810  0.248933  0.413748  1
  O  O38  1  0.414519  0.213743  0.634850  1
  O  O39  1  0.249475  0.778598  0.574819  1
  O  O40  1  0.281810  0.913748  0.748933  1
  O  O41  1  0.634850  0.414519  0.213743  1
  O  O42  1  0.603047  0.765537  0.459509  1
  O  O43  1  0.500283  0.500283  0.500283  1
  O  O44  1  0.213743  0.634850  0.414519  1
  O  O45  1  0.574819  0.249475  0.778598  1
  O  O46  1  0.749475  0.074819  0.278598  1
  O  O47  1  0.765537  0.459509  0.603047  1
