# generated using pymatgen
data_BaYb2NiO5
_symmetry_space_group_name_H-M   'P 1'
_cell_length_a   5.64831852
_cell_length_b   7.02993951
_cell_length_c   12.13034951
_cell_angle_alpha   90.00000000
_cell_angle_beta   90.00000000
_cell_angle_gamma   90.00000000
_symmetry_Int_Tables_number   1
_chemical_formula_structural   BaYb2NiO5
_chemical_formula_sum   'Ba4 Yb8 Ni4 O20'
_cell_volume   481.66388234
_cell_formula_units_Z   4
loop_
 _symmetry_equiv_pos_site_id
 _symmetry_equiv_pos_as_xyz
  1  'x, y, z'
loop_
 _atom_site_type_symbol
 _atom_site_label
 _atom_site_symmetry_multiplicity
 _atom_site_fract_x
 _atom_site_fract_y
 _atom_site_fract_z
 _atom_site_occupancy
  O  O0  1  0.249999  0.441818  0.602930  1
  O  O1  1  0.750000  0.558182  0.397070  1
  O  O2  1  0.750000  0.941819  0.897070  1
  O  O3  1  0.249999  0.058181  0.102930  1
  O  O4  1  0.016232  0.844824  0.265394  1
  O  O5  1  0.516232  0.155178  0.734606  1
  O  O6  1  0.983768  0.344823  0.234605  1
  O  O7  1  0.483767  0.655177  0.765394  1
  O  O8  1  0.983768  0.155178  0.734606  1
  O  O9  1  0.483767  0.844824  0.265394  1
  O  O10  1  0.016232  0.655177  0.765394  1
  O  O11  1  0.516232  0.344823  0.234605  1
  O  O12  1  0.478280  0.682022  0.065703  1
  O  O13  1  0.978279  0.317978  0.934297  1
  O  O14  1  0.521719  0.182021  0.434297  1
  O  O15  1  0.021720  0.817979  0.565703  1
  O  O16  1  0.978279  0.182021  0.434297  1
  O  O17  1  0.478280  0.817979  0.565703  1
  O  O18  1  0.521719  0.317978  0.934297  1
  O  O19  1  0.021720  0.682022  0.065703  1
  Ni  Ni20  1  0.249999  0.800480  0.155119  1
  Ni  Ni21  1  0.750000  0.199520  0.844880  1
  Ni  Ni22  1  0.750000  0.300481  0.344880  1
  Ni  Ni23  1  0.249999  0.699519  0.655119  1
  Ba  Ba24  1  0.750000  0.067969  0.103696  1
  Ba  Ba25  1  0.750000  0.432031  0.603696  1
  Ba  Ba26  1  0.249999  0.567969  0.396304  1
  Ba  Ba27  1  0.249999  0.932031  0.896304  1
  Yb  Yb28  1  0.249999  0.392479  0.075501  1
  Yb  Yb29  1  0.750000  0.614293  0.203963  1
  Yb  Yb30  1  0.750000  0.885706  0.703963  1
  Yb  Yb31  1  0.249999  0.114294  0.296037  1
  Yb  Yb32  1  0.750000  0.607521  0.924499  1
  Yb  Yb33  1  0.750000  0.892479  0.424499  1
  Yb  Yb34  1  0.249999  0.107521  0.575501  1
  Yb  Yb35  1  0.249999  0.385706  0.796037  1
