# generated using pymatgen
data_Ca11Si4SO18
_symmetry_space_group_name_H-M   'P 1'
_cell_length_a   8.67741216
_cell_length_b   8.67741172
_cell_length_c   8.67741156
_cell_angle_alpha   105.25499868
_cell_angle_beta   105.25499789
_cell_angle_gamma   118.27924184
_symmetry_Int_Tables_number   1
_chemical_formula_structural   Ca11Si4SO18
_chemical_formula_sum   'Ca11 Si4 S1 O18'
_cell_volume   493.93892968
_cell_formula_units_Z   1
loop_
 _symmetry_equiv_pos_site_id
 _symmetry_equiv_pos_as_xyz
  1  'x, y, z'
loop_
 _atom_site_type_symbol
 _atom_site_label
 _atom_site_symmetry_multiplicity
 _atom_site_fract_x
 _atom_site_fract_y
 _atom_site_fract_z
 _atom_site_occupancy
  Ca  Ca0  1  0.003575  0.503575  0.500000  1
  Ca  Ca1  1  0.951115  0.205690  0.745425  1
  Ca  Ca2  1  0.050298  0.807996  0.242302  1
  Ca  Ca3  1  0.192004  0.949702  0.757698  1
  Ca  Ca4  1  0.500000  0.500000  0.000000  1
  Ca  Ca5  1  0.496425  0.996425  0.500000  1
  Ca  Ca6  1  0.460266  0.205690  0.254575  1
  Ca  Ca7  1  0.794310  0.539734  0.745425  1
  Ca  Ca8  1  0.565694  0.807996  0.757698  1
  Ca  Ca9  1  0.192004  0.434306  0.242302  1
  Ca  Ca10  1  0.794310  0.048885  0.254575  1
  Si  Si11  1  0.289103  0.710897  1.000000  1
  Si  Si12  1  0.289103  0.289103  0.578205  1
  Si  Si13  1  0.710897  0.710897  0.421795  1
  Si  Si14  1  0.710897  0.289103  0.000000  1
  S  S15  1  0.000000  0.000000  0.000000  1
  O  O16  1  0.206723  0.496120  0.001455  1
  O  O17  1  0.206723  0.205268  0.710603  1
  O  O18  1  0.503880  0.505334  0.710603  1
  O  O19  1  0.685855  0.139761  0.817227  1
  O  O20  1  0.503880  0.793277  0.998545  1
  O  O21  1  0.685855  0.868628  0.546093  1
  O  O22  1  0.794732  0.505334  0.001455  1
  O  O23  1  0.322535  0.139761  0.453907  1
  O  O24  1  0.131372  0.677465  0.817227  1
  O  O25  1  0.250000  0.750000  0.500000  1
  O  O26  1  0.322535  0.868628  0.182773  1
  O  O27  1  0.494666  0.496120  0.289397  1
  O  O28  1  0.860239  0.677465  0.546093  1
  O  O29  1  0.860239  0.314145  0.182773  1
  O  O30  1  0.494666  0.205268  0.998545  1
  O  O31  1  0.131372  0.314145  0.453907  1
  O  O32  1  0.794732  0.793277  0.289397  1
  O  O33  1  0.750000  0.250000  0.500000  1
