# generated using pymatgen
data_Ce3S3N
_symmetry_space_group_name_H-M   'P 1'
_cell_length_a   3.99867117
_cell_length_b   11.91841309
_cell_length_c   12.82392398
_cell_angle_alpha   90.00000000
_cell_angle_beta   90.00000000
_cell_angle_gamma   90.00000000
_symmetry_Int_Tables_number   1
_chemical_formula_structural   Ce3S3N
_chemical_formula_sum   'Ce12 S12 N4'
_cell_volume   611.16019424
_cell_formula_units_Z   4
loop_
 _symmetry_equiv_pos_site_id
 _symmetry_equiv_pos_as_xyz
  1  'x, y, z'
loop_
 _atom_site_type_symbol
 _atom_site_label
 _atom_site_symmetry_multiplicity
 _atom_site_fract_x
 _atom_site_fract_y
 _atom_site_fract_z
 _atom_site_occupancy
  Ce  Ce0  1  0.750000  0.907019  0.377522  1
  Ce  Ce1  1  0.250000  0.092981  0.622478  1
  Ce  Ce2  1  0.750000  0.407019  0.122478  1
  Ce  Ce3  1  0.250000  0.592981  0.877522  1
  Ce  Ce4  1  0.750000  0.266373  0.369136  1
  Ce  Ce5  1  0.250000  0.733627  0.630864  1
  Ce  Ce6  1  0.750000  0.766373  0.130864  1
  Ce  Ce7  1  0.250000  0.233627  0.869136  1
  Ce  Ce8  1  0.750000  0.464032  0.651942  1
  Ce  Ce9  1  0.250000  0.535968  0.348058  1
  Ce  Ce10  1  0.750000  0.964032  0.848058  1
  Ce  Ce11  1  0.250000  0.035968  0.151942  1
  N  N12  1  0.750000  0.947952  0.200990  1
  N  N13  1  0.250000  0.052048  0.799010  1
  N  N14  1  0.750000  0.447952  0.299010  1
  N  N15  1  0.250000  0.552048  0.700990  1
  S  S16  1  0.750000  0.142673  0.004337  1
  S  S17  1  0.250000  0.857327  0.995663  1
  S  S18  1  0.750000  0.642673  0.495663  1
  S  S19  1  0.250000  0.357327  0.504337  1
  S  S20  1  0.750000  0.924050  0.609247  1
  S  S21  1  0.250000  0.075950  0.390753  1
  S  S22  1  0.750000  0.424050  0.890753  1
  S  S23  1  0.250000  0.575950  0.109247  1
  S  S24  1  0.750000  0.232507  0.706486  1
  S  S25  1  0.250000  0.767493  0.293514  1
  S  S26  1  0.750000  0.732507  0.793514  1
  S  S27  1  0.250000  0.267493  0.206486  1
