# generated using pymatgen
data_CsCr5Se8
_symmetry_space_group_name_H-M   'P 1'
_cell_length_a   3.71697865
_cell_length_b   9.22482651
_cell_length_c   9.72821319
_cell_angle_alpha   104.30310390
_cell_angle_beta   101.01163180
_cell_angle_gamma   90.00409800
_symmetry_Int_Tables_number   1
_chemical_formula_structural   CsCr5Se8
_chemical_formula_sum   'Cs1 Cr5 Se8'
_cell_volume   316.88293806
_cell_formula_units_Z   1
loop_
 _symmetry_equiv_pos_site_id
 _symmetry_equiv_pos_as_xyz
  1  'x, y, z'
loop_
 _atom_site_type_symbol
 _atom_site_label
 _atom_site_symmetry_multiplicity
 _atom_site_fract_x
 _atom_site_fract_y
 _atom_site_fract_z
 _atom_site_occupancy
  Cs  Cs0  1  0.500000  0.500000  0.000000  1
  Cr  Cr1  1  0.000000  0.000000  0.000000  1
  Cr  Cr2  1  0.659706  0.983534  0.319491  1
  Cr  Cr3  1  0.340294  0.016466  0.680509  1
  Cr  Cr4  1  0.295397  0.665847  0.591023  1
  Cr  Cr5  1  0.704603  0.334153  0.408977  1
  Se  Se6  1  0.575182  0.153184  0.149981  1
  Se  Se7  1  0.424818  0.846816  0.850019  1
  Se  Se8  1  0.911072  0.162781  0.821904  1
  Se  Se9  1  0.088928  0.837219  0.178096  1
  Se  Se10  1  0.827333  0.511728  0.654711  1
  Se  Se11  1  0.172667  0.488272  0.345289  1
  Se  Se12  1  0.239496  0.158022  0.478424  1
  Se  Se13  1  0.760504  0.841978  0.521576  1
