# generated using pymatgen
data_Ca(PO3)2
_symmetry_space_group_name_H-M   'P 1'
_cell_length_a   6.84599887
_cell_length_b   12.30034920
_cell_length_c   12.30034878
_cell_angle_alpha   111.31238577
_cell_angle_beta   92.65716313
_cell_angle_gamma   92.65716027
_symmetry_Int_Tables_number   1
_chemical_formula_structural   Ca(PO3)2
_chemical_formula_sum   'Ca8 P16 O48'
_cell_volume   961.69149239
_cell_formula_units_Z   8
loop_
 _symmetry_equiv_pos_site_id
 _symmetry_equiv_pos_as_xyz
  1  'x, y, z'
loop_
 _atom_site_type_symbol
 _atom_site_label
 _atom_site_symmetry_multiplicity
 _atom_site_fract_x
 _atom_site_fract_y
 _atom_site_fract_z
 _atom_site_occupancy
  Ca  Ca0  1  0.315235  0.139918  0.520487  1
  Ca  Ca1  1  0.804296  0.640923  0.529370  1
  Ca  Ca2  1  0.810858  0.151614  0.020653  1
  Ca  Ca3  1  0.299467  0.647682  0.029229  1
  Ca  Ca4  1  0.799467  0.029229  0.647682  1
  Ca  Ca5  1  0.310858  0.020653  0.151614  1
  Ca  Ca6  1  0.304296  0.529370  0.640923  1
  Ca  Ca7  1  0.815235  0.520487  0.139918  1
  P  P8  1  0.495109  0.457295  0.348744  1
  P  P9  1  0.977557  0.955795  0.357711  1
  P  P10  1  0.432983  1.000014  0.862972  1
  P  P11  1  0.177095  0.821278  0.681581  1
  P  P12  1  0.461856  0.839567  0.499405  1
  P  P13  1  0.640603  0.327315  0.710849  1
  P  P14  1  0.932983  0.862972  1.000014  1
  P  P15  1  0.635292  0.215302  0.326010  1
  P  P16  1  0.164546  0.179396  0.827294  1
  P  P17  1  0.677095  0.681581  0.821278  1
  P  P18  1  0.135292  0.326010  0.215302  1
  P  P19  1  0.664546  0.827294  0.179396  1
  P  P20  1  0.477557  0.357711  0.955795  1
  P  P21  1  0.140603  0.710849  0.327315  1
  P  P22  1  0.995109  0.348744  0.457295  1
  P  P23  1  0.961856  0.499405  0.839567  1
  O  O24  1  0.596969  0.287887  0.008299  1
  O  O25  1  0.530014  0.671277  0.903281  1
  O  O26  1  0.533857  0.399154  0.655494  1
  O  O27  1  0.555630  0.347681  0.833847  1
  O  O28  1  0.603932  0.668436  0.699172  1
  O  O29  1  0.450683  0.848150  0.166732  1
  O  O30  1  0.867529  0.375020  0.748760  1
  O  O31  1  0.139584  0.640449  0.198134  1
  O  O32  1  0.055630  0.833847  0.347681  1
  O  O33  1  0.532693  0.336414  0.363711  1
  O  O34  1  0.367529  0.748760  0.375020  1
  O  O35  1  0.639584  0.198134  0.640449  1
  O  O36  1  0.589070  0.014207  0.787000  1
  O  O37  1  0.994806  0.350972  0.130757  1
  O  O38  1  0.319597  0.422109  0.248103  1
  O  O39  1  0.033857  0.655494  0.399154  1
  O  O40  1  0.950683  0.166732  0.848150  1
  O  O41  1  0.500601  0.012777  0.985750  1
  O  O42  1  0.819597  0.248103  0.422109  1
  O  O43  1  0.254292  0.304495  0.920359  1
  O  O44  1  0.974392  0.030961  0.485328  1
  O  O45  1  0.170208  0.514604  0.810528  1
  O  O46  1  0.269979  0.091931  0.876765  1
  O  O47  1  0.807628  0.804681  0.876032  1
  O  O48  1  0.096969  0.008299  0.287887  1
  O  O49  1  0.103932  0.699172  0.668436  1
  O  O50  1  0.769979  0.876765  0.091931  1
  O  O51  1  0.000601  0.985750  0.012777  1
  O  O52  1  0.754292  0.920359  0.304495  1
  O  O53  1  0.032693  0.363711  0.336414  1
  O  O54  1  0.211972  0.164441  0.705750  1
  O  O55  1  0.340221  0.803491  0.589245  1
  O  O56  1  0.701601  0.178077  0.204648  1
  O  O57  1  0.668820  0.505698  0.306532  1
  O  O58  1  0.670208  0.810528  0.514604  1
  O  O59  1  0.840221  0.589245  0.803491  1
  O  O60  1  0.168820  0.306532  0.505698  1
  O  O61  1  0.201601  0.204648  0.178077  1
  O  O62  1  0.307628  0.876032  0.804681  1
  O  O63  1  0.434566  0.535488  0.466239  1
  O  O64  1  0.934566  0.466239  0.535488  1
  O  O65  1  0.089070  0.787000  0.014207  1
  O  O66  1  0.474392  0.485328  0.030961  1
  O  O67  1  0.494806  0.130757  0.350972  1
  O  O68  1  0.439306  0.964385  0.512680  1
  O  O69  1  0.711972  0.705750  0.164441  1
  O  O70  1  0.030014  0.903281  0.671277  1
  O  O71  1  0.939306  0.512680  0.964385  1
