# generated using pymatgen
data_CeNdI4
_symmetry_space_group_name_H-M   'P 1'
_cell_length_a   7.68065147
_cell_length_b   8.14214781
_cell_length_c   8.87587985
_cell_angle_alpha   112.25392418
_cell_angle_beta   110.62604257
_cell_angle_gamma   99.87399989
_symmetry_Int_Tables_number   1
_chemical_formula_structural   CeNdI4
_chemical_formula_sum   'Ce2 Nd2 I8'
_cell_volume   450.02694084
_cell_formula_units_Z   2
loop_
 _symmetry_equiv_pos_site_id
 _symmetry_equiv_pos_as_xyz
  1  'x, y, z'
loop_
 _atom_site_type_symbol
 _atom_site_label
 _atom_site_symmetry_multiplicity
 _atom_site_fract_x
 _atom_site_fract_y
 _atom_site_fract_z
 _atom_site_occupancy
  Ce  Ce0  1  0.246116  0.497118  0.991716  1
  Ce  Ce1  1  0.753884  0.502882  0.008284  1
  Nd  Nd2  1  0.883334  0.133492  0.263879  1
  Nd  Nd3  1  0.116666  0.866508  0.736121  1
  I  I4  1  0.492005  0.248310  0.122724  1
  I  I5  1  0.129510  0.873375  0.122128  1
  I  I6  1  0.507995  0.751690  0.877276  1
  I  I7  1  0.717908  0.808672  0.364066  1
  I  I8  1  0.282092  0.191328  0.635934  1
  I  I9  1  0.870490  0.126625  0.877872  1
  I  I10  1  0.146495  0.555502  0.363844  1
  I  I11  1  0.853505  0.444498  0.636156  1
