# generated using pymatgen
data_EuCd(BO2)5
_symmetry_space_group_name_H-M   'P 1'
_cell_length_a   7.98597519
_cell_length_b   8.75818523
_cell_length_c   9.71595813
_cell_angle_alpha   91.35222053
_cell_angle_beta   90.00000000
_cell_angle_gamma   90.00000000
_symmetry_Int_Tables_number   1
_chemical_formula_structural   EuCd(BO2)5
_chemical_formula_sum   'Eu4 Cd4 B20 O40'
_cell_volume   679.37061226
_cell_formula_units_Z   4
loop_
 _symmetry_equiv_pos_site_id
 _symmetry_equiv_pos_as_xyz
  1  'x, y, z'
loop_
 _atom_site_type_symbol
 _atom_site_label
 _atom_site_symmetry_multiplicity
 _atom_site_fract_x
 _atom_site_fract_y
 _atom_site_fract_z
 _atom_site_occupancy
  Cd  Cd0  1  0.595965  0.401285  0.872683  1
  Cd  Cd1  1  0.095965  0.098715  0.627317  1
  Cd  Cd2  1  0.404035  0.598715  0.127317  1
  Cd  Cd3  1  0.904035  0.901285  0.372683  1
  Eu  Eu4  1  0.823819  0.803792  0.762353  1
  Eu  Eu5  1  0.323819  0.696208  0.737647  1
  Eu  Eu6  1  0.176181  0.196208  0.237647  1
  Eu  Eu7  1  0.676181  0.303792  0.262353  1
  B  B8  1  0.426963  0.086990  0.754425  1
  B  B9  1  0.926963  0.413010  0.745575  1
  B  B10  1  0.573037  0.913010  0.245575  1
  B  B11  1  0.073037  0.586990  0.254425  1
  B  B12  1  0.677952  0.515867  0.593313  1
  B  B13  1  0.177952  0.984133  0.906687  1
  B  B14  1  0.322048  0.484133  0.406687  1
  B  B15  1  0.822048  0.015867  0.093313  1
  B  B16  1  0.469725  0.279688  0.560095  1
  B  B17  1  0.969725  0.220312  0.939905  1
  B  B18  1  0.530275  0.720312  0.439905  1
  B  B19  1  0.030275  0.779688  0.060095  1
  B  B20  1  0.392639  0.157748  0.010366  1
  B  B21  1  0.892639  0.342252  0.489634  1
  B  B22  1  0.607361  0.842252  0.989634  1
  B  B23  1  0.107361  0.657748  0.510366  1
  B  B24  1  0.673528  0.065429  0.596916  1
  B  B25  1  0.173528  0.434571  0.903084  1
  B  B26  1  0.326472  0.934571  0.403084  1
  B  B27  1  0.826472  0.565429  0.096916  1
  O  O28  1  0.294993  0.970521  0.784705  1
  O  O29  1  0.794993  0.529479  0.715295  1
  O  O30  1  0.705007  0.029479  0.215295  1
  O  O31  1  0.205007  0.470521  0.284705  1
  O  O32  1  0.467536  0.174177  0.884064  1
  O  O33  1  0.967536  0.325823  0.615936  1
  O  O34  1  0.532464  0.825823  0.115936  1
  O  O35  1  0.032464  0.674177  0.384064  1
  O  O36  1  0.580682  0.012113  0.705380  1
  O  O37  1  0.080682  0.487887  0.794620  1
  O  O38  1  0.419318  0.987887  0.294620  1
  O  O39  1  0.919318  0.512113  0.205380  1
  O  O40  1  0.361436  0.192915  0.651693  1
  O  O41  1  0.861436  0.307085  0.848307  1
  O  O42  1  0.638564  0.807085  0.348307  1
  O  O43  1  0.138564  0.692915  0.151693  1
  O  O44  1  0.536047  0.417555  0.637748  1
  O  O45  1  0.036047  0.082445  0.862252  1
  O  O46  1  0.463953  0.582445  0.362252  1
  O  O47  1  0.963953  0.917555  0.137748  1
  O  O48  1  0.614842  0.672162  0.569406  1
  O  O49  1  0.114842  0.827838  0.930594  1
  O  O50  1  0.385158  0.327838  0.430594  1
  O  O51  1  0.885158  0.172162  0.069406  1
  O  O52  1  0.766715  0.450190  0.473619  1
  O  O53  1  0.266715  0.049810  0.026381  1
  O  O54  1  0.233285  0.549810  0.526381  1
  O  O55  1  0.733285  0.950190  0.973619  1
  O  O56  1  0.615278  0.180142  0.514659  1
  O  O57  1  0.115278  0.319858  0.985341  1
  O  O58  1  0.384722  0.819858  0.485341  1
  O  O59  1  0.884722  0.680142  0.014659  1
  O  O60  1  0.327336  0.505815  0.919930  1
  O  O61  1  0.827336  0.994185  0.580070  1
  O  O62  1  0.672664  0.494185  0.080070  1
  O  O63  1  0.172664  0.005815  0.419930  1
  O  O64  1  0.564117  0.752361  0.878613  1
  O  O65  1  0.064117  0.747639  0.621387  1
  O  O66  1  0.435883  0.247639  0.121387  1
  O  O67  1  0.935883  0.252361  0.378613  1
