# generated using pymatgen
data_Rb4CO4
_symmetry_space_group_name_H-M   'P 1'
_cell_length_a   5.76540751
_cell_length_b   5.76540421
_cell_length_c   5.76540421
_cell_angle_alpha   89.99977938
_cell_angle_beta   90.00005684
_cell_angle_gamma   89.99994316
_symmetry_Int_Tables_number   1
_chemical_formula_structural   Rb4CO4
_chemical_formula_sum   'Rb4 C1 O4'
_cell_volume   191.64148667
_cell_formula_units_Z   1
loop_
 _symmetry_equiv_pos_site_id
 _symmetry_equiv_pos_as_xyz
  1  'x, y, z'
loop_
 _atom_site_type_symbol
 _atom_site_label
 _atom_site_symmetry_multiplicity
 _atom_site_fract_x
 _atom_site_fract_y
 _atom_site_fract_z
 _atom_site_occupancy
  O  O0  1  0.354955  0.354954  0.354955  1
  O  O1  1  0.354955  0.645045  0.645046  1
  Rb  Rb2  1  0.777740  0.777741  0.777739  1
  Rb  Rb3  1  0.222259  0.222259  0.777741  1
  Rb  Rb4  1  0.777740  0.222261  0.222259  1
  O  O5  1  0.645046  0.354954  0.645046  1
  Rb  Rb6  1  0.222260  0.777741  0.222259  1
  C  C7  1  0.500000  0.499999  0.500001  1
  O  O8  1  0.645045  0.645046  0.354954  1
