# generated using pymatgen
data_LaP5Cl18O17
_symmetry_space_group_name_H-M   'P 1'
_cell_length_a   10.41995690
_cell_length_b   10.60773103
_cell_length_c   18.00634417
_cell_angle_alpha   90.00000000
_cell_angle_beta   90.00000000
_cell_angle_gamma   89.92186890
_symmetry_Int_Tables_number   1
_chemical_formula_structural   LaP5Cl18O17
_chemical_formula_sum   'La2 P10 Cl36 O34'
_cell_volume   1990.27718707
_cell_formula_units_Z   2
loop_
 _symmetry_equiv_pos_site_id
 _symmetry_equiv_pos_as_xyz
  1  'x, y, z'
loop_
 _atom_site_type_symbol
 _atom_site_label
 _atom_site_symmetry_multiplicity
 _atom_site_fract_x
 _atom_site_fract_y
 _atom_site_fract_z
 _atom_site_occupancy
  La  La0  1  0.780634  0.710279  0.751781  1
  La  La1  1  0.219366  0.289721  0.251781  1
  P  P2  1  0.115994  0.544109  0.798397  1
  P  P3  1  0.395008  0.090427  0.096977  1
  P  P4  1  0.000883  0.016683  0.770875  1
  P  P5  1  0.604992  0.909573  0.596977  1
  P  P6  1  0.169877  0.269221  0.478564  1
  P  P7  1  0.999117  0.983317  0.270875  1
  P  P8  1  0.370692  0.591471  0.359481  1
  P  P9  1  0.830123  0.730779  0.978564  1
  P  P10  1  0.884006  0.455891  0.298397  1
  P  P11  1  0.629308  0.408529  0.859481  1
  Cl  Cl12  1  0.836281  0.909899  0.010769  1
  Cl  Cl13  1  0.243258  0.666716  0.429354  1
  Cl  Cl14  1  0.903500  0.147360  0.714977  1
  Cl  Cl15  1  0.681167  0.658234  0.033819  1
  Cl  Cl16  1  0.124598  0.429187  0.885553  1
  Cl  Cl17  1  0.756742  0.333284  0.929354  1
  Cl  Cl18  1  0.875402  0.570813  0.385553  1
  Cl  Cl19  1  0.552045  0.882098  0.827683  1
  Cl  Cl20  1  0.318833  0.341766  0.533819  1
  Cl  Cl21  1  0.590656  0.096681  0.593235  1
  Cl  Cl22  1  0.561540  0.263823  0.801118  1
  Cl  Cl23  1  0.672367  0.858758  0.497753  1
  Cl  Cl24  1  0.180193  0.024704  0.733014  1
  Cl  Cl25  1  0.517620  0.537731  0.423109  1
  Cl  Cl26  1  0.425573  0.845154  0.599865  1
  Cl  Cl27  1  0.409344  0.903319  0.093235  1
  Cl  Cl28  1  0.987363  0.230217  0.089032  1
  Cl  Cl29  1  0.438460  0.736177  0.301118  1
  Cl  Cl30  1  0.482380  0.462269  0.923109  1
  Cl  Cl31  1  0.819807  0.975296  0.233014  1
  Cl  Cl32  1  0.015216  0.348645  0.524226  1
  Cl  Cl33  1  0.012637  0.769783  0.589032  1
  Cl  Cl34  1  0.574427  0.154846  0.099865  1
  Cl  Cl35  1  0.764095  0.315497  0.321162  1
  Cl  Cl36  1  0.986671  0.915261  0.374097  1
  Cl  Cl37  1  0.096500  0.852640  0.214977  1
  Cl  Cl38  1  0.687394  0.471261  0.622532  1
  Cl  Cl39  1  0.447955  0.117902  0.327683  1
  Cl  Cl40  1  0.312606  0.528739  0.122532  1
  Cl  Cl41  1  0.801286  0.550526  0.215477  1
  Cl  Cl42  1  0.163719  0.090101  0.510769  1
  Cl  Cl43  1  0.235905  0.684503  0.821162  1
  Cl  Cl44  1  0.198714  0.449474  0.715477  1
  Cl  Cl45  1  0.013329  0.084739  0.874097  1
  Cl  Cl46  1  0.327633  0.141242  0.997753  1
  Cl  Cl47  1  0.984784  0.651355  0.024226  1
  O  O48  1  0.685710  0.866350  0.659678  1
  O  O49  1  0.016588  0.414218  0.281998  1
  O  O50  1  0.470394  0.965071  0.785073  1
  O  O51  1  0.141432  0.739837  0.614320  1
  O  O52  1  0.578784  0.386803  0.630296  1
  O  O53  1  0.314290  0.133650  0.159678  1
  O  O54  1  0.176624  0.287506  0.397212  1
  O  O55  1  0.823376  0.712494  0.897212  1
  O  O56  1  0.351147  0.402185  0.153397  1
  O  O57  1  0.453607  0.248514  0.296237  1
  O  O58  1  0.315457  0.488795  0.314088  1
  O  O59  1  0.983412  0.585782  0.781998  1
  O  O60  1  0.484849  0.120156  0.404775  1
  O  O61  1  0.648853  0.597815  0.653397  1
  O  O62  1  0.421216  0.613197  0.130296  1
  O  O63  1  0.278548  0.513341  0.045077  1
  O  O64  1  0.529606  0.034929  0.285073  1
  O  O65  1  0.011868  0.095558  0.093335  1
  O  O66  1  0.202859  0.572656  0.165726  1
  O  O67  1  0.858568  0.260163  0.114320  1
  O  O68  1  0.546393  0.751486  0.796237  1
  O  O69  1  0.797141  0.427344  0.665726  1
  O  O70  1  0.311341  0.080454  0.319727  1
  O  O71  1  0.721452  0.486659  0.545077  1
  O  O72  1  0.080860  0.297258  0.137991  1
  O  O73  1  0.945351  0.888278  0.768149  1
  O  O74  1  0.515151  0.879844  0.904775  1
  O  O75  1  0.988132  0.904442  0.593335  1
  O  O76  1  0.919140  0.702742  0.637991  1
  O  O77  1  0.688659  0.919546  0.819727  1
  O  O78  1  0.054649  0.111722  0.268149  1
  O  O79  1  0.006849  0.275152  0.013569  1
  O  O80  1  0.993151  0.724848  0.513569  1
  O  O81  1  0.684543  0.511205  0.814088  1
