# generated using pymatgen
data_Rb3Er3(PS4)4
_symmetry_space_group_name_H-M   'P 1'
_cell_length_a   9.29594322
_cell_length_b   16.34075317
_cell_length_c   18.57737383
_cell_angle_alpha   90.00000000
_cell_angle_beta   95.30548324
_cell_angle_gamma   90.00000000
_symmetry_Int_Tables_number   1
_chemical_formula_structural   Rb3Er3(PS4)4
_chemical_formula_sum   'Rb12 Er12 P16 S64'
_cell_volume   2809.86383462
_cell_formula_units_Z   4
loop_
 _symmetry_equiv_pos_site_id
 _symmetry_equiv_pos_as_xyz
  1  'x, y, z'
loop_
 _atom_site_type_symbol
 _atom_site_label
 _atom_site_symmetry_multiplicity
 _atom_site_fract_x
 _atom_site_fract_y
 _atom_site_fract_z
 _atom_site_occupancy
  Rb  Rb0  1  0.097954  0.032994  0.269400  1
  Rb  Rb1  1  0.786684  0.894714  0.067096  1
  Rb  Rb2  1  0.204948  0.494058  0.917791  1
  Rb  Rb3  1  0.713316  0.394714  0.432904  1
  Rb  Rb4  1  0.902046  0.967006  0.730600  1
  Rb  Rb5  1  0.213316  0.105286  0.932904  1
  Rb  Rb6  1  0.597954  0.467006  0.769400  1
  Rb  Rb7  1  0.286684  0.605286  0.567096  1
  Rb  Rb8  1  0.402046  0.532994  0.230600  1
  Rb  Rb9  1  0.704948  0.005942  0.417791  1
  Rb  Rb10  1  0.795052  0.505942  0.082209  1
  Rb  Rb11  1  0.295052  0.994058  0.582209  1
  Er  Er12  1  0.312506  0.760788  0.817360  1
  Er  Er13  1  0.288668  0.772340  0.336319  1
  Er  Er14  1  0.814384  0.725092  0.585932  1
  Er  Er15  1  0.812506  0.739212  0.317360  1
  Er  Er16  1  0.185616  0.274908  0.414068  1
  Er  Er17  1  0.187494  0.260788  0.682640  1
  Er  Er18  1  0.788668  0.727660  0.836319  1
  Er  Er19  1  0.687494  0.239212  0.182640  1
  Er  Er20  1  0.685616  0.225092  0.914068  1
  Er  Er21  1  0.211332  0.272340  0.163681  1
  Er  Er22  1  0.314384  0.774908  0.085932  1
  Er  Er23  1  0.711332  0.227660  0.663681  1
  P  P24  1  0.419638  0.356120  0.582361  1
  P  P25  1  0.940075  0.189986  0.531778  1
  P  P26  1  0.580362  0.643880  0.417639  1
  P  P27  1  0.080362  0.856120  0.917639  1
  P  P28  1  0.059925  0.810014  0.468222  1
  P  P29  1  0.036394  0.704725  0.189524  1
  P  P30  1  0.463606  0.204725  0.310476  1
  P  P31  1  0.440075  0.310014  0.031778  1
  P  P32  1  0.536394  0.795275  0.689524  1
  P  P33  1  0.014598  0.624814  0.731917  1
  P  P34  1  0.919638  0.143880  0.082361  1
  P  P35  1  0.559925  0.689986  0.968222  1
  P  P36  1  0.514598  0.875186  0.231917  1
  P  P37  1  0.963606  0.295275  0.810476  1
  P  P38  1  0.985402  0.375186  0.268083  1
  P  P39  1  0.485402  0.124814  0.768083  1
  S  S40  1  0.980307  0.751839  0.725831  1
  S  S41  1  0.817390  0.705038  0.171901  1
  S  S42  1  0.779354  0.690351  0.982312  1
  S  S43  1  0.367624  0.618157  0.388353  1
  S  S44  1  0.100494  0.730080  0.910148  1
  S  S45  1  0.540536  0.370400  0.953972  1
  S  S46  1  0.141030  0.895989  0.020051  1
  S  S47  1  0.870962  0.180050  0.804325  1
  S  S48  1  0.132376  0.118157  0.111647  1
  S  S49  1  0.959464  0.870400  0.546028  1
  S  S50  1  0.361884  0.144092  0.387951  1
  S  S51  1  0.358970  0.395989  0.479949  1
  S  S52  1  0.040536  0.129600  0.453972  1
  S  S53  1  0.600494  0.769920  0.410148  1
  S  S54  1  0.629038  0.680050  0.695675  1
  S  S55  1  0.129038  0.819950  0.195675  1
  S  S56  1  0.459464  0.629600  0.046028  1
  S  S57  1  0.771077  0.394008  0.237564  1
  S  S58  1  0.704379  0.589456  0.344844  1
  S  S59  1  0.033010  0.304825  0.537642  1
  S  S60  1  0.019664  0.858009  0.364755  1
  S  S61  1  0.638116  0.855908  0.612049  1
  S  S62  1  0.925415  0.344886  0.708305  1
  S  S63  1  0.074585  0.655114  0.291695  1
  S  S64  1  0.720646  0.190351  0.517688  1
  S  S65  1  0.399323  0.923313  0.311430  1
  S  S66  1  0.466990  0.804825  0.962358  1
  S  S67  1  0.425415  0.155114  0.208305  1
  S  S68  1  0.641030  0.604011  0.520051  1
  S  S69  1  0.019693  0.248161  0.274169  1
  S  S70  1  0.399506  0.230080  0.589852  1
  S  S71  1  0.574585  0.844886  0.791695  1
  S  S72  1  0.370962  0.319950  0.304325  1
  S  S73  1  0.271077  0.105992  0.737564  1
  S  S74  1  0.861884  0.355908  0.887951  1
  S  S75  1  0.279354  0.809649  0.482312  1
  S  S76  1  0.533010  0.195175  0.037642  1
  S  S77  1  0.728923  0.894008  0.262436  1
  S  S78  1  0.220646  0.309649  0.017688  1
  S  S79  1  0.947323  0.580773  0.632445  1
  S  S80  1  0.317390  0.794962  0.671901  1
  S  S81  1  0.519664  0.641991  0.864755  1
  S  S82  1  0.858970  0.104011  0.979949  1
  S  S83  1  0.600677  0.076687  0.688569  1
  S  S84  1  0.966990  0.695175  0.462358  1
  S  S85  1  0.980336  0.141991  0.635245  1
  S  S86  1  0.052677  0.419227  0.367555  1
  S  S87  1  0.519693  0.251839  0.774169  1
  S  S88  1  0.552677  0.080773  0.867555  1
  S  S89  1  0.899323  0.576687  0.811431  1
  S  S90  1  0.795621  0.089456  0.155156  1
  S  S91  1  0.447323  0.919227  0.132445  1
  S  S92  1  0.867624  0.881843  0.888353  1
  S  S93  1  0.204379  0.910544  0.844844  1
  S  S94  1  0.100677  0.423313  0.188570  1
  S  S95  1  0.228923  0.605992  0.762436  1
  S  S96  1  0.138116  0.644092  0.112049  1
  S  S97  1  0.632376  0.381843  0.611647  1
  S  S98  1  0.899506  0.269920  0.089852  1
  S  S99  1  0.480336  0.358009  0.135245  1
  S  S100  1  0.182610  0.294962  0.828099  1
  S  S101  1  0.480307  0.748161  0.225831  1
  S  S102  1  0.682610  0.205038  0.328099  1
  S  S103  1  0.295621  0.410544  0.655156  1
