# generated using pymatgen
data_KSnS4
_symmetry_space_group_name_H-M   'P 1'
_cell_length_a   9.79231084
_cell_length_b   10.14595276
_cell_length_c   14.44525171
_cell_angle_alpha   90.00000000
_cell_angle_beta   107.61554478
_cell_angle_gamma   90.00000000
_symmetry_Int_Tables_number   1
_chemical_formula_structural   KSnS4
_chemical_formula_sum   'K8 Sn8 S32'
_cell_volume   1367.87221488
_cell_formula_units_Z   8
loop_
 _symmetry_equiv_pos_site_id
 _symmetry_equiv_pos_as_xyz
  1  'x, y, z'
loop_
 _atom_site_type_symbol
 _atom_site_label
 _atom_site_symmetry_multiplicity
 _atom_site_fract_x
 _atom_site_fract_y
 _atom_site_fract_z
 _atom_site_occupancy
  Sn  Sn0  1  0.030395  0.172719  0.016635  1
  Sn  Sn1  1  0.469605  0.672719  0.483365  1
  Sn  Sn2  1  0.969605  0.827281  0.983365  1
  Sn  Sn3  1  0.530395  0.327281  0.516635  1
  Sn  Sn4  1  0.593903  0.000049  0.405550  1
  Sn  Sn5  1  0.906097  0.500049  0.094450  1
  Sn  Sn6  1  0.406097  0.999951  0.594450  1
  Sn  Sn7  1  0.093903  0.499951  0.905550  1
  K  K8  1  0.346722  0.362519  0.203050  1
  K  K9  1  0.153278  0.862519  0.296950  1
  K  K10  1  0.653278  0.637481  0.796950  1
  K  K11  1  0.846722  0.137481  0.703050  1
  K  K12  1  0.031484  0.273833  0.405899  1
  K  K13  1  0.468516  0.773833  0.094101  1
  K  K14  1  0.968516  0.726167  0.594101  1
  K  K15  1  0.531484  0.226167  0.905899  1
  S  S16  1  0.218733  0.275031  0.963759  1
  S  S17  1  0.281267  0.775030  0.536241  1
  S  S18  1  0.781267  0.724970  0.036241  1
  S  S19  1  0.718733  0.224969  0.463759  1
  S  S20  1  0.834570  0.041360  0.914434  1
  S  S21  1  0.665430  0.541360  0.585566  1
  S  S22  1  0.165430  0.958640  0.085566  1
  S  S23  1  0.334570  0.458640  0.414434  1
  S  S24  1  0.641081  0.899236  0.576442  1
  S  S25  1  0.858919  0.399236  0.923558  1
  S  S26  1  0.358919  0.100764  0.423558  1
  S  S27  1  0.141081  0.600764  0.076442  1
  S  S28  1  0.509815  0.066080  0.219878  1
  S  S29  1  0.990185  0.566080  0.280122  1
  S  S30  1  0.490185  0.933920  0.780122  1
  S  S31  1  0.009815  0.433920  0.719878  1
  S  S32  1  0.013301  0.271737  0.165877  1
  S  S33  1  0.486699  0.771737  0.334123  1
  S  S34  1  0.986699  0.728263  0.834123  1
  S  S35  1  0.513301  0.228263  0.665877  1
  S  S36  1  0.688804  0.142806  0.195283  1
  S  S37  1  0.811196  0.642806  0.304717  1
  S  S38  1  0.311196  0.857194  0.804717  1
  S  S39  1  0.188804  0.357194  0.695283  1
  S  S40  1  0.688154  0.343772  0.226895  1
  S  S41  1  0.811846  0.843772  0.273105  1
  S  S42  1  0.311846  0.656228  0.773105  1
  S  S43  1  0.188154  0.156228  0.726895  1
  S  S44  1  0.645581  0.440807  0.096779  1
  S  S45  1  0.854419  0.940807  0.403221  1
  S  S46  1  0.354419  0.559193  0.903221  1
  S  S47  1  0.145581  0.059193  0.596779  1
