# generated using pymatgen
data_KNaSi2O5
_symmetry_space_group_name_H-M   'P 1'
_cell_length_a   7.37243775
_cell_length_b   12.63450600
_cell_length_c   17.68021589
_cell_angle_alpha   90.00000000
_cell_angle_beta   90.00000000
_cell_angle_gamma   91.27705060
_symmetry_Int_Tables_number   1
_chemical_formula_structural   KNaSi2O5
_chemical_formula_sum   'K12 Na12 Si24 O60'
_cell_volume   1646.45194301
_cell_formula_units_Z   12
loop_
 _symmetry_equiv_pos_site_id
 _symmetry_equiv_pos_as_xyz
  1  'x, y, z'
loop_
 _atom_site_type_symbol
 _atom_site_label
 _atom_site_symmetry_multiplicity
 _atom_site_fract_x
 _atom_site_fract_y
 _atom_site_fract_z
 _atom_site_occupancy
  K  K0  1  0.616222  0.119160  0.061482  1
  K  K1  1  0.228872  0.008971  0.768776  1
  K  K2  1  0.950943  0.095625  0.420325  1
  K  K3  1  0.450943  0.595625  0.079675  1
  K  K4  1  0.883778  0.380840  0.561482  1
  K  K5  1  0.728872  0.508971  0.731224  1
  K  K6  1  0.383778  0.880840  0.938518  1
  K  K7  1  0.549057  0.404375  0.920325  1
  K  K8  1  0.049057  0.904375  0.579675  1
  K  K9  1  0.116222  0.619160  0.438518  1
  K  K10  1  0.771128  0.991029  0.231224  1
  K  K11  1  0.271128  0.491029  0.268776  1
  Na  Na12  1  0.704372  0.926045  0.752844  1
  Na  Na13  1  0.433062  0.013612  0.410523  1
  Na  Na14  1  0.204372  0.426045  0.747156  1
  Na  Na15  1  0.933062  0.513612  0.089477  1
  Na  Na16  1  0.892020  0.959359  0.915732  1
  Na  Na17  1  0.607980  0.540641  0.415732  1
  Na  Na18  1  0.107980  0.040641  0.084268  1
  Na  Na19  1  0.566938  0.986388  0.589477  1
  Na  Na20  1  0.795628  0.573955  0.252844  1
  Na  Na21  1  0.392020  0.459359  0.584268  1
  Na  Na22  1  0.295628  0.073955  0.247156  1
  Na  Na23  1  0.066938  0.486388  0.910523  1
  Si  Si24  1  0.893732  0.150361  0.669473  1
  Si  Si25  1  0.046024  0.744504  0.170494  1
  Si  Si26  1  0.734556  0.665771  0.558292  1
  Si  Si27  1  0.977860  0.255954  0.194776  1
  Si  Si28  1  0.106268  0.849639  0.330527  1
  Si  Si29  1  0.022140  0.744046  0.805224  1
  Si  Si30  1  0.522140  0.244046  0.694776  1
  Si  Si31  1  0.747036  0.831792  0.428847  1
  Si  Si32  1  0.903948  0.362365  0.359496  1
  Si  Si33  1  0.453976  0.755496  0.670494  1
  Si  Si34  1  0.234556  0.165771  0.941708  1
  Si  Si35  1  0.765444  0.834229  0.058292  1
  Si  Si36  1  0.752964  0.668208  0.928847  1
  Si  Si37  1  0.403948  0.862365  0.140504  1
  Si  Si38  1  0.606268  0.349639  0.169473  1
  Si  Si39  1  0.596052  0.137635  0.859496  1
  Si  Si40  1  0.393732  0.650361  0.830527  1
  Si  Si41  1  0.096052  0.637635  0.640504  1
  Si  Si42  1  0.953976  0.255496  0.829506  1
  Si  Si43  1  0.265444  0.334229  0.441708  1
  Si  Si44  1  0.252964  0.168208  0.571153  1
  Si  Si45  1  0.546024  0.244504  0.329506  1
  Si  Si46  1  0.477860  0.755954  0.305224  1
  Si  Si47  1  0.247036  0.331792  0.071153  1
  O  O48  1  0.044715  0.187547  0.604277  1
  O  O49  1  0.016566  0.820421  0.246494  1
  O  O50  1  0.109834  0.338863  0.144991  1
  O  O51  1  0.165841  0.970654  0.339022  1
  O  O52  1  0.356406  0.257392  0.377893  1
  O  O53  1  0.455285  0.312453  0.104277  1
  O  O54  1  0.272102  0.764852  0.343753  1
  O  O55  1  0.200044  0.218320  0.026559  1
  O  O56  1  0.424578  0.878114  0.686209  1
  O  O57  1  0.709921  0.300984  0.381485  1
  O  O58  1  0.799956  0.781680  0.973441  1
  O  O59  1  0.575422  0.121886  0.313791  1
  O  O60  1  0.042173  0.317108  0.426708  1
  O  O61  1  0.772102  0.264852  0.156247  1
  O  O62  1  0.668276  0.545079  0.558589  1
  O  O63  1  0.462491  0.363731  0.694778  1
  O  O64  1  0.270738  0.063632  0.521225  1
  O  O65  1  0.542173  0.817108  0.073292  1
  O  O66  1  0.390166  0.161137  0.644991  1
  O  O67  1  0.665841  0.470654  0.160978  1
  O  O68  1  0.457827  0.182892  0.926708  1
  O  O69  1  0.290079  0.699016  0.618515  1
  O  O70  1  0.168276  0.045079  0.941411  1
  O  O71  1  0.893050  0.488035  0.360850  1
  O  O72  1  0.834159  0.029346  0.660978  1
  O  O73  1  0.024418  0.685428  0.721514  1
  O  O74  1  0.524418  0.185428  0.778486  1
  O  O75  1  0.955285  0.812453  0.395723  1
  O  O76  1  0.606950  0.011965  0.860850  1
  O  O77  1  0.544715  0.687547  0.895723  1
  O  O78  1  0.957827  0.682892  0.573292  1
  O  O79  1  0.037509  0.136269  0.194778  1
  O  O80  1  0.483434  0.679579  0.746494  1
  O  O81  1  0.924578  0.378114  0.813791  1
  O  O82  1  0.106950  0.511965  0.639150  1
  O  O83  1  0.475582  0.814572  0.221514  1
  O  O84  1  0.393050  0.988035  0.139150  1
  O  O85  1  0.831724  0.954921  0.058589  1
  O  O86  1  0.331724  0.454921  0.441411  1
  O  O87  1  0.229262  0.436368  0.021225  1
  O  O88  1  0.770738  0.563632  0.978775  1
  O  O89  1  0.334159  0.529346  0.839022  1
  O  O90  1  0.643594  0.742608  0.622107  1
  O  O91  1  0.729262  0.936368  0.478775  1
  O  O92  1  0.209921  0.800984  0.118515  1
  O  O93  1  0.143594  0.242608  0.877893  1
  O  O94  1  0.962491  0.863731  0.805222  1
  O  O95  1  0.975582  0.314572  0.278486  1
  O  O96  1  0.516566  0.320421  0.253506  1
  O  O97  1  0.609834  0.838863  0.355009  1
  O  O98  1  0.790079  0.199016  0.881485  1
  O  O99  1  0.700044  0.718320  0.473441  1
  O  O100  1  0.727898  0.235148  0.656247  1
  O  O101  1  0.075422  0.621886  0.186209  1
  O  O102  1  0.856406  0.757392  0.122107  1
  O  O103  1  0.983434  0.179579  0.753506  1
  O  O104  1  0.227898  0.735148  0.843753  1
  O  O105  1  0.890166  0.661137  0.855009  1
  O  O106  1  0.537509  0.636269  0.305222  1
  O  O107  1  0.299955  0.281680  0.526559  1
