# generated using pymatgen
data_Ta6S
_symmetry_space_group_name_H-M   'P 1'
_cell_length_a   5.28159298
_cell_length_b   7.57393023
_cell_length_c   7.57901113
_cell_angle_alpha   113.81048040
_cell_angle_beta   98.40741365
_cell_angle_gamma   109.04375287
_symmetry_Int_Tables_number   1
_chemical_formula_structural   Ta6S
_chemical_formula_sum   'Ta12 S2'
_cell_volume   248.28345212
_cell_formula_units_Z   2
loop_
 _symmetry_equiv_pos_site_id
 _symmetry_equiv_pos_as_xyz
  1  'x, y, z'
loop_
 _atom_site_type_symbol
 _atom_site_label
 _atom_site_symmetry_multiplicity
 _atom_site_fract_x
 _atom_site_fract_y
 _atom_site_fract_z
 _atom_site_occupancy
  Ta  Ta0  1  0.558076  0.775105  0.590434  1
  Ta  Ta1  1  0.441924  0.224895  0.409566  1
  Ta  Ta2  1  0.002747  0.371683  0.295208  1
  Ta  Ta3  1  0.500000  0.000000  0.000000  1
  Ta  Ta4  1  0.149416  0.721034  0.150315  1
  Ta  Ta5  1  0.228779  0.064362  0.691924  1
  Ta  Ta6  1  0.527799  0.575152  0.863203  1
  Ta  Ta7  1  0.771221  0.935638  0.308076  1
  Ta  Ta8  1  0.850584  0.278966  0.849685  1
  Ta  Ta9  1  0.997253  0.628317  0.704792  1
  Ta  Ta10  1  0.000000  0.000000  0.000000  1
  Ta  Ta11  1  0.472201  0.424848  0.136797  1
  S  S12  1  0.074879  0.299623  0.584593  1
  S  S13  1  0.925121  0.700377  0.415407  1
