# generated using pymatgen
data_NaCa2ScZn2(SiO3)6
_symmetry_space_group_name_H-M   'P 1'
_cell_length_a   5.34656855
_cell_length_b   20.21272358
_cell_length_c   9.95853896
_cell_angle_alpha   42.35114963
_cell_angle_beta   73.77627929
_cell_angle_gamma   78.08404947
_symmetry_Int_Tables_number   1
_chemical_formula_structural   NaCa2ScZn2(SiO3)6
_chemical_formula_sum   'Na2 Ca4 Sc2 Zn4 Si12 O36'
_cell_volume   696.13944252
_cell_formula_units_Z   2
loop_
 _symmetry_equiv_pos_site_id
 _symmetry_equiv_pos_as_xyz
  1  'x, y, z'
loop_
 _atom_site_type_symbol
 _atom_site_label
 _atom_site_symmetry_multiplicity
 _atom_site_fract_x
 _atom_site_fract_y
 _atom_site_fract_z
 _atom_site_occupancy
  Ca  Ca0  1  0.250000  0.134378  0.298433  1
  Ca  Ca1  1  0.250000  0.467181  0.299227  1
  Ca  Ca2  1  0.750000  0.199485  0.700773  1
  Ca  Ca3  1  0.750000  0.532289  0.701567  1
  Na  Na4  1  0.250000  0.797382  0.303928  1
  Na  Na5  1  0.750000  0.869285  0.696072  1
  O  O6  1  0.996383  0.321475  0.668974  1
  O  O7  1  0.175757  0.169211  0.609649  1
  O  O8  1  0.355582  0.273387  0.206568  1
  O  O9  1  0.001853  0.654967  0.669558  1
  O  O10  1  0.144418  0.273387  0.973269  1
  O  O11  1  0.177463  0.500758  0.609515  1
  O  O12  1  0.501853  0.011700  0.634459  1
  O  O13  1  0.324243  0.169211  0.882716  1
  O  O14  1  0.348814  0.609267  0.203871  1
  O  O15  1  0.677463  0.165908  0.111790  1
  O  O16  1  0.503617  0.321475  0.366603  1
  O  O17  1  0.008940  0.992506  0.661148  1
  O  O18  1  0.848814  0.057400  0.031671  1
  O  O19  1  0.151186  0.609267  0.968329  1
  O  O20  1  0.187650  0.834794  0.607903  1
  O  O21  1  0.496383  0.345192  0.633397  1
  O  O22  1  0.322537  0.500758  0.888210  1
  O  O23  1  0.651186  0.057400  0.796129  1
  O  O24  1  0.356967  0.943534  0.201871  1
  O  O25  1  0.675757  0.497456  0.117284  1
  O  O26  1  0.498147  0.654967  0.365541  1
  O  O27  1  0.822537  0.165908  0.390485  1
  O  O28  1  0.855582  0.393279  0.026731  1
  O  O29  1  0.143033  0.943534  0.967528  1
  O  O30  1  0.998147  0.011700  0.330442  1
  O  O31  1  0.508940  0.674160  0.638667  1
  O  O32  1  0.312350  0.834794  0.887715  1
  O  O33  1  0.644418  0.393279  0.793432  1
  O  O34  1  0.687650  0.831873  0.112285  1
  O  O35  1  0.491060  0.992506  0.361333  1
  O  O36  1  0.824243  0.497456  0.390351  1
  O  O37  1  0.856967  0.723133  0.032472  1
  O  O38  1  0.003617  0.345192  0.331026  1
  O  O39  1  0.643033  0.723133  0.798129  1
  O  O40  1  0.812350  0.831873  0.392097  1
  O  O41  1  0.991060  0.674160  0.338852  1
  Sc  Sc42  1  0.250000  0.735583  0.896626  1
  Sc  Sc43  1  0.750000  0.931084  0.103374  1
  Si  Si44  1  0.269519  0.271926  0.378505  1
  Si  Si45  1  0.230481  0.271926  0.805716  1
  Si  Si46  1  0.262882  0.605893  0.380123  1
  Si  Si47  1  0.762882  0.060773  0.197802  1
  Si  Si48  1  0.237118  0.605893  0.802198  1
  Si  Si49  1  0.262716  0.940299  0.376573  1
  Si  Si50  1  0.737118  0.060773  0.619877  1
  Si  Si51  1  0.769519  0.394741  0.194284  1
  Si  Si52  1  0.237284  0.940299  0.802532  1
  Si  Si53  1  0.730481  0.394741  0.621495  1
  Si  Si54  1  0.762716  0.726368  0.197468  1
  Si  Si55  1  0.737284  0.726368  0.623427  1
  Zn  Zn56  1  0.250000  0.064709  0.902936  1
  Zn  Zn57  1  0.250000  0.397335  0.903997  1
  Zn  Zn58  1  0.750000  0.269331  0.096003  1
  Zn  Zn59  1  0.750000  0.601958  0.097064  1
