# generated using pymatgen
data_Ca2CoTeO6
_symmetry_space_group_name_H-M   'P 1'
_cell_length_a   5.49928696
_cell_length_b   5.66723697
_cell_length_c   7.81293014
_cell_angle_alpha   90.00029263
_cell_angle_beta   90.36357543
_cell_angle_gamma   90.00225484
_symmetry_Int_Tables_number   1
_chemical_formula_structural   Ca2CoTeO6
_chemical_formula_sum   'Ca4 Co2 Te2 O12'
_cell_volume   243.49102205
_cell_formula_units_Z   2
loop_
 _symmetry_equiv_pos_site_id
 _symmetry_equiv_pos_as_xyz
  1  'x, y, z'
loop_
 _atom_site_type_symbol
 _atom_site_label
 _atom_site_symmetry_multiplicity
 _atom_site_fract_x
 _atom_site_fract_y
 _atom_site_fract_z
 _atom_site_occupancy
  Ca  Ca0  1  0.987045  0.051563  0.251154  1
  Ca  Ca1  1  0.012955  0.948439  0.748847  1
  Ca  Ca2  1  0.512941  0.551554  0.248867  1
  Ca  Ca3  1  0.487058  0.448445  0.751132  1
  Co  Co4  1  0.499999  -0.000000  0.000000  1
  Co  Co5  1  -0.000000  0.500000  0.500000  1
  Te  Te6  1  0.000001  0.499999  -0.000002  1
  Te  Te7  1  0.500000  0.000000  0.500000  1
  O  O8  1  0.688060  0.284757  0.447331  1
  O  O9  1  0.188085  0.215254  0.947364  1
  O  O10  1  0.789068  0.808906  0.454305  1
  O  O11  1  0.289069  0.691113  0.954290  1
  O  O12  1  0.904770  0.534024  0.759149  1
  O  O13  1  0.595263  0.034074  0.740834  1
  O  O14  1  0.311940  0.715243  0.552670  1
  O  O15  1  0.210932  0.191095  0.545696  1
  O  O16  1  0.095230  0.465976  0.240851  1
  O  O17  1  0.710932  0.308887  0.045709  1
  O  O18  1  0.404737  0.965926  0.259167  1
  O  O19  1  0.811915  0.784746  0.052637  1
