# generated using pymatgen
data_Tl2(SeO3)3
_symmetry_space_group_name_H-M   'P 1'
_cell_length_a   4.79986888
_cell_length_b   11.54893560
_cell_length_c   17.60857546
_cell_angle_alpha   90.00000000
_cell_angle_beta   95.56399214
_cell_angle_gamma   90.00000000
_symmetry_Int_Tables_number   1
_chemical_formula_structural   Tl2(SeO3)3
_chemical_formula_sum   'Tl8 Se12 O36'
_cell_volume   971.50391543
_cell_formula_units_Z   4
loop_
 _symmetry_equiv_pos_site_id
 _symmetry_equiv_pos_as_xyz
  1  'x, y, z'
loop_
 _atom_site_type_symbol
 _atom_site_label
 _atom_site_symmetry_multiplicity
 _atom_site_fract_x
 _atom_site_fract_y
 _atom_site_fract_z
 _atom_site_occupancy
  Tl  Tl0  1  0.827014  0.061264  0.704223  1
  Tl  Tl1  1  0.672986  0.561264  0.795777  1
  Tl  Tl2  1  0.257501  0.851642  0.872819  1
  Tl  Tl3  1  0.757501  0.648358  0.372819  1
  Tl  Tl4  1  0.172986  0.938736  0.295777  1
  Tl  Tl5  1  0.242499  0.351642  0.627181  1
  Tl  Tl6  1  0.327014  0.438736  0.204223  1
  Tl  Tl7  1  0.742499  0.148358  0.127181  1
  Se  Se8  1  0.178155  0.321703  0.806755  1
  Se  Se9  1  0.720013  0.054061  0.906487  1
  Se  Se10  1  0.678155  0.178297  0.306755  1
  Se  Se11  1  0.779442  0.394604  0.051793  1
  Se  Se12  1  0.720558  0.894604  0.448207  1
  Se  Se13  1  0.220558  0.605396  0.948207  1
  Se  Se14  1  0.279987  0.945939  0.093513  1
  Se  Se15  1  0.821845  0.678297  0.193245  1
  Se  Se16  1  0.779987  0.554061  0.593513  1
  Se  Se17  1  0.321845  0.821703  0.693245  1
  Se  Se18  1  0.220013  0.445939  0.406487  1
  Se  Se19  1  0.279442  0.105396  0.551793  1
  O  O20  1  0.725959  0.121334  0.818294  1
  O  O21  1  0.990599  0.335823  0.129725  1
  O  O22  1  0.509401  0.835823  0.370275  1
  O  O23  1  0.473807  0.528916  0.906772  1
  O  O24  1  0.597213  0.894138  0.662429  1
  O  O25  1  0.365700  0.030626  0.913714  1
  O  O26  1  0.402787  0.105862  0.337571  1
  O  O27  1  0.372616  0.737010  0.974313  1
  O  O28  1  0.009401  0.664177  0.870275  1
  O  O29  1  0.225959  0.378666  0.318294  1
  O  O30  1  0.197036  0.089442  0.110135  1
  O  O31  1  0.134300  0.530626  0.586286  1
  O  O32  1  0.490599  0.164177  0.629725  1
  O  O33  1  0.167744  0.926769  0.749678  1
  O  O34  1  0.127384  0.237010  0.525687  1
  O  O35  1  0.097213  0.605862  0.162429  1
  O  O36  1  0.872616  0.762990  0.474313  1
  O  O37  1  0.943859  0.755036  0.277038  1
  O  O38  1  0.332256  0.426769  0.750322  1
  O  O39  1  0.026193  0.028916  0.593228  1
  O  O40  1  0.774041  0.621334  0.681706  1
  O  O41  1  0.667744  0.573231  0.249678  1
  O  O42  1  0.302964  0.589442  0.389865  1
  O  O43  1  0.902787  0.394138  0.837571  1
  O  O44  1  0.973807  0.971084  0.406772  1
  O  O45  1  0.274041  0.878666  0.181706  1
  O  O46  1  0.056141  0.244964  0.722962  1
  O  O47  1  0.634300  0.969374  0.086286  1
  O  O48  1  0.697036  0.410558  0.610135  1
  O  O49  1  0.802964  0.910558  0.889865  1
  O  O50  1  0.526193  0.471084  0.093228  1
  O  O51  1  0.556141  0.255036  0.222962  1
  O  O52  1  0.865700  0.469374  0.413714  1
  O  O53  1  0.832256  0.073231  0.250322  1
  O  O54  1  0.443859  0.744964  0.777038  1
  O  O55  1  0.627384  0.262990  0.025687  1
