# generated using pymatgen
data_PrNiSb3
_symmetry_space_group_name_H-M   'P 1'
_cell_length_a   6.28139619
_cell_length_b   12.70379456
_cell_length_c   18.57408243
_cell_angle_alpha   90.00000000
_cell_angle_beta   90.00000000
_cell_angle_gamma   90.00000000
_symmetry_Int_Tables_number   1
_chemical_formula_structural   PrNiSb3
_chemical_formula_sum   'Pr12 Ni12 Sb36'
_cell_volume   1482.16658249
_cell_formula_units_Z   12
loop_
 _symmetry_equiv_pos_site_id
 _symmetry_equiv_pos_as_xyz
  1  'x, y, z'
loop_
 _atom_site_type_symbol
 _atom_site_label
 _atom_site_symmetry_multiplicity
 _atom_site_fract_x
 _atom_site_fract_y
 _atom_site_fract_z
 _atom_site_occupancy
  Pr  Pr0  1  0.527718  0.700741  0.583586  1
  Pr  Pr1  1  0.472282  0.299259  0.083586  1
  Pr  Pr2  1  0.972282  0.700741  0.416414  1
  Pr  Pr3  1  0.027718  0.299259  0.916414  1
  Pr  Pr4  1  0.059119  0.694511  0.750000  1
  Pr  Pr5  1  0.440881  0.694511  0.250000  1
  Pr  Pr6  1  0.972282  0.700741  0.083586  1
  Pr  Pr7  1  0.472282  0.299259  0.416414  1
  Pr  Pr8  1  0.940881  0.305489  0.250000  1
  Pr  Pr9  1  0.559119  0.305489  0.750000  1
  Pr  Pr10  1  0.027718  0.299259  0.583586  1
  Pr  Pr11  1  0.527718  0.700741  0.916414  1
  Ni  Ni12  1  0.327056  0.099061  0.675899  1
  Ni  Ni13  1  0.172944  0.099061  0.175899  1
  Ni  Ni14  1  0.250000  0.897676  0.500000  1
  Ni  Ni15  1  0.672944  0.900938  0.324101  1
  Ni  Ni16  1  0.672944  0.900938  0.175899  1
  Ni  Ni17  1  0.172944  0.099061  0.324101  1
  Ni  Ni18  1  0.827056  0.900938  0.824101  1
  Ni  Ni19  1  0.827056  0.900938  0.675899  1
  Ni  Ni20  1  0.327056  0.099061  0.824101  1
  Ni  Ni21  1  0.750000  0.102324  0.000000  1
  Ni  Ni22  1  0.250000  0.897676  0.000000  1
  Ni  Ni23  1  0.750000  0.102324  0.500000  1
  Sb  Sb24  1  0.973289  0.224161  0.415836  1
  Sb  Sb25  1  0.944631  0.780082  0.250000  1
  Sb  Sb26  1  0.704566  0.503523  0.334015  1
  Sb  Sb27  1  0.541126  0.974232  0.586705  1
  Sb  Sb28  1  0.183913  0.943102  0.750000  1
  Sb  Sb29  1  0.683913  0.056898  0.750000  1
  Sb  Sb30  1  0.444631  0.219918  0.250000  1
  Sb  Sb31  1  0.555369  0.780082  0.750000  1
  Sb  Sb32  1  0.316087  0.943102  0.250000  1
  Sb  Sb33  1  0.816087  0.056898  0.250000  1
  Sb  Sb34  1  0.526711  0.224161  0.915836  1
  Sb  Sb35  1  0.795434  0.503523  0.665985  1
  Sb  Sb36  1  0.204566  0.496477  0.165985  1
  Sb  Sb37  1  0.750000  0.496262  0.000000  1
  Sb  Sb38  1  0.041126  0.025768  0.586705  1
  Sb  Sb39  1  0.750000  0.496262  0.500000  1
  Sb  Sb40  1  0.055369  0.219918  0.750000  1
  Sb  Sb41  1  0.473289  0.775839  0.415836  1
  Sb  Sb42  1  0.041126  0.025768  0.913295  1
  Sb  Sb43  1  0.295434  0.496477  0.665985  1
  Sb  Sb44  1  0.704566  0.503523  0.165985  1
  Sb  Sb45  1  0.250000  0.503738  0.000000  1
  Sb  Sb46  1  0.795434  0.503523  0.834015  1
  Sb  Sb47  1  0.541126  0.974232  0.913295  1
  Sb  Sb48  1  0.473289  0.775839  0.084164  1
  Sb  Sb49  1  0.958874  0.974232  0.086705  1
  Sb  Sb50  1  0.958874  0.974232  0.413295  1
  Sb  Sb51  1  0.973289  0.224161  0.084164  1
  Sb  Sb52  1  0.458874  0.025768  0.086705  1
  Sb  Sb53  1  0.295434  0.496477  0.834015  1
  Sb  Sb54  1  0.458874  0.025768  0.413295  1
  Sb  Sb55  1  0.204566  0.496477  0.334015  1
  Sb  Sb56  1  0.526711  0.224161  0.584164  1
  Sb  Sb57  1  0.250000  0.503738  0.500000  1
  Sb  Sb58  1  0.026711  0.775839  0.915836  1
  Sb  Sb59  1  0.026711  0.775839  0.584164  1
