# generated using pymatgen
data_SrLi2Ta2O7
_symmetry_space_group_name_H-M   'P 1'
_cell_length_a   5.63089294
_cell_length_b   5.63716642
_cell_length_c   9.62729259
_cell_angle_alpha   107.02387173
_cell_angle_beta   90.00000000
_cell_angle_gamma   90.00000000
_symmetry_Int_Tables_number   1
_chemical_formula_structural   SrLi2Ta2O7
_chemical_formula_sum   'Sr2 Li4 Ta4 O14'
_cell_volume   292.20204559
_cell_formula_units_Z   2
loop_
 _symmetry_equiv_pos_site_id
 _symmetry_equiv_pos_as_xyz
  1  'x, y, z'
loop_
 _atom_site_type_symbol
 _atom_site_label
 _atom_site_symmetry_multiplicity
 _atom_site_fract_x
 _atom_site_fract_y
 _atom_site_fract_z
 _atom_site_occupancy
  Sr  Sr0  1  0.750000  0.254801  1.000000  1
  Sr  Sr1  1  0.250000  0.745199  0.000000  1
  Li  Li2  1  0.500000  0.258298  0.516596  1
  Li  Li3  1  0.500000  0.741702  0.483404  1
  Li  Li4  1  0.000000  0.741702  0.483404  1
  Li  Li5  1  0.000000  0.258298  0.516596  1
  Ta  Ta6  1  0.250000  0.362002  0.229276  1
  Ta  Ta7  1  0.250000  0.132726  0.770724  1
  Ta  Ta8  1  0.750000  0.867274  0.229276  1
  Ta  Ta9  1  0.750000  0.637998  0.770724  1
  O  O10  1  0.000000  0.096915  0.193831  1
  O  O11  1  0.750000  0.555824  0.566029  1
  O  O12  1  0.000000  0.387620  0.775240  1
  O  O13  1  0.500000  0.096915  0.193831  1
  O  O14  1  0.750000  0.989795  0.433971  1
  O  O15  1  0.000000  0.903085  0.806169  1
  O  O16  1  0.500000  0.387620  0.775240  1
  O  O17  1  0.500000  0.612380  0.224760  1
  O  O18  1  0.500000  0.903085  0.806169  1
  O  O19  1  0.250000  0.010205  0.566029  1
  O  O20  1  0.250000  0.284791  1.000000  1
  O  O21  1  0.250000  0.444176  0.433971  1
  O  O22  1  0.000000  0.612380  0.224760  1
  O  O23  1  0.750000  0.715209  0.000000  1
