# generated using pymatgen
data_CeB2ClO4
_symmetry_space_group_name_H-M   'P 1'
_cell_length_a   4.25072879
_cell_length_b   6.65973065
_cell_length_c   8.20377061
_cell_angle_alpha   81.95340257
_cell_angle_beta   89.05973421
_cell_angle_gamma   72.41313833
_symmetry_Int_Tables_number   1
_chemical_formula_structural   CeB2ClO4
_chemical_formula_sum   'Ce2 B4 Cl2 O8'
_cell_volume   219.12127596
_cell_formula_units_Z   2
loop_
 _symmetry_equiv_pos_site_id
 _symmetry_equiv_pos_as_xyz
  1  'x, y, z'
loop_
 _atom_site_type_symbol
 _atom_site_label
 _atom_site_symmetry_multiplicity
 _atom_site_fract_x
 _atom_site_fract_y
 _atom_site_fract_z
 _atom_site_occupancy
  Ce  Ce0  1  0.797572  0.965249  0.778749  1
  Ce  Ce1  1  0.202428  0.034751  0.221251  1
  B  B2  1  0.564331  0.562630  0.805268  1
  B  B3  1  0.166542  0.349231  0.851411  1
  B  B4  1  0.435669  0.437370  0.194732  1
  B  B5  1  0.833458  0.650769  0.148589  1
  Cl  Cl6  1  0.853062  0.801823  0.455980  1
  Cl  Cl7  1  0.146938  0.198177  0.544020  1
  O  O8  1  0.097345  0.465290  0.178595  1
  O  O9  1  0.478232  0.374444  0.816713  1
  O  O10  1  0.159949  0.154325  0.921420  1
  O  O11  1  0.521768  0.625556  0.183287  1
  O  O12  1  0.369729  0.763482  0.790146  1
  O  O13  1  0.630271  0.236518  0.209854  1
  O  O14  1  0.840051  0.845675  0.078580  1
  O  O15  1  0.902655  0.534710  0.821405  1
