# generated using pymatgen
data_YNbO4
_symmetry_space_group_name_H-M   'P 1'
_cell_length_a   5.14946087
_cell_length_b   5.38121601
_cell_length_c   6.60366254
_cell_angle_alpha   111.89920364
_cell_angle_beta   110.72388727
_cell_angle_gamma   95.06997054
_symmetry_Int_Tables_number   1
_chemical_formula_structural   YNbO4
_chemical_formula_sum   'Y2 Nb2 O8'
_cell_volume   153.59518267
_cell_formula_units_Z   2
loop_
 _symmetry_equiv_pos_site_id
 _symmetry_equiv_pos_as_xyz
  1  'x, y, z'
loop_
 _atom_site_type_symbol
 _atom_site_label
 _atom_site_symmetry_multiplicity
 _atom_site_fract_x
 _atom_site_fract_y
 _atom_site_fract_z
 _atom_site_occupancy
  O  O0  1  0.433498  0.221413  0.436922  1
  O  O1  1  0.003452  0.715530  0.436889  1
  O  O2  1  0.566503  0.778587  0.563077  1
  O  O3  1  0.996548  0.284470  0.563110  1
  O  O4  1  0.790106  0.131039  0.079616  1
  O  O5  1  0.289480  0.448552  0.079585  1
  O  O6  1  0.710521  0.551447  0.920414  1
  O  O7  1  0.209895  0.868961  0.920384  1
  Y  Y8  1  0.379871  0.129878  0.759732  1
  Y  Y9  1  0.620130  0.870121  0.240267  1
  Nb  Nb10  1  0.853818  0.603816  0.707589  1
  Nb  Nb11  1  0.146183  0.396184  0.292410  1
