# generated using pymatgen
data_Bi2W2O9
_symmetry_space_group_name_H-M   'P 1'
_cell_length_a   5.44997742
_cell_length_b   5.47845986
_cell_length_c   24.59469381
_cell_angle_alpha   90.00000000
_cell_angle_beta   90.00000000
_cell_angle_gamma   90.00000000
_symmetry_Int_Tables_number   1
_chemical_formula_structural   Bi2W2O9
_chemical_formula_sum   'Bi8 W8 O36'
_cell_volume   734.33564085
_cell_formula_units_Z   4
loop_
 _symmetry_equiv_pos_site_id
 _symmetry_equiv_pos_as_xyz
  1  'x, y, z'
loop_
 _atom_site_type_symbol
 _atom_site_label
 _atom_site_symmetry_multiplicity
 _atom_site_fract_x
 _atom_site_fract_y
 _atom_site_fract_z
 _atom_site_occupancy
  O  O0  1  0.427602  0.723364  0.254347  1
  O  O1  1  0.572398  0.276636  0.754347  1
  O  O2  1  0.072399  0.223364  0.254347  1
  O  O3  1  0.927602  0.776636  0.754347  1
  O  O4  1  0.719588  0.500680  0.494713  1
  O  O5  1  0.280413  0.499320  0.994713  1
  O  O6  1  0.780413  0.000680  0.494713  1
  O  O7  1  0.219586  0.999320  0.994713  1
  O  O8  1  0.780639  0.493586  0.317949  1
  O  O9  1  0.219362  0.506414  0.817949  1
  O  O10  1  0.719361  0.993586  0.317949  1
  O  O11  1  0.280639  0.006414  0.817949  1
  O  O12  1  0.073037  0.271807  0.558300  1
  O  O13  1  0.926964  0.728193  0.058300  1
  O  O14  1  0.426964  0.771806  0.558300  1
  O  O15  1  0.573036  0.228193  0.058300  1
  O  O16  1  0.258494  0.094808  0.657123  1
  O  O17  1  0.741507  0.905192  0.157123  1
  O  O18  1  0.241508  0.594808  0.657123  1
  O  O19  1  0.758493  0.405192  0.157123  1
  O  O20  1  0.758763  0.095276  0.655954  1
  O  O21  1  0.241237  0.904724  0.155954  1
  O  O22  1  0.741237  0.595276  0.655954  1
  O  O23  1  0.258764  0.404724  0.155954  1
  O  O24  1  0.436896  0.252906  0.906306  1
  O  O25  1  0.563103  0.747093  0.406306  1
  O  O26  1  0.214943  0.560849  0.471973  1
  O  O27  1  0.936898  0.247094  0.406306  1
  O  O28  1  0.785741  0.067524  0.840586  1
  O  O29  1  0.214259  0.932476  0.340586  1
  O  O30  1  0.714259  0.567524  0.840586  1
  O  O31  1  0.285740  0.432476  0.340586  1
  O  O32  1  0.714944  0.939151  0.971973  1
  O  O33  1  0.285056  0.060849  0.471973  1
  O  O34  1  0.785056  0.439151  0.971973  1
  O  O35  1  0.063103  0.752906  0.906306  1
  W  W36  1  0.998634  0.305912  0.482931  1
  W  W37  1  0.001367  0.694088  0.982931  1
  W  W38  1  0.501367  0.805912  0.482931  1
  W  W39  1  0.498634  0.194088  0.982931  1
  W  W40  1  0.501454  0.687984  0.329705  1
  W  W41  1  0.498545  0.312016  0.829705  1
  W  W42  1  0.998546  0.187984  0.329705  1
  W  W43  1  0.001455  0.812016  0.829705  1
  Bi  Bi44  1  0.522033  0.631703  0.103735  1
  Bi  Bi45  1  0.477966  0.368297  0.603735  1
  Bi  Bi46  1  0.977965  0.131703  0.103735  1
  Bi  Bi47  1  0.022034  0.868297  0.603735  1
  Bi  Bi48  1  0.022161  0.631267  0.209379  1
  Bi  Bi49  1  0.977838  0.368733  0.709379  1
  Bi  Bi50  1  0.477838  0.131267  0.209379  1
  Bi  Bi51  1  0.522163  0.868733  0.709379  1
