# generated using pymatgen
data_Y2Si2O7
_symmetry_space_group_name_H-M   'P 1'
_cell_length_a   5.11381487
_cell_length_b   7.44759333
_cell_length_c   8.13709049
_cell_angle_alpha   90.00000000
_cell_angle_beta   90.00000000
_cell_angle_gamma   107.09735625
_symmetry_Int_Tables_number   1
_chemical_formula_structural   Y2Si2O7
_chemical_formula_sum   'Y4 Si4 O14'
_cell_volume   296.21027387
_cell_formula_units_Z   2
loop_
 _symmetry_equiv_pos_site_id
 _symmetry_equiv_pos_as_xyz
  1  'x, y, z'
loop_
 _atom_site_type_symbol
 _atom_site_label
 _atom_site_symmetry_multiplicity
 _atom_site_fract_x
 _atom_site_fract_y
 _atom_site_fract_z
 _atom_site_occupancy
  Y  Y0  1  0.000000  0.000000  0.500000  1
  Y  Y1  1  0.000000  0.000000  0.000000  1
  Y  Y2  1  0.500000  0.500000  0.000000  1
  Y  Y3  1  0.500000  0.500000  0.500000  1
  Si  Si4  1  0.526638  0.106708  0.250000  1
  Si  Si5  1  0.899477  0.316425  0.750000  1
  Si  Si6  1  0.473362  0.893292  0.750000  1
  Si  Si7  1  0.100523  0.683575  0.250000  1
  O  O8  1  0.259805  0.914516  0.250000  1
  O  O9  1  0.817137  0.057942  0.250000  1
  O  O10  1  0.920784  0.671987  0.417250  1
  O  O11  1  0.314987  0.559694  0.250000  1
  O  O12  1  0.534427  0.796973  0.919587  1
  O  O13  1  0.740195  0.085484  0.750000  1
  O  O14  1  0.079216  0.328013  0.917250  1
  O  O15  1  0.685013  0.440306  0.750000  1
  O  O16  1  0.182863  0.942058  0.750000  1
  O  O17  1  0.465573  0.203027  0.080413  1
  O  O18  1  0.079216  0.328013  0.582750  1
  O  O19  1  0.534427  0.796973  0.580413  1
  O  O20  1  0.920784  0.671987  0.082750  1
  O  O21  1  0.465573  0.203027  0.419587  1
