# generated using pymatgen
data_RbNb3CuCl9
_symmetry_space_group_name_H-M   'P 1'
_cell_length_a   9.45572412
_cell_length_b   9.47459410
_cell_length_c   9.47075829
_cell_angle_alpha   119.70891638
_cell_angle_beta   95.73010143
_cell_angle_gamma   105.57744083
_symmetry_Int_Tables_number   1
_chemical_formula_structural   RbNb3CuCl9
_chemical_formula_sum   'Rb2 Nb6 Cu2 Cl18'
_cell_volume   681.81287982
_cell_formula_units_Z   2
loop_
 _symmetry_equiv_pos_site_id
 _symmetry_equiv_pos_as_xyz
  1  'x, y, z'
loop_
 _atom_site_type_symbol
 _atom_site_label
 _atom_site_symmetry_multiplicity
 _atom_site_fract_x
 _atom_site_fract_y
 _atom_site_fract_z
 _atom_site_occupancy
  Rb  Rb0  1  0.334600  0.475257  0.261230  1
  Rb  Rb1  1  0.665400  0.524743  0.738770  1
  Nb  Nb2  1  0.133205  0.897445  0.342879  1
  Nb  Nb3  1  0.862059  0.749439  0.423224  1
  Nb  Nb4  1  0.859281  0.981775  0.303475  1
  Nb  Nb5  1  0.866795  0.102555  0.657121  1
  Nb  Nb6  1  0.137941  0.250561  0.576776  1
  Nb  Nb7  1  0.140719  0.018225  0.696525  1
  Cu  Cu8  1  0.631839  0.186699  0.054827  1
  Cu  Cu9  1  0.368161  0.813301  0.945173  1
  Cl  Cl10  1  0.676070  0.427351  0.323235  1
  Cl  Cl11  1  0.669748  0.950345  0.047159  1
  Cl  Cl12  1  0.328182  0.319153  0.824377  1
  Cl  Cl13  1  0.671818  0.680847  0.175623  1
  Cl  Cl14  1  0.303238  0.764884  0.147539  1
  Cl  Cl15  1  0.678755  0.098060  0.452304  1
  Cl  Cl16  1  0.323930  0.572649  0.676765  1
  Cl  Cl17  1  0.994806  0.584708  0.228222  1
  Cl  Cl18  1  0.679509  0.823532  0.594632  1
  Cl  Cl19  1  0.696762  0.235116  0.852461  1
  Cl  Cl20  1  0.001417  0.727295  0.642900  1
  Cl  Cl21  1  0.009539  0.142851  0.916998  1
  Cl  Cl22  1  0.998583  0.272705  0.357100  1
  Cl  Cl23  1  0.320491  0.176468  0.405368  1
  Cl  Cl24  1  0.330252  0.049655  0.952841  1
  Cl  Cl25  1  0.005194  0.415292  0.771778  1
  Cl  Cl26  1  0.990461  0.857149  0.083002  1
  Cl  Cl27  1  0.321245  0.901940  0.547696  1
