# generated using pymatgen
data_Y11(Ni10C)6
_symmetry_space_group_name_H-M   'P 1'
_cell_length_a   10.80385164
_cell_length_b   10.80385151
_cell_length_c   10.80385173
_cell_angle_alpha   109.47122290
_cell_angle_beta   109.47122266
_cell_angle_gamma   109.47121618
_symmetry_Int_Tables_number   1
_chemical_formula_structural   Y11(Ni10C)6
_chemical_formula_sum   'Y11 Ni60 C6'
_cell_volume   970.76462889
_cell_formula_units_Z   1
loop_
 _symmetry_equiv_pos_site_id
 _symmetry_equiv_pos_as_xyz
  1  'x, y, z'
loop_
 _atom_site_type_symbol
 _atom_site_label
 _atom_site_symmetry_multiplicity
 _atom_site_fract_x
 _atom_site_fract_y
 _atom_site_fract_z
 _atom_site_occupancy
  Y  Y0  1  0.500000  0.000000  0.500000  1
  Y  Y1  1  0.000000  0.500000  0.500000  1
  Y  Y2  1  1.000000  1.000000  0.664080  1
  Y  Y3  1  1.000000  0.335920  0.000000  1
  Y  Y4  1  0.664080  0.000000  0.000000  1
  Y  Y5  1  0.500000  0.500000  0.000000  1
  Y  Y6  1  0.000000  0.000000  0.335920  1
  Y  Y7  1  0.664080  0.664080  0.664080  1
  Y  Y8  1  0.335920  1.000000  1.000000  1
  Y  Y9  1  0.335920  0.335920  0.335920  1
  Y  Y10  1  0.000000  0.664080  1.000000  1
  Ni  Ni11  1  0.468554  0.147563  0.320991  1
  Ni  Ni12  1  1.000000  0.857367  0.857367  1
  Ni  Ni13  1  0.531446  0.852437  0.679009  1
  Ni  Ni14  1  0.852437  0.173428  0.320991  1
  Ni  Ni15  1  0.000000  0.581890  0.233181  1
  Ni  Ni16  1  0.766819  1.000000  0.418110  1
  Ni  Ni17  1  0.679009  0.852437  0.531446  1
  Ni  Ni18  1  0.147563  0.826572  0.679009  1
  Ni  Ni19  1  0.320991  0.852437  0.173428  1
  Ni  Ni20  1  0.233181  0.000000  0.581890  1
  Ni  Ni21  1  0.826572  0.147563  0.679009  1
  Ni  Ni22  1  0.852437  0.531446  0.679009  1
  Ni  Ni23  1  0.857367  0.857367  0.000000  1
  Ni  Ni24  1  0.500000  0.750000  0.250000  1
  Ni  Ni25  1  0.766819  0.766819  0.348709  1
  Ni  Ni26  1  0.320991  0.468554  0.147563  1
  Ni  Ni27  1  0.531446  0.679009  0.852437  1
  Ni  Ni28  1  0.147563  0.468554  0.320991  1
  Ni  Ni29  1  0.173428  0.320991  0.852437  1
  Ni  Ni30  1  0.348709  0.766819  0.766819  1
  Ni  Ni31  1  0.679009  0.147563  0.826572  1
  Ni  Ni32  1  0.233181  0.233181  0.651291  1
  Ni  Ni33  1  0.320991  0.147563  0.468554  1
  Ni  Ni34  1  0.581890  0.000000  0.233181  1
  Ni  Ni35  1  0.418110  1.000000  0.766819  1
  Ni  Ni36  1  0.233181  0.651291  0.233181  1
  Ni  Ni37  1  0.000000  0.142633  0.142633  1
  Ni  Ni38  1  0.320991  0.173428  0.852437  1
  Ni  Ni39  1  1.000000  0.233181  0.581890  1
  Ni  Ni40  1  0.857367  1.000000  0.857367  1
  Ni  Ni41  1  0.581890  0.348709  0.581890  1
  Ni  Ni42  1  0.826572  0.679009  0.147563  1
  Ni  Ni43  1  0.766819  0.348709  0.766819  1
  Ni  Ni44  1  0.250000  0.500000  0.750000  1
  Ni  Ni45  1  0.679009  0.826572  0.147563  1
  Ni  Ni46  1  0.852437  0.679009  0.531446  1
  Ni  Ni47  1  0.766819  0.418110  0.000000  1
  Ni  Ni48  1  0.173428  0.852437  0.320991  1
  Ni  Ni49  1  0.250000  0.750000  0.500000  1
  Ni  Ni50  1  0.142633  0.000000  0.142633  1
  Ni  Ni51  1  0.348709  0.581890  0.581890  1
  Ni  Ni52  1  0.000000  0.766819  0.418110  1
  Ni  Ni53  1  0.581890  0.581890  0.348709  1
  Ni  Ni54  1  0.651291  0.233181  0.233181  1
  Ni  Ni55  1  0.581890  0.233181  1.000000  1
  Ni  Ni56  1  0.147563  0.679009  0.826572  1
  Ni  Ni57  1  0.418110  0.418110  0.651291  1
  Ni  Ni58  1  0.750000  0.250000  0.500000  1
  Ni  Ni59  1  0.651291  0.418110  0.418110  1
  Ni  Ni60  1  0.468554  0.320991  0.147563  1
  Ni  Ni61  1  0.418110  0.651291  0.418110  1
  Ni  Ni62  1  0.142633  0.142633  1.000000  1
  Ni  Ni63  1  0.750000  0.500000  0.250000  1
  Ni  Ni64  1  0.233181  0.581890  1.000000  1
  Ni  Ni65  1  1.000000  0.418110  0.766819  1
  Ni  Ni66  1  0.852437  0.320991  0.173428  1
  Ni  Ni67  1  0.679009  0.531446  0.852437  1
  Ni  Ni68  1  0.418110  0.766819  0.000000  1
  Ni  Ni69  1  0.147563  0.320991  0.468554  1
  Ni  Ni70  1  0.500000  0.250000  0.750000  1
  C  C71  1  0.000000  0.709603  0.709603  1
  C  C72  1  0.290397  0.290397  0.000000  1
  C  C73  1  1.000000  0.290397  0.290397  1
  C  C74  1  0.709603  0.000000  0.709603  1
  C  C75  1  0.709603  0.709603  1.000000  1
  C  C76  1  0.290397  1.000000  0.290397  1
