# generated using pymatgen
data_K2YHf(PO4)3
_symmetry_space_group_name_H-M   'P 1'
_cell_length_a   10.47077840
_cell_length_b   10.47652568
_cell_length_c   20.97800174
_cell_angle_alpha   90.07002489
_cell_angle_beta   89.99343202
_cell_angle_gamma   89.99806053
_symmetry_Int_Tables_number   1
_chemical_formula_structural   K2YHf(PO4)3
_chemical_formula_sum   'K16 Y8 Hf8 P24 O96'
_cell_volume   2301.23006860
_cell_formula_units_Z   8
loop_
 _symmetry_equiv_pos_site_id
 _symmetry_equiv_pos_as_xyz
  1  'x, y, z'
loop_
 _atom_site_type_symbol
 _atom_site_label
 _atom_site_symmetry_multiplicity
 _atom_site_fract_x
 _atom_site_fract_y
 _atom_site_fract_z
 _atom_site_occupancy
  Hf  Hf0  1  0.145817  0.140581  0.573042  1
  Hf  Hf1  1  0.356830  0.855542  0.820279  1
  Hf  Hf2  1  0.413906  0.413323  0.206795  1
  Hf  Hf3  1  0.588331  0.915839  0.541285  1
  Hf  Hf4  1  0.645763  0.358060  0.928128  1
  Hf  Hf5  1  0.856879  0.645869  0.677247  1
  Hf  Hf6  1  0.852024  0.642231  0.178097  1
  Hf  Hf7  1  0.916904  0.088703  0.293978  1
  K  K8  1  0.079661  0.435001  0.287247  1
  K  K9  1  0.072060  0.426044  0.785477  1
  K  K10  1  0.194534  0.802742  0.148209  1
  K  K11  1  0.199221  0.798010  0.649050  1
  K  K12  1  0.289678  0.192965  0.901582  1
  K  K13  1  0.310750  0.200523  0.403110  1
  K  K14  1  0.427886  0.580215  0.034713  1
  K  K15  1  0.429521  0.569338  0.527472  1
  K  K16  1  0.567373  0.061451  0.215964  1
  K  K17  1  0.566670  0.081516  0.715713  1
  K  K18  1  0.691953  0.699873  0.347298  1
  K  K19  1  0.705729  0.699430  0.853491  1
  K  K20  1  0.795533  0.305377  0.600680  1
  K  K21  1  0.804900  0.294752  0.093697  1
  K  K22  1  0.930744  0.929549  0.460150  1
  K  K23  1  0.939557  0.933253  0.965263  1
  O  O24  1  0.992794  0.915328  0.316395  1
  O  O25  1  0.989234  0.893146  0.824591  1
  O  O26  1  0.025661  0.562124  0.154393  1
  O  O27  1  0.003043  0.529858  0.645314  1
  O  O28  1  0.011272  0.708534  0.375133  1
  O  O29  1  0.024211  0.667885  0.864239  1
  O  O30  1  0.061396  0.192952  0.487264  1
  O  O31  1  0.022978  0.212017  0.997385  1
  O  O32  1  0.073050  0.333268  0.124062  1
  O  O33  1  0.077571  0.310609  0.612241  1
  O  O34  1  0.090721  0.155526  0.257132  1
  O  O35  1  0.103347  0.154097  0.755855  1
  O  O36  1  0.156009  0.516394  0.055021  1
  O  O37  1  0.149549  0.505212  0.549537  1
  O  O38  1  0.165997  0.761667  0.283854  1
  O  O39  1  0.188586  0.768026  0.789928  1
  O  O40  1  0.206160  0.996690  0.010005  1
  O  O41  1  0.207935  0.972736  0.531942  1
  O  O42  1  0.204607  0.747470  0.493516  1
  O  O43  1  0.174301  0.765311  0.989302  1
  O  O44  1  0.233251  0.071972  0.167534  1
  O  O45  1  0.228621  0.084176  0.658594  1
  O  O46  1  0.238136  0.517465  0.392232  1
  O  O47  1  0.271018  0.527285  0.914831  1
  O  O48  1  0.247568  0.481491  0.164706  1
  O  O49  1  0.231785  0.471620  0.661543  1
  O  O50  1  0.268544  0.928175  0.417527  1
  O  O51  1  0.264291  0.909042  0.902766  1
  O  O52  1  0.305910  0.257692  0.236113  1
  O  O53  1  0.327960  0.235302  0.740929  1
  O  O54  1  0.298840  0.039856  0.282773  1
  O  O55  1  0.294452  0.006604  0.766620  1
  O  O56  1  0.324786  0.244752  0.034452  1
  O  O57  1  0.317547  0.221899  0.545905  1
  O  O58  1  0.367811  0.490629  0.292661  1
  O  O59  1  0.348358  0.488939  0.802426  1
  O  O60  1  0.398584  0.850830  0.999438  1
  O  O61  1  0.414889  0.857360  0.507088  1
  O  O62  1  0.423265  0.668518  0.369981  1
  O  O63  1  0.422719  0.686500  0.862020  1
  O  O64  1  0.455462  0.790101  0.237417  1
  O  O65  1  0.467202  0.803325  0.741648  1
  O  O66  1  0.467524  0.327179  0.122416  1
  O  O67  1  0.485162  0.298075  0.626014  1
  O  O68  1  0.497069  0.469931  0.897893  1
  O  O69  1  0.463367  0.438900  0.400411  1
  O  O70  1  0.507668  0.108312  0.077482  1
  O  O71  1  0.511939  0.086228  0.571639  1
  O  O72  1  0.492170  0.581663  0.176905  1
  O  O73  1  0.486794  0.612089  0.668199  1
  O  O74  1  0.542958  0.934477  0.348689  1
  O  O75  1  0.502617  0.969296  0.853880  1
  O  O76  1  0.512496  0.793517  0.122579  1
  O  O77  1  0.534168  0.835854  0.628704  1
  O  O78  1  0.553513  0.306958  0.011957  1
  O  O79  1  0.535690  0.291974  0.510138  1
  O  O80  1  0.578177  0.165110  0.381383  1
  O  O81  1  0.575161  0.188292  0.888507  1
  O  O82  1  0.593155  0.344271  0.239789  1
  O  O83  1  0.606990  0.354402  0.745310  1
  O  O84  1  0.655439  0.991042  0.947601  1
  O  O85  1  0.651777  0.984302  0.453782  1
  O  O86  1  0.677977  0.721115  0.205746  1
  O  O87  1  0.686257  0.732441  0.707150  1
  O  O88  1  0.702461  0.519579  0.483298  1
  O  O89  1  0.712918  0.511317  0.980245  1
  O  O90  1  0.677254  0.737948  0.010544  1
  O  O91  1  0.670143  0.745020  0.516037  1
  O  O92  1  0.726383  0.430500  0.332524  1
  O  O93  1  0.733518  0.418814  0.843526  1
  O  O94  1  0.744166  0.981867  0.104851  1
  O  O95  1  0.759899  0.972611  0.581723  1
  O  O96  1  0.763774  0.023370  0.348818  1
  O  O97  1  0.727348  0.031481  0.834190  1
  O  O98  1  0.777454  0.582480  0.090613  1
  O  O99  1  0.766634  0.588291  0.593878  1
  O  O100  1  0.808983  0.247405  0.264543  1
  O  O101  1  0.832189  0.271871  0.760141  1
  O  O102  1  0.798134  0.467975  0.218835  1
  O  O103  1  0.797635  0.501325  0.735596  1
  O  O104  1  0.830307  0.251351  0.465642  1
  O  O105  1  0.810975  0.267934  0.953098  1
  O  O106  1  0.836341  0.015911  0.693844  1
  O  O107  1  0.857912  0.011164  0.208702  1
  O  O108  1  0.901175  0.660477  0.994076  1
  O  O109  1  0.895132  0.665013  0.497847  1
  O  O110  1  0.915543  0.818567  0.633726  1
  O  O111  1  0.907023  0.815446  0.140826  1
  O  O112  1  0.933469  0.703312  0.263128  1
  O  O113  1  0.973188  0.705737  0.749524  1
  O  O114  1  0.978907  0.178706  0.376391  1
  O  O115  1  0.980599  0.168410  0.882188  1
  O  O116  1  0.979014  0.030783  0.104086  1
  O  O117  1  0.983942  0.039539  0.598909  1
  O  O118  1  0.006908  0.395870  0.425035  1
  O  O119  1  1.008021  0.395840  0.919717  1
  P  P120  1  0.028592  0.771549  0.309597  1
  P  P121  1  0.044217  0.761045  0.808888  1
  P  P122  1  0.125366  0.470497  0.122655  1
  P  P123  1  0.118035  0.454608  0.616122  1
  P  P124  1  0.231200  0.128522  0.235325  1
  P  P125  1  0.236724  0.122956  0.730425  1
  P  P126  1  0.273449  0.875913  0.485898  1
  P  P127  1  0.262789  0.879315  0.975974  1
  P  P128  1  0.382141  0.543266  0.868096  1
  P  P129  1  0.373936  0.530189  0.364454  1
  P  P130  1  0.461611  0.243313  0.061087  1
  P  P131  1  0.462505  0.225364  0.563573  1
  P  P132  1  0.534109  0.722990  0.185652  1
  P  P133  1  0.544098  0.742325  0.685826  1
  P  P134  1  0.631446  0.028517  0.383294  1
  P  P135  1  0.617833  0.045245  0.882305  1
  P  P136  1  0.729913  0.373470  0.265043  1
  P  P137  1  0.740381  0.383749  0.771325  1
  P  P138  1  0.768509  0.625118  0.019203  1
  P  P139  1  0.761920  0.628620  0.522152  1
  P  P140  1  0.873231  0.960682  0.628871  1
  P  P141  1  0.871817  0.960280  0.139150  1
  P  P142  1  0.967356  0.257980  0.439209  1
  P  P143  1  0.956928  0.262736  0.937172  1
  Y  Y144  1  0.080093  0.587019  0.457140  1
  Y  Y145  1  0.084839  0.581022  0.958169  1
  Y  Y146  1  0.146737  0.151510  0.076556  1
  Y  Y147  1  0.350028  0.850104  0.325019  1
  Y  Y148  1  0.417302  0.419363  0.707642  1
  Y  Y149  1  0.581663  0.918144  0.041833  1
  Y  Y150  1  0.650009  0.348283  0.425909  1
  Y  Y151  1  0.914164  0.082395  0.789882  1
