# generated using pymatgen
data_ScH13Cl2O7
_symmetry_space_group_name_H-M   'P 1'
_cell_length_a   7.24935022
_cell_length_b   8.70099538
_cell_length_c   15.66861061
_cell_angle_alpha   90.00000000
_cell_angle_beta   90.00000000
_cell_angle_gamma   90.00000000
_symmetry_Int_Tables_number   1
_chemical_formula_structural   ScH13Cl2O7
_chemical_formula_sum   'Sc4 H52 Cl8 O28'
_cell_volume   988.32210070
_cell_formula_units_Z   4
loop_
 _symmetry_equiv_pos_site_id
 _symmetry_equiv_pos_as_xyz
  1  'x, y, z'
loop_
 _atom_site_type_symbol
 _atom_site_label
 _atom_site_symmetry_multiplicity
 _atom_site_fract_x
 _atom_site_fract_y
 _atom_site_fract_z
 _atom_site_occupancy
  Cl  Cl0  1  0.000000  0.166451  0.294481  1
  Cl  Cl1  1  0.000000  0.833549  0.705519  1
  Cl  Cl2  1  0.500000  0.666451  0.205519  1
  Cl  Cl3  1  0.500000  0.333549  0.794481  1
  Cl  Cl4  1  0.000000  0.771146  0.118968  1
  Cl  Cl5  1  0.000000  0.228854  0.881032  1
  Cl  Cl6  1  0.500000  0.271146  0.381032  1
  Cl  Cl7  1  0.500000  0.728854  0.618968  1
  Sc  Sc8  1  0.000000  0.634495  0.420446  1
  Sc  Sc9  1  0.000000  0.365505  0.579554  1
  Sc  Sc10  1  0.500000  0.134495  0.079554  1
  Sc  Sc11  1  0.500000  0.865505  0.920446  1
  O  O12  1  0.000000  0.810267  0.317436  1
  O  O13  1  0.000000  0.189733  0.682564  1
  O  O14  1  0.500000  0.310267  0.182564  1
  O  O15  1  0.500000  0.689733  0.817436  1
  O  O16  1  0.000000  0.399442  0.447900  1
  O  O17  1  0.000000  0.600558  0.552100  1
  O  O18  1  0.500000  0.899442  0.052100  1
  O  O19  1  0.500000  0.100558  0.947900  1
  O  O20  1  0.212025  0.542060  0.330616  1
  O  O21  1  0.212025  0.457940  0.669384  1
  O  O22  1  0.287975  0.042060  0.169384  1
  O  O23  1  0.287975  0.957940  0.830616  1
  O  O24  1  0.787975  0.457940  0.669384  1
  O  O25  1  0.787975  0.542060  0.330616  1
  O  O26  1  0.712025  0.957940  0.830616  1
  O  O27  1  0.712025  0.042060  0.169384  1
  O  O28  1  0.228246  0.786137  0.459734  1
  O  O29  1  0.228246  0.213864  0.540266  1
  O  O30  1  0.271754  0.286137  0.040266  1
  O  O31  1  0.271754  0.713863  0.959734  1
  O  O32  1  0.771754  0.213864  0.540266  1
  O  O33  1  0.771754  0.786137  0.459734  1
  O  O34  1  0.728246  0.713863  0.959734  1
  O  O35  1  0.728246  0.286137  0.040266  1
  O  O36  1  0.000000  0.407046  0.140474  1
  O  O37  1  0.000000  0.592954  0.859526  1
  O  O38  1  0.500000  0.907046  0.359526  1
  O  O39  1  0.500000  0.092954  0.640474  1
  H  H40  1  0.000000  0.788045  0.255438  1
  H  H41  1  0.000000  0.211955  0.744562  1
  H  H42  1  0.500000  0.288045  0.244562  1
  H  H43  1  0.500000  0.711955  0.755438  1
  H  H44  1  0.000000  0.923861  0.322979  1
  H  H45  1  0.000000  0.076139  0.677021  1
  H  H46  1  0.500000  0.423861  0.177021  1
  H  H47  1  0.500000  0.576139  0.822979  1
  H  H48  1  0.000000  0.319603  0.403198  1
  H  H49  1  0.000000  0.680397  0.596802  1
  H  H50  1  0.500000  0.819603  0.096802  1
  H  H51  1  0.500000  0.180397  0.903198  1
  H  H52  1  0.295255  0.598460  0.290892  1
  H  H53  1  0.295255  0.401540  0.709108  1
  H  H54  1  0.204745  0.098460  0.209108  1
  H  H55  1  0.204745  0.901540  0.790892  1
  H  H56  1  0.704745  0.401540  0.709108  1
  H  H57  1  0.704745  0.598460  0.290892  1
  H  H58  1  0.795255  0.901540  0.790892  1
  H  H59  1  0.795255  0.098460  0.209108  1
  H  H60  1  0.281494  0.450340  0.348864  1
  H  H61  1  0.281494  0.549660  0.651136  1
  H  H62  1  0.218506  0.950340  0.151136  1
  H  H63  1  0.218506  0.049660  0.848864  1
  H  H64  1  0.718506  0.549660  0.651136  1
  H  H65  1  0.718506  0.450340  0.348864  1
  H  H66  1  0.781494  0.049660  0.848864  1
  H  H67  1  0.781494  0.950340  0.151136  1
  H  H68  1  0.294821  0.766976  0.513571  1
  H  H69  1  0.294821  0.233024  0.486429  1
  H  H70  1  0.205179  0.266976  0.986429  1
  H  H71  1  0.205179  0.733024  0.013571  1
  H  H72  1  0.705179  0.233024  0.486429  1
  H  H73  1  0.705179  0.766976  0.513571  1
  H  H74  1  0.794821  0.733024  0.013571  1
  H  H75  1  0.794821  0.266976  0.986429  1
  H  H76  1  0.318688  0.832833  0.419315  1
  H  H77  1  0.318688  0.167167  0.580685  1
  H  H78  1  0.181312  0.332833  0.080685  1
  H  H79  1  0.181312  0.667167  0.919315  1
  H  H80  1  0.681312  0.167167  0.580685  1
  H  H81  1  0.681312  0.832833  0.419315  1
  H  H82  1  0.818688  0.667167  0.919315  1
  H  H83  1  0.818688  0.332833  0.080685  1
  H  H84  1  0.000000  0.520686  0.143847  1
  H  H85  1  0.000000  0.479314  0.856153  1
  H  H86  1  0.500000  0.020686  0.356153  1
  H  H87  1  0.500000  0.979314  0.643847  1
  H  H88  1  0.000000  0.366860  0.199412  1
  H  H89  1  0.000000  0.633140  0.800588  1
  H  H90  1  0.500000  0.866860  0.300588  1
  H  H91  1  0.500000  0.133140  0.699412  1
