# generated using pymatgen
data_SmH18(IO3)3
_symmetry_space_group_name_H-M   'P 1'
_cell_length_a   8.07613286
_cell_length_b   8.97714341
_cell_length_c   11.59979384
_cell_angle_alpha   90.00000000
_cell_angle_beta   90.00000000
_cell_angle_gamma   90.00000000
_symmetry_Int_Tables_number   1
_chemical_formula_structural   SmH18(IO3)3
_chemical_formula_sum   'Sm2 H36 I6 O18'
_cell_volume   840.99204671
_cell_formula_units_Z   2
loop_
 _symmetry_equiv_pos_site_id
 _symmetry_equiv_pos_as_xyz
  1  'x, y, z'
loop_
 _atom_site_type_symbol
 _atom_site_label
 _atom_site_symmetry_multiplicity
 _atom_site_fract_x
 _atom_site_fract_y
 _atom_site_fract_z
 _atom_site_occupancy
  Sm  Sm0  1  0.750000  0.664119  0.250000  1
  Sm  Sm1  1  0.250000  0.335881  0.750000  1
  I  I2  1  0.250000  0.828530  0.487256  1
  I  I3  1  0.750000  0.171470  0.512744  1
  I  I4  1  0.250000  0.828530  0.012744  1
  I  I5  1  0.750000  0.171470  0.987256  1
  I  I6  1  0.750000  0.693183  0.750000  1
  I  I7  1  0.250000  0.306817  0.250000  1
  O  O8  1  0.535551  0.562253  0.379222  1
  O  O9  1  0.035551  0.437747  0.620778  1
  O  O10  1  0.964449  0.562253  0.120778  1
  O  O11  1  0.464449  0.437747  0.879222  1
  O  O12  1  0.464449  0.437747  0.620778  1
  O  O13  1  0.964449  0.562253  0.379222  1
  O  O14  1  0.035551  0.437747  0.879222  1
  O  O15  1  0.535551  0.562253  0.120778  1
  O  O16  1  0.750000  0.383924  0.250000  1
  O  O17  1  0.250000  0.616076  0.750000  1
  O  O18  1  0.957201  0.870841  0.250000  1
  O  O19  1  0.457201  0.129159  0.750000  1
  O  O20  1  0.542799  0.870841  0.250000  1
  O  O21  1  0.042799  0.129159  0.750000  1
  O  O22  1  0.750000  0.795808  0.438874  1
  O  O23  1  0.250000  0.204192  0.561126  1
  O  O24  1  0.750000  0.795808  0.061126  1
  O  O25  1  0.250000  0.204192  0.938874  1
  H  H26  1  0.464777  0.480659  0.350294  1
  H  H27  1  0.964777  0.519341  0.649706  1
  H  H28  1  0.035223  0.480659  0.149706  1
  H  H29  1  0.535223  0.519341  0.850294  1
  H  H30  1  0.535223  0.519341  0.649706  1
  H  H31  1  0.035223  0.480659  0.350294  1
  H  H32  1  0.964777  0.519341  0.850294  1
  H  H33  1  0.464777  0.480659  0.149706  1
  H  H34  1  0.459838  0.630606  0.420235  1
  H  H35  1  0.959838  0.369394  0.579765  1
  H  H36  1  0.040162  0.630606  0.079765  1
  H  H37  1  0.540162  0.369394  0.920235  1
  H  H38  1  0.540162  0.369394  0.579765  1
  H  H39  1  0.040162  0.630606  0.420235  1
  H  H40  1  0.959838  0.369394  0.920235  1
  H  H41  1  0.459838  0.630606  0.079765  1
  H  H42  1  0.750000  0.318820  0.181536  1
  H  H43  1  0.250000  0.681180  0.818464  1
  H  H44  1  0.750000  0.318820  0.318464  1
  H  H45  1  0.250000  0.681180  0.681536  1
  H  H46  1  0.029591  0.883627  0.182360  1
  H  H47  1  0.529591  0.116373  0.817640  1
  H  H48  1  0.470409  0.883627  0.317640  1
  H  H49  1  0.970409  0.116373  0.682360  1
  H  H50  1  0.970409  0.116373  0.817640  1
  H  H51  1  0.470409  0.883627  0.182360  1
  H  H52  1  0.529591  0.116373  0.682360  1
  H  H53  1  0.029591  0.883627  0.317640  1
  H  H54  1  0.750000  0.904962  0.451031  1
  H  H55  1  0.250000  0.095038  0.548969  1
  H  H56  1  0.750000  0.904962  0.048969  1
  H  H57  1  0.250000  0.095038  0.951031  1
  H  H58  1  0.750000  0.751902  0.516427  1
  H  H59  1  0.250000  0.248098  0.483573  1
  H  H60  1  0.750000  0.751902  0.983573  1
  H  H61  1  0.250000  0.248098  0.016427  1
