# generated using pymatgen
data_CsAg(NO3)2
_symmetry_space_group_name_H-M   'P 1'
_cell_length_a   5.59171335
_cell_length_b   5.76187597
_cell_length_c   10.81457201
_cell_angle_alpha   105.44561619
_cell_angle_beta   93.17080422
_cell_angle_gamma   90.01304505
_symmetry_Int_Tables_number   1
_chemical_formula_structural   CsAg(NO3)2
_chemical_formula_sum   'Cs2 Ag2 N4 O12'
_cell_volume   335.29333519
_cell_formula_units_Z   2
loop_
 _symmetry_equiv_pos_site_id
 _symmetry_equiv_pos_as_xyz
  1  'x, y, z'
loop_
 _atom_site_type_symbol
 _atom_site_label
 _atom_site_symmetry_multiplicity
 _atom_site_fract_x
 _atom_site_fract_y
 _atom_site_fract_z
 _atom_site_occupancy
  Cs  Cs0  1  0.730283  0.409654  0.819200  1
  Cs  Cs1  1  0.269717  0.590346  0.180800  1
  Ag  Ag2  1  0.188246  0.820360  0.640522  1
  Ag  Ag3  1  0.811754  0.179640  0.359478  1
  N  N4  1  0.680772  0.759610  0.519237  1
  N  N5  1  0.319228  0.240390  0.480763  1
  N  N6  1  0.239856  0.960012  0.920038  1
  N  N7  1  0.760144  0.039988  0.079962  1
  O  O8  1  0.151018  0.278646  0.557167  1
  O  O9  1  0.272524  0.179999  0.360035  1
  O  O10  1  0.231410  0.737690  0.857329  1
  O  O11  1  0.744131  0.979845  0.959672  1
  O  O12  1  0.768590  0.262310  0.142671  1
  O  O13  1  0.768651  0.880364  0.142676  1
  O  O14  1  0.848982  0.721354  0.442833  1
  O  O15  1  0.231349  0.119636  0.857324  1
  O  O16  1  0.255869  0.020155  0.040328  1
  O  O17  1  0.727476  0.820001  0.639965  1
  O  O18  1  0.463521  0.737337  0.474645  1
  O  O19  1  0.536479  0.262663  0.525355  1
