# generated using pymatgen
data_Gd3Se4O12F
_symmetry_space_group_name_H-M   'P 1'
_cell_length_a   10.57446238
_cell_length_b   10.57446247
_cell_length_c   7.00864484
_cell_angle_alpha   90.00000000
_cell_angle_beta   90.00000000
_cell_angle_gamma   119.99999971
_symmetry_Int_Tables_number   1
_chemical_formula_structural   Gd3Se4O12F
_chemical_formula_sum   'Gd6 Se8 O24 F2'
_cell_volume   678.70536568
_cell_formula_units_Z   2
loop_
 _symmetry_equiv_pos_site_id
 _symmetry_equiv_pos_as_xyz
  1  'x, y, z'
loop_
 _atom_site_type_symbol
 _atom_site_label
 _atom_site_symmetry_multiplicity
 _atom_site_fract_x
 _atom_site_fract_y
 _atom_site_fract_z
 _atom_site_occupancy
  Gd  Gd0  1  0.074818  0.537409  0.415423  1
  Gd  Gd1  1  0.537409  0.462591  0.915423  1
  Gd  Gd2  1  0.537409  0.074818  0.915423  1
  Gd  Gd3  1  0.925182  0.462591  0.915423  1
  Gd  Gd4  1  0.462591  0.537409  0.415423  1
  Gd  Gd5  1  0.462591  0.925182  0.415423  1
  Se  Se6  1  0.689219  0.844609  0.648607  1
  Se  Se7  1  0.310781  0.155391  0.148607  1
  Se  Se8  1  0.333333  0.666667  0.983546  1
  Se  Se9  1  0.844609  0.155391  0.148607  1
  Se  Se10  1  0.155391  0.310781  0.648607  1
  Se  Se11  1  0.155391  0.844609  0.648607  1
  Se  Se12  1  0.666667  0.333333  0.483546  1
  Se  Se13  1  0.844609  0.689219  0.148607  1
  O  O14  1  0.918815  0.334828  0.218642  1
  O  O15  1  0.581607  0.418393  0.594019  1
  O  O16  1  0.583987  0.918815  0.718642  1
  O  O17  1  0.636150  0.818075  0.412730  1
  O  O18  1  0.665172  0.081185  0.218642  1
  O  O19  1  0.334828  0.918815  0.718642  1
  O  O20  1  0.416013  0.081185  0.218642  1
  O  O21  1  0.818075  0.636150  0.912730  1
  O  O22  1  0.665172  0.583987  0.218642  1
  O  O23  1  0.181925  0.818075  0.412730  1
  O  O24  1  0.081185  0.416013  0.718642  1
  O  O25  1  0.418393  0.581607  0.094019  1
  O  O26  1  0.581607  0.163214  0.594019  1
  O  O27  1  0.818075  0.181925  0.912730  1
  O  O28  1  0.334828  0.416013  0.718642  1
  O  O29  1  0.363850  0.181925  0.912730  1
  O  O30  1  0.418393  0.836786  0.094019  1
  O  O31  1  0.081185  0.665172  0.718642  1
  O  O32  1  0.416013  0.334828  0.218642  1
  O  O33  1  0.163214  0.581607  0.094019  1
  O  O34  1  0.583987  0.665172  0.718642  1
  O  O35  1  0.181925  0.363850  0.412730  1
  O  O36  1  0.836786  0.418393  0.594019  1
  O  O37  1  0.918815  0.583987  0.218642  1
  F  F38  1  0.333333  0.666667  0.461393  1
  F  F39  1  0.666667  0.333333  0.961393  1
