# generated using pymatgen
data_Sr4B14O25
_symmetry_space_group_name_H-M   'P 1'
_cell_length_a   7.85254543
_cell_length_b   9.12864574
_cell_length_c   14.79188563
_cell_angle_alpha   90.00000000
_cell_angle_beta   90.00000000
_cell_angle_gamma   115.47419980
_symmetry_Int_Tables_number   1
_chemical_formula_structural   Sr4B14O25
_chemical_formula_sum   'Sr8 B28 O50'
_cell_volume   957.24217349
_cell_formula_units_Z   2
loop_
 _symmetry_equiv_pos_site_id
 _symmetry_equiv_pos_as_xyz
  1  'x, y, z'
loop_
 _atom_site_type_symbol
 _atom_site_label
 _atom_site_symmetry_multiplicity
 _atom_site_fract_x
 _atom_site_fract_y
 _atom_site_fract_z
 _atom_site_occupancy
  Sr  Sr0  1  0.430076  0.860152  0.242299  1
  Sr  Sr1  1  0.804758  0.609516  0.921482  1
  Sr  Sr2  1  0.823755  0.647510  0.334074  1
  Sr  Sr3  1  0.944251  0.888503  0.655529  1
  Sr  Sr4  1  0.569924  0.139848  0.742299  1
  Sr  Sr5  1  0.195242  0.390484  0.421482  1
  Sr  Sr6  1  0.176245  0.352490  0.834074  1
  Sr  Sr7  1  0.055749  0.111497  0.155529  1
  B  B8  1  0.985748  0.435269  0.054278  1
  B  B9  1  0.021829  0.693693  0.132162  1
  B  B10  1  0.165798  0.989327  0.867157  1
  B  B11  1  0.014252  0.564731  0.554278  1
  B  B12  1  0.771931  0.208431  0.956185  1
  B  B13  1  0.718412  0.940812  0.026754  1
  B  B14  1  0.834202  0.010673  0.367157  1
  B  B15  1  0.403310  0.469646  0.219449  1
  B  B16  1  0.222400  0.940812  0.026754  1
  B  B17  1  0.563500  0.791569  0.456185  1
  B  B18  1  0.671865  0.693693  0.132162  1
  B  B19  1  0.066335  0.469646  0.219449  1
  B  B20  1  0.436500  0.208431  0.956185  1
  B  B21  1  0.777600  0.059188  0.526754  1
  B  B22  1  0.782866  0.236025  0.290452  1
  B  B23  1  0.453160  0.236025  0.290452  1
  B  B24  1  0.978171  0.306307  0.632162  1
  B  B25  1  0.449521  0.435269  0.054278  1
  B  B26  1  0.933665  0.530354  0.719449  1
  B  B27  1  0.596690  0.530354  0.719449  1
  B  B28  1  0.176471  0.010673  0.367157  1
  B  B29  1  0.281588  0.059188  0.526754  1
  B  B30  1  0.823529  0.989327  0.867157  1
  B  B31  1  0.550479  0.564731  0.554278  1
  B  B32  1  0.546840  0.763975  0.790452  1
  B  B33  1  0.217134  0.763975  0.790452  1
  B  B34  1  0.228069  0.791569  0.456185  1
  B  B35  1  0.328135  0.306307  0.632162  1
  O  O36  1  0.731244  0.881775  0.784742  1
  O  O37  1  0.146358  0.292717  0.664889  1
  O  O38  1  0.224901  0.449802  0.260364  1
  O  O39  1  0.223243  0.872622  0.370656  1
  O  O40  1  0.898561  0.398198  0.286270  1
  O  O41  1  0.992687  0.628978  0.635212  1
  O  O42  1  0.499637  0.398198  0.286270  1
  O  O43  1  0.357599  0.096717  0.033661  1
  O  O44  1  0.636291  0.628978  0.635212  1
  O  O45  1  0.025473  0.050945  0.856441  1
  O  O46  1  0.012821  0.413557  0.552231  1
  O  O47  1  0.829160  0.139732  0.608773  1
  O  O48  1  0.894703  0.362102  0.706172  1
  O  O49  1  0.387934  0.352727  0.972995  1
  O  O50  1  0.739118  0.096717  0.033661  1
  O  O51  1  0.642401  0.903283  0.533661  1
  O  O52  1  0.268756  0.118225  0.284742  1
  O  O53  1  0.400736  0.413557  0.552231  1
  O  O54  1  0.987179  0.586443  0.052231  1
  O  O55  1  0.412193  0.824387  0.799490  1
  O  O56  1  0.467399  0.362102  0.706172  1
  O  O57  1  0.689429  0.860268  0.108773  1
  O  O58  1  0.252311  0.122685  0.446554  1
  O  O59  1  0.641179  0.282358  0.951028  1
  O  O60  1  0.500363  0.601802  0.786270  1
  O  O61  1  0.974527  0.949055  0.356441  1
  O  O62  1  0.350621  0.127378  0.870656  1
  O  O63  1  0.587807  0.175613  0.299490  1
  O  O64  1  0.532601  0.637898  0.206172  1
  O  O65  1  0.849469  0.118225  0.284742  1
  O  O66  1  0.105297  0.637898  0.206172  1
  O  O67  1  0.150531  0.881775  0.784742  1
  O  O68  1  0.776757  0.127378  0.870656  1
  O  O69  1  0.853642  0.707283  0.164889  1
  O  O70  1  0.007313  0.371022  0.135213  1
  O  O71  1  0.599264  0.586443  0.052231  1
  O  O72  1  0.964792  0.352727  0.972995  1
  O  O73  1  0.260882  0.903283  0.533661  1
  O  O74  1  0.363709  0.371022  0.135213  1
  O  O75  1  0.170840  0.860268  0.108773  1
  O  O76  1  0.129626  0.877315  0.946554  1
  O  O77  1  0.035208  0.647273  0.472995  1
  O  O78  1  0.612066  0.647273  0.472995  1
  O  O79  1  0.747689  0.877315  0.946554  1
  O  O80  1  0.310571  0.139732  0.608773  1
  O  O81  1  0.358821  0.717642  0.451028  1
  O  O82  1  0.870374  0.122685  0.446554  1
  O  O83  1  0.775099  0.550198  0.760364  1
  O  O84  1  0.649379  0.872622  0.370656  1
  O  O85  1  0.101439  0.601802  0.786270  1
