# generated using pymatgen
data_K2BeH4(SO5)2
_symmetry_space_group_name_H-M   'P 1'
_cell_length_a   7.40102157
_cell_length_b   11.22292797
_cell_length_c   11.72172640
_cell_angle_alpha   90.00000000
_cell_angle_beta   90.00000000
_cell_angle_gamma   95.56908734
_symmetry_Int_Tables_number   1
_chemical_formula_structural   K2BeH4(SO5)2
_chemical_formula_sum   'K8 Be4 H16 S8 O40'
_cell_volume   969.02428386
_cell_formula_units_Z   4
loop_
 _symmetry_equiv_pos_site_id
 _symmetry_equiv_pos_as_xyz
  1  'x, y, z'
loop_
 _atom_site_type_symbol
 _atom_site_label
 _atom_site_symmetry_multiplicity
 _atom_site_fract_x
 _atom_site_fract_y
 _atom_site_fract_z
 _atom_site_occupancy
  S  S0  1  0.249308  0.127361  0.053215  1
  S  S1  1  0.250692  0.872639  0.553215  1
  S  S2  1  0.750692  0.872639  0.946785  1
  S  S3  1  0.749308  0.127361  0.446785  1
  S  S4  1  0.175674  0.634178  0.114757  1
  S  S5  1  0.324326  0.365822  0.614757  1
  S  S6  1  0.824326  0.365822  0.885243  1
  S  S7  1  0.675674  0.634178  0.385243  1
  K  K8  1  0.019529  0.908657  0.240599  1
  K  K9  1  0.480471  0.091343  0.740599  1
  K  K10  1  0.980471  0.091343  0.759401  1
  K  K11  1  0.519529  0.908657  0.259401  1
  K  K12  1  0.683428  0.607386  0.096645  1
  K  K13  1  0.816572  0.392614  0.596645  1
  K  K14  1  0.316572  0.392614  0.903355  1
  K  K15  1  0.183428  0.607386  0.403355  1
  Be  Be16  1  0.911087  0.236334  0.081914  1
  Be  Be17  1  0.588913  0.763666  0.581914  1
  Be  Be18  1  0.088913  0.763666  0.918086  1
  Be  Be19  1  0.411087  0.236334  0.418086  1
  O  O20  1  0.247193  0.135007  0.927956  1
  O  O21  1  0.252807  0.864993  0.427956  1
  O  O22  1  0.752807  0.864993  0.072044  1
  O  O23  1  0.747193  0.135007  0.572044  1
  O  O24  1  0.300715  0.008807  0.091903  1
  O  O25  1  0.199285  0.991193  0.591903  1
  O  O26  1  0.699285  0.991193  0.908097  1
  O  O27  1  0.800715  0.008807  0.408097  1
  O  O28  1  0.379220  0.225922  0.100694  1
  O  O29  1  0.120780  0.774078  0.600694  1
  O  O30  1  0.620780  0.774078  0.899306  1
  O  O31  1  0.879220  0.225922  0.399306  1
  O  O32  1  0.062379  0.139697  0.102021  1
  O  O33  1  0.437621  0.860303  0.602021  1
  O  O34  1  0.937621  0.860303  0.897979  1
  O  O35  1  0.562379  0.139697  0.397979  1
  O  O36  1  0.313823  0.577325  0.049710  1
  O  O37  1  0.186177  0.422675  0.549710  1
  O  O38  1  0.686177  0.422675  0.950290  1
  O  O39  1  0.813823  0.577325  0.450290  1
  O  O40  1  0.257449  0.732150  0.188247  1
  O  O41  1  0.242551  0.267850  0.688247  1
  O  O42  1  0.742551  0.267850  0.811753  1
  O  O43  1  0.757449  0.732150  0.311753  1
  O  O44  1  0.060848  0.546723  0.185822  1
  O  O45  1  0.439152  0.453277  0.685822  1
  O  O46  1  0.939152  0.453277  0.814178  1
  O  O47  1  0.560848  0.546723  0.314178  1
  O  O48  1  0.043480  0.686588  0.031819  1
  O  O49  1  0.456520  0.313412  0.531819  1
  O  O50  1  0.956520  0.313412  0.968181  1
  O  O51  1  0.543480  0.686588  0.468181  1
  O  O52  1  0.902048  0.327730  0.189627  1
  O  O53  1  0.597952  0.672270  0.689627  1
  O  O54  1  0.097952  0.672270  0.810373  1
  O  O55  1  0.402048  0.327730  0.310373  1
  O  O56  1  0.715362  0.152024  0.080822  1
  O  O57  1  0.784638  0.847976  0.580822  1
  O  O58  1  0.284638  0.847976  0.919178  1
  O  O59  1  0.215362  0.152024  0.419178  1
  H  H60  1  0.971085  0.409464  0.186519  1
  H  H61  1  0.528915  0.590536  0.686519  1
  H  H62  1  0.028915  0.590536  0.813481  1
  H  H63  1  0.471085  0.409464  0.313481  1
  H  H64  1  0.891605  0.296064  0.268947  1
  H  H65  1  0.608395  0.703936  0.768947  1
  H  H66  1  0.108395  0.703936  0.731053  1
  H  H67  1  0.391605  0.296064  0.231053  1
  H  H68  1  0.597368  0.188276  0.087517  1
  H  H69  1  0.902632  0.811724  0.587517  1
  H  H70  1  0.402632  0.811724  0.912483  1
  H  H71  1  0.097368  0.188276  0.412483  1
  H  H72  1  0.702309  0.090476  0.018619  1
  H  H73  1  0.797691  0.909524  0.518619  1
  H  H74  1  0.297691  0.909524  0.981381  1
  H  H75  1  0.202309  0.090476  0.481381  1
