# generated using pymatgen
data_LaP5O14
_symmetry_space_group_name_H-M   'P 1'
_cell_length_a   8.92581039
_cell_length_b   9.27574399
_cell_length_c   13.25470078
_cell_angle_alpha   90.00000000
_cell_angle_beta   90.55523889
_cell_angle_gamma   90.00000000
_symmetry_Int_Tables_number   1
_chemical_formula_structural   LaP5O14
_chemical_formula_sum   'La4 P20 O56'
_cell_volume   1097.35196547
_cell_formula_units_Z   4
loop_
 _symmetry_equiv_pos_site_id
 _symmetry_equiv_pos_as_xyz
  1  'x, y, z'
loop_
 _atom_site_type_symbol
 _atom_site_label
 _atom_site_symmetry_multiplicity
 _atom_site_fract_x
 _atom_site_fract_y
 _atom_site_fract_z
 _atom_site_occupancy
  La  La0  1  0.223743  0.312078  0.001498  1
  La  La1  1  0.776257  0.812078  0.498502  1
  La  La2  1  0.776257  0.687922  0.998502  1
  La  La3  1  0.223743  0.187922  0.501498  1
  P  P4  1  0.274816  0.949395  0.837714  1
  P  P5  1  0.507205  0.997354  0.677375  1
  P  P6  1  0.009174  0.506959  0.205935  1
  P  P7  1  0.253814  0.546593  0.663604  1
  P  P8  1  0.492795  0.497354  0.822625  1
  P  P9  1  0.746186  0.453407  0.336396  1
  P  P10  1  0.990826  0.006959  0.294065  1
  P  P11  1  0.725184  0.050605  0.162286  1
  P  P12  1  0.507205  0.502646  0.177375  1
  P  P13  1  0.253814  0.953407  0.163604  1
  P  P14  1  0.186709  0.748213  0.999713  1
  P  P15  1  0.746186  0.046593  0.836396  1
  P  P16  1  0.274816  0.550605  0.337714  1
  P  P17  1  0.813291  0.251787  0.000287  1
  P  P18  1  0.813291  0.248213  0.500287  1
  P  P19  1  0.186709  0.751787  0.499713  1
  P  P20  1  0.009174  0.993041  0.705935  1
  P  P21  1  0.492795  0.002646  0.322625  1
  P  P22  1  0.725184  0.449395  0.662286  1
  P  P23  1  0.990826  0.493041  0.794065  1
  O  O24  1  0.421865  0.379984  0.882031  1
  O  O25  1  0.086777  0.112279  0.652637  1
  O  O26  1  0.918019  0.882577  0.651799  1
  O  O27  1  0.294297  0.681796  0.412637  1
  O  O28  1  0.785922  0.409857  0.001123  1
  O  O29  1  0.635696  0.078943  0.745738  1
  O  O30  1  0.966651  0.188180  0.006883  1
  O  O31  1  0.279931  0.410177  0.608998  1
  O  O32  1  0.966651  0.311820  0.506883  1
  O  O33  1  0.091063  0.931911  0.206566  1
  O  O34  1  0.705703  0.181796  0.087363  1
  O  O35  1  0.411114  0.918110  0.765999  1
  O  O36  1  0.364304  0.578943  0.754262  1
  O  O37  1  0.588886  0.081890  0.234001  1
  O  O38  1  0.081981  0.382577  0.848201  1
  O  O39  1  0.869932  0.404165  0.725141  1
  O  O40  1  0.635696  0.421057  0.245738  1
  O  O41  1  0.729055  0.906305  0.115606  1
  O  O42  1  0.294297  0.818204  0.912637  1
  O  O43  1  0.582492  0.886909  0.371917  1
  O  O44  1  0.214078  0.590143  0.998877  1
  O  O45  1  0.908937  0.068089  0.793434  1
  O  O46  1  0.869932  0.095835  0.225141  1
  O  O47  1  0.279931  0.089823  0.108998  1
  O  O48  1  0.270945  0.406305  0.384394  1
  O  O49  1  0.724766  0.311241  0.400428  1
  O  O50  1  0.913223  0.612279  0.847363  1
  O  O51  1  0.033349  0.688180  0.493117  1
  O  O52  1  0.785922  0.090143  0.501123  1
  O  O53  1  0.270945  0.093695  0.884394  1
  O  O54  1  0.091063  0.568089  0.706566  1
  O  O55  1  0.417508  0.386909  0.128083  1
  O  O56  1  0.724766  0.188759  0.900428  1
  O  O57  1  0.275234  0.811241  0.099572  1
  O  O58  1  0.214078  0.909857  0.498877  1
  O  O59  1  0.130068  0.904165  0.774859  1
  O  O60  1  0.578135  0.620016  0.117969  1
  O  O61  1  0.720069  0.589823  0.391002  1
  O  O62  1  0.417508  0.113091  0.628083  1
  O  O63  1  0.364304  0.921057  0.254262  1
  O  O64  1  0.705703  0.318204  0.587363  1
  O  O65  1  0.033349  0.811820  0.993117  1
  O  O66  1  0.582492  0.613091  0.871917  1
  O  O67  1  0.086777  0.387721  0.152637  1
  O  O68  1  0.918019  0.617423  0.151799  1
  O  O69  1  0.913223  0.887721  0.347363  1
  O  O70  1  0.411114  0.581890  0.265999  1
  O  O71  1  0.588886  0.418110  0.734001  1
  O  O72  1  0.130068  0.595835  0.274859  1
  O  O73  1  0.081981  0.117423  0.348201  1
  O  O74  1  0.720069  0.910177  0.891002  1
  O  O75  1  0.578135  0.879984  0.617969  1
  O  O76  1  0.275234  0.688759  0.599572  1
  O  O77  1  0.908937  0.431911  0.293434  1
  O  O78  1  0.729055  0.593695  0.615606  1
  O  O79  1  0.421865  0.120016  0.382031  1
