# generated using pymatgen
data_Rb2NaAl6F21
_symmetry_space_group_name_H-M   'P 1'
_cell_length_a   7.07552161
_cell_length_b   7.07552153
_cell_length_c   10.35445505
_cell_angle_alpha   70.06415442
_cell_angle_beta   70.06415463
_cell_angle_gamma   60.05992153
_symmetry_Int_Tables_number   1
_chemical_formula_structural   Rb2NaAl6F21
_chemical_formula_sum   'Rb2 Na1 Al6 F21'
_cell_volume   412.89336543
_cell_formula_units_Z   1
loop_
 _symmetry_equiv_pos_site_id
 _symmetry_equiv_pos_as_xyz
  1  'x, y, z'
loop_
 _atom_site_type_symbol
 _atom_site_label
 _atom_site_symmetry_multiplicity
 _atom_site_fract_x
 _atom_site_fract_y
 _atom_site_fract_z
 _atom_site_occupancy
  Rb  Rb0  1  0.865837  0.863102  0.406492  1
  Rb  Rb1  1  0.136898  0.134163  0.593508  1
  Na  Na2  1  0.485923  0.514077  0.500000  1
  Al  Al3  1  0.543461  0.085230  0.807876  1
  Al  Al4  1  0.914770  0.456539  0.192124  1
  Al  Al5  1  0.041000  0.583949  0.810014  1
  Al  Al6  1  0.539121  0.588437  0.809234  1
  Al  Al7  1  0.411563  0.460879  0.190766  1
  Al  Al8  1  0.416051  0.959000  0.189986  1
  F  F9  1  0.320218  0.432900  0.375123  1
  F  F10  1  0.567100  0.679782  0.624877  1
  F  F11  1  0.834264  0.509929  0.796058  1
  F  F12  1  0.490071  0.165736  0.203942  1
  F  F13  1  0.130296  0.543627  0.171115  1
  F  F14  1  0.487135  0.042587  0.999286  1
  F  F15  1  0.243593  0.657067  0.831300  1
  F  F16  1  0.862827  0.404616  0.377964  1
  F  F17  1  0.124446  0.167617  0.188083  1
  F  F18  1  0.249544  0.291412  0.813949  1
  F  F19  1  0.342933  0.756407  0.168700  1
  F  F20  1  0.507279  0.492721  1.000000  1
  F  F21  1  0.120888  0.649705  0.625587  1
  F  F22  1  0.698076  0.374230  0.205187  1
  F  F23  1  0.595384  0.137173  0.622036  1
  F  F24  1  0.708588  0.750456  0.186051  1
  F  F25  1  0.456373  0.869704  0.828885  1
  F  F26  1  0.625770  0.301924  0.794813  1
  F  F27  1  0.832383  0.875554  0.811917  1
  F  F28  1  0.957413  0.512865  0.000714  1
  F  F29  1  0.350295  0.879112  0.374413  1
