# generated using pymatgen
data_SINOF2
_symmetry_space_group_name_H-M   'P 1'
_cell_length_a   5.06503676
_cell_length_b   11.35227434
_cell_length_c   18.77271801
_cell_angle_alpha   90.00000000
_cell_angle_beta   90.00000000
_cell_angle_gamma   99.55824516
_symmetry_Int_Tables_number   1
_chemical_formula_structural   SINOF2
_chemical_formula_sum   'S8 I8 N8 O8 F16'
_cell_volume   1064.44007781
_cell_formula_units_Z   8
loop_
 _symmetry_equiv_pos_site_id
 _symmetry_equiv_pos_as_xyz
  1  'x, y, z'
loop_
 _atom_site_type_symbol
 _atom_site_label
 _atom_site_symmetry_multiplicity
 _atom_site_fract_x
 _atom_site_fract_y
 _atom_site_fract_z
 _atom_site_occupancy
  S  S0  1  0.298108  0.169227  0.904655  1
  S  S1  1  0.917588  0.606750  0.903058  1
  S  S2  1  0.917588  0.106750  0.596942  1
  S  S3  1  0.082412  0.893250  0.403058  1
  S  S4  1  0.082412  0.393250  0.096942  1
  S  S5  1  0.298108  0.669227  0.595345  1
  S  S6  1  0.701892  0.330773  0.404655  1
  S  S7  1  0.701892  0.830773  0.095345  1
  I  I8  1  0.125465  0.896155  0.851125  1
  I  I9  1  0.374969  0.357420  0.246351  1
  I  I10  1  0.625031  0.142580  0.746351  1
  I  I11  1  0.125465  0.396155  0.648875  1
  I  I12  1  0.374969  0.857420  0.253649  1
  I  I13  1  0.874535  0.603845  0.351125  1
  I  I14  1  0.625031  0.642580  0.753649  1
  I  I15  1  0.874535  0.103845  0.148875  1
  N  N16  1  0.334561  0.081799  0.847292  1
  N  N17  1  0.112469  0.805597  0.345061  1
  N  N18  1  0.887531  0.194403  0.654939  1
  N  N19  1  0.665439  0.418201  0.347292  1
  N  N20  1  0.112469  0.305597  0.154939  1
  N  N21  1  0.887531  0.694403  0.845061  1
  N  N22  1  0.665439  0.918201  0.152708  1
  N  N23  1  0.334561  0.581799  0.652708  1
  O  O24  1  0.583618  0.208375  0.400910  1
  O  O25  1  0.583618  0.708375  0.099090  1
  O  O26  1  0.912632  0.861019  0.462681  1
  O  O27  1  0.416382  0.291625  0.900910  1
  O  O28  1  0.912632  0.361019  0.037319  1
  O  O29  1  0.087368  0.638981  0.962681  1
  O  O30  1  0.416382  0.791625  0.599090  1
  O  O31  1  0.087368  0.138981  0.537319  1
  F  F32  1  0.633425  0.045668  0.568492  1
  F  F33  1  0.366575  0.454332  0.068492  1
  F  F34  1  0.989351  0.661921  0.576403  1
  F  F35  1  0.015088  0.014035  0.370895  1
  F  F36  1  0.984912  0.985965  0.629105  1
  F  F37  1  0.633425  0.545668  0.931508  1
  F  F38  1  0.634695  0.379805  0.481040  1
  F  F39  1  0.365305  0.620195  0.518960  1
  F  F40  1  0.010649  0.838079  0.076403  1
  F  F41  1  0.010649  0.338079  0.423597  1
  F  F42  1  0.984912  0.485965  0.870895  1
  F  F43  1  0.366575  0.954332  0.431508  1
  F  F44  1  0.365305  0.120195  0.981040  1
  F  F45  1  0.015088  0.514035  0.129105  1
  F  F46  1  0.634695  0.879805  0.018960  1
  F  F47  1  0.989351  0.161921  0.923597  1
