# generated using pymatgen
data_Yb3S4
_symmetry_space_group_name_H-M   'P 1'
_cell_length_a   4.10296344
_cell_length_b   14.03697341
_cell_length_c   11.62338587
_cell_angle_alpha   90.00000000
_cell_angle_beta   90.00000000
_cell_angle_gamma   90.00000000
_symmetry_Int_Tables_number   1
_chemical_formula_structural   Yb3S4
_chemical_formula_sum   'Yb12 S16'
_cell_volume   669.42785585
_cell_formula_units_Z   4
loop_
 _symmetry_equiv_pos_site_id
 _symmetry_equiv_pos_as_xyz
  1  'x, y, z'
loop_
 _atom_site_type_symbol
 _atom_site_label
 _atom_site_symmetry_multiplicity
 _atom_site_fract_x
 _atom_site_fract_y
 _atom_site_fract_z
 _atom_site_occupancy
  Yb  Yb0  1  0.750000  0.906366  0.887522  1
  Yb  Yb1  1  0.250000  0.093634  0.112478  1
  Yb  Yb2  1  0.750000  0.406366  0.612478  1
  Yb  Yb3  1  0.250000  0.593634  0.387522  1
  Yb  Yb4  1  0.250000  0.894656  0.546364  1
  Yb  Yb5  1  0.750000  0.105344  0.453636  1
  Yb  Yb6  1  0.250000  0.394656  0.953636  1
  Yb  Yb7  1  0.750000  0.605344  0.046364  1
  Yb  Yb8  1  0.750000  0.638416  0.708388  1
  Yb  Yb9  1  0.250000  0.361584  0.291612  1
  Yb  Yb10  1  0.750000  0.138416  0.791612  1
  Yb  Yb11  1  0.250000  0.861584  0.208388  1
  S  S12  1  0.250000  0.773304  0.796433  1
  S  S13  1  0.750000  0.226696  0.203567  1
  S  S14  1  0.250000  0.273304  0.703567  1
  S  S15  1  0.750000  0.726696  0.296433  1
  S  S16  1  0.750000  0.753803  0.476728  1
  S  S17  1  0.250000  0.246197  0.523272  1
  S  S18  1  0.750000  0.253803  0.023272  1
  S  S19  1  0.250000  0.746197  0.976728  1
  S  S20  1  0.250000  0.542199  0.613316  1
  S  S21  1  0.750000  0.457801  0.386684  1
  S  S22  1  0.250000  0.042199  0.886684  1
  S  S23  1  0.750000  0.957801  0.113316  1
  S  S24  1  0.750000  0.490614  0.858941  1
  S  S25  1  0.250000  0.509386  0.141059  1
  S  S26  1  0.750000  0.990614  0.641059  1
  S  S27  1  0.250000  0.009386  0.358941  1
