# generated using pymatgen
data_BCl
_symmetry_space_group_name_H-M   'P 1'
_cell_length_a   5.88004628
_cell_length_b   8.69072640
_cell_length_c   8.69072640
_cell_angle_alpha   90.00000000
_cell_angle_beta   90.00000000
_cell_angle_gamma   90.00000000
_symmetry_Int_Tables_number   1
_chemical_formula_structural   BCl
_chemical_formula_sum   'B8 Cl8'
_cell_volume   444.11240058
_cell_formula_units_Z   8
loop_
 _symmetry_equiv_pos_site_id
 _symmetry_equiv_pos_as_xyz
  1  'x, y, z'
loop_
 _atom_site_type_symbol
 _atom_site_label
 _atom_site_symmetry_multiplicity
 _atom_site_fract_x
 _atom_site_fract_y
 _atom_site_fract_z
 _atom_site_occupancy
  B  B0  1  0.648372  0.750000  0.152816  1
  B  B1  1  0.148372  0.152816  0.750000  1
  B  B2  1  0.148372  0.347184  0.750000  1
  B  B3  1  0.851628  0.847184  0.250000  1
  B  B4  1  0.851628  0.652816  0.250000  1
  B  B5  1  0.648372  0.750000  0.347184  1
  B  B6  1  0.351628  0.250000  0.652816  1
  B  B7  1  0.351628  0.250000  0.847184  1
  Cl  Cl8  1  0.022064  0.008837  0.250000  1
  Cl  Cl9  1  0.522064  0.250000  0.008837  1
  Cl  Cl10  1  0.522064  0.250000  0.491163  1
  Cl  Cl11  1  0.977936  0.508837  0.750000  1
  Cl  Cl12  1  0.977936  0.991163  0.750000  1
  Cl  Cl13  1  0.022064  0.491163  0.250000  1
  Cl  Cl14  1  0.477936  0.750000  0.508837  1
  Cl  Cl15  1  0.477936  0.750000  0.991163  1
