# generated using pymatgen
data_K2SnBr6
_symmetry_space_group_name_H-M   'P 1'
_cell_length_a   7.68056080
_cell_length_b   7.64554623
_cell_length_c   10.88890942
_cell_angle_alpha   90.16217277
_cell_angle_beta   90.00000000
_cell_angle_gamma   90.00000000
_symmetry_Int_Tables_number   1
_chemical_formula_structural   K2SnBr6
_chemical_formula_sum   'K4 Sn2 Br12'
_cell_volume   639.41687750
_cell_formula_units_Z   2
loop_
 _symmetry_equiv_pos_site_id
 _symmetry_equiv_pos_as_xyz
  1  'x, y, z'
loop_
 _atom_site_type_symbol
 _atom_site_label
 _atom_site_symmetry_multiplicity
 _atom_site_fract_x
 _atom_site_fract_y
 _atom_site_fract_z
 _atom_site_occupancy
  K  K0  1  0.462077  0.993343  0.250819  1
  K  K1  1  0.037923  0.493343  0.750819  1
  K  K2  1  0.962077  0.506657  0.249181  1
  K  K3  1  0.537923  0.006657  0.749181  1
  Sn  Sn4  1  0.000000  0.000000  0.000000  1
  Sn  Sn5  1  0.500000  0.500000  0.500000  1
  Br  Br6  1  0.504054  0.447926  0.259194  1
  Br  Br7  1  0.219975  0.701069  0.476416  1
  Br  Br8  1  0.004054  0.052074  0.240806  1
  Br  Br9  1  0.280025  0.201069  0.976416  1
  Br  Br10  1  0.780025  0.298931  0.523584  1
  Br  Br11  1  0.495946  0.552074  0.740806  1
  Br  Br12  1  0.297108  0.221554  0.528283  1
  Br  Br13  1  0.202892  0.721554  0.028283  1
  Br  Br14  1  0.995946  0.947926  0.759194  1
  Br  Br15  1  0.702892  0.778446  0.471717  1
  Br  Br16  1  0.719975  0.798931  0.023584  1
  Br  Br17  1  0.797108  0.278446  0.971717  1
