# generated using pymatgen
data_NiPH16NO10
_symmetry_space_group_name_H-M   'P 1'
_cell_length_a   6.08317790
_cell_length_b   6.97003157
_cell_length_c   11.24146587
_cell_angle_alpha   90.00000000
_cell_angle_beta   90.00000000
_cell_angle_gamma   90.00000000
_symmetry_Int_Tables_number   1
_chemical_formula_structural   NiPH16NO10
_chemical_formula_sum   'Ni2 P2 H32 N2 O20'
_cell_volume   476.63750098
_cell_formula_units_Z   2
loop_
 _symmetry_equiv_pos_site_id
 _symmetry_equiv_pos_as_xyz
  1  'x, y, z'
loop_
 _atom_site_type_symbol
 _atom_site_label
 _atom_site_symmetry_multiplicity
 _atom_site_fract_x
 _atom_site_fract_y
 _atom_site_fract_z
 _atom_site_occupancy
  Ni  Ni0  1  0.627661  0.000000  0.627695  1
  Ni  Ni1  1  0.372339  0.500000  0.127695  1
  O  O2  1  0.316912  0.000000  0.709126  1
  O  O3  1  0.683088  0.500000  0.209126  1
  H  H4  1  0.281706  0.000000  0.796335  1
  H  H5  1  0.718294  0.500000  0.296335  1
  H  H6  1  0.178207  0.000000  0.663169  1
  H  H7  1  0.821793  0.500000  0.163169  1
  O  O8  1  0.952077  0.000000  0.553042  1
  O  O9  1  0.047923  0.500000  0.053042  1
  H  H10  1  0.005302  0.882244  0.509143  1
  H  H11  1  0.994698  0.617756  0.009142  1
  H  H12  1  0.994698  0.382244  0.009142  1
  H  H13  1  0.005302  0.117756  0.509143  1
  O  O14  1  0.727392  0.775066  0.738045  1
  O  O15  1  0.272608  0.724934  0.238045  1
  O  O16  1  0.272608  0.275066  0.238045  1
  O  O17  1  0.727392  0.224934  0.738045  1
  H  H18  1  0.791522  0.800780  0.819478  1
  H  H19  1  0.208478  0.699220  0.319478  1
  H  H20  1  0.208478  0.300780  0.319478  1
  H  H21  1  0.791522  0.199220  0.819478  1
  H  H22  1  0.828664  0.680266  0.698316  1
  H  H23  1  0.171336  0.819734  0.198316  1
  H  H24  1  0.171336  0.180266  0.198316  1
  H  H25  1  0.828664  0.319734  0.698316  1
  O  O26  1  0.527752  0.797818  0.505484  1
  O  O27  1  0.472248  0.702182  0.005484  1
  O  O28  1  0.472248  0.297818  0.005484  1
  O  O29  1  0.527752  0.202182  0.505484  1
  H  H30  1  0.619738  0.681205  0.485678  1
  H  H31  1  0.380262  0.818795  0.985678  1
  H  H32  1  0.380262  0.181205  0.985678  1
  H  H33  1  0.619738  0.318795  0.485678  1
  H  H34  1  0.370940  0.756462  0.497406  1
  H  H35  1  0.629060  0.743538  0.997406  1
  H  H36  1  0.629060  0.256462  0.997406  1
  H  H37  1  0.370940  0.243538  0.497406  1
  P  P38  1  0.002965  0.000000  0.999391  1
  P  P39  1  0.997035  0.500000  0.499391  1
  O  O40  1  0.021461  0.000000  0.137736  1
  O  O41  1  0.978539  0.500000  0.637736  1
  O  O42  1  0.238902  0.000000  0.944320  1
  O  O43  1  0.761098  0.500000  0.444320  1
  O  O44  1  0.881078  0.816003  0.956632  1
  O  O45  1  0.118922  0.683997  0.456632  1
  O  O46  1  0.118922  0.316003  0.456632  1
  O  O47  1  0.881078  0.183997  0.956632  1
  N  N48  1  0.629784  0.000000  0.267680  1
  N  N49  1  0.370216  0.500000  0.767680  1
  H  H50  1  0.778666  0.000000  0.219202  1
  H  H51  1  0.221334  0.500000  0.719202  1
  H  H52  1  0.654115  0.000000  0.358432  1
  H  H53  1  0.345885  0.500000  0.858432  1
  H  H54  1  0.534535  0.879817  0.248595  1
  H  H55  1  0.465465  0.620183  0.748595  1
  H  H56  1  0.465465  0.379817  0.748595  1
  H  H57  1  0.534535  0.120183  0.248595  1
