# generated using pymatgen
data_Pr3BWO9
_symmetry_space_group_name_H-M   'P 1'
_cell_length_a   8.85021440
_cell_length_b   8.85021519
_cell_length_c   5.63134145
_cell_angle_alpha   90.00000000
_cell_angle_beta   90.00000000
_cell_angle_gamma   120.00000080
_symmetry_Int_Tables_number   1
_chemical_formula_structural   Pr3BWO9
_chemical_formula_sum   'Pr6 B2 W2 O18'
_cell_volume   381.98834467
_cell_formula_units_Z   2
loop_
 _symmetry_equiv_pos_site_id
 _symmetry_equiv_pos_as_xyz
  1  'x, y, z'
loop_
 _atom_site_type_symbol
 _atom_site_label
 _atom_site_symmetry_multiplicity
 _atom_site_fract_x
 _atom_site_fract_y
 _atom_site_fract_z
 _atom_site_occupancy
  Pr  Pr0  1  0.724694  0.642832  0.201589  1
  Pr  Pr1  1  0.275306  0.357168  0.701589  1
  Pr  Pr2  1  0.642832  0.918138  0.701589  1
  Pr  Pr3  1  0.918138  0.275306  0.201589  1
  Pr  Pr4  1  0.357168  0.081862  0.201589  1
  Pr  Pr5  1  0.081862  0.724694  0.701589  1
  B  B6  1  0.000000  0.000000  0.864597  1
  B  B7  1  0.000000  0.000000  0.364597  1
  W  W8  1  0.666667  0.333333  0.744311  1
  W  W9  1  0.333333  0.666667  0.244311  1
  O  O10  1  0.872477  0.825603  0.856750  1
  O  O11  1  0.046875  0.872477  0.356750  1
  O  O12  1  0.174397  0.046875  0.856750  1
  O  O13  1  0.468386  0.264240  0.541457  1
  O  O14  1  0.863065  0.480054  0.966969  1
  O  O15  1  0.735760  0.204146  0.541457  1
  O  O16  1  0.127523  0.174397  0.356750  1
  O  O17  1  0.204146  0.468386  0.041457  1
  O  O18  1  0.480054  0.616989  0.466969  1
  O  O19  1  0.795854  0.531614  0.541457  1
  O  O20  1  0.616989  0.136935  0.966969  1
  O  O21  1  0.383011  0.863065  0.466969  1
  O  O22  1  0.825603  0.953125  0.356750  1
  O  O23  1  0.519946  0.383011  0.966969  1
  O  O24  1  0.953125  0.127523  0.856750  1
  O  O25  1  0.264240  0.795854  0.041457  1
  O  O26  1  0.531614  0.735760  0.041457  1
  O  O27  1  0.136935  0.519946  0.466969  1
