# generated using pymatgen
data_KFePO4
_symmetry_space_group_name_H-M   'P 1'
_cell_length_a   8.84079355
_cell_length_b   9.87956684
_cell_length_c   11.05202225
_cell_angle_alpha   115.90576926
_cell_angle_beta   90.00000000
_cell_angle_gamma   90.00000000
_symmetry_Int_Tables_number   1
_chemical_formula_structural   KFePO4
_chemical_formula_sum   'K8 Fe8 P8 O32'
_cell_volume   868.31785207
_cell_formula_units_Z   8
loop_
 _symmetry_equiv_pos_site_id
 _symmetry_equiv_pos_as_xyz
  1  'x, y, z'
loop_
 _atom_site_type_symbol
 _atom_site_label
 _atom_site_symmetry_multiplicity
 _atom_site_fract_x
 _atom_site_fract_y
 _atom_site_fract_z
 _atom_site_occupancy
  K  K0  1  0.003429  0.808318  0.341090  1
  K  K1  1  0.525737  0.231844  0.169289  1
  K  K2  1  0.996571  0.191682  0.658910  1
  K  K3  1  0.503429  0.691682  0.158910  1
  K  K4  1  0.496571  0.308318  0.841090  1
  K  K5  1  0.474263  0.768156  0.830711  1
  K  K6  1  0.974263  0.731844  0.669289  1
  K  K7  1  0.025737  0.268156  0.330711  1
  Fe  Fe8  1  0.875762  0.405521  0.058553  1
  Fe  Fe9  1  0.375762  0.094479  0.441447  1
  Fe  Fe10  1  0.347978  0.607127  0.455508  1
  Fe  Fe11  1  0.624238  0.905521  0.558553  1
  Fe  Fe12  1  0.152022  0.107127  0.955508  1
  Fe  Fe13  1  0.847978  0.892873  0.044492  1
  Fe  Fe14  1  0.652022  0.392873  0.544492  1
  Fe  Fe15  1  0.124238  0.594479  0.941447  1
  P  P16  1  0.807048  0.546804  0.852712  1
  P  P17  1  0.307048  0.953196  0.647288  1
  P  P18  1  0.283000  0.431774  0.629130  1
  P  P19  1  0.783000  0.068226  0.870870  1
  P  P20  1  0.692952  0.046804  0.352712  1
  P  P21  1  0.217000  0.931774  0.129130  1
  P  P22  1  0.192952  0.453196  0.147288  1
  P  P23  1  0.717000  0.568226  0.370870  1
  O  O24  1  0.207617  0.452439  0.762766  1
  O  O25  1  0.422444  0.815054  0.596540  1
  O  O26  1  0.608600  0.926355  0.384738  1
  O  O27  1  0.391400  0.073645  0.615262  1
  O  O28  1  0.155977  0.905699  0.574957  1
  O  O29  1  0.655977  0.594301  0.925043  1
  O  O30  1  0.042059  0.936625  0.148607  1
  O  O31  1  0.234714  0.561800  0.593370  1
  O  O32  1  0.108600  0.573645  0.115262  1
  O  O33  1  0.957941  0.063375  0.851393  1
  O  O34  1  0.457941  0.436625  0.648607  1
  O  O35  1  0.296828  0.013635  0.802326  1
  O  O36  1  0.734714  0.938200  0.906630  1
  O  O37  1  0.844023  0.094301  0.425043  1
  O  O38  1  0.796828  0.486365  0.697674  1
  O  O39  1  0.922444  0.684946  0.903460  1
  O  O40  1  0.577556  0.184946  0.403460  1
  O  O41  1  0.792383  0.547561  0.237234  1
  O  O42  1  0.265286  0.061800  0.093370  1
  O  O43  1  0.268246  0.778047  0.015607  1
  O  O44  1  0.542059  0.563375  0.351393  1
  O  O45  1  0.891400  0.426355  0.884738  1
  O  O46  1  0.707617  0.047561  0.737234  1
  O  O47  1  0.344023  0.405699  0.074957  1
  O  O48  1  0.731754  0.221953  0.984393  1
  O  O49  1  0.703172  0.986365  0.197674  1
  O  O50  1  0.768246  0.721953  0.484393  1
  O  O51  1  0.203172  0.513635  0.302326  1
  O  O52  1  0.077556  0.315054  0.096540  1
  O  O53  1  0.292383  0.952439  0.262766  1
  O  O54  1  0.765286  0.438200  0.406630  1
  O  O55  1  0.231754  0.278047  0.515607  1
