# generated using pymatgen
data_KEu(PO3)4
_symmetry_space_group_name_H-M   'P 1'
_cell_length_a   7.34365257
_cell_length_b   8.09217406
_cell_length_c   8.54455642
_cell_angle_alpha   90.00000000
_cell_angle_beta   90.00000000
_cell_angle_gamma   91.79674784
_symmetry_Int_Tables_number   1
_chemical_formula_structural   KEu(PO3)4
_chemical_formula_sum   'K2 Eu2 P8 O24'
_cell_volume   507.52014152
_cell_formula_units_Z   2
loop_
 _symmetry_equiv_pos_site_id
 _symmetry_equiv_pos_as_xyz
  1  'x, y, z'
loop_
 _atom_site_type_symbol
 _atom_site_label
 _atom_site_symmetry_multiplicity
 _atom_site_fract_x
 _atom_site_fract_y
 _atom_site_fract_z
 _atom_site_occupancy
  Eu  Eu0  1  0.765581  0.756618  0.747559  1
  Eu  Eu1  1  0.234419  0.243382  0.247559  1
  K  K2  1  0.273822  0.719449  0.554637  1
  K  K3  1  0.726178  0.280551  0.054637  1
  P  P4  1  0.564776  0.900860  0.124710  1
  P  P5  1  0.435224  0.099140  0.624710  1
  P  P6  1  0.377123  0.603300  0.993666  1
  P  P7  1  0.102535  0.104468  0.826413  1
  P  P8  1  0.897465  0.895532  0.326413  1
  P  P9  1  0.997841  0.618686  0.099977  1
  P  P10  1  0.002159  0.381314  0.599977  1
  P  P11  1  0.622877  0.396700  0.493666  1
  O  O12  1  0.562855  0.960999  0.656615  1
  O  O13  1  0.314301  0.130403  0.779557  1
  O  O14  1  0.537638  0.349737  0.339507  1
  O  O15  1  0.462362  0.650263  0.839507  1
  O  O16  1  0.990438  0.215607  0.704098  1
  O  O17  1  0.316937  0.074670  0.482788  1
  O  O18  1  0.388657  0.429502  0.052807  1
  O  O19  1  0.827923  0.612925  0.001381  1
  O  O20  1  0.611343  0.570498  0.552807  1
  O  O21  1  0.683063  0.925330  0.982788  1
  O  O22  1  0.167282  0.655442  0.984729  1
  O  O23  1  0.083637  0.176918  0.987600  1
  O  O24  1  0.452531  0.726852  0.130623  1
  O  O25  1  0.029458  0.469940  0.201142  1
  O  O26  1  0.547469  0.273148  0.630623  1
  O  O27  1  0.970542  0.530060  0.701142  1
  O  O28  1  0.172077  0.387075  0.501381  1
  O  O29  1  0.437145  0.039001  0.156615  1
  O  O30  1  0.916363  0.823082  0.487600  1
  O  O31  1  0.685699  0.869597  0.279557  1
  O  O32  1  0.961296  0.070576  0.296189  1
  O  O33  1  0.038704  0.929424  0.796189  1
  O  O34  1  0.832718  0.344558  0.484729  1
  O  O35  1  0.009562  0.784393  0.204098  1
