# generated using pymatgen
data_HgCSNCl
_symmetry_space_group_name_H-M   'P 1'
_cell_length_a   4.41248398
_cell_length_b   10.26209675
_cell_length_c   10.91932256
_cell_angle_alpha   90.00000000
_cell_angle_beta   90.00000000
_cell_angle_gamma   90.00000000
_symmetry_Int_Tables_number   1
_chemical_formula_structural   HgCSNCl
_chemical_formula_sum   'Hg4 C4 S4 N4 Cl4'
_cell_volume   494.44153023
_cell_formula_units_Z   4
loop_
 _symmetry_equiv_pos_site_id
 _symmetry_equiv_pos_as_xyz
  1  'x, y, z'
loop_
 _atom_site_type_symbol
 _atom_site_label
 _atom_site_symmetry_multiplicity
 _atom_site_fract_x
 _atom_site_fract_y
 _atom_site_fract_z
 _atom_site_occupancy
  Hg  Hg0  1  0.250000  0.093019  0.361559  1
  Hg  Hg1  1  0.750000  0.593019  0.138441  1
  Hg  Hg2  1  0.750000  0.906981  0.638441  1
  Hg  Hg3  1  0.250000  0.406981  0.861559  1
  C  C4  1  0.250000  0.617794  0.655066  1
  C  C5  1  0.750000  0.382206  0.344934  1
  C  C6  1  0.250000  0.882206  0.155066  1
  C  C7  1  0.750000  0.117794  0.844934  1
  S  S8  1  0.250000  0.043583  0.145173  1
  S  S9  1  0.750000  0.956417  0.854827  1
  S  S10  1  0.750000  0.543583  0.354827  1
  S  S11  1  0.250000  0.456417  0.645173  1
  N  N12  1  0.250000  0.732794  0.654252  1
  N  N13  1  0.750000  0.267206  0.345748  1
  N  N14  1  0.750000  0.232794  0.845748  1
  N  N15  1  0.250000  0.767206  0.154252  1
  Cl  Cl16  1  0.250000  0.125814  0.577797  1
  Cl  Cl17  1  0.250000  0.374186  0.077797  1
  Cl  Cl18  1  0.750000  0.625814  0.922203  1
  Cl  Cl19  1  0.750000  0.874186  0.422203  1
