# generated using pymatgen
data_MnPO4
_symmetry_space_group_name_H-M   'P 1'
_cell_length_a   8.45894572
_cell_length_b   7.15456872
_cell_length_c   14.69894299
_cell_angle_alpha   90.00000000
_cell_angle_beta   90.83974938
_cell_angle_gamma   90.00000000
_symmetry_Int_Tables_number   1
_chemical_formula_structural   MnPO4
_chemical_formula_sum   'Mn12 P12 O48'
_cell_volume   889.48608018
_cell_formula_units_Z   12
loop_
 _symmetry_equiv_pos_site_id
 _symmetry_equiv_pos_as_xyz
  1  'x, y, z'
loop_
 _atom_site_type_symbol
 _atom_site_label
 _atom_site_symmetry_multiplicity
 _atom_site_fract_x
 _atom_site_fract_y
 _atom_site_fract_z
 _atom_site_occupancy
  O  O0  1  0.877087  0.752051  0.487007  1
  O  O1  1  0.948657  0.425850  0.401337  1
  O  O2  1  0.919062  0.263677  0.057637  1
  O  O3  1  0.922775  0.237368  0.740764  1
  O  O4  1  0.878056  0.939671  0.167855  1
  O  O5  1  0.947864  0.068860  0.399241  1
  O  O6  1  0.875405  0.583397  0.173429  1
  O  O7  1  0.855373  0.716287  0.827665  1
  O  O8  1  0.835275  0.928955  0.963448  1
  O  O9  1  0.819795  0.756488  0.656057  1
  O  O10  1  0.816290  0.573386  0.978456  1
  O  O11  1  0.792828  0.769086  0.312632  1
  O  O12  1  0.052136  0.931139  0.600759  1
  O  O13  1  0.051343  0.574151  0.598663  1
  O  O14  1  0.080938  0.736322  0.942363  1
  O  O15  1  0.077225  0.762631  0.259236  1
  O  O16  1  0.121944  0.060328  0.832146  1
  O  O17  1  0.122913  0.247948  0.512993  1
  O  O18  1  0.124595  0.416602  0.826571  1
  O  O19  1  0.144627  0.283713  0.172335  1
  O  O20  1  0.164725  0.071046  0.036552  1
  O  O21  1  0.180206  0.243511  0.343943  1
  O  O22  1  0.183710  0.426613  0.021544  1
  O  O23  1  0.207172  0.230913  0.687368  1
  O  O24  1  0.292828  0.730914  0.812632  1
  O  O25  1  0.316290  0.926613  0.478456  1
  O  O26  1  0.319794  0.743512  0.156057  1
  O  O27  1  0.335275  0.571046  0.463448  1
  O  O28  1  0.355373  0.783714  0.327665  1
  O  O29  1  0.707172  0.269087  0.187368  1
  O  O30  1  0.377087  0.747948  0.987007  1
  O  O31  1  0.378056  0.560328  0.667854  1
  O  O32  1  0.419062  0.236322  0.557637  1
  O  O33  1  0.448657  0.074150  0.901338  1
  O  O34  1  0.422775  0.262632  0.240764  1
  O  O35  1  0.447864  0.431139  0.899241  1
  O  O36  1  0.552135  0.568860  0.100759  1
  O  O37  1  0.577225  0.737368  0.759236  1
  O  O38  1  0.551342  0.925850  0.098663  1
  O  O39  1  0.580938  0.763677  0.442363  1
  O  O40  1  0.621944  0.439671  0.332146  1
  O  O41  1  0.622913  0.252051  0.012993  1
  O  O42  1  0.624595  0.083397  0.326571  1
  O  O43  1  0.644627  0.216287  0.672335  1
  O  O44  1  0.664725  0.428955  0.536552  1
  O  O45  1  0.680206  0.256488  0.843943  1
  O  O46  1  0.683710  0.073386  0.521544  1
  O  O47  1  0.375405  0.916603  0.673429  1
  P  P48  1  0.047514  0.248392  0.412605  1
  P  P49  1  0.096129  0.233354  0.771710  1
  P  P50  1  0.106738  0.258301  0.071009  1
  P  P51  1  0.393262  0.758301  0.428991  1
  P  P52  1  0.403871  0.733354  0.728289  1
  P  P53  1  0.452487  0.748392  0.087396  1
  P  P54  1  0.547514  0.251609  0.912605  1
  P  P55  1  0.596129  0.266645  0.271711  1
  P  P56  1  0.606738  0.241699  0.571009  1
  P  P57  1  0.893262  0.741700  0.928991  1
  P  P58  1  0.903872  0.766646  0.228290  1
  P  P59  1  0.952487  0.751608  0.587396  1
  Mn  Mn60  1  0.749488  0.053350  0.077537  1
  Mn  Mn61  1  0.748689  0.953599  0.413484  1
  Mn  Mn62  1  0.751311  0.453599  0.086516  1
  Mn  Mn63  1  0.750216  0.484104  0.750991  1
  Mn  Mn64  1  0.750512  0.553351  0.422463  1
  Mn  Mn65  1  0.749784  0.984104  0.749009  1
  Mn  Mn66  1  0.250216  0.015895  0.250991  1
  Mn  Mn67  1  0.249488  0.446650  0.577537  1
  Mn  Mn68  1  0.249784  0.515895  0.249009  1
  Mn  Mn69  1  0.248689  0.546400  0.913484  1
  Mn  Mn70  1  0.251311  0.046402  0.586516  1
  Mn  Mn71  1  0.250512  0.946650  0.922463  1
