# generated using pymatgen
data_NaLi2Mo2P3O14
_symmetry_space_group_name_H-M   'P 1'
_cell_length_a   8.25004095
_cell_length_b   8.99275926
_cell_length_c   17.82888357
_cell_angle_alpha   76.96711076
_cell_angle_beta   76.62241281
_cell_angle_gamma   62.69645070
_symmetry_Int_Tables_number   1
_chemical_formula_structural   NaLi2Mo2P3O14
_chemical_formula_sum   'Na4 Li8 Mo8 P12 O56'
_cell_volume   1132.52079928
_cell_formula_units_Z   4
loop_
 _symmetry_equiv_pos_site_id
 _symmetry_equiv_pos_as_xyz
  1  'x, y, z'
loop_
 _atom_site_type_symbol
 _atom_site_label
 _atom_site_symmetry_multiplicity
 _atom_site_fract_x
 _atom_site_fract_y
 _atom_site_fract_z
 _atom_site_occupancy
  Na  Na0  1  0.000000  0.500000  0.000000  1
  Na  Na1  1  0.906556  0.750000  0.250000  1
  Na  Na2  1  0.500000  0.000000  0.500000  1
  Na  Na3  1  0.093444  0.250000  0.750000  1
  Li  Li4  1  0.725576  0.062976  0.145557  1
  Li  Li5  1  0.517814  0.017363  0.743015  1
  Li  Li6  1  0.278192  0.482637  0.756985  1
  Li  Li7  1  0.721808  0.517363  0.243015  1
  Li  Li8  1  0.482186  0.982637  0.256985  1
  Li  Li9  1  0.934109  0.437024  0.354443  1
  Li  Li10  1  0.274424  0.937024  0.854443  1
  Li  Li11  1  0.065891  0.562976  0.645557  1
  Mo  Mo12  1  0.698078  0.584001  0.560032  1
  Mo  Mo13  1  0.301922  0.415999  0.439968  1
  Mo  Mo14  1  0.157889  0.084001  0.060032  1
  Mo  Mo15  1  0.433244  0.499504  0.159028  1
  Mo  Mo16  1  0.091776  0.000496  0.340972  1
  Mo  Mo17  1  0.842111  0.915999  0.939968  1
  Mo  Mo18  1  0.566756  0.500496  0.840972  1
  Mo  Mo19  1  0.908224  0.999504  0.659028  1
  P  P20  1  0.151331  0.298238  0.193953  1
  P  P21  1  0.513482  0.689397  0.388546  1
  P  P22  1  0.025716  0.232533  0.488296  1
  P  P23  1  0.486518  0.310603  0.611454  1
  P  P24  1  0.253457  0.732533  0.988296  1
  P  P25  1  0.591425  0.810603  0.111454  1
  P  P26  1  0.408575  0.189397  0.888546  1
  P  P27  1  0.356479  0.798238  0.693953  1
  P  P28  1  0.974284  0.767467  0.511704  1
  P  P29  1  0.643521  0.201762  0.306047  1
  P  P30  1  0.848669  0.701762  0.806047  1
  P  P31  1  0.746543  0.267467  0.011704  1
  O  O32  1  0.498458  0.216488  0.381898  1
  O  O33  1  0.609409  0.054421  0.894604  1
  O  O34  1  0.587813  0.635738  0.148999  1
  O  O35  1  0.009237  0.560676  0.765170  1
  O  O36  1  0.992725  0.990161  0.878062  1
  O  O37  1  0.990763  0.439324  0.234830  1
  O  O38  1  0.412187  0.364262  0.851001  1
  O  O39  1  0.372551  0.864262  0.351001  1
  O  O40  1  0.335081  0.939324  0.734830  1
  O  O41  1  0.934362  0.131917  0.705613  1
  O  O42  1  0.666560  0.862783  0.167025  1
  O  O43  1  0.246083  0.911004  0.983073  1
  O  O44  1  0.903157  0.716488  0.881898  1
  O  O45  1  0.577551  0.376707  0.251582  1
  O  O46  1  0.696368  0.637217  0.332975  1
  O  O47  1  0.664919  0.060676  0.265170  1
  O  O48  1  0.139051  0.490161  0.378062  1
  O  O49  1  0.205840  0.123293  0.248418  1
  O  O50  1  0.065638  0.868083  0.294387  1
  O  O51  1  0.528129  0.710060  0.470031  1
  O  O52  1  0.333440  0.137217  0.832975  1
  O  O53  1  0.007275  0.009839  0.121938  1
  O  O54  1  0.859840  0.411004  0.483073  1
  O  O55  1  0.627449  0.135738  0.648999  1
  O  O56  1  0.794160  0.876707  0.751582  1
  O  O57  1  0.362745  0.604732  0.050744  1
  O  O58  1  0.067823  0.184483  0.405559  1
  O  O59  1  0.056000  0.741181  0.004711  1
  O  O60  1  0.771893  0.368083  0.794387  1
  O  O61  1  0.198107  0.241181  0.504711  1
  O  O62  1  0.096843  0.283512  0.118102  1
  O  O63  1  0.303632  0.362783  0.667025  1
  O  O64  1  0.342134  0.684483  0.905559  1
  O  O65  1  0.558434  0.445579  0.605396  1
  O  O66  1  0.981778  0.104732  0.550744  1
  O  O67  1  0.228107  0.631917  0.205613  1
  O  O68  1  0.657866  0.315517  0.094441  1
  O  O69  1  0.753917  0.088996  0.016927  1
  O  O70  1  0.390591  0.945579  0.105396  1
  O  O71  1  0.333183  0.319367  0.171679  1
  O  O72  1  0.801893  0.758819  0.495289  1
  O  O73  1  0.708219  0.789940  0.029969  1
  O  O74  1  0.175771  0.819367  0.671679  1
  O  O75  1  0.018222  0.895268  0.449256  1
  O  O76  1  0.637255  0.395268  0.949256  1
  O  O77  1  0.441566  0.554421  0.394604  1
  O  O78  1  0.944000  0.258819  0.995289  1
  O  O79  1  0.291781  0.210060  0.970031  1
  O  O80  1  0.932177  0.815517  0.594441  1
  O  O81  1  0.860949  0.509839  0.621938  1
  O  O82  1  0.666817  0.680633  0.828321  1
  O  O83  1  0.824229  0.180633  0.328321  1
  O  O84  1  0.501542  0.783512  0.618102  1
  O  O85  1  0.422449  0.623293  0.748418  1
  O  O86  1  0.140160  0.588996  0.516927  1
  O  O87  1  0.471871  0.289940  0.529969  1
