# generated using pymatgen
data_C2SeS2O7F6
_symmetry_space_group_name_H-M   'P 1'
_cell_length_a   5.31640159
_cell_length_b   13.01591737
_cell_length_c   16.49119079
_cell_angle_alpha   96.36802956
_cell_angle_beta   90.00014518
_cell_angle_gamma   90.00007905
_symmetry_Int_Tables_number   1
_chemical_formula_structural   C2SeS2O7F6
_chemical_formula_sum   'Se4 C8 S8 O28 F24'
_cell_volume   1134.11387688
_cell_formula_units_Z   4
loop_
 _symmetry_equiv_pos_site_id
 _symmetry_equiv_pos_as_xyz
  1  'x, y, z'
loop_
 _atom_site_type_symbol
 _atom_site_label
 _atom_site_symmetry_multiplicity
 _atom_site_fract_x
 _atom_site_fract_y
 _atom_site_fract_z
 _atom_site_occupancy
  Se  Se0  1  0.162521  0.145519  0.109721  1
  C  C1  1  0.240246  0.226631  0.882943  1
  C  C2  1  0.623644  0.034739  0.370473  1
  Se  Se3  1  0.337479  0.645519  0.609721  1
  C  C4  1  0.123644  0.465261  0.129527  1
  C  C5  1  0.259752  0.726632  0.382944  1
  Se  Se6  1  0.837479  0.854481  0.890279  1
  C  C7  1  0.376357  0.965261  0.629527  1
  C  C8  1  0.759754  0.773369  0.117057  1
  C  C9  1  0.876356  0.534739  0.870473  1
  C  C10  1  0.740248  0.273368  0.617056  1
  Se  Se11  1  0.662521  0.354481  0.390279  1
  S  S12  1  0.243809  0.865865  0.692575  1
  S  S13  1  0.756191  0.134135  0.307425  1
  S  S14  1  0.249204  0.594362  0.418889  1
  S  S15  1  0.750796  0.405637  0.581111  1
  S  S16  1  0.256191  0.365865  0.192575  1
  S  S17  1  0.743808  0.634135  0.807425  1
  S  S18  1  0.749204  0.905638  0.081111  1
  S  S19  1  0.250796  0.094362  0.918889  1
  O  O20  1  0.948425  0.670748  0.761329  1
  O  O21  1  0.974728  0.087334  0.267210  1
  O  O22  1  0.025271  0.912666  0.732791  1
  O  O23  1  0.659646  0.718750  0.877233  1
  O  O24  1  0.856992  0.379300  0.492507  1
  O  O25  1  0.939462  0.462730  0.628939  1
  O  O26  1  0.993794  0.058610  0.919182  1
  O  O27  1  0.340354  0.281250  0.122767  1
  O  O28  1  0.643008  0.879300  0.992507  1
  O  O29  1  0.051575  0.329252  0.238671  1
  O  O30  1  0.474729  0.412666  0.232791  1
  O  O31  1  0.615875  0.677042  0.584818  1
  O  O32  1  0.884125  0.177042  0.084818  1
  O  O33  1  0.493793  0.441389  0.580818  1
  O  O34  1  0.384125  0.322958  0.415182  1
  O  O35  1  0.143008  0.620699  0.507493  1
  O  O36  1  0.439463  0.037269  0.871061  1
  O  O37  1  0.356992  0.120700  0.007493  1
  O  O38  1  0.551575  0.170748  0.261329  1
  O  O39  1  0.506207  0.558610  0.419182  1
  O  O40  1  0.159646  0.781250  0.622767  1
  O  O41  1  0.006206  0.941390  0.080818  1
  O  O42  1  0.560537  0.962731  0.128939  1
  O  O43  1  0.840354  0.218750  0.377233  1
  O  O44  1  0.525271  0.587334  0.767209  1
  O  O45  1  0.115875  0.822958  0.915182  1
  O  O46  1  0.448425  0.829252  0.738671  1
  O  O47  1  0.060538  0.537270  0.371061  1
  F  F48  1  0.646278  0.282718  0.693366  1
  F  F49  1  0.973637  0.233401  0.617170  1
  F  F50  1  0.853723  0.782719  0.193367  1
  F  F51  1  0.091197  0.289417  0.932571  1
  F  F52  1  0.952954  0.452631  0.819484  1
  F  F53  1  0.047046  0.547369  0.180517  1
  F  F54  1  0.198361  0.995368  0.578929  1
  F  F55  1  0.591201  0.210581  0.567428  1
  F  F56  1  0.526366  0.733401  0.117169  1
  F  F57  1  0.426508  0.074595  0.414490  1
  F  F58  1  0.698360  0.504633  0.921071  1
  F  F59  1  0.547046  0.952631  0.319483  1
  F  F60  1  0.073491  0.574596  0.914491  1
  F  F61  1  0.473635  0.266599  0.882831  1
  F  F62  1  0.573495  0.925404  0.585509  1
  F  F63  1  0.026363  0.766599  0.382830  1
  F  F64  1  0.301639  0.495368  0.078929  1
  F  F65  1  0.801639  0.004633  0.421071  1
  F  F66  1  0.408799  0.789418  0.432572  1
  F  F67  1  0.353722  0.717282  0.306634  1
  F  F68  1  0.908804  0.710583  0.067429  1
  F  F69  1  0.926508  0.425405  0.085509  1
  F  F70  1  0.146277  0.217281  0.806633  1
  F  F71  1  0.452954  0.047369  0.680517  1
