# generated using pymatgen
data_Cs2KCo(CN)6
_symmetry_space_group_name_H-M   'P 1'
_cell_length_a   7.74269544
_cell_length_b   8.16450713
_cell_length_c   11.22145646
_cell_angle_alpha   90.00000000
_cell_angle_beta   90.21214062
_cell_angle_gamma   90.00000000
_symmetry_Int_Tables_number   1
_chemical_formula_structural   Cs2KCo(CN)6
_chemical_formula_sum   'Cs4 K2 Co2 C12 N12'
_cell_volume   709.36278544
_cell_formula_units_Z   2
loop_
 _symmetry_equiv_pos_site_id
 _symmetry_equiv_pos_as_xyz
  1  'x, y, z'
loop_
 _atom_site_type_symbol
 _atom_site_label
 _atom_site_symmetry_multiplicity
 _atom_site_fract_x
 _atom_site_fract_y
 _atom_site_fract_z
 _atom_site_occupancy
  Cs  Cs0  1  0.519082  0.934755  0.249728  1
  Cs  Cs1  1  0.019082  0.565245  0.749728  1
  Cs  Cs2  1  0.980918  0.434755  0.250272  1
  Cs  Cs3  1  0.480918  0.065245  0.750272  1
  K  K4  1  0.500000  0.500000  0.000000  1
  K  K5  1  0.000000  0.000000  0.500000  1
  Co  Co6  1  0.000000  0.000000  0.000000  1
  Co  Co7  1  0.500000  0.500000  0.500000  1
  C  C8  1  0.300243  0.376510  0.530158  1
  C  C9  1  0.567324  0.479192  0.660019  1
  C  C10  1  0.067324  0.020808  0.160019  1
  C  C11  1  0.879274  0.807185  0.037859  1
  C  C12  1  0.199757  0.876510  0.969842  1
  C  C13  1  0.120726  0.192815  0.962141  1
  C  C14  1  0.379274  0.692815  0.537859  1
  C  C15  1  0.432676  0.520808  0.339981  1
  C  C16  1  0.620726  0.307185  0.462141  1
  C  C17  1  0.800243  0.123490  0.030158  1
  C  C18  1  0.699757  0.623490  0.469842  1
  C  C19  1  0.932676  0.979192  0.839981  1
  N  N20  1  0.674762  0.199620  0.050577  1
  N  N21  1  0.803468  0.687030  0.062464  1
  N  N22  1  0.303468  0.812970  0.562464  1
  N  N23  1  0.389485  0.536486  0.240030  1
  N  N24  1  0.696532  0.187030  0.437536  1
  N  N25  1  0.196532  0.312970  0.937536  1
  N  N26  1  0.825238  0.699620  0.449423  1
  N  N27  1  0.610515  0.463514  0.759970  1
  N  N28  1  0.174762  0.300380  0.550577  1
  N  N29  1  0.325238  0.800380  0.949423  1
  N  N30  1  0.889485  0.963514  0.740030  1
  N  N31  1  0.110515  0.036486  0.259970  1
