# generated using pymatgen
data_Tb2(GePt3)3
_symmetry_space_group_name_H-M   'P 1'
_cell_length_a   7.84562284
_cell_length_b   7.84562351
_cell_length_c   10.09923503
_cell_angle_alpha   90.36256837
_cell_angle_beta   112.54098506
_cell_angle_gamma   119.89397733
_symmetry_Int_Tables_number   1
_chemical_formula_structural   Tb2(GePt3)3
_chemical_formula_sum   'Tb4 Ge6 Pt18'
_cell_volume   482.40314682
_cell_formula_units_Z   2
loop_
 _symmetry_equiv_pos_site_id
 _symmetry_equiv_pos_as_xyz
  1  'x, y, z'
loop_
 _atom_site_type_symbol
 _atom_site_label
 _atom_site_symmetry_multiplicity
 _atom_site_fract_x
 _atom_site_fract_y
 _atom_site_fract_z
 _atom_site_occupancy
  Tb  Tb0  1  0.496377  0.584504  0.250903  1
  Tb  Tb1  1  0.503623  0.415496  0.749097  1
  Tb  Tb2  1  0.166398  0.754526  0.750903  1
  Tb  Tb3  1  0.833602  0.245474  0.249097  1
  Ge  Ge4  1  0.679131  0.361142  0.497347  1
  Ge  Ge5  1  0.636205  0.818216  0.997347  1
  Ge  Ge6  1  0.000000  0.500000  0.000000  1
  Ge  Ge7  1  0.320869  0.638858  0.502653  1
  Ge  Ge8  1  0.363795  0.181784  0.002653  1
  Ge  Ge9  1  0.000000  0.000000  0.500000  1
  Pt  Pt10  1  0.382974  0.132974  0.250000  1
  Pt  Pt11  1  0.281133  0.477477  0.922167  1
  Pt  Pt12  1  0.615461  0.140546  0.919985  1
  Pt  Pt13  1  0.945606  0.913614  0.241841  1
  Pt  Pt14  1  0.279439  0.304524  0.419985  1
  Pt  Pt15  1  0.054027  0.201909  0.076763  1
  Pt  Pt16  1  0.384539  0.859454  0.080015  1
  Pt  Pt17  1  0.718867  0.522523  0.077833  1
  Pt  Pt18  1  0.171772  0.703764  0.258159  1
  Pt  Pt19  1  0.828228  0.296236  0.741841  1
  Pt  Pt20  1  0.374854  0.022736  0.576763  1
  Pt  Pt21  1  0.944690  0.641034  0.422167  1
  Pt  Pt22  1  0.720561  0.695476  0.580015  1
  Pt  Pt23  1  0.054394  0.086386  0.758159  1
  Pt  Pt24  1  0.945973  0.798091  0.923237  1
  Pt  Pt25  1  0.617026  0.867026  0.750000  1
  Pt  Pt26  1  0.055310  0.358966  0.577833  1
  Pt  Pt27  1  0.625147  0.977264  0.423237  1
