# generated using pymatgen
data_Cs2As2OF10
_symmetry_space_group_name_H-M   'P 1'
_cell_length_a   5.70519715
_cell_length_b   9.39125755
_cell_length_c   10.92705010
_cell_angle_alpha   90.00000000
_cell_angle_beta   90.00000000
_cell_angle_gamma   105.28714485
_symmetry_Int_Tables_number   1
_chemical_formula_structural   Cs2As2OF10
_chemical_formula_sum   'Cs4 As4 O2 F20'
_cell_volume   564.74458087
_cell_formula_units_Z   2
loop_
 _symmetry_equiv_pos_site_id
 _symmetry_equiv_pos_as_xyz
  1  'x, y, z'
loop_
 _atom_site_type_symbol
 _atom_site_label
 _atom_site_symmetry_multiplicity
 _atom_site_fract_x
 _atom_site_fract_y
 _atom_site_fract_z
 _atom_site_occupancy
  Cs  Cs0  1  0.175933  0.752698  0.984338  1
  Cs  Cs1  1  0.824067  0.247302  0.015662  1
  Cs  Cs2  1  0.824067  0.247302  0.484338  1
  Cs  Cs3  1  0.175933  0.752698  0.515662  1
  As  As4  1  0.505616  0.522601  0.250000  1
  As  As5  1  0.725082  0.886393  0.250000  1
  As  As6  1  0.274918  0.113607  0.750000  1
  As  As7  1  0.494384  0.477399  0.750000  1
  O  O8  1  0.492723  0.713552  0.250000  1
  O  O9  1  0.507277  0.286448  0.750000  1
  F  F10  1  0.731717  0.548560  0.133161  1
  F  F11  1  0.267214  0.106361  0.915131  1
  F  F12  1  0.272918  0.483380  0.364308  1
  F  F13  1  0.732786  0.893639  0.084869  1
  F  F14  1  0.978702  0.810312  0.250000  1
  F  F15  1  0.511909  0.023224  0.750000  1
  F  F16  1  0.021298  0.189688  0.750000  1
  F  F17  1  0.727082  0.516620  0.864308  1
  F  F18  1  0.064741  0.933687  0.750000  1
  F  F19  1  0.935259  0.066313  0.250000  1
  F  F20  1  0.268283  0.451440  0.633161  1
  F  F21  1  0.498907  0.330924  0.250000  1
  F  F22  1  0.488091  0.976776  0.250000  1
  F  F23  1  0.272918  0.483380  0.135692  1
  F  F24  1  0.268283  0.451440  0.866839  1
  F  F25  1  0.732786  0.893639  0.415131  1
  F  F26  1  0.727082  0.516620  0.635692  1
  F  F27  1  0.731717  0.548560  0.366839  1
  F  F28  1  0.501093  0.669076  0.750000  1
  F  F29  1  0.267214  0.106361  0.584869  1
