# generated using pymatgen
data_NiTe2O5
_symmetry_space_group_name_H-M   'P 1'
_cell_length_a   8.51573796
_cell_length_b   9.01926795
_cell_length_c   12.30252060
_cell_angle_alpha   90.00000000
_cell_angle_beta   90.00000000
_cell_angle_gamma   90.00000000
_symmetry_Int_Tables_number   1
_chemical_formula_structural   NiTe2O5
_chemical_formula_sum   'Ni8 Te16 O40'
_cell_volume   944.90398268
_cell_formula_units_Z   8
loop_
 _symmetry_equiv_pos_site_id
 _symmetry_equiv_pos_as_xyz
  1  'x, y, z'
loop_
 _atom_site_type_symbol
 _atom_site_label
 _atom_site_symmetry_multiplicity
 _atom_site_fract_x
 _atom_site_fract_y
 _atom_site_fract_z
 _atom_site_occupancy
  Te  Te0  1  0.159807  0.849292  0.486345  1
  Te  Te1  1  0.659807  0.650708  0.513655  1
  Te  Te2  1  0.340193  0.349292  0.013655  1
  Te  Te3  1  0.840193  0.150708  0.986345  1
  Te  Te4  1  0.840193  0.150708  0.513655  1
  Te  Te5  1  0.340193  0.349292  0.486345  1
  Te  Te6  1  0.659807  0.650708  0.986345  1
  Te  Te7  1  0.159807  0.849292  0.013655  1
  Te  Te8  1  0.197809  0.105092  0.250000  1
  Te  Te9  1  0.697809  0.394908  0.750000  1
  Te  Te10  1  0.302191  0.605092  0.250000  1
  Te  Te11  1  0.802191  0.894908  0.750000  1
  Te  Te12  1  0.681283  0.333547  0.250000  1
  Te  Te13  1  0.181283  0.166453  0.750000  1
  Te  Te14  1  0.818717  0.833547  0.250000  1
  Te  Te15  1  0.318717  0.666453  0.750000  1
  Ni  Ni16  1  0.984830  0.517037  0.123347  1
  Ni  Ni17  1  0.484830  0.982963  0.876653  1
  Ni  Ni18  1  0.515170  0.017037  0.376653  1
  Ni  Ni19  1  0.015170  0.482963  0.623347  1
  Ni  Ni20  1  0.015170  0.482963  0.876653  1
  Ni  Ni21  1  0.515170  0.017037  0.123347  1
  Ni  Ni22  1  0.484830  0.982963  0.623347  1
  Ni  Ni23  1  0.984830  0.517037  0.376653  1
  O  O24  1  0.655492  0.120873  0.250000  1
  O  O25  1  0.155492  0.379127  0.750000  1
  O  O26  1  0.844508  0.620873  0.250000  1
  O  O27  1  0.344508  0.879127  0.750000  1
  O  O28  1  0.133132  0.464700  0.250000  1
  O  O29  1  0.633132  0.035300  0.750000  1
  O  O30  1  0.366868  0.964700  0.250000  1
  O  O31  1  0.866868  0.535300  0.750000  1
  O  O32  1  0.409303  0.492013  0.126851  1
  O  O33  1  0.909303  0.007987  0.873149  1
  O  O34  1  0.090697  0.992013  0.373149  1
  O  O35  1  0.590697  0.507987  0.626851  1
  O  O36  1  0.590697  0.507987  0.873149  1
  O  O37  1  0.090697  0.992013  0.126851  1
  O  O38  1  0.909303  0.007987  0.626851  1
  O  O39  1  0.409303  0.492013  0.373149  1
  O  O40  1  0.147550  0.690394  0.116126  1
  O  O41  1  0.647550  0.809606  0.883874  1
  O  O42  1  0.352450  0.190394  0.383874  1
  O  O43  1  0.852450  0.309606  0.616126  1
  O  O44  1  0.852450  0.309606  0.883874  1
  O  O45  1  0.352450  0.190394  0.116126  1
  O  O46  1  0.647550  0.809606  0.616126  1
  O  O47  1  0.147550  0.690394  0.383874  1
  O  O48  1  0.119688  0.384974  0.486974  1
  O  O49  1  0.619688  0.115026  0.513026  1
  O  O50  1  0.380312  0.884974  0.013026  1
  O  O51  1  0.880312  0.615026  0.986974  1
  O  O52  1  0.880312  0.615026  0.513026  1
  O  O53  1  0.380312  0.884974  0.486974  1
  O  O54  1  0.619688  0.115026  0.986974  1
  O  O55  1  0.119688  0.384974  0.013026  1
  O  O56  1  0.823545  0.343867  0.130149  1
  O  O57  1  0.323545  0.156133  0.869851  1
  O  O58  1  0.676455  0.843867  0.369851  1
  O  O59  1  0.176455  0.656133  0.630149  1
  O  O60  1  0.176455  0.656133  0.869851  1
  O  O61  1  0.676455  0.843867  0.130149  1
  O  O62  1  0.323545  0.156133  0.630149  1
  O  O63  1  0.823545  0.343867  0.369851  1
