# generated using pymatgen
data_Np(IO3)4
_symmetry_space_group_name_H-M   'P 1'
_cell_length_a   5.36558023
_cell_length_b   10.19078576
_cell_length_c   10.19078576
_cell_angle_alpha   90.00000000
_cell_angle_beta   90.00000000
_cell_angle_gamma   90.00000000
_symmetry_Int_Tables_number   1
_chemical_formula_structural   Np(IO3)4
_chemical_formula_sum   'Np2 I8 O24'
_cell_volume   557.22685190
_cell_formula_units_Z   2
loop_
 _symmetry_equiv_pos_site_id
 _symmetry_equiv_pos_as_xyz
  1  'x, y, z'
loop_
 _atom_site_type_symbol
 _atom_site_label
 _atom_site_symmetry_multiplicity
 _atom_site_fract_x
 _atom_site_fract_y
 _atom_site_fract_z
 _atom_site_occupancy
  Np  Np0  1  0.250000  0.750000  0.750000  1
  Np  Np1  1  0.750000  0.250000  0.250000  1
  I  I2  1  0.719299  0.748119  0.021681  1
  I  I3  1  0.219299  0.978318  0.248119  1
  I  I4  1  0.280701  0.248119  0.521682  1
  I  I5  1  0.280701  0.251881  0.978318  1
  I  I6  1  0.719299  0.751881  0.478318  1
  I  I7  1  0.219299  0.521682  0.251881  1
  I  I8  1  0.780701  0.478318  0.748119  1
  I  I9  1  0.780701  0.021681  0.751881  1
  O  O10  1  0.054667  0.177772  0.401253  1
  O  O11  1  0.745183  0.152455  0.870286  1
  O  O12  1  0.254817  0.652455  0.370286  1
  O  O13  1  0.245183  0.129714  0.652455  1
  O  O14  1  0.754817  0.870286  0.347544  1
  O  O15  1  0.052793  0.559416  0.672424  1
  O  O16  1  0.754817  0.629714  0.152455  1
  O  O17  1  0.552793  0.327576  0.059416  1
  O  O18  1  0.445333  0.098747  0.177772  1
  O  O19  1  0.947207  0.059416  0.172424  1
  O  O20  1  0.254817  0.847545  0.129714  1
  O  O21  1  0.945333  0.822228  0.598747  1
  O  O22  1  0.052793  0.940584  0.827576  1
  O  O23  1  0.447207  0.672424  0.940584  1
  O  O24  1  0.445333  0.401253  0.322228  1
  O  O25  1  0.447207  0.827576  0.559416  1
  O  O26  1  0.054667  0.322228  0.098747  1
  O  O27  1  0.554667  0.901253  0.822228  1
  O  O28  1  0.745183  0.347544  0.629714  1
  O  O29  1  0.245183  0.370286  0.847545  1
  O  O30  1  0.947207  0.440584  0.327576  1
  O  O31  1  0.554667  0.598747  0.677772  1
  O  O32  1  0.552793  0.172424  0.440584  1
  O  O33  1  0.945333  0.677772  0.901253  1
