# generated using pymatgen
data_U3O8
_symmetry_space_group_name_H-M   'P 1'
_cell_length_a   6.47130871
_cell_length_b   6.47098770
_cell_length_c   4.17538764
_cell_angle_alpha   89.98621090
_cell_angle_beta   89.94696996
_cell_angle_gamma   120.00958807
_symmetry_Int_Tables_number   1
_chemical_formula_structural   U3O8
_chemical_formula_sum   'U3 O8'
_cell_volume   151.40765322
_cell_formula_units_Z   1
loop_
 _symmetry_equiv_pos_site_id
 _symmetry_equiv_pos_as_xyz
  1  'x, y, z'
loop_
 _atom_site_type_symbol
 _atom_site_label
 _atom_site_symmetry_multiplicity
 _atom_site_fract_x
 _atom_site_fract_y
 _atom_site_fract_z
 _atom_site_occupancy
  O  O0  1  0.681244  0.681253  0.158543  1
  O  O1  1  0.318205  -0.000041  0.159145  1
  O  O2  1  0.999920  0.318341  0.158897  1
  O  O3  1  0.333340  0.666570  0.499985  1
  O  O4  1  0.318769  0.318742  0.841463  1
  O  O5  1  0.681795  0.000052  0.840866  1
  U  U6  1  0.999999  0.999999  -0.000005  1
  U  U7  1  0.666644  0.333375  0.999999  1
  O  O8  1  0.000067  0.681654  0.841091  1
  U  U9  1  0.333351  0.666625  0.000003  1
  O  O10  1  0.666666  0.333432  0.500012  1
