# generated using pymatgen
data_Se
_symmetry_space_group_name_H-M   'P 1'
_cell_length_a   10.15386339
_cell_length_b   15.30902371
_cell_length_c   15.73918137
_cell_angle_alpha   90.00000000
_cell_angle_beta   94.04286936
_cell_angle_gamma   90.00000000
_symmetry_Int_Tables_number   1
_chemical_formula_structural   Se
_chemical_formula_sum   Se64
_cell_volume   2440.50047819
_cell_formula_units_Z   64
loop_
 _symmetry_equiv_pos_site_id
 _symmetry_equiv_pos_as_xyz
  1  'x, y, z'
loop_
 _atom_site_type_symbol
 _atom_site_label
 _atom_site_symmetry_multiplicity
 _atom_site_fract_x
 _atom_site_fract_y
 _atom_site_fract_z
 _atom_site_occupancy
  Se  Se0  1  0.171579  0.824628  0.086415  1
  Se  Se1  1  0.951916  0.857563  0.814616  1
  Se  Se2  1  0.364628  0.236288  0.691437  1
  Se  Se3  1  0.849520  0.713948  0.526390  1
  Se  Se4  1  0.347639  0.990287  0.906751  1
  Se  Se5  1  0.120869  0.714049  0.984712  1
  Se  Se6  1  0.602871  0.354499  0.525862  1
  Se  Se7  1  0.451916  0.642437  0.814616  1
  Se  Se8  1  0.620869  0.785951  0.984712  1
  Se  Se9  1  0.671579  0.675372  0.086415  1
  Se  Se10  1  0.897129  0.854499  0.474138  1
  Se  Se11  1  0.222771  0.047426  0.230452  1
  Se  Se12  1  0.135372  0.736288  0.308563  1
  Se  Se13  1  0.048084  0.142437  0.185384  1
  Se  Se14  1  0.548084  0.357563  0.185384  1
  Se  Se15  1  0.657733  0.524822  0.353788  1
  Se  Se16  1  0.264540  0.593959  0.013428  1
  Se  Se17  1  0.235460  0.093959  0.986572  1
  Se  Se18  1  0.521092  0.690537  0.193152  1
  Se  Se19  1  0.937050  0.410578  0.695855  1
  Se  Se20  1  0.758361  0.453780  0.475644  1
  Se  Se21  1  0.562950  0.910578  0.304145  1
  Se  Se22  1  0.102871  0.145501  0.525862  1
  Se  Se23  1  0.225499  0.508143  0.238152  1
  Se  Se24  1  0.379131  0.214049  0.015288  1
  Se  Se25  1  0.062950  0.589422  0.304145  1
  Se  Se26  1  0.978908  0.190537  0.806848  1
  Se  Se27  1  0.847639  0.509713  0.906751  1
  Se  Se28  1  0.241639  0.546220  0.524356  1
  Se  Se29  1  0.152361  0.490287  0.093249  1
  Se  Se30  1  0.842267  0.024822  0.646212  1
  Se  Se31  1  0.111019  0.284823  0.231350  1
  Se  Se32  1  0.999752  0.685345  0.644476  1
  Se  Se33  1  0.342267  0.475178  0.646212  1
  Se  Se34  1  0.879131  0.285951  0.015288  1
  Se  Se35  1  0.652361  0.009713  0.093249  1
  Se  Se36  1  0.437050  0.089422  0.695855  1
  Se  Se37  1  0.021092  0.809463  0.193152  1
  Se  Se38  1  0.500248  0.185345  0.355524  1
  Se  Se39  1  0.388981  0.784823  0.768650  1
  Se  Se40  1  0.864628  0.263712  0.691437  1
  Se  Se41  1  0.150480  0.286052  0.473610  1
  Se  Se42  1  0.277229  0.547426  0.769548  1
  Se  Se43  1  0.258361  0.046220  0.475644  1
  Se  Se44  1  0.725499  0.991857  0.238152  1
  Se  Se45  1  0.349520  0.786052  0.526390  1
  Se  Se46  1  0.397129  0.645501  0.474138  1
  Se  Se47  1  0.735460  0.406041  0.986572  1
  Se  Se48  1  0.157733  0.975178  0.353788  1
  Se  Se49  1  0.328421  0.324628  0.913585  1
  Se  Se50  1  0.777229  0.952574  0.769548  1
  Se  Se51  1  0.774501  0.491857  0.761848  1
  Se  Se52  1  0.611019  0.215177  0.231350  1
  Se  Se53  1  0.478908  0.309463  0.806848  1
  Se  Se54  1  0.828421  0.175372  0.913585  1
  Se  Se55  1  0.650480  0.213948  0.473610  1
  Se  Se56  1  0.274501  0.008143  0.761848  1
  Se  Se57  1  0.722771  0.452574  0.230452  1
  Se  Se58  1  0.888981  0.715177  0.768650  1
  Se  Se59  1  0.764540  0.906041  0.013428  1
  Se  Se60  1  0.000248  0.314655  0.355524  1
  Se  Se61  1  0.741639  0.953780  0.524356  1
  Se  Se62  1  0.499752  0.814655  0.644476  1
  Se  Se63  1  0.635372  0.763712  0.308563  1
