# generated using pymatgen
data_Rb4Nb11O30
_symmetry_space_group_name_H-M   'P 1'
_cell_length_a   15.35941095
_cell_length_b   15.35941086
_cell_length_c   15.35941100
_cell_angle_alpha   28.70454228
_cell_angle_beta   28.70454286
_cell_angle_gamma   28.70454426
_symmetry_Int_Tables_number   1
_chemical_formula_structural   Rb4Nb11O30
_chemical_formula_sum   'Rb4 Nb11 O30'
_cell_volume   739.00267640
_cell_formula_units_Z   1
loop_
 _symmetry_equiv_pos_site_id
 _symmetry_equiv_pos_as_xyz
  1  'x, y, z'
loop_
 _atom_site_type_symbol
 _atom_site_label
 _atom_site_symmetry_multiplicity
 _atom_site_fract_x
 _atom_site_fract_y
 _atom_site_fract_z
 _atom_site_occupancy
  Rb  Rb0  1  0.732706  0.732706  0.732706  1
  Rb  Rb1  1  0.267294  0.267294  0.267294  1
  Rb  Rb2  1  0.452255  0.452255  0.452255  1
  Rb  Rb3  1  0.547745  0.547745  0.547745  1
  Nb  Nb4  1  0.195884  0.195884  0.695982  1
  Nb  Nb5  1  0.695982  0.195884  0.195884  1
  Nb  Nb6  1  0.195884  0.695982  0.195884  1
  Nb  Nb7  1  0.804116  0.804116  0.304018  1
  Nb  Nb8  1  0.304018  0.804116  0.804116  1
  Nb  Nb9  1  0.804116  0.304018  0.804116  1
  Nb  Nb10  1  0.100135  0.100135  0.100135  1
  Nb  Nb11  1  0.899865  0.899865  0.899865  1
  Nb  Nb12  1  0.500000  0.000000  0.000000  1
  Nb  Nb13  1  0.000000  0.500000  0.000000  1
  Nb  Nb14  1  0.000000  0.000000  0.500000  1
  O  O15  1  0.193152  0.193152  0.821763  1
  O  O16  1  0.821763  0.193152  0.193152  1
  O  O17  1  0.193152  0.821763  0.193152  1
  O  O18  1  0.806848  0.806848  0.178237  1
  O  O19  1  0.178237  0.806848  0.806848  1
  O  O20  1  0.806848  0.178237  0.806848  1
  O  O21  1  0.371352  0.998268  0.998268  1
  O  O22  1  0.998268  0.371352  0.998268  1
  O  O23  1  0.998268  0.998268  0.371352  1
  O  O24  1  0.001732  0.628648  0.001732  1
  O  O25  1  0.001732  0.001732  0.628648  1
  O  O26  1  0.628648  0.001732  0.001732  1
  O  O27  1  0.303828  0.877146  0.877146  1
  O  O28  1  0.877146  0.303828  0.877146  1
  O  O29  1  0.877146  0.877146  0.303828  1
  O  O30  1  0.122854  0.696172  0.122854  1
  O  O31  1  0.122854  0.122854  0.696172  1
  O  O32  1  0.696172  0.122854  0.122854  1
  O  O33  1  0.480644  0.480644  0.132081  1
  O  O34  1  0.132081  0.480644  0.480644  1
  O  O35  1  0.480644  0.132081  0.480644  1
  O  O36  1  0.519356  0.519356  0.867919  1
  O  O37  1  0.867919  0.519356  0.519356  1
  O  O38  1  0.519356  0.867919  0.519356  1
  O  O39  1  0.298385  0.298385  0.927069  1
  O  O40  1  0.927069  0.298385  0.298385  1
  O  O41  1  0.298385  0.927069  0.298385  1
  O  O42  1  0.701615  0.701615  0.072931  1
  O  O43  1  0.072931  0.701615  0.701615  1
  O  O44  1  0.701615  0.072931  0.701615  1
