# generated using pymatgen
data_Ce2SiTeO4
_symmetry_space_group_name_H-M   'P 1'
_cell_length_a   6.41112892
_cell_length_b   7.29058401
_cell_length_c   11.31500415
_cell_angle_alpha   90.00000000
_cell_angle_beta   90.00000000
_cell_angle_gamma   90.00000000
_symmetry_Int_Tables_number   1
_chemical_formula_structural   Ce2SiTeO4
_chemical_formula_sum   'Ce8 Si4 Te4 O16'
_cell_volume   528.87318317
_cell_formula_units_Z   4
loop_
 _symmetry_equiv_pos_site_id
 _symmetry_equiv_pos_as_xyz
  1  'x, y, z'
loop_
 _atom_site_type_symbol
 _atom_site_label
 _atom_site_symmetry_multiplicity
 _atom_site_fract_x
 _atom_site_fract_y
 _atom_site_fract_z
 _atom_site_occupancy
  Ce  Ce0  1  0.112160  0.039247  0.250000  1
  Ce  Ce1  1  0.112160  0.460753  0.750000  1
  Ce  Ce2  1  0.887840  0.539247  0.250000  1
  Ce  Ce3  1  0.887840  0.960753  0.750000  1
  Ce  Ce4  1  0.610089  0.250000  0.000000  1
  Ce  Ce5  1  0.389911  0.750000  0.500000  1
  Ce  Ce6  1  0.389911  0.750000  0.000000  1
  Ce  Ce7  1  0.610089  0.250000  0.500000  1
  Te  Te8  1  0.402001  0.428873  0.250000  1
  Te  Te9  1  0.402001  0.071127  0.750000  1
  Te  Te10  1  0.597999  0.928873  0.250000  1
  Te  Te11  1  0.597999  0.571127  0.750000  1
  Si  Si12  1  0.113659  0.250000  0.000000  1
  Si  Si13  1  0.886341  0.750000  0.500000  1
  Si  Si14  1  0.886341  0.750000  0.000000  1
  Si  Si15  1  0.113659  0.250000  0.500000  1
  O  O16  1  0.046654  0.770408  0.114976  1
  O  O17  1  0.046654  0.729592  0.885024  1
  O  O18  1  0.953346  0.270408  0.385024  1
  O  O19  1  0.953346  0.229592  0.614976  1
  O  O20  1  0.953346  0.229592  0.885024  1
  O  O21  1  0.953346  0.270408  0.114976  1
  O  O22  1  0.046654  0.729592  0.614976  1
  O  O23  1  0.046654  0.770408  0.385024  1
  O  O24  1  0.267618  0.078103  0.035896  1
  O  O25  1  0.267618  0.421897  0.964104  1
  O  O26  1  0.732382  0.578103  0.464104  1
  O  O27  1  0.732382  0.921897  0.535896  1
  O  O28  1  0.732382  0.921897  0.964104  1
  O  O29  1  0.732382  0.578103  0.035896  1
  O  O30  1  0.267618  0.421897  0.535896  1
  O  O31  1  0.267618  0.078103  0.464104  1
