# generated using pymatgen
data_K2Zn3(P2O7)2
_symmetry_space_group_name_H-M   'P 1'
_cell_length_a   10.13104683
_cell_length_b   10.25464468
_cell_length_c   13.09655816
_cell_angle_alpha   90.00000000
_cell_angle_beta   90.00000000
_cell_angle_gamma   90.00000000
_symmetry_Int_Tables_number   1
_chemical_formula_structural   K2Zn3(P2O7)2
_chemical_formula_sum   'K8 Zn12 P16 O56'
_cell_volume   1360.60516602
_cell_formula_units_Z   4
loop_
 _symmetry_equiv_pos_site_id
 _symmetry_equiv_pos_as_xyz
  1  'x, y, z'
loop_
 _atom_site_type_symbol
 _atom_site_label
 _atom_site_symmetry_multiplicity
 _atom_site_fract_x
 _atom_site_fract_y
 _atom_site_fract_z
 _atom_site_occupancy
  K  K0  1  0.226819  0.343391  0.778055  1
  K  K1  1  0.273181  0.656609  0.278055  1
  K  K2  1  0.902993  0.481085  0.004096  1
  K  K3  1  0.097007  0.981085  0.495904  1
  K  K4  1  0.726819  0.156609  0.221945  1
  K  K5  1  0.597007  0.518915  0.504096  1
  K  K6  1  0.402993  0.018915  0.995904  1
  K  K7  1  0.773181  0.843391  0.721945  1
  Zn  Zn8  1  0.799090  0.097633  0.921930  1
  Zn  Zn9  1  0.349317  0.014245  0.297404  1
  Zn  Zn10  1  0.849317  0.485755  0.702596  1
  Zn  Zn11  1  0.650683  0.514245  0.202596  1
  Zn  Zn12  1  0.299090  0.402367  0.078070  1
  Zn  Zn13  1  0.977884  0.814231  0.134615  1
  Zn  Zn14  1  0.150683  0.985755  0.797404  1
  Zn  Zn15  1  0.477884  0.685769  0.865385  1
  Zn  Zn16  1  0.522116  0.185769  0.634615  1
  Zn  Zn17  1  0.022116  0.314231  0.365385  1
  Zn  Zn18  1  0.700910  0.902367  0.421930  1
  Zn  Zn19  1  0.200910  0.597633  0.578070  1
  P  P20  1  0.558306  0.413215  0.798237  1
  P  P21  1  0.723139  0.797869  0.998513  1
  P  P22  1  0.427006  0.327180  0.303061  1
  P  P23  1  0.058306  0.086785  0.201763  1
  P  P24  1  0.941694  0.586785  0.298237  1
  P  P25  1  0.441694  0.913215  0.701763  1
  P  P26  1  0.072994  0.672820  0.803061  1
  P  P27  1  0.905110  0.691200  0.505321  1
  P  P28  1  0.594890  0.308800  0.005321  1
  P  P29  1  0.223139  0.702131  0.001487  1
  P  P30  1  0.276861  0.297869  0.501487  1
  P  P31  1  0.405110  0.808800  0.494679  1
  P  P32  1  0.927006  0.172820  0.696939  1
  P  P33  1  0.776861  0.202131  0.498513  1
  P  P34  1  0.572994  0.827180  0.196939  1
  P  P35  1  0.094890  0.191200  0.994679  1
  O  O36  1  0.736728  0.089674  0.428297  1
  O  O37  1  0.439048  0.897649  0.198001  1
  O  O38  1  0.555636  0.808116  0.488850  1
  O  O39  1  0.144161  0.120507  0.099222  1
  O  O40  1  0.173236  0.617334  0.727114  1
  O  O41  1  0.673236  0.882666  0.272886  1
  O  O42  1  0.662202  0.267147  0.555003  1
  O  O43  1  0.263272  0.589674  0.071703  1
  O  O44  1  0.128115  0.632884  0.915997  1
  O  O45  1  0.143693  0.805961  0.057144  1
  O  O46  1  0.445804  0.178904  0.296669  1
  O  O47  1  0.060952  0.102351  0.698001  1
  O  O48  1  0.763272  0.910326  0.928297  1
  O  O49  1  0.054196  0.821096  0.796669  1
  O  O50  1  0.356307  0.194039  0.557144  1
  O  O51  1  0.644161  0.379493  0.900778  1
  O  O52  1  0.658345  0.477027  0.726844  1
  O  O53  1  0.854576  0.832528  0.498811  1
  O  O54  1  0.945804  0.321096  0.703331  1
  O  O55  1  0.145424  0.332528  0.001189  1
  O  O56  1  0.055636  0.691884  0.511150  1
  O  O57  1  0.855839  0.620507  0.400778  1
  O  O58  1  0.841655  0.522972  0.226844  1
  O  O59  1  0.944364  0.191884  0.988850  1
  O  O60  1  0.165526  0.114735  0.910625  1
  O  O61  1  0.939048  0.602351  0.801999  1
  O  O62  1  0.371885  0.367116  0.415997  1
  O  O63  1  0.053926  0.495278  0.330060  1
  O  O64  1  0.665526  0.385265  0.089375  1
  O  O65  1  0.334474  0.885265  0.410625  1
  O  O66  1  0.326764  0.382666  0.227114  1
  O  O67  1  0.643693  0.694039  0.942856  1
  O  O68  1  0.834474  0.614735  0.589375  1
  O  O69  1  0.497534  0.285912  0.760171  1
  O  O70  1  0.871885  0.132884  0.584003  1
  O  O71  1  0.997534  0.214088  0.239829  1
  O  O72  1  0.341655  0.977028  0.773156  1
  O  O73  1  0.158345  0.022972  0.273156  1
  O  O74  1  0.355839  0.879493  0.599222  1
  O  O75  1  0.645424  0.167472  0.998811  1
  O  O76  1  0.502466  0.785912  0.739829  1
  O  O77  1  0.837798  0.732853  0.055003  1
  O  O78  1  0.446074  0.504722  0.830060  1
  O  O79  1  0.553926  0.004722  0.669940  1
  O  O80  1  0.444364  0.308116  0.011150  1
  O  O81  1  0.354576  0.667472  0.501189  1
  O  O82  1  0.946074  0.995278  0.169940  1
  O  O83  1  0.826764  0.117334  0.772886  1
  O  O84  1  0.856307  0.305961  0.442856  1
  O  O85  1  0.002466  0.714088  0.260171  1
  O  O86  1  0.162202  0.232853  0.444997  1
  O  O87  1  0.236728  0.410326  0.571703  1
  O  O88  1  0.560952  0.397649  0.301999  1
  O  O89  1  0.554196  0.678904  0.203331  1
  O  O90  1  0.337798  0.767147  0.944997  1
  O  O91  1  0.628115  0.867116  0.084003  1
