# generated using pymatgen
data_SrAl22O34
_symmetry_space_group_name_H-M   'P 1'
_cell_length_a   11.85683176
_cell_length_b   47.45865592
_cell_length_c   23.04653107
_cell_angle_alpha   13.77804480
_cell_angle_beta   24.10396975
_cell_angle_gamma   27.55830976
_symmetry_Int_Tables_number   1
_chemical_formula_structural   SrAl22O34
_chemical_formula_sum   'Sr2 Al44 O68'
_cell_volume   1261.36247952
_cell_formula_units_Z   2
loop_
 _symmetry_equiv_pos_site_id
 _symmetry_equiv_pos_as_xyz
  1  'x, y, z'
loop_
 _atom_site_type_symbol
 _atom_site_label
 _atom_site_symmetry_multiplicity
 _atom_site_fract_x
 _atom_site_fract_y
 _atom_site_fract_z
 _atom_site_occupancy
  Al  Al0  1  0.000000  0.000000  0.000000  1
  Al  Al1  1  0.097506  0.124468  0.094185  1
  Al  Al2  1  0.592325  0.000341  0.095037  1
  Al  Al3  1  0.998711  0.250000  -0.000161  1
  Al  Al4  1  0.450594  -0.000011  0.449740  1
  Al  Al5  1  0.097632  0.124711  0.597874  1
  Al  Al6  1  0.097632  0.375289  0.096719  1
  Al  Al7  1  0.595507  0.250000  0.096894  1
  Al  Al8  1  0.000000  0.500000  0.000000  1
  Al  Al9  1  0.650805  0.999040  0.651707  1
  Al  Al10  1  0.350505  0.250000  0.351083  1
  Al  Al11  1  0.901690  0.123323  0.407924  1
  Al  Al12  1  0.456263  0.250000  0.448081  1
  Al  Al13  1  0.551172  0.250000  0.548020  1
  Al  Al14  1  0.097506  0.375532  0.592059  1
  Al  Al15  1  0.098310  0.623323  0.098783  1
  Al  Al16  1  0.592325  0.499659  0.096403  1
  Al  Al17  1  0.001289  0.750000  1.000161  1
  Al  Al18  1  0.649130  0.250000  0.650759  1
  Al  Al19  1  0.349195  0.499040  0.352132  1
  Al  Al20  1  0.408056  0.250000  0.901778  1
  Al  Al21  1  0.907232  0.126502  0.901831  1
  Al  Al22  1  0.907232  0.373498  0.407838  1
  Al  Al23  1  0.450594  0.500011  0.449697  1
  Al  Al24  1  0.549406  0.499989  0.550303  1
  Al  Al25  1  0.092768  0.873498  0.098169  1
  Al  Al26  1  0.092768  0.626502  0.592162  1
  Al  Al27  1  0.591944  0.750000  0.098222  1
  Al  Al28  1  0.650805  0.500960  0.647868  1
  Al  Al29  1  0.350870  0.750000  0.349241  1
  Al  Al30  1  0.407675  0.500341  0.903597  1
  Al  Al31  1  0.901690  0.376677  0.901217  1
  Al  Al32  1  0.902494  0.624468  0.407941  1
  Al  Al33  1  0.448828  0.750000  0.451980  1
  Al  Al34  1  0.543737  0.750000  0.551919  1
  Al  Al35  1  0.098310  0.876677  0.592076  1
  Al  Al36  1  0.649495  0.750000  0.648917  1
  Al  Al37  1  0.349195  0.000960  0.348293  1
  Al  Al38  1  0.404493  0.750000  0.903106  1
  Al  Al39  1  0.902368  0.875289  0.402126  1
  Al  Al40  1  0.902368  0.624711  0.903281  1
  Al  Al41  1  0.549406  1.000011  0.550260  1
  Al  Al42  1  0.407675  0.999659  0.904963  1
  Al  Al43  1  0.902494  0.875532  0.905815  1
  O  O44  1  0.092443  0.998380  0.098323  1
  O  O45  1  0.187456  0.133309  0.189271  1
  O  O46  1  0.717626  0.998184  0.194431  1
  O  O47  1  0.095872  0.250000  0.095773  1
  O  O48  1  0.594940  0.125527  0.095356  1
  O  O49  1  0.500000  0.000000  0.500000  1
  O  O50  1  0.392254  0.130070  0.395789  1
  O  O51  1  0.904572  0.999153  0.405291  1
  O  O52  1  0.298903  0.250000  0.295865  1
  O  O53  1  0.804686  0.132268  0.283145  1
  O  O54  1  0.188790  0.117468  0.720641  1
  O  O55  1  0.188790  0.382532  0.190512  1
  O  O56  1  0.722299  0.250000  0.188653  1
  O  O57  1  0.703907  0.998608  0.706046  1
  O  O58  1  0.092443  0.501620  0.091844  1
  O  O59  1  0.098381  0.250000  0.597541  1
  O  O60  1  0.599535  0.124490  0.595053  1
  O  O61  1  0.599535  0.375510  0.093013  1
  O  O62  1  0.591697  0.250000  0.454239  1
  O  O63  1  0.403316  0.374692  0.403585  1
  O  O64  1  0.403316  0.125308  0.902353  1
  O  O65  1  0.914525  0.250000  0.397867  1
  O  O66  1  0.296093  0.498608  0.299520  1
  O  O67  1  0.279786  0.250000  0.810523  1
  O  O68  1  0.811541  0.118534  0.807746  1
  O  O69  1  0.811541  0.381466  0.281881  1
  O  O70  1  0.187456  0.366691  0.722505  1
  O  O71  1  0.195314  0.632268  0.187782  1
  O  O72  1  0.717626  0.501816  0.187168  1
  O  O73  1  0.704967  0.250000  0.703137  1
  O  O74  1  0.097542  0.750000  0.092503  1
  O  O75  1  0.095428  0.499153  0.598098  1
  O  O76  1  0.594940  0.374473  0.597462  1
  O  O77  1  0.607746  0.630070  0.083931  1
  O  O78  1  0.500000  0.500000  0.500000  1
  O  O79  1  0.392254  0.369930  0.916069  1
  O  O80  1  0.405060  0.625527  0.402538  1
  O  O81  1  0.904572  0.500847  0.401902  1
  O  O82  1  0.902458  0.250000  0.907497  1
  O  O83  1  0.295033  0.750000  0.296863  1
  O  O84  1  0.282374  0.498184  0.812832  1
  O  O85  1  0.804686  0.367732  0.812218  1
  O  O86  1  0.812544  0.633309  0.277495  1
  O  O87  1  0.188459  0.618534  0.718119  1
  O  O88  1  0.188459  0.881466  0.192254  1
  O  O89  1  0.720214  0.750000  0.189477  1
  O  O90  1  0.703907  0.501392  0.700480  1
  O  O91  1  0.085475  0.750000  0.602133  1
  O  O92  1  0.596684  0.874692  0.097647  1
  O  O93  1  0.596684  0.625308  0.596415  1
  O  O94  1  0.408303  0.750000  0.545761  1
  O  O95  1  0.400465  0.624490  0.906987  1
  O  O96  1  0.400465  0.875510  0.404947  1
  O  O97  1  0.901619  0.750000  0.402459  1
  O  O98  1  0.907557  0.498380  0.908156  1
  O  O99  1  0.296093  0.001392  0.293954  1
  O  O100  1  0.277701  0.750000  0.811347  1
  O  O101  1  0.811210  0.882532  0.279359  1
  O  O102  1  0.811210  0.617468  0.809488  1
  O  O103  1  0.195314  0.867732  0.716855  1
  O  O104  1  0.701097  0.750000  0.704135  1
  O  O105  1  0.095428  0.000847  0.594709  1
  O  O106  1  0.607746  0.869930  0.604211  1
  O  O107  1  0.405060  0.874473  0.904644  1
  O  O108  1  0.904128  0.750000  0.904227  1
  O  O109  1  0.282374  0.001816  0.805569  1
  O  O110  1  0.812544  0.866691  0.810729  1
  O  O111  1  0.907557  0.001620  0.901676  1
  Sr  Sr112  1  0.129470  0.250000  0.195046  1
  Sr  Sr113  1  0.870530  0.750000  0.804954  1
