# generated using pymatgen
data_Na2ZnFeF7
_symmetry_space_group_name_H-M   'P 1'
_cell_length_a   7.41292258
_cell_length_b   7.41292259
_cell_length_c   24.92823873
_cell_angle_alpha   81.76709681
_cell_angle_beta   81.76709681
_cell_angle_gamma   60.55546935
_symmetry_Int_Tables_number   1
_chemical_formula_structural   Na2ZnFeF7
_chemical_formula_sum   'Na16 Zn8 Fe8 F56'
_cell_volume   1176.38869889
_cell_formula_units_Z   8
loop_
 _symmetry_equiv_pos_site_id
 _symmetry_equiv_pos_as_xyz
  1  'x, y, z'
loop_
 _atom_site_type_symbol
 _atom_site_label
 _atom_site_symmetry_multiplicity
 _atom_site_fract_x
 _atom_site_fract_y
 _atom_site_fract_z
 _atom_site_occupancy
  F  F0  1  0.363709  0.814173  0.454528  1
  F  F1  1  0.185827  0.636291  0.045472  1
  F  F2  1  0.636291  0.185827  0.545472  1
  F  F3  1  0.814173  0.363709  0.954528  1
  F  F4  1  0.360486  0.969636  0.295681  1
  F  F5  1  0.030364  0.639514  0.204319  1
  F  F6  1  0.639514  0.030364  0.704319  1
  F  F7  1  0.969636  0.360486  0.795681  1
  F  F8  1  0.025971  0.139072  0.209543  1
  F  F9  1  0.860928  0.974029  0.290457  1
  F  F10  1  0.974029  0.860928  0.790457  1
  F  F11  1  0.139072  0.025971  0.709543  1
  F  F12  1  0.866527  0.793600  0.468219  1
  F  F13  1  0.206400  0.133473  0.031781  1
  F  F14  1  0.133473  0.206400  0.531781  1
  F  F15  1  0.793600  0.866527  0.968219  1
  F  F16  1  0.642136  0.306828  0.399986  1
  F  F17  1  0.693172  0.357864  0.100014  1
  F  F18  1  0.357864  0.693172  0.600014  1
  F  F19  1  0.306828  0.642136  0.899986  1
  F  F20  1  0.094700  0.456409  0.346064  1
  F  F21  1  0.861821  0.361804  0.294193  1
  F  F22  1  0.543591  0.905300  0.153936  1
  F  F23  1  0.456409  0.094700  0.846064  1
  F  F24  1  0.660902  0.698496  0.359952  1
  F  F25  1  0.301504  0.339098  0.140048  1
  F  F26  1  0.339098  0.301504  0.640048  1
  F  F27  1  0.698496  0.660902  0.859952  1
  F  F28  1  0.065898  0.073826  0.391187  1
  F  F29  1  0.926174  0.934102  0.108813  1
  F  F30  1  0.934102  0.926174  0.608813  1
  F  F31  1  0.073826  0.065898  0.891187  1
  F  F32  1  0.420953  0.255246  0.952641  1
  F  F33  1  0.744754  0.579047  0.547359  1
  F  F34  1  0.579047  0.744754  0.047359  1
  F  F35  1  0.255246  0.420953  0.452641  1
  F  F36  1  0.362088  0.474273  0.790444  1
  F  F37  1  0.525727  0.637912  0.709556  1
  F  F38  1  0.637912  0.525727  0.209556  1
  F  F39  1  0.474273  0.362088  0.290444  1
  F  F40  1  0.698543  0.270179  0.858374  1
  F  F41  1  0.729821  0.301457  0.641626  1
  F  F42  1  0.301457  0.729821  0.141626  1
  F  F43  1  0.270179  0.698543  0.358374  1
  F  F44  1  0.075380  0.461796  0.890111  1
  F  F45  1  0.538204  0.924620  0.609889  1
  F  F46  1  0.924620  0.538204  0.109889  1
  F  F47  1  0.461796  0.075380  0.390111  1
  F  F48  1  0.416804  0.863549  0.954830  1
  F  F49  1  0.136451  0.583196  0.545170  1
  F  F50  1  0.583196  0.136451  0.045170  1
  F  F51  1  0.863549  0.416804  0.454830  1
  F  F52  1  0.361804  0.861821  0.794193  1
  F  F53  1  0.138179  0.638196  0.705807  1
  F  F54  1  0.638196  0.138179  0.205807  1
  F  F55  1  0.905300  0.543591  0.653936  1
  Na  Na56  1  0.000000  0.000000  0.000000  1
  Na  Na57  1  0.000000  0.000000  0.500000  1
  Na  Na58  1  0.500000  0.500000  0.000000  1
  Na  Na59  1  0.500000  0.500000  0.500000  1
  Na  Na60  1  0.500000  0.000000  0.500000  1
  Na  Na61  1  0.000000  0.500000  0.000000  1
  Na  Na62  1  0.786363  0.213637  0.750000  1
  Na  Na63  1  0.213637  0.786363  0.250000  1
  Na  Na64  1  0.300643  0.203456  0.751532  1
  Na  Na65  1  0.796544  0.699357  0.748468  1
  Na  Na66  1  0.699357  0.796544  0.248468  1
  Na  Na67  1  0.203456  0.300643  0.251532  1
  Na  Na68  1  0.887098  0.861349  0.878447  1
  Na  Na69  1  0.138651  0.112902  0.621553  1
  Na  Na70  1  0.112902  0.138651  0.121553  1
  Na  Na71  1  0.861349  0.887098  0.378447  1
  Fe  Fe72  1  0.363578  0.888260  0.374848  1
  Fe  Fe73  1  0.111740  0.636422  0.125152  1
  Fe  Fe74  1  0.636422  0.111740  0.625152  1
  Fe  Fe75  1  0.888260  0.363578  0.874848  1
  Fe  Fe76  1  0.752855  0.247145  0.250000  1
  Fe  Fe77  1  0.247145  0.752855  0.750000  1
  Fe  Fe78  1  0.000000  0.500000  0.500000  1
  Fe  Fe79  1  0.500000  0.000000  0.000000  1
  Zn  Zn80  1  0.865399  0.386694  0.374461  1
  Zn  Zn81  1  0.613306  0.134601  0.125539  1
  Zn  Zn82  1  0.134601  0.613306  0.625539  1
  Zn  Zn83  1  0.386694  0.865399  0.874461  1
  Zn  Zn84  1  0.369238  0.385769  0.371979  1
  Zn  Zn85  1  0.614231  0.630762  0.128021  1
  Zn  Zn86  1  0.630762  0.614231  0.628021  1
  Zn  Zn87  1  0.385769  0.369238  0.871979  1
