# generated using pymatgen
data_Cu3As4H18C8Br3(NO2)2
_symmetry_space_group_name_H-M   'P 1'
_cell_length_a   10.95252841
_cell_length_b   10.95252800
_cell_length_c   11.28177375
_cell_angle_alpha   98.10915491
_cell_angle_beta   98.10915455
_cell_angle_gamma   112.40543424
_symmetry_Int_Tables_number   1
_chemical_formula_structural   Cu3As4H18C8Br3(NO2)2
_chemical_formula_sum   'Cu6 As8 H36 C16 Br6 N4 O8'
_cell_volume   1210.27629715
_cell_formula_units_Z   2
loop_
 _symmetry_equiv_pos_site_id
 _symmetry_equiv_pos_as_xyz
  1  'x, y, z'
loop_
 _atom_site_type_symbol
 _atom_site_label
 _atom_site_symmetry_multiplicity
 _atom_site_fract_x
 _atom_site_fract_y
 _atom_site_fract_z
 _atom_site_occupancy
  As  As0  1  0.746642  0.119862  0.562222  1
  As  As1  1  0.880138  0.253358  0.937778  1
  As  As2  1  0.253358  0.880138  0.437778  1
  As  As3  1  0.119862  0.746642  0.062222  1
  As  As4  1  0.516643  0.821507  0.528198  1
  As  As5  1  0.178493  0.483357  0.971802  1
  As  As6  1  0.483357  0.178493  0.471802  1
  As  As7  1  0.821507  0.516643  0.028198  1
  Cu  Cu8  1  0.877907  0.122093  0.750000  1
  Cu  Cu9  1  0.122093  0.877907  0.250000  1
  Cu  Cu10  1  0.542951  0.846717  0.741702  1
  Cu  Cu11  1  0.153283  0.457049  0.758298  1
  Cu  Cu12  1  0.457049  0.153283  0.258298  1
  Cu  Cu13  1  0.846717  0.542951  0.241702  1
  Br  Br14  1  0.393218  0.606782  0.750000  1
  Br  Br15  1  0.606782  0.393218  0.250000  1
  Br  Br16  1  0.788706  0.891370  0.792008  1
  Br  Br17  1  0.108630  0.211294  0.707992  1
  Br  Br18  1  0.211294  0.108630  0.207992  1
  Br  Br19  1  0.891370  0.788706  0.292008  1
  O  O20  1  0.642435  0.215259  0.577248  1
  O  O21  1  0.784741  0.357565  0.922752  1
  O  O22  1  0.357565  0.784741  0.422752  1
  O  O23  1  0.215259  0.642435  0.077248  1
  O  O24  1  0.626280  0.958972  0.465361  1
  O  O25  1  0.041028  0.373720  0.034639  1
  O  O26  1  0.373720  0.041028  0.534639  1
  O  O27  1  0.958972  0.626280  0.965361  1
  C  C28  1  0.827754  0.181066  0.425845  1
  C  C29  1  0.818934  0.172246  0.074155  1
  C  C30  1  0.172246  0.818934  0.574155  1
  C  C31  1  0.181066  0.827754  0.925845  1
  H  H32  1  0.876135  0.291576  0.448138  1
  H  H33  1  0.708424  0.123865  0.051862  1
  H  H34  1  0.123865  0.708424  0.551862  1
  H  H35  1  0.291576  0.876135  0.948138  1
  H  H36  1  0.747213  0.145204  0.343379  1
  H  H37  1  0.854796  0.252787  0.156621  1
  H  H38  1  0.252787  0.854796  0.656621  1
  H  H39  1  0.145204  0.747213  0.843379  1
  H  H40  1  0.902575  0.138859  0.414495  1
  H  H41  1  0.861141  0.097425  0.085505  1
  H  H42  1  0.097425  0.861141  0.585505  1
  H  H43  1  0.138859  0.902575  0.914495  1
  C  C44  1  0.552494  0.680789  0.431880  1
  C  C45  1  0.319211  0.447506  0.068120  1
  C  C46  1  0.447506  0.319211  0.568120  1
  C  C47  1  0.680789  0.552494  0.931880  1
  H  H48  1  0.502874  0.584724  0.459117  1
  H  H49  1  0.415276  0.497126  0.040883  1
  H  H50  1  0.497126  0.415276  0.540883  1
  H  H51  1  0.584724  0.502874  0.959117  1
  H  H52  1  0.662114  0.711242  0.450154  1
  H  H53  1  0.288758  0.337886  0.049846  1
  H  H54  1  0.337886  0.288758  0.549846  1
  H  H55  1  0.711242  0.662114  0.950154  1
  H  H56  1  0.514518  0.671776  0.334545  1
  H  H57  1  0.328224  0.485482  0.165455  1
  H  H58  1  0.485482  0.328224  0.665455  1
  H  H59  1  0.671776  0.514518  0.834545  1
  N  N60  1  0.503075  0.985180  0.827305  1
  N  N61  1  0.014820  0.496925  0.672695  1
  N  N62  1  0.496925  0.014820  0.172695  1
  N  N63  1  0.985180  0.503075  0.327305  1
  C  C64  1  0.469631  0.071624  0.858153  1
  C  C65  1  0.928376  0.530369  0.641847  1
  C  C66  1  0.530369  0.928376  0.141847  1
  C  C67  1  0.071624  0.469631  0.358153  1
  C  C68  1  0.427183  0.177465  0.896772  1
  C  C69  1  0.822535  0.572817  0.603228  1
  C  C70  1  0.572817  0.822535  0.103228  1
  C  C71  1  0.177465  0.427183  0.396772  1
  H  H72  1  0.392531  0.166495  0.983188  1
  H  H73  1  0.833505  0.607469  0.516812  1
  H  H74  1  0.607469  0.833505  0.016812  1
  H  H75  1  0.166495  0.392531  0.483188  1
  H  H76  1  0.344399  0.173531  0.826236  1
  H  H77  1  0.826469  0.655601  0.673764  1
  H  H78  1  0.655601  0.826469  0.173764  1
  H  H79  1  0.173531  0.344399  0.326236  1
  H  H80  1  0.513466  0.275601  0.912273  1
  H  H81  1  0.724399  0.486534  0.587727  1
  H  H82  1  0.486534  0.724399  0.087727  1
  H  H83  1  0.275601  0.513466  0.412273  1
