# generated using pymatgen
data_NaAsS2
_symmetry_space_group_name_H-M   'P 1'
_cell_length_a   5.65593517
_cell_length_b   5.97274297
_cell_length_c   11.69652601
_cell_angle_alpha   90.00000000
_cell_angle_beta   90.00000000
_cell_angle_gamma   89.51988382
_symmetry_Int_Tables_number   1
_chemical_formula_structural   NaAsS2
_chemical_formula_sum   'Na4 As4 S8'
_cell_volume   395.11170131
_cell_formula_units_Z   4
loop_
 _symmetry_equiv_pos_site_id
 _symmetry_equiv_pos_as_xyz
  1  'x, y, z'
loop_
 _atom_site_type_symbol
 _atom_site_label
 _atom_site_symmetry_multiplicity
 _atom_site_fract_x
 _atom_site_fract_y
 _atom_site_fract_z
 _atom_site_occupancy
  Na  Na0  1  0.761604  0.491927  0.374662  1
  Na  Na1  1  0.238396  0.508073  0.625338  1
  Na  Na2  1  0.261604  0.491927  0.125338  1
  Na  Na3  1  0.738396  0.508073  0.874662  1
  S  S4  1  0.673235  0.002090  0.839564  1
  S  S5  1  0.173235  0.002090  0.660436  1
  S  S6  1  0.826765  0.997910  0.339564  1
  S  S7  1  0.326765  0.997910  0.160436  1
  S  S8  1  0.238608  0.431145  0.874122  1
  S  S9  1  0.261392  0.568855  0.374122  1
  S  S10  1  0.761392  0.568855  0.125878  1
  S  S11  1  0.738608  0.431145  0.625878  1
  As  As12  1  0.760699  0.065214  0.645418  1
  As  As13  1  0.739301  0.934786  0.145418  1
  As  As14  1  0.239301  0.934786  0.354582  1
  As  As15  1  0.260699  0.065214  0.854582  1
