# generated using pymatgen
data_KCrO2
_symmetry_space_group_name_H-M   'P 1'
_cell_length_a   6.27458452
_cell_length_b   6.27458444
_cell_length_c   6.27458518
_cell_angle_alpha   28.82163101
_cell_angle_beta   28.82163232
_cell_angle_gamma   28.82163199
_symmetry_Int_Tables_number   1
_chemical_formula_structural   KCrO2
_chemical_formula_sum   'K1 Cr1 O2'
_cell_volume   50.76722927
_cell_formula_units_Z   1
loop_
 _symmetry_equiv_pos_site_id
 _symmetry_equiv_pos_as_xyz
  1  'x, y, z'
loop_
 _atom_site_type_symbol
 _atom_site_label
 _atom_site_symmetry_multiplicity
 _atom_site_fract_x
 _atom_site_fract_y
 _atom_site_fract_z
 _atom_site_occupancy
  O  O0  1  0.776243  0.776243  0.776243  1
  Cr  Cr1  1  0.500034  0.500034  0.500034  1
  O  O2  1  0.223707  0.223707  0.223707  1
  K  K3  1  0.000016  0.000016  0.000016  1
