# generated using pymatgen
data_Ba7Na5Li3N3
_symmetry_space_group_name_H-M   'P 1'
_cell_length_a   12.48334449
_cell_length_b   12.48334422
_cell_length_c   12.48334477
_cell_angle_alpha   59.99999856
_cell_angle_beta   59.99999927
_cell_angle_gamma   59.99999730
_symmetry_Int_Tables_number   1
_chemical_formula_structural   Ba7Na5Li3N3
_chemical_formula_sum   'Ba14 Na10 Li6 N6'
_cell_volume   1375.55466035
_cell_formula_units_Z   2
loop_
 _symmetry_equiv_pos_site_id
 _symmetry_equiv_pos_as_xyz
  1  'x, y, z'
loop_
 _atom_site_type_symbol
 _atom_site_label
 _atom_site_symmetry_multiplicity
 _atom_site_fract_x
 _atom_site_fract_y
 _atom_site_fract_z
 _atom_site_occupancy
  Ba  Ba0  1  0.685812  0.104729  0.104729  1
  Ba  Ba1  1  0.708919  0.291081  0.291081  1
  Ba  Ba2  1  0.708919  0.291081  0.708919  1
  Ba  Ba3  1  0.896076  0.896076  0.896076  1
  Ba  Ba4  1  0.708919  0.708919  0.291081  1
  Ba  Ba5  1  0.291081  0.291081  0.708919  1
  Ba  Ba6  1  0.291081  0.708919  0.291081  1
  Ba  Ba7  1  0.896076  0.311773  0.896076  1
  Ba  Ba8  1  0.104729  0.104729  0.104729  1
  Ba  Ba9  1  0.104729  0.685812  0.104729  1
  Ba  Ba10  1  0.291081  0.708919  0.708919  1
  Ba  Ba11  1  0.104729  0.104729  0.685812  1
  Ba  Ba12  1  0.311773  0.896076  0.896076  1
  Ba  Ba13  1  0.896076  0.896076  0.311773  1
  Na  Na14  1  0.008363  0.008363  0.491637  1
  Na  Na15  1  0.491637  0.008363  0.008363  1
  Na  Na16  1  0.008363  0.491637  0.491637  1
  Na  Na17  1  0.491637  0.491637  0.008363  1
  Na  Na18  1  0.670754  0.670754  0.987739  1
  Na  Na19  1  0.008363  0.491637  0.008363  1
  Na  Na20  1  0.987739  0.670754  0.670754  1
  Na  Na21  1  0.670754  0.987739  0.670754  1
  Na  Na22  1  0.670754  0.670754  0.670754  1
  Na  Na23  1  0.491637  0.008363  0.491637  1
  Li  Li24  1  0.321240  0.321240  0.036280  1
  Li  Li25  1  0.321240  0.036280  0.321240  1
  Li  Li26  1  0.321240  0.321240  0.321240  1
  Li  Li27  1  0.000000  0.000000  0.000000  1
  Li  Li28  1  0.036280  0.321240  0.321240  1
  Li  Li29  1  0.500000  0.500000  0.500000  1
  N  N30  1  0.148689  0.851311  0.148689  1
  N  N31  1  0.851311  0.148689  0.851311  1
  N  N32  1  0.851311  0.851311  0.148689  1
  N  N33  1  0.148689  0.851311  0.851311  1
  N  N34  1  0.148689  0.148689  0.851311  1
  N  N35  1  0.851311  0.148689  0.148689  1
