# generated using pymatgen
data_Ca51W12N56O3
_symmetry_space_group_name_H-M   'P 1'
_cell_length_a   10.61213422
_cell_length_b   12.48998314
_cell_length_c   16.09340261
_cell_angle_alpha   102.83040443
_cell_angle_beta   95.08690926
_cell_angle_gamma   109.85970771
_symmetry_Int_Tables_number   1
_chemical_formula_structural   Ca51W12N56O3
_chemical_formula_sum   'Ca51 W12 N56 O3'
_cell_volume   1924.57536531
_cell_formula_units_Z   1
loop_
 _symmetry_equiv_pos_site_id
 _symmetry_equiv_pos_as_xyz
  1  'x, y, z'
loop_
 _atom_site_type_symbol
 _atom_site_label
 _atom_site_symmetry_multiplicity
 _atom_site_fract_x
 _atom_site_fract_y
 _atom_site_fract_z
 _atom_site_occupancy
  Ca  Ca0  1  0.471749  0.522962  0.401356  1
  Ca  Ca1  1  0.930897  0.174028  0.162096  1
  Ca  Ca2  1  0.406241  0.764933  0.372102  1
  Ca  Ca3  1  0.541224  0.393666  0.021575  1
  Ca  Ca4  1  0.437269  0.678194  0.784663  1
  Ca  Ca5  1  0.458776  0.606334  0.978425  1
  Ca  Ca6  1  0.287523  0.135704  0.717009  1
  Ca  Ca7  1  0.693177  0.957569  0.878078  1
  Ca  Ca8  1  0.361462  0.904458  0.747914  1
  Ca  Ca9  1  0.766870  0.721144  0.903785  1
  Ca  Ca10  1  0.638538  0.095542  0.252086  1
  Ca  Ca11  1  0.306823  0.042431  0.121922  1
  Ca  Ca12  1  0.355558  0.856267  0.945857  1
  Ca  Ca13  1  0.528251  0.477038  0.598644  1
  Ca  Ca14  1  0.088448  0.694359  0.254091  1
  Ca  Ca15  1  0.753977  0.773294  0.707082  1
  Ca  Ca16  1  0.013351  0.949368  0.200549  1
  Ca  Ca17  1  0.233130  0.278856  0.096215  1
  Ca  Ca18  1  0.030471  0.880157  0.414786  1
  Ca  Ca19  1  0.899968  0.368480  0.331264  1
  Ca  Ca20  1  0.644347  0.035899  0.455726  1
  Ca  Ca21  1  0.644442  0.143733  0.054143  1
  Ca  Ca22  1  0.219891  0.329592  0.902909  1
  Ca  Ca23  1  0.677752  0.021058  0.671689  1
  Ca  Ca24  1  0.398597  0.805775  0.168928  1
  Ca  Ca25  1  0.519623  0.430369  0.820104  1
  Ca  Ca26  1  0.263120  0.193283  0.505861  1
  Ca  Ca27  1  0.601403  0.194225  0.831072  1
  Ca  Ca28  1  0.856235  0.418935  0.142737  1
  Ca  Ca29  1  0.480377  0.569631  0.179896  1
  Ca  Ca30  1  0.246023  0.226706  0.292918  1
  Ca  Ca31  1  0.881363  0.340246  0.542569  1
  Ca  Ca32  1  0.158392  0.512102  0.065367  1
  Ca  Ca33  1  0.355653  0.964101  0.544274  1
  Ca  Ca34  1  0.911552  0.305641  0.745909  1
  Ca  Ca35  1  0.841608  0.487898  0.934633  1
  Ca  Ca36  1  0.143765  0.581065  0.857263  1
  Ca  Ca37  1  0.118637  0.659754  0.457431  1
  Ca  Ca38  1  0.736880  0.806717  0.494139  1
  Ca  Ca39  1  0.593759  0.235067  0.627898  1
  Ca  Ca40  1  0.186793  0.456681  0.515476  1
  Ca  Ca41  1  0.969529  0.119843  0.585214  1
  Ca  Ca42  1  0.986649  0.050632  0.799451  1
  Ca  Ca43  1  0.069103  0.825972  0.837904  1
  Ca  Ca44  1  0.712477  0.864296  0.282991  1
  Ca  Ca45  1  0.562731  0.321806  0.215337  1
  Ca  Ca46  1  0.322248  0.978942  0.328311  1
  Ca  Ca47  1  0.000000  0.000000  0.000000  1
  Ca  Ca48  1  0.813207  0.543319  0.484524  1
  Ca  Ca49  1  0.780109  0.670408  0.097091  1
  Ca  Ca50  1  0.100032  0.631520  0.668736  1
  W  W51  1  0.909015  0.256724  0.928123  1
  W  W52  1  0.968243  0.097430  0.384366  1
  W  W53  1  0.227631  0.486730  0.264793  1
  W  W54  1  0.372616  0.117528  0.943670  1
  W  W55  1  0.477900  0.756230  0.590779  1
  W  W56  1  0.772369  0.513270  0.735207  1
  W  W57  1  0.220461  0.375818  0.714476  1
  W  W58  1  0.090985  0.743276  0.071877  1
  W  W59  1  0.779539  0.624182  0.285524  1
  W  W60  1  0.031757  0.902570  0.615634  1
  W  W61  1  0.627384  0.882472  0.056330  1
  W  W62  1  0.522100  0.243770  0.409221  1
  N  N63  1  0.555603  0.792488  0.937555  1
  N  N64  1  0.145367  0.018755  0.565821  1
  N  N65  1  0.493881  0.042759  0.905185  1
  N  N66  1  0.057764  0.386645  0.195822  1
  N  N67  1  0.986402  0.602935  0.099488  1
  N  N68  1  0.761237  0.467130  0.612903  1
  N  N69  1  0.238763  0.532870  0.387097  1
  N  N70  1  0.095036  0.433487  0.665808  1
  N  N71  1  0.808804  0.144438  0.819065  1
  N  N72  1  0.642305  0.587487  0.752122  1
  N  N73  1  0.780851  0.301577  0.990773  1
  N  N74  1  0.707789  0.371643  0.773417  1
  N  N75  1  0.535049  0.873180  0.526202  1
  N  N76  1  0.347858  0.338243  0.646552  1
  N  N77  1  0.651905  0.543721  0.957499  1
  N  N78  1  0.444397  0.207512  0.062445  1
  N  N79  1  0.867387  0.886155  0.845656  1
  N  N80  1  0.558939  0.834696  0.710097  1
  N  N81  1  0.433056  0.350754  0.448488  1
  N  N82  1  0.040009  0.202278  0.973158  1
  N  N83  1  0.614043  0.769463  0.124840  1
  N  N84  1  0.679873  0.514413  0.176056  1
  N  N85  1  0.121454  0.054885  0.360313  1
  N  N86  1  0.566944  0.649246  0.551512  1
  N  N87  1  0.292211  0.628357  0.226583  1
  N  N88  1  0.522020  0.918444  0.315057  1
  N  N89  1  0.214361  0.994233  0.951463  1
  N  N90  1  0.441061  0.165304  0.289903  1
  N  N91  1  0.506119  0.957241  0.094815  1
  N  N92  1  0.785639  0.005767  0.048537  1
  N  N93  1  0.652142  0.661757  0.353448  1
  N  N94  1  0.958701  0.753926  0.529490  1
  N  N95  1  0.219149  0.698423  0.009227  1
  N  N96  1  0.357695  0.412513  0.247878  1
  N  N97  1  0.887339  0.765752  0.260624  1
  N  N98  1  0.013598  0.397065  0.900512  1
  N  N99  1  0.742464  0.258815  0.197348  1
  N  N100  1  0.878546  0.945115  0.639687  1
  N  N101  1  0.320127  0.485587  0.823944  1
  N  N102  1  0.385957  0.230537  0.875160  1
  N  N103  1  0.477980  0.081556  0.684943  1
  N  N104  1  0.464951  0.126820  0.473798  1
  N  N105  1  0.904964  0.566513  0.334192  1
  N  N106  1  0.257536  0.741185  0.802652  1
  N  N107  1  0.191196  0.855562  0.180935  1
  N  N108  1  0.348095  0.456279  0.042501  1
  N  N109  1  0.942236  0.613355  0.804178  1
  N  N110  1  0.112661  0.234248  0.739376  1
  N  N111  1  0.712395  0.306978  0.414086  1
  N  N112  1  0.132613  0.113845  0.154344  1
  N  N113  1  0.959991  0.797722  0.026842  1
  N  N114  1  0.287605  0.693022  0.585914  1
  N  N115  1  0.135235  0.920598  0.722921  1
  N  N116  1  0.864765  0.079402  0.277079  1
  N  N117  1  0.854633  0.981245  0.434179  1
  N  N118  1  0.041299  0.246074  0.470510  1
  O  O119  1  0.782081  0.177285  0.605028  1
  O  O120  1  0.000000  0.500000  0.500000  1
  O  O121  1  0.217919  0.822715  0.394972  1
