# generated using pymatgen
data_Na4Ce(As2O7)2
_symmetry_space_group_name_H-M   'P 1'
_cell_length_a   10.41413076
_cell_length_b   11.00105832
_cell_length_c   11.00105832
_cell_angle_alpha   90.00000000
_cell_angle_beta   90.00000000
_cell_angle_gamma   90.00000000
_symmetry_Int_Tables_number   1
_chemical_formula_structural   Na4Ce(As2O7)2
_chemical_formula_sum   'Na16 Ce4 As16 O56'
_cell_volume   1260.35230625
_cell_formula_units_Z   4
loop_
 _symmetry_equiv_pos_site_id
 _symmetry_equiv_pos_as_xyz
  1  'x, y, z'
loop_
 _atom_site_type_symbol
 _atom_site_label
 _atom_site_symmetry_multiplicity
 _atom_site_fract_x
 _atom_site_fract_y
 _atom_site_fract_z
 _atom_site_occupancy
  Na  Na0  1  0.395632  0.101138  0.675113  1
  Na  Na1  1  0.895632  0.824887  0.398862  1
  Na  Na2  1  0.604368  0.175113  0.898862  1
  Na  Na3  1  0.395632  0.398862  0.824887  1
  Na  Na4  1  0.395632  0.824887  0.101138  1
  Na  Na5  1  0.895632  0.398862  0.675113  1
  Na  Na6  1  0.104368  0.898862  0.175113  1
  Na  Na7  1  0.895632  0.101138  0.824887  1
  Na  Na8  1  0.604368  0.601138  0.175113  1
  Na  Na9  1  0.395632  0.675113  0.398862  1
  Na  Na10  1  0.895632  0.675113  0.101138  1
  Na  Na11  1  0.104368  0.601138  0.324887  1
  Na  Na12  1  0.604368  0.898862  0.324887  1
  Na  Na13  1  0.104368  0.324887  0.898862  1
  Na  Na14  1  0.604368  0.324887  0.601138  1
  Na  Na15  1  0.104368  0.175113  0.601138  1
  Ce  Ce16  1  0.930658  0.750000  0.750000  1
  Ce  Ce17  1  0.069342  0.250000  0.250000  1
  Ce  Ce18  1  0.430658  0.750000  0.750000  1
  Ce  Ce19  1  0.569342  0.250000  0.250000  1
  As  As20  1  0.822722  0.350615  0.023552  1
  As  As21  1  0.677278  0.523552  0.850615  1
  As  As22  1  0.322722  0.149385  0.023552  1
  As  As23  1  0.677278  0.976448  0.649385  1
  As  As24  1  0.177278  0.976448  0.850615  1
  As  As25  1  0.322722  0.350615  0.476448  1
  As  As26  1  0.822722  0.149385  0.476448  1
  As  As27  1  0.322722  0.023552  0.350615  1
  As  As28  1  0.177278  0.523552  0.649385  1
  As  As29  1  0.322722  0.476448  0.149385  1
  As  As30  1  0.177278  0.850615  0.523552  1
  As  As31  1  0.177278  0.649385  0.976448  1
  As  As32  1  0.822722  0.023552  0.149385  1
  As  As33  1  0.822722  0.476448  0.350615  1
  As  As34  1  0.677278  0.850615  0.976448  1
  As  As35  1  0.677278  0.649385  0.523552  1
  O  O36  1  0.881143  0.888293  0.197261  1
  O  O37  1  0.250000  0.999817  0.000183  1
  O  O38  1  0.302498  0.571476  0.738471  1
  O  O39  1  0.802498  0.738471  0.571476  1
  O  O40  1  0.697502  0.428524  0.261529  1
  O  O41  1  0.442963  0.375636  0.116935  1
  O  O42  1  0.942963  0.375636  0.383065  1
  O  O43  1  0.118857  0.802739  0.388293  1
  O  O44  1  0.442963  0.116935  0.124364  1
  O  O45  1  0.057037  0.616935  0.875636  1
  O  O46  1  0.118857  0.111707  0.802739  1
  O  O47  1  0.557037  0.616935  0.624364  1
  O  O48  1  0.302498  0.738471  0.928524  1
  O  O49  1  0.250000  0.499817  0.999817  1
  O  O50  1  0.057037  0.624364  0.616935  1
  O  O51  1  0.802498  0.928524  0.738471  1
  O  O52  1  0.381143  0.302739  0.611707  1
  O  O53  1  0.302498  0.761529  0.571476  1
  O  O54  1  0.442963  0.383065  0.375636  1
  O  O55  1  0.557037  0.624364  0.883065  1
  O  O56  1  0.942963  0.383065  0.124364  1
  O  O57  1  0.697502  0.261529  0.071476  1
  O  O58  1  0.697502  0.238471  0.428524  1
  O  O59  1  0.381143  0.197261  0.888293  1
  O  O60  1  0.802498  0.571476  0.761529  1
  O  O61  1  0.250000  0.000183  0.500183  1
  O  O62  1  0.197502  0.261529  0.428524  1
  O  O63  1  0.750000  0.999817  0.499817  1
  O  O64  1  0.802498  0.761529  0.928524  1
  O  O65  1  0.618857  0.388293  0.802739  1
  O  O66  1  0.197502  0.428524  0.238471  1
  O  O67  1  0.057037  0.883065  0.624364  1
  O  O68  1  0.250000  0.500183  0.499817  1
  O  O69  1  0.197502  0.238471  0.071476  1
  O  O70  1  0.557037  0.875636  0.616935  1
  O  O71  1  0.118857  0.697261  0.111707  1
  O  O72  1  0.881143  0.197261  0.611707  1
  O  O73  1  0.302498  0.928524  0.761529  1
  O  O74  1  0.942963  0.124364  0.116935  1
  O  O75  1  0.618857  0.111707  0.697261  1
  O  O76  1  0.881143  0.302739  0.888293  1
  O  O77  1  0.881143  0.611707  0.302739  1
  O  O78  1  0.381143  0.611707  0.197261  1
  O  O79  1  0.557037  0.883065  0.875636  1
  O  O80  1  0.750000  0.000183  0.999817  1
  O  O81  1  0.197502  0.071476  0.261529  1
  O  O82  1  0.697502  0.071476  0.238471  1
  O  O83  1  0.618857  0.802739  0.111707  1
  O  O84  1  0.118857  0.388293  0.697261  1
  O  O85  1  0.750000  0.500183  0.000183  1
  O  O86  1  0.381143  0.888293  0.302739  1
  O  O87  1  0.057037  0.875636  0.883065  1
  O  O88  1  0.942963  0.116935  0.375636  1
  O  O89  1  0.442963  0.124364  0.383065  1
  O  O90  1  0.750000  0.499817  0.500183  1
  O  O91  1  0.618857  0.697261  0.388293  1
