# generated using pymatgen
data_Yb7Al5Ge8
_symmetry_space_group_name_H-M   'P 1'
_cell_length_a   4.25791876
_cell_length_b   8.31129518
_cell_length_c   12.85658899
_cell_angle_alpha   95.49312548
_cell_angle_beta   90.00000000
_cell_angle_gamma   104.84188935
_symmetry_Int_Tables_number   1
_chemical_formula_structural   Yb7Al5Ge8
_chemical_formula_sum   'Yb7 Al5 Ge8'
_cell_volume   437.63786925
_cell_formula_units_Z   1
loop_
 _symmetry_equiv_pos_site_id
 _symmetry_equiv_pos_as_xyz
  1  'x, y, z'
loop_
 _atom_site_type_symbol
 _atom_site_label
 _atom_site_symmetry_multiplicity
 _atom_site_fract_x
 _atom_site_fract_y
 _atom_site_fract_z
 _atom_site_occupancy
  Yb  Yb0  1  0.840088  0.680177  0.457582  1
  Yb  Yb1  1  0.811252  0.622504  0.133663  1
  Yb  Yb2  1  0.982527  0.965054  0.701569  1
  Yb  Yb3  1  0.017473  0.034946  0.298431  1
  Yb  Yb4  1  0.000000  0.000000  0.000000  1
  Yb  Yb5  1  0.159912  0.319823  0.542418  1
  Yb  Yb6  1  0.188748  0.377496  0.866337  1
  Al  Al7  1  0.775979  0.551958  0.698353  1
  Al  Al8  1  0.224021  0.448042  0.301647  1
  Al  Al9  1  0.391078  0.782155  0.828993  1
  Al  Al10  1  0.608922  0.217845  0.171007  1
  Al  Al11  1  0.500000  0.000000  0.500000  1
  Ge  Ge12  1  0.175957  0.351913  0.105431  1
  Ge  Ge13  1  0.651810  0.303621  0.379960  1
  Ge  Ge14  1  0.824043  0.648087  0.894569  1
  Ge  Ge15  1  0.553500  0.107000  0.859168  1
  Ge  Ge16  1  0.446500  0.893000  0.140832  1
  Ge  Ge17  1  0.612853  0.225707  0.684130  1
  Ge  Ge18  1  0.387147  0.774293  0.315870  1
  Ge  Ge19  1  0.348189  0.696379  0.620040  1
