# generated using pymatgen
data_KUP3O11
_symmetry_space_group_name_H-M   'P 1'
_cell_length_a   8.70180872
_cell_length_b   15.09259241
_cell_length_c   15.22550213
_cell_angle_alpha   96.25717154
_cell_angle_beta   90.00000000
_cell_angle_gamma   90.00000000
_symmetry_Int_Tables_number   1
_chemical_formula_structural   KUP3O11
_chemical_formula_sum   'K8 U8 P24 O88'
_cell_volume   1987.69636162
_cell_formula_units_Z   8
loop_
 _symmetry_equiv_pos_site_id
 _symmetry_equiv_pos_as_xyz
  1  'x, y, z'
loop_
 _atom_site_type_symbol
 _atom_site_label
 _atom_site_symmetry_multiplicity
 _atom_site_fract_x
 _atom_site_fract_y
 _atom_site_fract_z
 _atom_site_occupancy
  K  K0  1  0.590155  0.740093  0.779675  1
  K  K1  1  0.153138  0.724245  0.224887  1
  K  K2  1  0.909845  0.240093  0.279675  1
  K  K3  1  0.346862  0.224245  0.724888  1
  K  K4  1  0.090155  0.759907  0.720325  1
  K  K5  1  0.846862  0.275755  0.775112  1
  K  K6  1  0.409845  0.259907  0.220325  1
  K  K7  1  0.653138  0.775755  0.275112  1
  U  U8  1  0.610729  0.242822  0.514607  1
  U  U9  1  0.830601  0.981715  0.741272  1
  U  U10  1  0.169399  0.018285  0.258728  1
  U  U11  1  0.669399  0.481715  0.241272  1
  U  U12  1  0.110729  0.257178  0.985393  1
  U  U13  1  0.889271  0.742822  0.014607  1
  U  U14  1  0.330601  0.518285  0.758728  1
  U  U15  1  0.389271  0.757178  0.485393  1
  P  P16  1  0.822770  0.980205  0.102829  1
  P  P17  1  0.177230  0.019795  0.897172  1
  P  P18  1  0.600872  0.038706  0.238786  1
  P  P19  1  0.772485  0.102755  0.961026  1
  P  P20  1  0.800004  0.033303  0.392870  1
  P  P21  1  0.100872  0.461294  0.261214  1
  P  P22  1  0.899128  0.538706  0.738786  1
  P  P23  1  0.464574  0.762154  0.040374  1
  P  P24  1  0.535426  0.237846  0.959626  1
  P  P25  1  0.322770  0.519795  0.397172  1
  P  P26  1  0.246662  0.608575  0.991020  1
  P  P27  1  0.300004  0.466697  0.107130  1
  P  P28  1  0.727515  0.602755  0.461026  1
  P  P29  1  0.699996  0.533303  0.892870  1
  P  P30  1  0.227515  0.897245  0.038974  1
  P  P31  1  0.035426  0.262154  0.540374  1
  P  P32  1  0.964574  0.737846  0.459626  1
  P  P33  1  0.253338  0.108575  0.491020  1
  P  P34  1  0.677230  0.480205  0.602828  1
  P  P35  1  0.199996  0.966697  0.607130  1
  P  P36  1  0.753338  0.391425  0.008980  1
  P  P37  1  0.746662  0.891425  0.508980  1
  P  P38  1  0.272485  0.397245  0.538974  1
  P  P39  1  0.399128  0.961294  0.761214  1
  O  O40  1  0.119509  0.823447  0.057471  1
  O  O41  1  0.321033  0.430978  0.446500  1
  O  O42  1  0.710800  0.098520  0.454647  1
  O  O43  1  0.645747  0.235229  0.631145  1
  O  O44  1  0.638753  0.310810  0.020553  1
  O  O45  1  0.444885  0.754255  0.136087  1
  O  O46  1  0.148920  0.366907  0.261947  1
  O  O47  1  0.289200  0.901480  0.545353  1
  O  O48  1  0.145747  0.264771  0.868855  1
  O  O49  1  0.561608  0.255493  0.401615  1
  O  O50  1  0.380491  0.323447  0.557471  1
  O  O51  1  0.061608  0.244507  0.098385  1
  O  O52  1  0.851080  0.633093  0.738053  1
  O  O53  1  0.648920  0.133093  0.238053  1
  O  O54  1  0.942674  0.996119  0.173581  1
  O  O55  1  0.690697  0.988840  0.313929  1
  O  O56  1  0.354253  0.764771  0.368855  1
  O  O57  1  0.840037  0.945195  0.439796  1
  O  O58  1  0.935085  0.485911  0.251361  1
  O  O59  1  0.607049  0.145324  0.987654  1
  O  O60  1  0.892951  0.645324  0.487654  1
  O  O61  1  0.677324  0.364297  0.258252  1
  O  O62  1  0.236641  0.553653  0.903178  1
  O  O63  1  0.938392  0.755493  0.901615  1
  O  O64  1  0.620789  0.757737  0.996320  1
  O  O65  1  0.442674  0.503881  0.326419  1
  O  O66  1  0.667372  0.399016  0.537069  1
  O  O67  1  0.167372  0.100984  0.962931  1
  O  O68  1  0.343420  0.402586  0.777871  1
  O  O69  1  0.402009  0.141649  0.533770  1
  O  O70  1  0.379211  0.242263  0.003680  1
  O  O71  1  0.435085  0.014089  0.248639  1
  O  O72  1  0.678967  0.569022  0.553500  1
  O  O73  1  0.255470  0.474758  0.608592  1
  O  O74  1  0.263359  0.053653  0.403178  1
  O  O75  1  0.659963  0.445195  0.939796  1
  O  O76  1  0.736641  0.946347  0.596822  1
  O  O77  1  0.343381  0.022419  0.850692  1
  O  O78  1  0.822676  0.864297  0.758252  1
  O  O79  1  0.322676  0.635703  0.741748  1
  O  O80  1  0.392951  0.854676  0.012346  1
  O  O81  1  0.821033  0.069022  0.053500  1
  O  O82  1  0.447548  0.436447  0.145820  1
  O  O83  1  0.564915  0.985911  0.751361  1
  O  O84  1  0.055115  0.254255  0.636087  1
  O  O85  1  0.947548  0.063553  0.354180  1
  O  O86  1  0.156580  0.902586  0.277871  1
  O  O87  1  0.843381  0.477581  0.649308  1
  O  O88  1  0.177324  0.135703  0.241748  1
  O  O89  1  0.190697  0.511160  0.186071  1
  O  O90  1  0.552452  0.563553  0.854180  1
  O  O91  1  0.057326  0.003881  0.826419  1
  O  O92  1  0.854253  0.735229  0.131145  1
  O  O93  1  0.309303  0.011160  0.686071  1
  O  O94  1  0.879211  0.257737  0.496320  1
  O  O95  1  0.332628  0.600984  0.462931  1
  O  O96  1  0.361247  0.689190  0.979447  1
  O  O97  1  0.156619  0.522419  0.350692  1
  O  O98  1  0.064915  0.514089  0.748639  1
  O  O99  1  0.832628  0.899016  0.037069  1
  O  O100  1  0.944885  0.745745  0.363913  1
  O  O101  1  0.619509  0.676553  0.442529  1
  O  O102  1  0.097991  0.641649  0.033770  1
  O  O103  1  0.789200  0.598520  0.954647  1
  O  O104  1  0.843420  0.097414  0.722129  1
  O  O105  1  0.763359  0.446347  0.096822  1
  O  O106  1  0.809303  0.488840  0.813929  1
  O  O107  1  0.656580  0.597414  0.222129  1
  O  O108  1  0.902009  0.358351  0.966230  1
  O  O109  1  0.210800  0.401480  0.045353  1
  O  O110  1  0.744530  0.525242  0.391408  1
  O  O111  1  0.597991  0.858351  0.466230  1
  O  O112  1  0.755470  0.025242  0.891408  1
  O  O113  1  0.107049  0.354676  0.512346  1
  O  O114  1  0.438392  0.744507  0.598385  1
  O  O115  1  0.244530  0.974758  0.108592  1
  O  O116  1  0.557326  0.496119  0.673581  1
  O  O117  1  0.120789  0.742263  0.503680  1
  O  O118  1  0.861247  0.810810  0.520553  1
  O  O119  1  0.340037  0.554805  0.060204  1
  O  O120  1  0.555115  0.245745  0.863913  1
  O  O121  1  0.178967  0.930978  0.946500  1
  O  O122  1  0.052452  0.936447  0.645820  1
  O  O123  1  0.880491  0.176553  0.942529  1
  O  O124  1  0.656619  0.977581  0.149308  1
  O  O125  1  0.351080  0.866907  0.761947  1
  O  O126  1  0.159963  0.054805  0.560204  1
  O  O127  1  0.138753  0.189190  0.479447  1
