# generated using pymatgen
data_CoSnC4Cl3O4
_symmetry_space_group_name_H-M   'P 1'
_cell_length_a   6.91945500
_cell_length_b   6.91956111
_cell_length_c   6.91951988
_cell_angle_alpha   100.45135694
_cell_angle_beta   100.43356035
_cell_angle_gamma   100.44106831
_symmetry_Int_Tables_number   1
_chemical_formula_structural   CoSnC4Cl3O4
_chemical_formula_sum   'Co1 Sn1 C4 Cl3 O4'
_cell_volume   312.47223917
_cell_formula_units_Z   1
loop_
 _symmetry_equiv_pos_site_id
 _symmetry_equiv_pos_as_xyz
  1  'x, y, z'
loop_
 _atom_site_type_symbol
 _atom_site_label
 _atom_site_symmetry_multiplicity
 _atom_site_fract_x
 _atom_site_fract_y
 _atom_site_fract_z
 _atom_site_occupancy
  Co  Co0  1  0.265641  0.265648  0.265650  1
  Sn  Sn1  1  0.001648  0.001632  0.001662  1
  C  C2  1  0.299583  0.064137  0.387782  1
  C  C3  1  0.387791  0.299576  0.064116  1
  C  C4  1  0.064135  0.387814  0.299607  1
  C  C5  1  0.450824  0.450836  0.450833  1
  Cl  Cl6  1  0.701511  0.892944  0.104557  1
  Cl  Cl7  1  0.104528  0.701488  0.892909  1
  Cl  Cl8  1  0.892957  0.104504  0.701540  1
  O  O9  1  0.472044  0.327775  0.938650  1
  O  O10  1  0.571079  0.571087  0.571071  1
  O  O11  1  0.938658  0.472091  0.327793  1
  O  O12  1  0.327799  0.938670  0.472032  1
