# generated using pymatgen
data_As4S5
_symmetry_space_group_name_H-M   'P 1'
_cell_length_a   8.09387661
_cell_length_b   8.26183760
_cell_length_c   8.47734936
_cell_angle_alpha   90.00000000
_cell_angle_beta   90.00000000
_cell_angle_gamma   102.63205342
_symmetry_Int_Tables_number   1
_chemical_formula_structural   As4S5
_chemical_formula_sum   'As8 S10'
_cell_volume   553.16120248
_cell_formula_units_Z   2
loop_
 _symmetry_equiv_pos_site_id
 _symmetry_equiv_pos_as_xyz
  1  'x, y, z'
loop_
 _atom_site_type_symbol
 _atom_site_label
 _atom_site_symmetry_multiplicity
 _atom_site_fract_x
 _atom_site_fract_y
 _atom_site_fract_z
 _atom_site_occupancy
  S  S0  1  0.216359  0.465078  0.750000  1
  S  S1  1  0.783641  0.534922  0.250000  1
  S  S2  1  0.472385  0.224963  0.042569  1
  S  S3  1  0.527615  0.775037  0.542569  1
  S  S4  1  0.527615  0.775037  0.957431  1
  S  S5  1  0.472385  0.224963  0.457431  1
  S  S6  1  0.881780  0.182345  0.038904  1
  S  S7  1  0.118220  0.817655  0.538904  1
  S  S8  1  0.881780  0.182345  0.461096  1
  S  S9  1  0.118220  0.817655  0.961096  1
  As  As10  1  0.737527  0.388376  0.019395  1
  As  As11  1  0.262473  0.611624  0.519395  1
  As  As12  1  0.262473  0.611624  0.980605  1
  As  As13  1  0.737527  0.388376  0.480605  1
  As  As14  1  0.529356  0.951775  0.750000  1
  As  As15  1  0.470644  0.048225  0.250000  1
  As  As16  1  0.217267  0.977639  0.750000  1
  As  As17  1  0.782733  0.022361  0.250000  1
