# generated using pymatgen
data_H12C3NF3
_symmetry_space_group_name_H-M   'P 1'
_cell_length_a   6.44154857
_cell_length_b   9.90013527
_cell_length_c   10.60756754
_cell_angle_alpha   90.00000000
_cell_angle_beta   90.00000000
_cell_angle_gamma   90.00000000
_symmetry_Int_Tables_number   1
_chemical_formula_structural   H12C3NF3
_chemical_formula_sum   'H48 C12 N4 F12'
_cell_volume   676.46794192
_cell_formula_units_Z   4
loop_
 _symmetry_equiv_pos_site_id
 _symmetry_equiv_pos_as_xyz
  1  'x, y, z'
loop_
 _atom_site_type_symbol
 _atom_site_label
 _atom_site_symmetry_multiplicity
 _atom_site_fract_x
 _atom_site_fract_y
 _atom_site_fract_z
 _atom_site_occupancy
  H  H0  1  0.447591  0.374087  0.901377  1
  H  H1  1  0.840805  0.140726  0.755500  1
  H  H2  1  0.675770  0.625063  0.634900  1
  H  H3  1  0.624833  0.750000  0.910443  1
  H  H4  1  0.840805  0.359274  0.755500  1
  H  H5  1  0.268506  0.462546  0.002134  1
  H  H6  1  0.052409  0.374087  0.401377  1
  H  H7  1  0.159195  0.640726  0.244500  1
  H  H8  1  0.768506  0.537454  0.497866  1
  H  H9  1  0.159195  0.859274  0.244500  1
  H  H10  1  0.731494  0.962546  0.997866  1
  H  H11  1  0.675770  0.874937  0.634900  1
  H  H12  1  0.039206  0.158911  0.139182  1
  H  H13  1  0.340805  0.640726  0.744500  1
  H  H14  1  0.039206  0.341089  0.139182  1
  H  H15  1  0.567119  0.250000  0.507876  1
  H  H16  1  0.340805  0.859274  0.744500  1
  H  H17  1  0.175770  0.374937  0.865100  1
  H  H18  1  0.324230  0.374937  0.365100  1
  H  H19  1  0.875167  0.750000  0.410443  1
  H  H20  1  0.268506  0.037454  0.002134  1
  H  H21  1  0.432881  0.750000  0.492124  1
  H  H22  1  0.960794  0.658911  0.860818  1
  H  H23  1  0.375167  0.250000  0.089557  1
  H  H24  1  0.231494  0.037454  0.502134  1
  H  H25  1  0.932881  0.250000  0.007876  1
  H  H26  1  0.175770  0.125063  0.865100  1
  H  H27  1  0.447591  0.125913  0.901377  1
  H  H28  1  0.539206  0.658911  0.360818  1
  H  H29  1  0.731494  0.537454  0.997866  1
  H  H30  1  0.659195  0.359274  0.255500  1
  H  H31  1  0.552409  0.874087  0.098623  1
  H  H32  1  0.052409  0.125913  0.401377  1
  H  H33  1  0.067119  0.750000  0.992124  1
  H  H34  1  0.324230  0.125063  0.365100  1
  H  H35  1  0.659195  0.140726  0.255500  1
  H  H36  1  0.231494  0.462546  0.502134  1
  H  H37  1  0.947591  0.874087  0.598623  1
  H  H38  1  0.768506  0.962546  0.497866  1
  H  H39  1  0.824230  0.625063  0.134900  1
  H  H40  1  0.124833  0.250000  0.589557  1
  H  H41  1  0.824230  0.874937  0.134900  1
  H  H42  1  0.960794  0.841089  0.860818  1
  H  H43  1  0.460794  0.341089  0.639182  1
  H  H44  1  0.460794  0.158911  0.639182  1
  H  H45  1  0.552409  0.625913  0.098623  1
  H  H46  1  0.539206  0.841089  0.360818  1
  H  H47  1  0.947591  0.625913  0.598623  1
  C  C48  1  0.290619  0.125516  0.941163  1
  C  C49  1  0.209381  0.374484  0.441163  1
  C  C50  1  0.052828  0.250000  0.081176  1
  C  C51  1  0.709381  0.625516  0.058837  1
  C  C52  1  0.209381  0.125516  0.441163  1
  C  C53  1  0.290619  0.374484  0.941163  1
  C  C54  1  0.709381  0.874484  0.058837  1
  C  C55  1  0.552828  0.750000  0.418824  1
  C  C56  1  0.947172  0.750000  0.918824  1
  C  C57  1  0.790619  0.625516  0.558837  1
  C  C58  1  0.447172  0.250000  0.581176  1
  C  C59  1  0.790619  0.874484  0.558837  1
  N  N60  1  0.239327  0.250000  0.518709  1
  N  N61  1  0.760673  0.750000  0.481291  1
  N  N62  1  0.260673  0.250000  0.018709  1
  N  N63  1  0.739327  0.750000  0.981291  1
  F  F64  1  0.771439  0.065315  0.803656  1
  F  F65  1  0.771439  0.434685  0.803656  1
  F  F66  1  0.068358  0.750000  0.304815  1
  F  F67  1  0.228561  0.934685  0.196344  1
  F  F68  1  0.271439  0.934685  0.696344  1
  F  F69  1  0.568358  0.250000  0.195185  1
  F  F70  1  0.728561  0.065315  0.303656  1
  F  F71  1  0.931642  0.250000  0.695185  1
  F  F72  1  0.271439  0.565315  0.696344  1
  F  F73  1  0.431642  0.750000  0.804815  1
  F  F74  1  0.228561  0.565315  0.196344  1
  F  F75  1  0.728561  0.434685  0.303656  1
