# generated using pymatgen
data_K4Mn(MoO4)3
_symmetry_space_group_name_H-M   'P 1'
_cell_length_a   7.97654194
_cell_length_b   10.13132644
_cell_length_c   10.32420382
_cell_angle_alpha   92.84576943
_cell_angle_beta   106.86891567
_cell_angle_gamma   106.31706878
_symmetry_Int_Tables_number   1
_chemical_formula_structural   K4Mn(MoO4)3
_chemical_formula_sum   'K8 Mn2 Mo6 O24'
_cell_volume   758.41375643
_cell_formula_units_Z   2
loop_
 _symmetry_equiv_pos_site_id
 _symmetry_equiv_pos_as_xyz
  1  'x, y, z'
loop_
 _atom_site_type_symbol
 _atom_site_label
 _atom_site_symmetry_multiplicity
 _atom_site_fract_x
 _atom_site_fract_y
 _atom_site_fract_z
 _atom_site_occupancy
  K  K0  1  0.773173  0.236297  0.273581  1
  K  K1  1  0.251441  0.475634  0.021809  1
  K  K2  1  0.650248  0.568786  0.386750  1
  K  K3  1  0.748559  0.524366  0.978191  1
  K  K4  1  0.500000  0.000000  0.500000  1
  K  K5  1  0.226827  0.763703  0.726419  1
  K  K6  1  0.000000  0.000000  0.500000  1
  K  K7  1  0.349752  0.431214  0.613250  1
  Mn  Mn8  1  0.163416  0.879054  0.053201  1
  Mn  Mn9  1  0.836584  0.120946  0.946799  1
  Mo  Mo10  1  0.619196  0.846182  0.115348  1
  Mo  Mo11  1  0.123773  0.644183  0.317781  1
  Mo  Mo12  1  0.761607  0.806923  0.751952  1
  Mo  Mo13  1  0.380804  0.153818  0.884652  1
  Mo  Mo14  1  0.238393  0.193077  0.248048  1
  Mo  Mo15  1  0.876227  0.355817  0.682219  1
  O  O16  1  0.607905  0.156467  0.991766  1
  O  O17  1  0.555477  0.686370  0.761783  1
  O  O18  1  0.309427  0.574009  0.374837  1
  O  O19  1  0.886353  0.304736  0.851601  1
  O  O20  1  0.444523  0.313630  0.238217  1
  O  O21  1  0.392095  0.843533  0.008234  1
  O  O22  1  0.961108  0.774829  0.870130  1
  O  O23  1  0.155801  0.786939  0.443067  1
  O  O24  1  0.690573  0.425991  0.625162  1
  O  O25  1  0.911919  0.510815  0.296681  1
  O  O26  1  0.794381  0.923615  0.038541  1
  O  O27  1  0.113647  0.695264  0.148399  1
  O  O28  1  0.844199  0.213061  0.556933  1
  O  O29  1  0.610806  0.669741  0.132817  1
  O  O30  1  0.038892  0.225171  0.129870  1
  O  O31  1  0.746935  0.982772  0.766558  1
  O  O32  1  0.205619  0.076385  0.961459  1
  O  O33  1  0.253065  0.017228  0.233442  1
  O  O34  1  0.088081  0.489185  0.703319  1
  O  O35  1  0.323788  0.056914  0.719740  1
  O  O36  1  0.219548  0.218824  0.414227  1
  O  O37  1  0.389194  0.330259  0.867183  1
  O  O38  1  0.780452  0.781176  0.585773  1
  O  O39  1  0.676212  0.943086  0.280260  1
