# generated using pymatgen
data_Rb2FeI4
_symmetry_space_group_name_H-M   'P 1'
_cell_length_a   7.90295361
_cell_length_b   8.42052871
_cell_length_c   10.57049631
_cell_angle_alpha   90.00000000
_cell_angle_beta   109.41656356
_cell_angle_gamma   90.00000000
_symmetry_Int_Tables_number   1
_chemical_formula_structural   Rb2FeI4
_chemical_formula_sum   'Rb4 Fe2 I8'
_cell_volume   663.42856057
_cell_formula_units_Z   2
loop_
 _symmetry_equiv_pos_site_id
 _symmetry_equiv_pos_as_xyz
  1  'x, y, z'
loop_
 _atom_site_type_symbol
 _atom_site_label
 _atom_site_symmetry_multiplicity
 _atom_site_fract_x
 _atom_site_fract_y
 _atom_site_fract_z
 _atom_site_occupancy
  Rb  Rb0  1  0.201798  0.740215  0.039577  1
  Rb  Rb1  1  0.287035  0.738730  0.581561  1
  Rb  Rb2  1  0.712965  0.238730  0.418439  1
  Rb  Rb3  1  0.798202  0.240215  0.960423  1
  Fe  Fe4  1  0.796596  0.745327  0.210905  1
  Fe  Fe5  1  0.203404  0.245327  0.789095  1
  I  I6  1  0.628961  0.749998  0.949370  1
  I  I7  1  0.584455  0.748006  0.357112  1
  I  I8  1  0.008188  0.494432  0.269698  1
  I  I9  1  0.371039  0.249998  0.050630  1
  I  I10  1  0.985463  0.491992  0.725373  1
  I  I11  1  0.415545  0.248006  0.642888  1
  I  I12  1  0.991812  0.994432  0.730302  1
  I  I13  1  0.014537  0.991992  0.274627  1
