# generated using pymatgen
data_NaV3(FeO4)3
_symmetry_space_group_name_H-M   'P 1'
_cell_length_a   6.90676013
_cell_length_b   8.29916543
_cell_length_c   9.99846957
_cell_angle_alpha   105.88458209
_cell_angle_beta   104.39123912
_cell_angle_gamma   101.76107982
_symmetry_Int_Tables_number   1
_chemical_formula_structural   NaV3(FeO4)3
_chemical_formula_sum   'Na2 V6 Fe6 O24'
_cell_volume   510.69606733
_cell_formula_units_Z   2
loop_
 _symmetry_equiv_pos_site_id
 _symmetry_equiv_pos_as_xyz
  1  'x, y, z'
loop_
 _atom_site_type_symbol
 _atom_site_label
 _atom_site_symmetry_multiplicity
 _atom_site_fract_x
 _atom_site_fract_y
 _atom_site_fract_z
 _atom_site_occupancy
  Na  Na0  1  0.981675  0.028330  0.559069  1
  Na  Na1  1  0.452653  0.987627  0.460967  1
  V  V2  1  0.735828  0.175004  0.267551  1
  V  V3  1  0.096222  0.784985  0.128970  1
  V  V4  1  0.269484  0.823589  0.733389  1
  V  V5  1  0.910046  0.213946  0.872068  1
  V  V6  1  0.389986  0.411205  0.669883  1
  V  V7  1  0.613482  0.590230  0.334141  1
  Fe  Fe8  1  0.885066  0.444784  0.607628  1
  Fe  Fe9  1  0.452566  0.287683  0.979936  1
  Fe  Fe10  1  0.118475  0.553965  0.393484  1
  Fe  Fe11  1  0.776801  0.765959  0.795297  1
  Fe  Fe12  1  0.229803  0.232614  0.207193  1
  Fe  Fe13  1  0.551083  0.712019  0.021339  1
  O  O14  1  0.695495  0.962276  0.180664  1
  O  O15  1  0.301616  0.036531  0.817189  1
  O  O16  1  0.985323  0.290003  0.263091  1
  O  O17  1  0.368611  0.478478  0.350027  1
  O  O18  1  0.637333  0.517384  0.654083  1
  O  O19  1  0.833358  0.526186  0.422413  1
  O  O20  1  0.496140  0.772118  0.820375  1
  O  O21  1  0.420331  0.445548  0.853585  1
  O  O22  1  0.171932  0.476248  0.580656  1
  O  O23  1  0.193396  0.010922  0.236335  1
  O  O24  1  0.149996  0.255275  0.016007  1
  O  O25  1  0.076288  0.668003  0.248019  1
  O  O26  1  0.828455  0.988079  0.766913  1
  O  O27  1  0.512530  0.230713  0.180756  1
  O  O28  1  0.328317  0.197021  0.582522  1
  O  O29  1  0.731757  0.263755  0.949552  1
  O  O30  1  0.246848  0.797042  0.549598  1
  O  O31  1  0.584139  0.557841  0.151058  1
  O  O32  1  0.752598  0.200993  0.451537  1
  O  O33  1  0.854694  0.746666  0.987745  1
  O  O34  1  0.940545  0.325200  0.749858  1
  O  O35  1  0.019794  0.707652  0.738478  1
  O  O36  1  0.268718  0.733670  0.045882  1
  O  O37  1  0.662003  0.802826  0.423783  1
