# generated using pymatgen
data_CsC2S2N(O2F3)2
_symmetry_space_group_name_H-M   'P 1'
_cell_length_a   7.14027417
_cell_length_b   12.05070794
_cell_length_c   13.80013735
_cell_angle_alpha   92.28763075
_cell_angle_beta   90.00000000
_cell_angle_gamma   107.23307977
_symmetry_Int_Tables_number   1
_chemical_formula_structural   CsC2S2N(O2F3)2
_chemical_formula_sum   'Cs4 C8 S8 N4 O16 F24'
_cell_volume   1133.13982455
_cell_formula_units_Z   4
loop_
 _symmetry_equiv_pos_site_id
 _symmetry_equiv_pos_as_xyz
  1  'x, y, z'
loop_
 _atom_site_type_symbol
 _atom_site_label
 _atom_site_symmetry_multiplicity
 _atom_site_fract_x
 _atom_site_fract_y
 _atom_site_fract_z
 _atom_site_occupancy
  Cs  Cs0  1  0.611360  0.466253  0.349696  1
  Cs  Cs1  1  0.854892  0.466253  0.849696  1
  Cs  Cs2  1  0.388640  0.533747  0.650304  1
  Cs  Cs3  1  0.145108  0.533747  0.150304  1
  C  C4  1  0.347283  0.848106  0.380191  1
  C  C5  1  0.036840  0.164109  0.388093  1
  C  C6  1  0.872731  0.835891  0.111907  1
  C  C7  1  0.500822  0.848106  0.880191  1
  C  C8  1  0.499178  0.151894  0.119809  1
  C  C9  1  0.963160  0.835891  0.611907  1
  C  C10  1  0.652717  0.151894  0.619809  1
  C  C11  1  0.127269  0.164109  0.888093  1
  S  S12  1  0.980961  0.685589  0.582769  1
  S  S13  1  0.518824  0.305542  0.087984  1
  S  S14  1  0.213282  0.694458  0.412016  1
  S  S15  1  0.481176  0.694458  0.912016  1
  S  S16  1  0.786718  0.305542  0.587984  1
  S  S17  1  0.019039  0.314411  0.417231  1
  S  S18  1  0.704629  0.685589  0.082769  1
  S  S19  1  0.295371  0.314411  0.917231  1
  N  N20  1  0.819344  0.296190  0.474203  1
  N  N21  1  0.180656  0.703810  0.525797  1
  N  N22  1  0.523154  0.703810  0.025797  1
  N  N23  1  0.476846  0.296190  0.974203  1
  O  O24  1  0.621978  0.660462  0.850849  1
  O  O25  1  0.641248  0.366076  0.604796  1
  O  O26  1  0.634250  0.641062  0.176294  1
  O  O27  1  0.993188  0.358938  0.323706  1
  O  O28  1  0.378022  0.339538  0.149151  1
  O  O29  1  0.961516  0.339538  0.649151  1
  O  O30  1  0.724828  0.366076  0.104796  1
  O  O31  1  0.038484  0.660462  0.350849  1
  O  O32  1  0.198175  0.371016  0.471517  1
  O  O33  1  0.275172  0.633924  0.895204  1
  O  O34  1  0.827159  0.628984  0.028483  1
  O  O35  1  0.172841  0.371016  0.971517  1
  O  O36  1  0.365750  0.358938  0.823706  1
  O  O37  1  0.006812  0.641062  0.676294  1
  O  O38  1  0.358752  0.633924  0.395204  1
  O  O39  1  0.801825  0.628984  0.528483  1
  F  F40  1  0.776798  0.903515  0.157261  1
  F  F41  1  0.374458  0.888771  0.932880  1
  F  F42  1  0.625542  0.111229  0.067120  1
  F  F43  1  0.315640  0.080682  0.104569  1
  F  F44  1  0.047742  0.114681  0.970216  1
  F  F45  1  0.607601  0.153204  0.715152  1
  F  F46  1  0.392399  0.846796  0.284848  1
  F  F47  1  0.981161  0.173430  0.829187  1
  F  F48  1  0.765041  0.080682  0.604569  1
  F  F49  1  0.807730  0.826570  0.670813  1
  F  F50  1  0.192270  0.173430  0.329187  1
  F  F51  1  0.066939  0.114681  0.470216  1
  F  F52  1  0.933060  0.885319  0.529784  1
  F  F53  1  0.545602  0.153204  0.215152  1
  F  F54  1  0.485687  0.111229  0.567120  1
  F  F55  1  0.223202  0.096485  0.842739  1
  F  F56  1  0.684360  0.919319  0.895431  1
  F  F57  1  0.234959  0.919319  0.395431  1
  F  F58  1  0.126718  0.903515  0.657261  1
  F  F59  1  0.873282  0.096485  0.342739  1
  F  F60  1  0.018839  0.826570  0.170813  1
  F  F61  1  0.514313  0.888771  0.432880  1
  F  F62  1  0.454398  0.846796  0.784848  1
  F  F63  1  0.952258  0.885319  0.029784  1
