# generated using pymatgen
data_Cs3As
_symmetry_space_group_name_H-M   'P 1'
_cell_length_a   11.04293243
_cell_length_b   11.04293249
_cell_length_c   11.43034814
_cell_angle_alpha   90.00000000
_cell_angle_beta   90.00000000
_cell_angle_gamma   119.99999979
_symmetry_Int_Tables_number   1
_chemical_formula_structural   Cs3As
_chemical_formula_sum   'Cs18 As6'
_cell_volume   1207.14356261
_cell_formula_units_Z   6
loop_
 _symmetry_equiv_pos_site_id
 _symmetry_equiv_pos_as_xyz
  1  'x, y, z'
loop_
 _atom_site_type_symbol
 _atom_site_label
 _atom_site_symmetry_multiplicity
 _atom_site_fract_x
 _atom_site_fract_y
 _atom_site_fract_z
 _atom_site_occupancy
  As  As0  1  0.000000  0.328069  0.344363  1
  As  As1  1  0.671931  0.000000  0.844363  1
  As  As2  1  0.328069  0.328069  0.844363  1
  As  As3  1  0.671931  0.671931  0.344363  1
  As  As4  1  0.328069  0.000000  0.344363  1
  As  As5  1  0.000000  0.671931  0.844363  1
  Cs  Cs6  1  0.630773  0.000000  0.511373  1
  Cs  Cs7  1  0.630773  0.630773  0.011373  1
  Cs  Cs8  1  1.000000  0.369227  0.011373  1
  Cs  Cs9  1  0.000000  0.630773  0.511373  1
  Cs  Cs10  1  0.369227  0.369227  0.511373  1
  Cs  Cs11  1  0.369227  0.000000  0.011373  1
  Cs  Cs12  1  0.707315  0.000000  0.177739  1
  Cs  Cs13  1  0.707315  0.707315  0.677739  1
  Cs  Cs14  1  0.000000  0.292685  0.677739  1
  Cs  Cs15  1  1.000000  0.707315  0.177739  1
  Cs  Cs16  1  0.292685  0.292685  0.177739  1
  Cs  Cs17  1  0.292685  0.000000  0.677739  1
  Cs  Cs18  1  0.000000  0.000000  0.417629  1
  Cs  Cs19  1  0.000000  0.000000  0.917629  1
  Cs  Cs20  1  0.666667  0.333333  0.297972  1
  Cs  Cs21  1  0.333333  0.666667  0.797972  1
  Cs  Cs22  1  0.666667  0.333333  0.797972  1
  Cs  Cs23  1  0.333333  0.666667  0.297972  1
