# generated using pymatgen
data_Pr3Si2ClO8
_symmetry_space_group_name_H-M   'P 1'
_cell_length_a   6.49496674
_cell_length_b   7.90060319
_cell_length_c   8.87077323
_cell_angle_alpha   97.40556956
_cell_angle_beta   90.00000000
_cell_angle_gamma   114.27033733
_symmetry_Int_Tables_number   1
_chemical_formula_structural   Pr3Si2ClO8
_chemical_formula_sum   'Pr6 Si4 Cl2 O16'
_cell_volume   410.79560961
_cell_formula_units_Z   2
loop_
 _symmetry_equiv_pos_site_id
 _symmetry_equiv_pos_as_xyz
  1  'x, y, z'
loop_
 _atom_site_type_symbol
 _atom_site_label
 _atom_site_symmetry_multiplicity
 _atom_site_fract_x
 _atom_site_fract_y
 _atom_site_fract_z
 _atom_site_occupancy
  Pr  Pr0  1  0.080337  0.370181  0.171030  1
  Pr  Pr1  1  0.289844  0.370181  0.671030  1
  Pr  Pr2  1  0.573738  0.000000  0.750000  1
  Pr  Pr3  1  0.919663  0.629819  0.828970  1
  Pr  Pr4  1  0.710156  0.629819  0.328970  1
  Pr  Pr5  1  0.426262  0.000000  0.250000  1
  Si  Si6  1  0.712347  0.315799  0.525306  1
  Si  Si7  1  0.287653  0.684201  0.474694  1
  Si  Si8  1  0.396548  0.684201  0.974694  1
  Si  Si9  1  0.603452  0.315799  0.025306  1
  Cl  Cl10  1  0.024508  0.000000  0.750000  1
  Cl  Cl11  1  0.975492  0.000000  0.250000  1
  O  O12  1  0.459005  0.690884  0.154769  1
  O  O13  1  0.540995  0.309116  0.845231  1
  O  O14  1  0.182597  0.478364  0.918678  1
  O  O15  1  0.704360  0.155629  0.031711  1
  O  O16  1  0.704233  0.521636  0.581322  1
  O  O17  1  0.231879  0.690884  0.654769  1
  O  O18  1  0.881414  0.285583  0.644390  1
  O  O19  1  0.817403  0.521636  0.081322  1
  O  O20  1  0.295767  0.478364  0.418678  1
  O  O21  1  0.118586  0.714417  0.355610  1
  O  O22  1  0.768121  0.309116  0.345231  1
  O  O23  1  0.548730  0.844371  0.468289  1
  O  O24  1  0.404169  0.285583  0.144390  1
  O  O25  1  0.595831  0.714417  0.855610  1
  O  O26  1  0.451270  0.155629  0.531711  1
  O  O27  1  0.295640  0.844371  0.968289  1
