# generated using pymatgen
data_Yb2(ZnGe)3
_symmetry_space_group_name_H-M   'P 1'
_cell_length_a   4.31030960
_cell_length_b   8.23080075
_cell_length_c   9.61855833
_cell_angle_alpha   80.83075258
_cell_angle_beta   77.05226719
_cell_angle_gamma   74.82072069
_symmetry_Int_Tables_number   1
_chemical_formula_structural   Yb2(ZnGe)3
_chemical_formula_sum   'Yb4 Zn6 Ge6'
_cell_volume   319.11747436
_cell_formula_units_Z   2
loop_
 _symmetry_equiv_pos_site_id
 _symmetry_equiv_pos_as_xyz
  1  'x, y, z'
loop_
 _atom_site_type_symbol
 _atom_site_label
 _atom_site_symmetry_multiplicity
 _atom_site_fract_x
 _atom_site_fract_y
 _atom_site_fract_z
 _atom_site_occupancy
  Yb  Yb0  1  0.432414  0.225226  0.909945  1
  Yb  Yb1  1  0.567586  0.774774  0.090055  1
  Yb  Yb2  1  0.738858  0.855757  0.666527  1
  Yb  Yb3  1  0.261142  0.144243  0.333473  1
  Zn  Zn4  1  0.232064  0.637474  0.898397  1
  Zn  Zn5  1  0.938059  0.799183  0.324699  1
  Zn  Zn6  1  0.767936  0.362526  0.101603  1
  Zn  Zn7  1  0.580223  0.481754  0.357800  1
  Zn  Zn8  1  0.061941  0.200817  0.675301  1
  Zn  Zn9  1  0.419777  0.518246  0.642200  1
  Ge  Ge10  1  0.083679  0.955302  0.877340  1
  Ge  Ge11  1  0.154312  0.514643  0.176734  1
  Ge  Ge12  1  0.916321  0.044698  0.122660  1
  Ge  Ge13  1  0.382715  0.775628  0.458943  1
  Ge  Ge14  1  0.845688  0.485357  0.823266  1
  Ge  Ge15  1  0.617285  0.224372  0.541057  1
