# generated using pymatgen
data_KLi3PbO4
_symmetry_space_group_name_H-M   'P 1'
_cell_length_a   6.02973184
_cell_length_b   6.02963176
_cell_length_c   7.07761610
_cell_angle_alpha   72.05821077
_cell_angle_beta   72.80602741
_cell_angle_gamma   88.16691677
_symmetry_Int_Tables_number   1
_chemical_formula_structural   KLi3PbO4
_chemical_formula_sum   'K2 Li6 Pb2 O8'
_cell_volume   233.37265128
_cell_formula_units_Z   2
loop_
 _symmetry_equiv_pos_site_id
 _symmetry_equiv_pos_as_xyz
  1  'x, y, z'
loop_
 _atom_site_type_symbol
 _atom_site_label
 _atom_site_symmetry_multiplicity
 _atom_site_fract_x
 _atom_site_fract_y
 _atom_site_fract_z
 _atom_site_occupancy
  K  K0  1  0.986594  0.512415  0.750103  1
  K  K1  1  0.013406  0.487585  0.249897  1
  Li  Li2  1  0.131204  0.049007  0.090952  1
  Li  Li3  1  0.868796  0.950993  0.909048  1
  Li  Li4  1  0.461571  0.684885  0.842965  1
  Li  Li5  1  0.164333  0.064935  0.554288  1
  Li  Li6  1  0.835667  0.935065  0.445712  1
  Li  Li7  1  0.538429  0.315115  0.157035  1
  Pb  Pb8  1  0.507682  0.754965  0.297863  1
  Pb  Pb9  1  0.492318  0.245035  0.702137  1
  O  O10  1  0.359112  0.363625  0.436505  1
  O  O11  1  0.174423  0.882163  0.364490  1
  O  O12  1  0.825577  0.117837  0.635510  1
  O  O13  1  0.671749  0.654105  0.031544  1
  O  O14  1  0.328251  0.345895  0.968456  1
  O  O15  1  0.766831  0.058707  0.169259  1
  O  O16  1  0.233169  0.941293  0.830741  1
  O  O17  1  0.640888  0.636375  0.563495  1
