# generated using pymatgen
data_CePS4
_symmetry_space_group_name_H-M   'P 1'
_cell_length_a   11.10649680
_cell_length_b   11.10649679
_cell_length_c   12.47772038
_cell_angle_alpha   116.42673770
_cell_angle_beta   116.42673772
_cell_angle_gamma   90.00000013
_symmetry_Int_Tables_number   1
_chemical_formula_structural   CePS4
_chemical_formula_sum   'Ce8 P8 S32'
_cell_volume   1196.06815910
_cell_formula_units_Z   8
loop_
 _symmetry_equiv_pos_site_id
 _symmetry_equiv_pos_as_xyz
  1  'x, y, z'
loop_
 _atom_site_type_symbol
 _atom_site_label
 _atom_site_symmetry_multiplicity
 _atom_site_fract_x
 _atom_site_fract_y
 _atom_site_fract_z
 _atom_site_occupancy
  Ce  Ce0  1  0.625000  0.875000  0.250000  1
  Ce  Ce1  1  0.125000  0.375000  0.250000  1
  Ce  Ce2  1  0.625000  0.375000  0.250000  1
  Ce  Ce3  1  0.125000  0.875000  0.250000  1
  Ce  Ce4  1  0.375000  0.625000  0.750000  1
  Ce  Ce5  1  0.875000  0.125000  0.750000  1
  Ce  Ce6  1  0.875000  0.625000  0.750000  1
  Ce  Ce7  1  0.375000  0.125000  0.750000  1
  P  P8  1  0.750000  0.785838  0.000000  1
  P  P9  1  0.214162  0.750000  0.500000  1
  P  P10  1  0.250000  0.714162  0.000000  1
  P  P11  1  0.714162  0.750000  0.500000  1
  P  P12  1  0.250000  0.214162  0.000000  1
  P  P13  1  0.750000  0.285838  0.000000  1
  P  P14  1  0.785838  0.250000  0.500000  1
  P  P15  1  0.285838  0.250000  0.500000  1
  S  S16  1  0.908290  0.386314  0.003713  1
  S  S17  1  0.839543  0.770909  0.175553  1
  S  S18  1  0.408290  0.617399  0.003713  1
  S  S19  1  0.770909  0.336010  0.675553  1
  S  S20  1  0.160457  0.229091  0.824447  1
  S  S21  1  0.117399  0.908290  0.503713  1
  S  S22  1  0.339543  0.404644  0.175553  1
  S  S23  1  0.091710  0.613686  0.996287  1
  S  S24  1  0.660457  0.595356  0.824447  1
  S  S25  1  0.336010  0.904644  0.175553  1
  S  S26  1  0.595356  0.163990  0.324447  1
  S  S27  1  0.595423  0.886314  0.003713  1
  S  S28  1  0.904577  0.882601  0.996287  1
  S  S29  1  0.095356  0.160457  0.324447  1
  S  S30  1  0.882601  0.091710  0.496287  1
  S  S31  1  0.382601  0.404577  0.496287  1
  S  S32  1  0.404644  0.836010  0.675553  1
  S  S33  1  0.113686  0.591710  0.496287  1
  S  S34  1  0.663990  0.095356  0.824447  1
  S  S35  1  0.729091  0.660457  0.324447  1
  S  S36  1  0.886314  0.408290  0.503713  1
  S  S37  1  0.836010  0.270909  0.175553  1
  S  S38  1  0.591710  0.382601  0.996287  1
  S  S39  1  0.229091  0.663990  0.324447  1
  S  S40  1  0.386314  0.095423  0.503713  1
  S  S41  1  0.613686  0.904577  0.496287  1
  S  S42  1  0.404577  0.113686  0.996287  1
  S  S43  1  0.270909  0.339543  0.675553  1
  S  S44  1  0.163990  0.729091  0.824447  1
  S  S45  1  0.617399  0.595423  0.503713  1
  S  S46  1  0.095423  0.117399  0.003713  1
  S  S47  1  0.904644  0.839543  0.675553  1
