# generated using pymatgen
data_GaAgS2
_symmetry_space_group_name_H-M   'P 1'
_cell_length_a   5.77884400
_cell_length_b   5.77884368
_cell_length_c   6.63277686
_cell_angle_alpha   64.77740523
_cell_angle_beta   64.77740710
_cell_angle_gamma   90.05704770
_symmetry_Int_Tables_number   1
_chemical_formula_structural   GaAgS2
_chemical_formula_sum   'Ga2 Ag2 S4'
_cell_volume   176.70980439
_cell_formula_units_Z   2
loop_
 _symmetry_equiv_pos_site_id
 _symmetry_equiv_pos_as_xyz
  1  'x, y, z'
loop_
 _atom_site_type_symbol
 _atom_site_label
 _atom_site_symmetry_multiplicity
 _atom_site_fract_x
 _atom_site_fract_y
 _atom_site_fract_z
 _atom_site_occupancy
  Ga  Ga0  1  0.612713  0.367784  0.992307  1
  Ga  Ga1  1  0.367784  0.612713  0.492307  1
  Ag  Ag2  1  0.105981  0.899611  0.994748  1
  Ag  Ag3  1  0.899611  0.105981  0.494748  1
  S  S4  1  0.506636  0.277884  0.730352  1
  S  S5  1  0.690131  0.995260  0.257594  1
  S  S6  1  0.277884  0.506636  0.230352  1
  S  S7  1  0.995260  0.690131  0.757594  1
