# generated using pymatgen
data_FeCoPO5
_symmetry_space_group_name_H-M   'P 1'
_cell_length_a   6.52907714
_cell_length_b   7.41041641
_cell_length_c   7.47955645
_cell_angle_alpha   90.00000000
_cell_angle_beta   90.00000000
_cell_angle_gamma   90.00000000
_symmetry_Int_Tables_number   1
_chemical_formula_structural   FeCoPO5
_chemical_formula_sum   'Fe4 Co4 P4 O20'
_cell_volume   361.88472889
_cell_formula_units_Z   4
loop_
 _symmetry_equiv_pos_site_id
 _symmetry_equiv_pos_as_xyz
  1  'x, y, z'
loop_
 _atom_site_type_symbol
 _atom_site_label
 _atom_site_symmetry_multiplicity
 _atom_site_fract_x
 _atom_site_fract_y
 _atom_site_fract_z
 _atom_site_occupancy
  Co  Co0  1  0.000000  0.000000  0.000000  1
  Co  Co1  1  0.500000  0.000000  0.000000  1
  Co  Co2  1  0.500000  0.500000  0.500000  1
  Co  Co3  1  0.000000  0.500000  0.500000  1
  Fe  Fe4  1  0.750000  0.848586  0.283712  1
  Fe  Fe5  1  0.250000  0.151414  0.716288  1
  Fe  Fe6  1  0.750000  0.348586  0.216288  1
  Fe  Fe7  1  0.250000  0.651414  0.783712  1
  P  P8  1  0.750000  0.622737  0.866605  1
  P  P9  1  0.250000  0.377263  0.133395  1
  P  P10  1  0.750000  0.122737  0.633395  1
  P  P11  1  0.250000  0.877263  0.366605  1
  O  O12  1  0.750000  0.596600  0.356780  1
  O  O13  1  0.250000  0.403400  0.643220  1
  O  O14  1  0.750000  0.096600  0.143220  1
  O  O15  1  0.250000  0.903400  0.856780  1
  O  O16  1  0.750000  0.794056  0.988755  1
  O  O17  1  0.250000  0.205944  0.011245  1
  O  O18  1  0.750000  0.294056  0.511245  1
  O  O19  1  0.250000  0.705944  0.488755  1
  O  O20  1  0.750000  0.950142  0.522089  1
  O  O21  1  0.250000  0.049858  0.477911  1
  O  O22  1  0.750000  0.450142  0.977911  1
  O  O23  1  0.250000  0.549858  0.022089  1
  O  O24  1  0.940858  0.629925  0.742361  1
  O  O25  1  0.440858  0.370075  0.257639  1
  O  O26  1  0.559142  0.129925  0.757639  1
  O  O27  1  0.059142  0.870075  0.242361  1
  O  O28  1  0.059142  0.370075  0.257639  1
  O  O29  1  0.559142  0.629925  0.742361  1
  O  O30  1  0.440858  0.870075  0.242361  1
  O  O31  1  0.940858  0.129925  0.757639  1
