# generated using pymatgen
data_Ca4Mn3O10
_symmetry_space_group_name_H-M   'P 1'
_cell_length_a   5.39231863
_cell_length_b   5.33954365
_cell_length_c   27.04929620
_cell_angle_alpha   90.00000000
_cell_angle_beta   90.00000000
_cell_angle_gamma   90.00000000
_symmetry_Int_Tables_number   1
_chemical_formula_structural   Ca4Mn3O10
_chemical_formula_sum   'Ca16 Mn12 O40'
_cell_volume   778.81742075
_cell_formula_units_Z   4
loop_
 _symmetry_equiv_pos_site_id
 _symmetry_equiv_pos_as_xyz
  1  'x, y, z'
loop_
 _atom_site_type_symbol
 _atom_site_label
 _atom_site_symmetry_multiplicity
 _atom_site_fract_x
 _atom_site_fract_y
 _atom_site_fract_z
 _atom_site_occupancy
  Ca  Ca0  1  0.459270  0.993673  0.704706  1
  Ca  Ca1  1  0.540730  0.506327  0.204706  1
  Ca  Ca2  1  0.959270  0.006327  0.795294  1
  Ca  Ca3  1  0.957076  0.493194  0.430536  1
  Ca  Ca4  1  0.042924  0.506806  0.569464  1
  Ca  Ca5  1  0.959270  0.506327  0.704706  1
  Ca  Ca6  1  0.040730  0.493673  0.295294  1
  Ca  Ca7  1  0.459270  0.493673  0.795294  1
  Ca  Ca8  1  0.540730  0.006327  0.295294  1
  Ca  Ca9  1  0.457076  0.506806  0.069464  1
  Ca  Ca10  1  0.957076  0.993194  0.069464  1
  Ca  Ca11  1  0.542924  0.993194  0.569464  1
  Ca  Ca12  1  0.457076  0.006806  0.430536  1
  Ca  Ca13  1  0.042924  0.006806  0.930536  1
  Ca  Ca14  1  0.542924  0.493194  0.930536  1
  Ca  Ca15  1  0.040730  0.993673  0.204706  1
  Mn  Mn16  1  0.001650  0.499899  0.140801  1
  Mn  Mn17  1  0.498350  0.999899  0.859199  1
  Mn  Mn18  1  0.501650  0.000101  0.140801  1
  Mn  Mn19  1  0.001650  0.999899  0.359199  1
  Mn  Mn20  1  0.998350  0.000101  0.640801  1
  Mn  Mn21  1  0.500000  0.000000  0.000000  1
  Mn  Mn22  1  0.501650  0.500101  0.359199  1
  Mn  Mn23  1  0.998350  0.500101  0.859199  1
  Mn  Mn24  1  0.000000  0.500000  0.000000  1
  Mn  Mn25  1  0.498350  0.499899  0.640801  1
  Mn  Mn26  1  0.500000  0.500000  0.500000  1
  Mn  Mn27  1  0.000000  0.000000  0.500000  1
  O  O28  1  0.508621  0.553503  0.711167  1
  O  O29  1  0.290663  0.792967  0.630168  1
  O  O30  1  0.291471  0.291195  0.150786  1
  O  O31  1  0.480694  0.424218  0.569978  1
  O  O32  1  0.790663  0.707033  0.630168  1
  O  O33  1  0.709337  0.707033  0.130168  1
  O  O34  1  0.519306  0.575782  0.430022  1
  O  O35  1  0.491379  0.446497  0.288833  1
  O  O36  1  0.792482  0.205878  0.988731  1
  O  O37  1  0.209337  0.792967  0.130168  1
  O  O38  1  0.208529  0.791195  0.849214  1
  O  O39  1  0.707518  0.705878  0.011269  1
  O  O40  1  0.019306  0.924218  0.430022  1
  O  O41  1  0.519306  0.075782  0.069978  1
  O  O42  1  0.207518  0.294122  0.488731  1
  O  O43  1  0.291471  0.791195  0.349214  1
  O  O44  1  0.991379  0.053503  0.288833  1
  O  O45  1  0.508621  0.053503  0.788833  1
  O  O46  1  0.708529  0.708805  0.849214  1
  O  O47  1  0.791471  0.708805  0.349214  1
  O  O48  1  0.792482  0.705878  0.511269  1
  O  O49  1  0.791471  0.208805  0.150786  1
  O  O50  1  0.209337  0.292967  0.369832  1
  O  O51  1  0.480694  0.924218  0.930022  1
  O  O52  1  0.292482  0.794122  0.511269  1
  O  O53  1  0.707518  0.205878  0.488731  1
  O  O54  1  0.208529  0.291195  0.650786  1
  O  O55  1  0.708529  0.208805  0.650786  1
  O  O56  1  0.709337  0.207033  0.369832  1
  O  O57  1  0.292482  0.294122  0.988731  1
  O  O58  1  0.290663  0.292967  0.869832  1
  O  O59  1  0.019306  0.424218  0.069978  1
  O  O60  1  0.790663  0.207033  0.869832  1
  O  O61  1  0.008621  0.446497  0.788833  1
  O  O62  1  0.980694  0.575782  0.930022  1
  O  O63  1  0.491379  0.946497  0.211167  1
  O  O64  1  0.991379  0.553503  0.211167  1
  O  O65  1  0.008621  0.946497  0.711167  1
  O  O66  1  0.980694  0.075782  0.569978  1
  O  O67  1  0.207518  0.794122  0.011269  1
