# generated using pymatgen
data_CSNO3
_symmetry_space_group_name_H-M   'P 1'
_cell_length_a   5.49003682
_cell_length_b   5.49003721
_cell_length_c   12.43922983
_cell_angle_alpha   95.01315038
_cell_angle_beta   95.01315056
_cell_angle_gamma   98.64208081
_symmetry_Int_Tables_number   1
_chemical_formula_structural   CSNO3
_chemical_formula_sum   'C4 S4 N4 O12'
_cell_volume   367.32185356
_cell_formula_units_Z   4
loop_
 _symmetry_equiv_pos_site_id
 _symmetry_equiv_pos_as_xyz
  1  'x, y, z'
loop_
 _atom_site_type_symbol
 _atom_site_label
 _atom_site_symmetry_multiplicity
 _atom_site_fract_x
 _atom_site_fract_y
 _atom_site_fract_z
 _atom_site_occupancy
  C  C0  1  0.122210  0.012561  0.476658  1
  C  C1  1  0.987439  0.877790  0.023342  1
  C  C2  1  0.012561  0.122210  0.976658  1
  C  C3  1  0.877790  0.987439  0.523342  1
  S  S4  1  0.805913  0.680825  0.369814  1
  S  S5  1  0.194087  0.319175  0.630186  1
  S  S6  1  0.319175  0.194087  0.130186  1
  S  S7  1  0.680825  0.805913  0.869814  1
  N  N8  1  0.298985  0.178990  0.524815  1
  N  N9  1  0.821010  0.701015  0.975185  1
  N  N10  1  0.178990  0.298985  0.024815  1
  N  N11  1  0.701015  0.821010  0.475185  1
  O  O12  1  0.878430  0.142873  0.609109  1
  O  O13  1  0.833099  0.431967  0.385803  1
  O  O14  1  0.297431  0.252963  0.730439  1
  O  O15  1  0.747037  0.702569  0.769561  1
  O  O16  1  0.568033  0.166901  0.114197  1
  O  O17  1  0.252963  0.297431  0.230439  1
  O  O18  1  0.166901  0.568033  0.614197  1
  O  O19  1  0.142873  0.878430  0.109109  1
  O  O20  1  0.431967  0.833099  0.885803  1
  O  O21  1  0.121570  0.857127  0.390891  1
  O  O22  1  0.702569  0.747037  0.269561  1
  O  O23  1  0.857127  0.121570  0.890891  1
