# generated using pymatgen
data_Sb2Te3MoC4(OF3)4
_symmetry_space_group_name_H-M   'P 1'
_cell_length_a   8.58574368
_cell_length_b   14.86645323
_cell_length_c   15.60340485
_cell_angle_alpha   90.00000000
_cell_angle_beta   90.00000000
_cell_angle_gamma   90.00000000
_symmetry_Int_Tables_number   1
_chemical_formula_structural   Sb2Te3MoC4(OF3)4
_chemical_formula_sum   'Sb8 Te12 Mo4 C16 O16 F48'
_cell_volume   1991.61168062
_cell_formula_units_Z   4
loop_
 _symmetry_equiv_pos_site_id
 _symmetry_equiv_pos_as_xyz
  1  'x, y, z'
loop_
 _atom_site_type_symbol
 _atom_site_label
 _atom_site_symmetry_multiplicity
 _atom_site_fract_x
 _atom_site_fract_y
 _atom_site_fract_z
 _atom_site_occupancy
  Sb  Sb0  1  0.750000  0.443568  0.344366  1
  Sb  Sb1  1  0.750000  0.056432  0.844366  1
  Sb  Sb2  1  0.250000  0.943568  0.155634  1
  Sb  Sb3  1  0.750000  0.746677  0.537902  1
  Sb  Sb4  1  0.750000  0.753323  0.037902  1
  Sb  Sb5  1  0.250000  0.556432  0.655634  1
  Sb  Sb6  1  0.250000  0.246677  0.962098  1
  Sb  Sb7  1  0.250000  0.253323  0.462098  1
  Te  Te8  1  0.750000  0.445011  0.628657  1
  Te  Te9  1  0.088676  0.688431  0.284808  1
  Te  Te10  1  0.411324  0.811569  0.784808  1
  Te  Te11  1  0.588676  0.311569  0.715192  1
  Te  Te12  1  0.750000  0.054989  0.128657  1
  Te  Te13  1  0.411324  0.688431  0.284808  1
  Te  Te14  1  0.911324  0.311569  0.715192  1
  Te  Te15  1  0.911324  0.188431  0.215192  1
  Te  Te16  1  0.088676  0.811569  0.784808  1
  Te  Te17  1  0.250000  0.945011  0.871343  1
  Te  Te18  1  0.250000  0.554989  0.371343  1
  Te  Te19  1  0.588676  0.188431  0.215192  1
  Mo  Mo20  1  0.750000  0.445156  0.813144  1
  Mo  Mo21  1  0.250000  0.945156  0.686856  1
  Mo  Mo22  1  0.250000  0.554844  0.186856  1
  Mo  Mo23  1  0.750000  0.054844  0.313144  1
  C  C24  1  0.546945  0.014025  0.369436  1
  C  C25  1  0.453055  0.514025  0.130564  1
  C  C26  1  0.250000  0.081172  0.701612  1
  C  C27  1  0.250000  0.621754  0.070049  1
  C  C28  1  0.750000  0.581172  0.798388  1
  C  C29  1  0.750000  0.918828  0.298388  1
  C  C30  1  0.046945  0.514025  0.130564  1
  C  C31  1  0.250000  0.418828  0.201612  1
  C  C32  1  0.546945  0.485975  0.869436  1
  C  C33  1  0.953055  0.014025  0.369436  1
  C  C34  1  0.453055  0.985975  0.630564  1
  C  C35  1  0.046945  0.985975  0.630564  1
  C  C36  1  0.750000  0.121754  0.429951  1
  C  C37  1  0.250000  0.878246  0.570049  1
  C  C38  1  0.953055  0.485975  0.869436  1
  C  C39  1  0.750000  0.378246  0.929951  1
  O  O40  1  0.435285  0.508765  0.904164  1
  O  O41  1  0.250000  0.843326  0.504311  1
  O  O42  1  0.750000  0.156674  0.495689  1
  O  O43  1  0.935285  0.491235  0.095836  1
  O  O44  1  0.935285  0.008765  0.595836  1
  O  O45  1  0.564715  0.491235  0.095836  1
  O  O46  1  0.750000  0.658516  0.791284  1
  O  O47  1  0.250000  0.158516  0.708716  1
  O  O48  1  0.750000  0.343326  0.995689  1
  O  O49  1  0.435285  0.991235  0.404164  1
  O  O50  1  0.064715  0.508765  0.904164  1
  O  O51  1  0.750000  0.841484  0.291284  1
  O  O52  1  0.064715  0.991235  0.404164  1
  O  O53  1  0.564715  0.008765  0.595836  1
  O  O54  1  0.250000  0.656674  0.004311  1
  O  O55  1  0.250000  0.341484  0.208716  1
  F  F56  1  0.593176  0.106144  0.769488  1
  F  F57  1  0.591320  0.786721  0.957295  1
  F  F58  1  0.250000  0.665297  0.590581  1
  F  F59  1  0.908680  0.786721  0.957295  1
  F  F60  1  0.406824  0.606144  0.730512  1
  F  F61  1  0.093176  0.606144  0.730512  1
  F  F62  1  0.250000  0.126144  0.915458  1
  F  F63  1  0.750000  0.945977  0.779411  1
  F  F64  1  0.911045  0.007262  0.915992  1
  F  F65  1  0.408680  0.286721  0.542705  1
  F  F66  1  0.088955  0.507262  0.584008  1
  F  F67  1  0.250000  0.373856  0.415458  1
  F  F68  1  0.750000  0.626144  0.584542  1
  F  F69  1  0.250000  0.445977  0.720589  1
  F  F70  1  0.911045  0.492738  0.415992  1
  F  F71  1  0.250000  0.133368  0.507211  1
  F  F72  1  0.091320  0.213279  0.042706  1
  F  F73  1  0.588955  0.007262  0.915992  1
  F  F74  1  0.408680  0.213279  0.042706  1
  F  F75  1  0.406824  0.893856  0.230512  1
  F  F76  1  0.093176  0.893856  0.230512  1
  F  F77  1  0.906824  0.106144  0.769488  1
  F  F78  1  0.750000  0.334703  0.409419  1
  F  F79  1  0.091320  0.286721  0.542705  1
  F  F80  1  0.250000  0.834703  0.090581  1
  F  F81  1  0.250000  0.054023  0.220589  1
  F  F82  1  0.592544  0.780145  0.620167  1
  F  F83  1  0.906824  0.393856  0.269488  1
  F  F84  1  0.908680  0.713279  0.457294  1
  F  F85  1  0.250000  0.366632  0.007211  1
  F  F86  1  0.907456  0.719855  0.120167  1
  F  F87  1  0.750000  0.165297  0.909419  1
  F  F88  1  0.907456  0.780145  0.620167  1
  F  F89  1  0.407456  0.280145  0.879833  1
  F  F90  1  0.088955  0.992738  0.084008  1
  F  F91  1  0.092544  0.219855  0.379833  1
  F  F92  1  0.593176  0.393856  0.269488  1
  F  F93  1  0.592544  0.719855  0.120167  1
  F  F94  1  0.750000  0.873856  0.084542  1
  F  F95  1  0.750000  0.554023  0.279411  1
  F  F96  1  0.411045  0.992738  0.084008  1
  F  F97  1  0.750000  0.866632  0.492789  1
  F  F98  1  0.588955  0.492738  0.415992  1
  F  F99  1  0.407456  0.219855  0.379833  1
  F  F100  1  0.750000  0.633368  0.992789  1
  F  F101  1  0.411045  0.507262  0.584008  1
  F  F102  1  0.092544  0.280145  0.879833  1
  F  F103  1  0.591320  0.713279  0.457294  1
