# generated using pymatgen
data_BaYb2CoO5
_symmetry_space_group_name_H-M   'P 1'
_cell_length_a   5.65861133
_cell_length_b   7.02725444
_cell_length_c   12.16243578
_cell_angle_alpha   90.00000000
_cell_angle_beta   90.00000000
_cell_angle_gamma   90.00000000
_symmetry_Int_Tables_number   1
_chemical_formula_structural   BaYb2CoO5
_chemical_formula_sum   'Ba4 Yb8 Co4 O20'
_cell_volume   483.63319695
_cell_formula_units_Z   4
loop_
 _symmetry_equiv_pos_site_id
 _symmetry_equiv_pos_as_xyz
  1  'x, y, z'
loop_
 _atom_site_type_symbol
 _atom_site_label
 _atom_site_symmetry_multiplicity
 _atom_site_fract_x
 _atom_site_fract_y
 _atom_site_fract_z
 _atom_site_occupancy
  O  O0  1  0.250000  0.445004  0.602520  1
  O  O1  1  0.750000  0.554996  0.397480  1
  O  O2  1  0.750000  0.945004  0.897480  1
  O  O3  1  0.250000  0.054996  0.102520  1
  O  O4  1  0.018550  0.842461  0.265584  1
  O  O5  1  0.518550  0.157539  0.734416  1
  O  O6  1  0.981450  0.342461  0.234416  1
  O  O7  1  0.481450  0.657539  0.765584  1
  O  O8  1  0.981450  0.157539  0.734416  1
  O  O9  1  0.481450  0.842461  0.265584  1
  O  O10  1  0.018550  0.657539  0.765584  1
  O  O11  1  0.518550  0.342461  0.234416  1
  O  O12  1  0.476502  0.681580  0.065806  1
  O  O13  1  0.976502  0.318420  0.934194  1
  O  O14  1  0.523498  0.181580  0.434194  1
  O  O15  1  0.023498  0.818420  0.565806  1
  O  O16  1  0.976502  0.181580  0.434194  1
  O  O17  1  0.476502  0.818420  0.565806  1
  O  O18  1  0.023498  0.681580  0.065806  1
  O  O19  1  0.523498  0.318420  0.934194  1
  Co  Co20  1  0.250000  0.692461  0.653270  1
  Co  Co21  1  0.750000  0.307539  0.346730  1
  Co  Co22  1  0.750000  0.192461  0.846730  1
  Co  Co23  1  0.250000  0.807539  0.153270  1
  Ba  Ba24  1  0.250000  0.928424  0.894583  1
  Ba  Ba25  1  0.750000  0.071576  0.105417  1
  Ba  Ba26  1  0.750000  0.428424  0.605417  1
  Ba  Ba27  1  0.250000  0.571576  0.394583  1
  Yb  Yb28  1  0.250000  0.105810  0.574403  1
  Yb  Yb29  1  0.750000  0.894190  0.425597  1
  Yb  Yb30  1  0.750000  0.605810  0.925597  1
  Yb  Yb31  1  0.250000  0.394190  0.074403  1
  Yb  Yb32  1  0.250000  0.383223  0.798168  1
  Yb  Yb33  1  0.750000  0.616777  0.201832  1
  Yb  Yb34  1  0.750000  0.883223  0.701832  1
  Yb  Yb35  1  0.250000  0.116777  0.298168  1
