# generated using pymatgen
data_SiO2
_symmetry_space_group_name_H-M   'P 1'
_cell_length_a   13.60433153
_cell_length_b   13.60433146
_cell_length_c   13.60433099
_cell_angle_alpha   60.00000117
_cell_angle_beta   60.00000133
_cell_angle_gamma   60.00000223
_symmetry_Int_Tables_number   1
_chemical_formula_structural   SiO2
_chemical_formula_sum   'Si24 O48'
_cell_volume   1780.39603679
_cell_formula_units_Z   24
loop_
 _symmetry_equiv_pos_site_id
 _symmetry_equiv_pos_as_xyz
  1  'x, y, z'
loop_
 _atom_site_type_symbol
 _atom_site_label
 _atom_site_symmetry_multiplicity
 _atom_site_fract_x
 _atom_site_fract_y
 _atom_site_fract_z
 _atom_site_occupancy
  Si  Si0  1  0.537611  0.080965  0.080965  1
  Si  Si1  1  0.699541  0.462389  0.919035  1
  Si  Si2  1  0.080965  0.537611  0.300459  1
  Si  Si3  1  0.300459  0.537611  0.080965  1
  Si  Si4  1  0.080965  0.080965  0.537611  1
  Si  Si5  1  0.699541  0.919035  0.919035  1
  Si  Si6  1  0.919035  0.919035  0.699541  1
  Si  Si7  1  0.919035  0.462389  0.919035  1
  Si  Si8  1  0.080965  0.080965  0.300459  1
  Si  Si9  1  0.462389  0.919035  0.919035  1
  Si  Si10  1  0.537611  0.080965  0.300459  1
  Si  Si11  1  0.919035  0.699541  0.919035  1
  Si  Si12  1  0.300459  0.080965  0.080965  1
  Si  Si13  1  0.080965  0.300459  0.080965  1
  Si  Si14  1  0.919035  0.919035  0.462389  1
  Si  Si15  1  0.462389  0.919035  0.699541  1
  Si  Si16  1  0.919035  0.462389  0.699541  1
  Si  Si17  1  0.462389  0.699541  0.919035  1
  Si  Si18  1  0.300459  0.080965  0.537611  1
  Si  Si19  1  0.699541  0.919035  0.462389  1
  Si  Si20  1  0.919035  0.699541  0.462389  1
  Si  Si21  1  0.080965  0.300459  0.537611  1
  Si  Si22  1  0.080965  0.537611  0.080965  1
  Si  Si23  1  0.537611  0.300459  0.080965  1
  O  O24  1  0.913069  0.586931  0.913069  1
  O  O25  1  0.217140  0.022247  0.217140  1
  O  O26  1  0.651522  1.000000  0.348478  1
  O  O27  1  0.651522  1.000000  1.000000  1
  O  O28  1  0.217140  0.022247  0.543474  1
  O  O29  1  0.348478  0.000000  0.000000  1
  O  O30  1  0.782860  0.782860  0.977753  1
  O  O31  1  0.217140  0.217140  0.022247  1
  O  O32  1  0.782860  0.977753  0.782860  1
  O  O33  1  1.000000  0.651522  0.348478  1
  O  O34  1  1.000000  0.651522  1.000000  1
  O  O35  1  0.977753  0.456526  0.782860  1
  O  O36  1  0.586931  0.913069  0.586931  1
  O  O37  1  0.977753  0.782860  0.456526  1
  O  O38  1  0.586931  0.586931  0.913069  1
  O  O39  1  0.086931  0.413069  0.413069  1
  O  O40  1  0.586931  0.913069  0.913069  1
  O  O41  1  0.000000  0.348478  0.651522  1
  O  O42  1  0.000000  0.000000  0.651522  1
  O  O43  1  0.086931  0.413069  0.086931  1
  O  O44  1  0.348478  0.000000  0.651522  1
  O  O45  1  0.022247  0.217140  0.217140  1
  O  O46  1  0.782860  0.782860  0.456526  1
  O  O47  1  0.000000  0.000000  0.348478  1
  O  O48  1  0.543474  0.217140  0.022247  1
  O  O49  1  0.913069  0.586931  0.586931  1
  O  O50  1  0.913069  0.913069  0.586931  1
  O  O51  1  0.217140  0.543474  0.022247  1
  O  O52  1  0.977753  0.782860  0.782860  1
  O  O53  1  0.000000  0.348478  0.000000  1
  O  O54  1  0.413069  0.086931  0.413069  1
  O  O55  1  0.782860  0.977753  0.456526  1
  O  O56  1  0.651522  0.348478  1.000000  1
  O  O57  1  0.022247  0.543474  0.217140  1
  O  O58  1  0.782860  0.456526  0.782860  1
  O  O59  1  0.456526  0.782860  0.782860  1
  O  O60  1  0.413069  0.413069  0.086931  1
  O  O61  1  0.782860  0.456526  0.977753  1
  O  O62  1  0.413069  0.086931  0.086931  1
  O  O63  1  0.348478  0.651522  0.000000  1
  O  O64  1  0.217140  0.543474  0.217140  1
  O  O65  1  0.217140  0.217140  0.543474  1
  O  O66  1  0.543474  0.022247  0.217140  1
  O  O67  1  0.456526  0.977753  0.782860  1
  O  O68  1  0.456526  0.782860  0.977753  1
  O  O69  1  0.086931  0.086931  0.413069  1
  O  O70  1  0.022247  0.217140  0.543474  1
  O  O71  1  0.543474  0.217140  0.217140  1
