# generated using pymatgen
data_H2C3O4
_symmetry_space_group_name_H-M   'P 1'
_cell_length_a   6.28259954
_cell_length_b   6.28259954
_cell_length_c   11.16649801
_cell_angle_alpha   90.00000000
_cell_angle_beta   90.00000000
_cell_angle_gamma   90.00000000
_symmetry_Int_Tables_number   1
_chemical_formula_structural   H2C3O4
_chemical_formula_sum   'H8 C12 O16'
_cell_volume   440.75347922
_cell_formula_units_Z   4
loop_
 _symmetry_equiv_pos_site_id
 _symmetry_equiv_pos_as_xyz
  1  'x, y, z'
loop_
 _atom_site_type_symbol
 _atom_site_label
 _atom_site_symmetry_multiplicity
 _atom_site_fract_x
 _atom_site_fract_y
 _atom_site_fract_z
 _atom_site_occupancy
  H  H0  1  0.091879  0.764108  0.178881  1
  H  H1  1  0.908121  0.235892  0.678881  1
  H  H2  1  0.764108  0.908121  0.928881  1
  H  H3  1  0.235892  0.091879  0.428881  1
  H  H4  1  0.735929  0.401149  0.585809  1
  H  H5  1  0.401149  0.264071  0.335809  1
  H  H6  1  0.598851  0.735929  0.835809  1
  H  H7  1  0.264071  0.598851  0.085809  1
  C  C8  1  0.889657  0.387868  0.631706  1
  C  C9  1  0.612132  0.889657  0.881706  1
  C  C10  1  0.680442  0.919581  0.436263  1
  C  C11  1  0.080419  0.680442  0.686263  1
  C  C12  1  0.179174  0.580737  0.574454  1
  C  C13  1  0.319558  0.080419  0.936263  1
  C  C14  1  0.820826  0.419263  0.074454  1
  C  C15  1  0.387868  0.110343  0.381706  1
  C  C16  1  0.919581  0.319558  0.186263  1
  C  C17  1  0.110343  0.612132  0.131706  1
  C  C18  1  0.419263  0.179174  0.824454  1
  C  C19  1  0.580737  0.820826  0.324454  1
  O  O20  1  0.058706  0.409785  0.545972  1
  O  O21  1  0.409785  0.941294  0.295972  1
  O  O22  1  0.559768  0.089921  0.465738  1
  O  O23  1  0.335035  0.637863  0.519445  1
  O  O24  1  0.590215  0.058706  0.795972  1
  O  O25  1  0.910079  0.559768  0.715738  1
  O  O26  1  0.637863  0.664965  0.269445  1
  O  O27  1  0.664965  0.362137  0.019445  1
  O  O28  1  0.362137  0.335035  0.769445  1
  O  O29  1  0.162768  0.137427  0.990431  1
  O  O30  1  0.137427  0.837232  0.740431  1
  O  O31  1  0.862573  0.162768  0.240431  1
  O  O32  1  0.440232  0.910079  0.965738  1
  O  O33  1  0.837232  0.862573  0.490431  1
  O  O34  1  0.941294  0.590215  0.045972  1
  O  O35  1  0.089921  0.440232  0.215738  1
