# generated using pymatgen
data_SrMo3(PO7)2
_symmetry_space_group_name_H-M   'P 1'
_cell_length_a   6.53275704
_cell_length_b   8.53947921
_cell_length_c   10.83805436
_cell_angle_alpha   112.95811506
_cell_angle_beta   90.00000000
_cell_angle_gamma   90.00000000
_symmetry_Int_Tables_number   1
_chemical_formula_structural   SrMo3(PO7)2
_chemical_formula_sum   'Sr2 Mo6 P4 O28'
_cell_volume   556.72397750
_cell_formula_units_Z   2
loop_
 _symmetry_equiv_pos_site_id
 _symmetry_equiv_pos_as_xyz
  1  'x, y, z'
loop_
 _atom_site_type_symbol
 _atom_site_label
 _atom_site_symmetry_multiplicity
 _atom_site_fract_x
 _atom_site_fract_y
 _atom_site_fract_z
 _atom_site_occupancy
  Mo  Mo0  1  0.750000  0.754945  0.989885  1
  Mo  Mo1  1  0.250000  0.245055  0.010115  1
  Mo  Mo2  1  0.750000  0.745235  0.669062  1
  Mo  Mo3  1  0.250000  0.254765  0.330938  1
  Mo  Mo4  1  0.750000  0.166300  0.624681  1
  Mo  Mo5  1  0.250000  0.833700  0.375319  1
  P  P6  1  0.750000  0.157274  0.938239  1
  P  P7  1  0.250000  0.842726  0.061761  1
  P  P8  1  0.250000  0.877713  0.698920  1
  P  P9  1  0.750000  0.122287  0.301080  1
  Sr  Sr10  1  0.250000  0.510295  0.745826  1
  Sr  Sr11  1  0.750000  0.489705  0.254174  1
  O  O12  1  0.750000  0.607656  0.063121  1
  O  O13  1  0.250000  0.392344  0.936879  1
  O  O14  1  0.750000  0.964956  0.170255  1
  O  O15  1  0.250000  0.035044  0.829745  1
  O  O16  1  0.435871  0.764540  0.967860  1
  O  O17  1  0.935871  0.235460  0.032140  1
  O  O18  1  0.564129  0.235460  0.032140  1
  O  O19  1  0.064129  0.764540  0.967860  1
  O  O20  1  0.750000  0.630340  0.798415  1
  O  O21  1  0.250000  0.369660  0.201585  1
  O  O22  1  0.750000  0.960965  0.885629  1
  O  O23  1  0.250000  0.039035  0.114371  1
  O  O24  1  0.750000  0.576548  0.515716  1
  O  O25  1  0.250000  0.423452  0.484284  1
  O  O26  1  0.750000  0.941910  0.613475  1
  O  O27  1  0.250000  0.058090  0.386525  1
  O  O28  1  0.435244  0.760577  0.693099  1
  O  O29  1  0.935244  0.239423  0.306901  1
  O  O30  1  0.564756  0.239423  0.306901  1
  O  O31  1  0.064756  0.760577  0.693099  1
  O  O32  1  0.973367  0.286831  0.642041  1
  O  O33  1  0.473367  0.713169  0.357959  1
  O  O34  1  0.026633  0.713169  0.357959  1
  O  O35  1  0.526633  0.286831  0.642041  1
  O  O36  1  0.750000  0.223812  0.825964  1
  O  O37  1  0.250000  0.776188  0.174036  1
  O  O38  1  0.750000  0.067033  0.420930  1
  O  O39  1  0.250000  0.932967  0.579070  1
