# generated using pymatgen
data_K2UCu3S5
_symmetry_space_group_name_H-M   'P 1'
_cell_length_a   3.94324961
_cell_length_b   7.26934490
_cell_length_c   17.61941834
_cell_angle_alpha   90.00000000
_cell_angle_beta   90.00000000
_cell_angle_gamma   105.73714770
_symmetry_Int_Tables_number   1
_chemical_formula_structural   K2UCu3S5
_chemical_formula_sum   'K4 U2 Cu6 S10'
_cell_volume   486.12629621
_cell_formula_units_Z   2
loop_
 _symmetry_equiv_pos_site_id
 _symmetry_equiv_pos_as_xyz
  1  'x, y, z'
loop_
 _atom_site_type_symbol
 _atom_site_label
 _atom_site_symmetry_multiplicity
 _atom_site_fract_x
 _atom_site_fract_y
 _atom_site_fract_z
 _atom_site_occupancy
  K  K0  1  0.236341  0.472682  0.134025  1
  K  K1  1  0.763659  0.527318  0.865974  1
  K  K2  1  0.763659  0.527318  0.634026  1
  K  K3  1  0.236341  0.472682  0.365974  1
  U  U4  1  0.500000  0.000000  0.000000  1
  U  U5  1  0.500000  0.000000  0.500000  1
  Cu  Cu6  1  0.553469  0.106939  0.750000  1
  Cu  Cu7  1  0.956409  0.912817  0.143672  1
  Cu  Cu8  1  0.043591  0.087183  0.643672  1
  Cu  Cu9  1  0.043591  0.087183  0.856328  1
  Cu  Cu10  1  0.446531  0.893061  0.250000  1
  Cu  Cu11  1  0.956409  0.912817  0.356328  1
  S  S12  1  0.447856  0.895712  0.858097  1
  S  S13  1  0.552144  0.104288  0.358097  1
  S  S14  1  0.124530  0.249060  0.970095  1
  S  S15  1  0.552144  0.104288  0.141903  1
  S  S16  1  0.875470  0.750940  0.470095  1
  S  S17  1  0.124530  0.249060  0.529905  1
  S  S18  1  0.853503  0.707007  0.250000  1
  S  S19  1  0.146497  0.292993  0.750000  1
  S  S20  1  0.875470  0.750940  0.029905  1
  S  S21  1  0.447856  0.895712  0.641903  1
