# generated using pymatgen
data_AsC3N3F8
_symmetry_space_group_name_H-M   'P 1'
_cell_length_a   8.40816080
_cell_length_b   8.40737675
_cell_length_c   13.59392798
_cell_angle_alpha   101.16050631
_cell_angle_beta   105.89840824
_cell_angle_gamma   104.13724505
_symmetry_Int_Tables_number   1
_chemical_formula_structural   AsC3N3F8
_chemical_formula_sum   'As4 C12 N12 F32'
_cell_volume   860.55244417
_cell_formula_units_Z   4
loop_
 _symmetry_equiv_pos_site_id
 _symmetry_equiv_pos_as_xyz
  1  'x, y, z'
loop_
 _atom_site_type_symbol
 _atom_site_label
 _atom_site_symmetry_multiplicity
 _atom_site_fract_x
 _atom_site_fract_y
 _atom_site_fract_z
 _atom_site_occupancy
  As  As0  1  0.133242  0.265051  0.943280  1
  As  As1  1  0.821927  0.190330  0.556679  1
  As  As2  1  0.178073  0.809670  0.443321  1
  As  As3  1  0.866758  0.734949  0.056720  1
  C  C4  1  0.234086  0.802012  0.028327  1
  C  C5  1  0.018952  0.722924  0.869065  1
  C  C6  1  0.294644  0.790181  0.879646  1
  C  C7  1  0.765914  0.197988  0.971673  1
  C  C8  1  0.705356  0.209819  0.120354  1
  C  C9  1  0.589449  0.585183  0.379699  1
  C  C10  1  0.273634  0.205437  0.471633  1
  C  C11  1  0.353851  0.149685  0.630942  1
  C  C12  1  0.981048  0.277076  0.130935  1
  C  C13  1  0.646149  0.850315  0.369058  1
  C  C14  1  0.410551  0.414817  0.620301  1
  C  C15  1  0.726366  0.794563  0.528367  1
  N  N16  1  0.277220  0.083964  0.524006  1
  N  N17  1  0.870398  0.259730  0.182956  1
  N  N18  1  0.129602  0.740270  0.817044  1
  N  N19  1  0.576790  0.687573  0.317067  1
  N  N20  1  0.939764  0.246713  0.023991  1
  N  N21  1  0.643820  0.178378  0.015323  1
  N  N22  1  0.663030  0.628746  0.484728  1
  N  N23  1  0.722780  0.916036  0.475994  1
  N  N24  1  0.356180  0.821622  0.984677  1
  N  N25  1  0.423210  0.312427  0.682933  1
  N  N26  1  0.336970  0.371254  0.515272  1
  N  N27  1  0.060236  0.753287  0.976009  1
  F  F28  1  0.992130  0.067550  0.855373  1
  F  F29  1  0.918749  0.211429  0.458665  1
  F  F30  1  0.520623  0.419767  0.331504  1
  F  F31  1  0.479377  0.580233  0.668496  1
  F  F32  1  0.284816  0.833355  0.132220  1
  F  F33  1  0.993704  0.850533  0.368066  1
  F  F34  1  0.411819  0.810861  0.831430  1
  F  F35  1  0.017175  0.374190  0.868025  1
  F  F36  1  0.626346  0.199791  0.471799  1
  F  F37  1  0.712291  0.137103  0.644561  1
  F  F38  1  0.201066  0.152228  0.367756  1
  F  F39  1  0.007870  0.932450  0.144627  1
  F  F40  1  0.715184  0.166645  0.867780  1
  F  F41  1  0.006296  0.149467  0.631934  1
  F  F42  1  0.982824  0.625810  0.131975  1
  F  F43  1  0.373654  0.800209  0.528201  1
  F  F44  1  0.287709  0.862897  0.355439  1
  F  F45  1  0.798934  0.847772  0.632244  1
  F  F46  1  0.772404  0.845657  0.971848  1
  F  F47  1  0.227596  0.154343  0.028152  1
  F  F48  1  0.588181  0.189139  0.168570  1
  F  F49  1  0.100782  0.592782  0.378855  1
  F  F50  1  0.252346  0.459900  0.041322  1
  F  F51  1  0.852703  0.671635  0.812589  1
  F  F52  1  0.285678  0.277949  0.878841  1
  F  F53  1  0.359104  0.039948  0.687434  1
  F  F54  1  0.714322  0.722051  0.121159  1
  F  F55  1  0.747654  0.540100  0.958678  1
  F  F56  1  0.640896  0.960052  0.312566  1
  F  F57  1  0.147297  0.328365  0.187411  1
  F  F58  1  0.081251  0.788571  0.541335  1
  F  F59  1  0.899218  0.407218  0.621145  1
