# generated using pymatgen
data_Na2GaNiF7
_symmetry_space_group_name_H-M   'P 1'
_cell_length_a   7.23747537
_cell_length_b   7.34648348
_cell_length_c   7.34648343
_cell_angle_alpha   61.51972694
_cell_angle_beta   60.48963828
_cell_angle_gamma   60.48964334
_symmetry_Int_Tables_number   1
_chemical_formula_structural   Na2GaNiF7
_chemical_formula_sum   'Na4 Ga2 Ni2 F14'
_cell_volume   281.33351777
_cell_formula_units_Z   2
loop_
 _symmetry_equiv_pos_site_id
 _symmetry_equiv_pos_as_xyz
  1  'x, y, z'
loop_
 _atom_site_type_symbol
 _atom_site_label
 _atom_site_symmetry_multiplicity
 _atom_site_fract_x
 _atom_site_fract_y
 _atom_site_fract_z
 _atom_site_occupancy
  Na  Na0  1  0.500000  0.500000  0.000000  1
  Na  Na1  1  0.000000  0.000000  0.000000  1
  Na  Na2  1  0.000000  0.500000  0.000000  1
  Na  Na3  1  0.500000  0.500000  0.500000  1
  Ga  Ga4  1  0.500000  0.000000  0.000000  1
  Ga  Ga5  1  0.000000  0.500000  0.500000  1
  Ni  Ni6  1  0.000000  0.000000  0.500000  1
  Ni  Ni7  1  0.500000  0.000000  0.500000  1
  F  F8  1  0.750000  0.109234  0.390766  1
  F  F9  1  0.588765  0.683587  0.138882  1
  F  F10  1  0.188216  0.051913  0.178412  1
  F  F11  1  0.081459  0.678412  0.551913  1
  F  F12  1  0.911235  0.361118  0.816413  1
  F  F13  1  0.311784  0.321588  0.448087  1
  F  F14  1  0.581459  0.051913  0.178412  1
  F  F15  1  0.688216  0.678412  0.551913  1
  F  F16  1  0.250000  0.890766  0.609234  1
  F  F17  1  0.418541  0.948087  0.821588  1
  F  F18  1  0.411235  0.316413  0.861118  1
  F  F19  1  0.811784  0.948087  0.821588  1
  F  F20  1  0.918541  0.321588  0.448087  1
  F  F21  1  0.088765  0.638882  0.183587  1
