# generated using pymatgen
data_Hf2Te
_symmetry_space_group_name_H-M   'P 1'
_cell_length_a   3.75675772
_cell_length_b   7.84691798
_cell_length_c   10.12845918
_cell_angle_alpha   90.23959066
_cell_angle_beta   90.00000000
_cell_angle_gamma   103.84982727
_symmetry_Int_Tables_number   1
_chemical_formula_structural   Hf2Te
_chemical_formula_sum   'Hf8 Te4'
_cell_volume   289.89317933
_cell_formula_units_Z   4
loop_
 _symmetry_equiv_pos_site_id
 _symmetry_equiv_pos_as_xyz
  1  'x, y, z'
loop_
 _atom_site_type_symbol
 _atom_site_label
 _atom_site_symmetry_multiplicity
 _atom_site_fract_x
 _atom_site_fract_y
 _atom_site_fract_z
 _atom_site_occupancy
  Hf  Hf0  1  0.744939  0.489878  0.382446  1
  Hf  Hf1  1  0.218442  0.436884  0.127323  1
  Hf  Hf2  1  0.592617  0.185233  0.652387  1
  Hf  Hf3  1  0.781558  0.563116  0.872677  1
  Hf  Hf4  1  0.255061  0.510122  0.617554  1
  Hf  Hf5  1  0.914434  0.828868  0.580561  1
  Hf  Hf6  1  0.085566  0.171132  0.419439  1
  Hf  Hf7  1  0.407383  0.814767  0.347613  1
  Te  Te8  1  0.578928  0.157856  0.194609  1
  Te  Te9  1  0.864983  0.729967  0.132905  1
  Te  Te10  1  0.135017  0.270033  0.867095  1
  Te  Te11  1  0.421072  0.842144  0.805391  1
