# generated using pymatgen
data_BaYMn2O6
_symmetry_space_group_name_H-M   'P 1'
_cell_length_a   5.56759268
_cell_length_b   5.56759260
_cell_length_c   7.85485081
_cell_angle_alpha   89.61792850
_cell_angle_beta   89.61792851
_cell_angle_gamma   88.91819399
_symmetry_Int_Tables_number   1
_chemical_formula_structural   BaYMn2O6
_chemical_formula_sum   'Ba2 Y2 Mn4 O12'
_cell_volume   243.43133079
_cell_formula_units_Z   2
loop_
 _symmetry_equiv_pos_site_id
 _symmetry_equiv_pos_as_xyz
  1  'x, y, z'
loop_
 _atom_site_type_symbol
 _atom_site_label
 _atom_site_symmetry_multiplicity
 _atom_site_fract_x
 _atom_site_fract_y
 _atom_site_fract_z
 _atom_site_occupancy
  Ba  Ba0  1  0.247106  0.247106  0.006159  1
  Ba  Ba1  1  0.752894  0.752894  0.993841  1
  Y  Y2  1  0.768271  0.768271  0.492705  1
  Y  Y3  1  0.231729  0.231729  0.507295  1
  Mn  Mn4  1  0.749983  0.252851  0.258443  1
  Mn  Mn5  1  0.250017  0.747149  0.741557  1
  Mn  Mn6  1  0.252851  0.749983  0.258443  1
  Mn  Mn7  1  0.747149  0.250017  0.741557  1
  O  O8  1  0.268947  0.731053  0.000000  1
  O  O9  1  0.807141  0.192859  0.500000  1
  O  O10  1  0.031514  0.031514  0.757815  1
  O  O11  1  0.968486  0.968486  0.242185  1
  O  O12  1  0.731053  0.268947  1.000000  1
  O  O13  1  0.192859  0.807141  0.500000  1
  O  O14  1  0.472832  0.031555  0.287281  1
  O  O15  1  0.532730  0.532730  0.306946  1
  O  O16  1  0.031555  0.472832  0.287281  1
  O  O17  1  0.527169  0.968445  0.712719  1
  O  O18  1  0.467270  0.467270  0.693054  1
  O  O19  1  0.968445  0.527169  0.712719  1
