# generated using pymatgen
data_Tb2Ti3Si4
_symmetry_space_group_name_H-M   'P 1'
_cell_length_a   7.07153704
_cell_length_b   7.07153704
_cell_length_c   13.00082633
_cell_angle_alpha   90.00000000
_cell_angle_beta   90.00000000
_cell_angle_gamma   90.00000000
_symmetry_Int_Tables_number   1
_chemical_formula_structural   Tb2Ti3Si4
_chemical_formula_sum   'Tb8 Ti12 Si16'
_cell_volume   650.12759139
_cell_formula_units_Z   4
loop_
 _symmetry_equiv_pos_site_id
 _symmetry_equiv_pos_as_xyz
  1  'x, y, z'
loop_
 _atom_site_type_symbol
 _atom_site_label
 _atom_site_symmetry_multiplicity
 _atom_site_fract_x
 _atom_site_fract_y
 _atom_site_fract_z
 _atom_site_occupancy
  Tb  Tb0  1  0.339654  0.002283  0.466453  1
  Tb  Tb1  1  0.497717  0.839654  0.716453  1
  Tb  Tb2  1  0.502283  0.160346  0.216453  1
  Tb  Tb3  1  0.839654  0.497717  0.283547  1
  Tb  Tb4  1  0.160346  0.502283  0.783547  1
  Tb  Tb5  1  0.660346  0.997717  0.966453  1
  Tb  Tb6  1  0.002283  0.339654  0.533547  1
  Tb  Tb7  1  0.997717  0.660346  0.033547  1
  Ti  Ti8  1  0.328045  0.328045  0.000000  1
  Ti  Ti9  1  0.171956  0.828044  0.250000  1
  Ti  Ti10  1  0.828044  0.171956  0.750000  1
  Ti  Ti11  1  0.671956  0.671956  0.500000  1
  Ti  Ti12  1  0.153133  0.008029  0.876608  1
  Ti  Ti13  1  0.491971  0.653133  0.126608  1
  Ti  Ti14  1  0.508029  0.346867  0.626608  1
  Ti  Ti15  1  0.653133  0.491971  0.873392  1
  Ti  Ti16  1  0.346867  0.508029  0.373392  1
  Ti  Ti17  1  0.846867  0.991971  0.376608  1
  Ti  Ti18  1  0.008029  0.153133  0.123392  1
  Ti  Ti19  1  0.991971  0.846867  0.623392  1
  Si  Si20  1  0.202409  0.129744  0.685036  1
  Si  Si21  1  0.370256  0.702409  0.935036  1
  Si  Si22  1  0.629744  0.297591  0.435036  1
  Si  Si23  1  0.702409  0.370256  0.064964  1
  Si  Si24  1  0.297591  0.629744  0.564964  1
  Si  Si25  1  0.797591  0.870256  0.185036  1
  Si  Si26  1  0.129744  0.202409  0.314964  1
  Si  Si27  1  0.870256  0.797591  0.814964  1
  Si  Si28  1  0.290783  0.954030  0.064756  1
  Si  Si29  1  0.545970  0.790783  0.314756  1
  Si  Si30  1  0.454030  0.209217  0.814756  1
  Si  Si31  1  0.790783  0.545970  0.685244  1
  Si  Si32  1  0.209217  0.454030  0.185244  1
  Si  Si33  1  0.709217  0.045970  0.564756  1
  Si  Si34  1  0.954030  0.290783  0.935244  1
  Si  Si35  1  0.045970  0.709217  0.435244  1
