# generated using pymatgen
data_Eu2GeSe4
_symmetry_space_group_name_H-M   'P 1'
_cell_length_a   7.00886469
_cell_length_b   7.02367269
_cell_length_c   8.43232931
_cell_angle_alpha   90.00000000
_cell_angle_beta   107.80755834
_cell_angle_gamma   90.00000000
_symmetry_Int_Tables_number   1
_chemical_formula_structural   Eu2GeSe4
_chemical_formula_sum   'Eu4 Ge2 Se8'
_cell_volume   395.21832529
_cell_formula_units_Z   2
loop_
 _symmetry_equiv_pos_site_id
 _symmetry_equiv_pos_as_xyz
  1  'x, y, z'
loop_
 _atom_site_type_symbol
 _atom_site_label
 _atom_site_symmetry_multiplicity
 _atom_site_fract_x
 _atom_site_fract_y
 _atom_site_fract_z
 _atom_site_occupancy
  Eu  Eu0  1  0.728419  0.250000  0.056310  1
  Eu  Eu1  1  0.271581  0.750000  0.943690  1
  Eu  Eu2  1  0.248188  0.750000  0.436697  1
  Eu  Eu3  1  0.751812  0.250000  0.563303  1
  Ge  Ge4  1  0.269262  0.250000  0.196679  1
  Ge  Ge5  1  0.730738  0.750000  0.803321  1
  Se  Se6  1  0.501510  0.508749  0.257691  1
  Se  Se7  1  0.086319  0.250000  0.907191  1
  Se  Se8  1  0.913681  0.750000  0.092809  1
  Se  Se9  1  0.501510  0.991251  0.257691  1
  Se  Se10  1  0.924666  0.750000  0.614545  1
  Se  Se11  1  0.498490  0.008749  0.742309  1
  Se  Se12  1  0.498490  0.491251  0.742309  1
  Se  Se13  1  0.075334  0.250000  0.385455  1
