# generated using pymatgen
data_Li2CoP2O7
_symmetry_space_group_name_H-M   'P 1'
_cell_length_a   5.17229911
_cell_length_b   7.21973049
_cell_length_c   8.21003209
_cell_angle_alpha   66.02722420
_cell_angle_beta   93.76699511
_cell_angle_gamma   97.96794878
_symmetry_Int_Tables_number   1
_chemical_formula_structural   Li2CoP2O7
_chemical_formula_sum   'Li4 Co2 P4 O14'
_cell_volume   277.41821950
_cell_formula_units_Z   2
loop_
 _symmetry_equiv_pos_site_id
 _symmetry_equiv_pos_as_xyz
  1  'x, y, z'
loop_
 _atom_site_type_symbol
 _atom_site_label
 _atom_site_symmetry_multiplicity
 _atom_site_fract_x
 _atom_site_fract_y
 _atom_site_fract_z
 _atom_site_occupancy
  Li  Li0  1  0.288821  0.824176  0.564313  1
  Li  Li1  1  0.711178  0.175828  0.435683  1
  Li  Li2  1  0.703475  0.134387  0.005189  1
  Li  Li3  1  0.296523  0.865610  0.994810  1
  O  O4  1  0.171969  0.666838  0.222520  1
  O  O5  1  0.940941  0.042376  0.204380  1
  O  O6  1  0.059052  0.957630  0.795611  1
  O  O7  1  0.106875  0.304134  0.464818  1
  O  O8  1  0.433362  0.533893  0.658758  1
  O  O9  1  0.219434  0.374416  0.145847  1
  O  O10  1  0.828037  0.333158  0.777493  1
  O  O11  1  0.409693  0.040221  0.328551  1
  O  O12  1  0.893134  0.695856  0.535185  1
  O  O13  1  0.566650  0.466093  0.341258  1
  O  O14  1  0.590311  0.959777  0.671440  1
  O  O15  1  0.670500  0.846772  0.004351  1
  O  O16  1  0.780567  0.625580  0.854157  1
  O  O17  1  0.329496  0.153240  0.995642  1
  P  P18  1  0.270211  0.455987  0.305104  1
  P  P19  1  0.729785  0.543998  0.694914  1
  P  P20  1  0.227386  0.138698  0.174532  1
  P  P21  1  0.772621  0.861314  0.825455  1
  Co  Co22  1  0.815146  0.731977  0.273984  1
  Co  Co23  1  0.184834  0.268039  0.726007  1
