# generated using pymatgen
data_Dy11S16
_symmetry_space_group_name_H-M   'P 1'
_cell_length_a   28.84797517
_cell_length_b   8.33796846
_cell_length_c   8.28335299
_cell_angle_alpha   90.00000000
_cell_angle_beta   54.95103620
_cell_angle_gamma   54.68560534
_symmetry_Int_Tables_number   1
_chemical_formula_structural   Dy11S16
_chemical_formula_sum   'Dy22 S32'
_cell_volume   1155.00518038
_cell_formula_units_Z   2
loop_
 _symmetry_equiv_pos_site_id
 _symmetry_equiv_pos_as_xyz
  1  'x, y, z'
loop_
 _atom_site_type_symbol
 _atom_site_label
 _atom_site_symmetry_multiplicity
 _atom_site_fract_x
 _atom_site_fract_y
 _atom_site_fract_z
 _atom_site_occupancy
  Dy  Dy0  1  0.997503  0.129241  0.737990  1
  Dy  Dy1  1  0.055557  0.638590  0.388785  1
  Dy  Dy2  1  0.124866  0.254946  0.629574  1
  Dy  Dy3  1  0.254958  0.349883  0.232868  1
  Dy  Dy4  1  0.194443  0.860820  0.111215  1
  Dy  Dy5  1  0.252497  0.119251  0.762010  1
  Dy  Dy6  1  0.125134  0.754412  0.870426  1
  Dy  Dy7  1  0.313428  0.629016  0.353903  1
  Dy  Dy8  1  0.375000  0.250000  0.621271  1
  Dy  Dy9  1  0.497503  0.380749  0.272000  1
  Dy  Dy10  1  0.436572  0.870984  0.107616  1
  Dy  Dy11  1  0.495042  0.150117  0.752699  1
  Dy  Dy12  1  0.555557  0.639180  0.388986  1
  Dy  Dy13  1  0.625134  0.245054  0.629040  1
  Dy  Dy14  1  0.752497  0.370759  0.228000  1
  Dy  Dy15  1  0.694443  0.861410  0.111014  1
  Dy  Dy16  1  0.754958  0.130285  0.747301  1
  Dy  Dy17  1  0.624866  0.745588  0.870960  1
  Dy  Dy18  1  0.813428  0.617271  0.392384  1
  Dy  Dy19  1  0.995042  0.369715  0.267132  1
  Dy  Dy20  1  0.936572  0.882729  0.146097  1
  Dy  Dy21  1  0.875000  0.750000  0.878729  1
  S  S22  1  0.092039  0.501212  0.996196  1
  S  S23  1  0.032863  0.360763  0.509662  1
  S  S24  1  0.206925  0.157695  0.165099  1
  S  S25  1  0.043075  0.985393  0.334901  1
  S  S26  1  0.217137  0.492216  0.990338  1
  S  S27  1  0.157651  0.010789  0.868039  1
  S  S28  1  0.092349  0.641393  0.631961  1
  S  S29  1  0.157961  0.869369  0.503804  1
  S  S30  1  0.336214  0.501198  0.994384  1
  S  S31  1  0.284545  0.369554  0.491948  1
  S  S32  1  0.465455  0.130446  0.130126  1
  S  S33  1  0.282240  0.011958  0.379341  1
  S  S34  1  0.467760  0.488042  0.008301  1
  S  S35  1  0.413786  0.998802  0.839239  1
  S  S36  1  0.337827  0.639721  0.626856  1
  S  S37  1  0.412173  0.860279  0.478166  1
  S  S38  1  0.592349  0.489211  0.998642  1
  S  S39  1  0.543075  0.342305  0.492798  1
  S  S40  1  0.717137  0.139237  0.141114  1
  S  S41  1  0.532863  0.007784  0.358886  1
  S  S42  1  0.706925  0.514607  0.007202  1
  S  S43  1  0.657961  0.998788  0.864353  1
  S  S44  1  0.592039  0.630631  0.635647  1
  S  S45  1  0.657651  0.858607  0.501358  1
  S  S46  1  0.837827  0.508969  0.021834  1
  S  S47  1  0.782240  0.359082  0.491699  1
  S  S48  1  0.784545  0.992268  0.369874  1
  S  S49  1  0.967760  0.140918  0.120659  1
  S  S50  1  0.965455  0.507732  0.008052  1
  S  S51  1  0.912173  0.991031  0.873144  1
  S  S52  1  0.836214  0.653947  0.660761  1
  S  S53  1  0.913786  0.846053  0.505616  1
