# generated using pymatgen
data_CdI2
_symmetry_space_group_name_H-M   'P 1'
_cell_length_a   4.33213247
_cell_length_b   4.33213274
_cell_length_c   74.71438252
_cell_angle_alpha   90.00000000
_cell_angle_beta   90.00000000
_cell_angle_gamma   119.99999802
_symmetry_Int_Tables_number   1
_chemical_formula_structural   CdI2
_chemical_formula_sum   'Cd10 I20'
_cell_volume   1214.33450455
_cell_formula_units_Z   10
loop_
 _symmetry_equiv_pos_site_id
 _symmetry_equiv_pos_as_xyz
  1  'x, y, z'
loop_
 _atom_site_type_symbol
 _atom_site_label
 _atom_site_symmetry_multiplicity
 _atom_site_fract_x
 _atom_site_fract_y
 _atom_site_fract_z
 _atom_site_occupancy
  Cd  Cd0  1  0.666667  0.333333  0.325020  1
  Cd  Cd1  1  0.000000  0.000000  0.424985  1
  Cd  Cd2  1  0.000000  0.000000  0.924982  1
  Cd  Cd3  1  0.666667  0.333333  0.024997  1
  Cd  Cd4  1  0.000000  0.000000  0.225019  1
  Cd  Cd5  1  0.000000  0.000000  0.524972  1
  Cd  Cd6  1  0.000000  0.000000  0.725023  1
  Cd  Cd7  1  0.000000  0.000000  0.125002  1
  Cd  Cd8  1  0.000000  0.000000  0.825012  1
  Cd  Cd9  1  0.000000  0.000000  0.624995  1
  I  I10  1  0.333333  0.666667  0.448081  1
  I  I11  1  0.333333  0.666667  0.348127  1
  I  I12  1  0.666667  0.333333  0.101901  1
  I  I13  1  0.666667  0.333333  0.901884  1
  I  I14  1  0.333333  0.666667  0.948077  1
  I  I15  1  0.000000  0.000000  0.301911  1
  I  I16  1  0.666667  0.333333  0.701922  1
  I  I17  1  0.666667  0.333333  0.801916  1
  I  I18  1  0.333333  0.666667  0.048095  1
  I  I19  1  0.666667  0.333333  0.601895  1
  I  I20  1  0.000000  0.000000  0.001891  1
  I  I21  1  0.333333  0.666667  0.548074  1
  I  I22  1  0.333333  0.666667  0.148101  1
  I  I23  1  0.666667  0.333333  0.401888  1
  I  I24  1  0.333333  0.666667  0.248117  1
  I  I25  1  0.666667  0.333333  0.501867  1
  I  I26  1  0.333333  0.666667  0.848106  1
  I  I27  1  0.333333  0.666667  0.648096  1
  I  I28  1  0.666667  0.333333  0.201920  1
  I  I29  1  0.333333  0.666667  0.748124  1
