# generated using pymatgen
data_CsGa3S5
_symmetry_space_group_name_H-M   'P 1'
_cell_length_a   7.06610457
_cell_length_b   10.95900407
_cell_length_c   12.95880959
_cell_angle_alpha   90.00000000
_cell_angle_beta   90.00000000
_cell_angle_gamma   91.29805818
_symmetry_Int_Tables_number   1
_chemical_formula_structural   CsGa3S5
_chemical_formula_sum   'Cs4 Ga12 S20'
_cell_volume   1003.23989279
_cell_formula_units_Z   4
loop_
 _symmetry_equiv_pos_site_id
 _symmetry_equiv_pos_as_xyz
  1  'x, y, z'
loop_
 _atom_site_type_symbol
 _atom_site_label
 _atom_site_symmetry_multiplicity
 _atom_site_fract_x
 _atom_site_fract_y
 _atom_site_fract_z
 _atom_site_occupancy
  Cs  Cs0  1  0.134958  0.358836  0.583174  1
  Cs  Cs1  1  0.634958  0.358836  0.916826  1
  Cs  Cs2  1  0.365042  0.641164  0.083174  1
  Cs  Cs3  1  0.865042  0.641164  0.416826  1
  Ga  Ga4  1  0.016917  0.328065  0.199921  1
  Ga  Ga5  1  0.983083  0.671935  0.800079  1
  Ga  Ga6  1  0.483083  0.671935  0.699921  1
  Ga  Ga7  1  0.603446  0.128491  0.537348  1
  Ga  Ga8  1  0.516917  0.328065  0.300079  1
  Ga  Ga9  1  0.735702  0.015258  0.274597  1
  Ga  Ga10  1  0.896554  0.871509  0.037348  1
  Ga  Ga11  1  0.103446  0.128491  0.962652  1
  Ga  Ga12  1  0.235702  0.015258  0.225403  1
  Ga  Ga13  1  0.264298  0.984742  0.725403  1
  Ga  Ga14  1  0.396554  0.871509  0.462652  1
  Ga  Ga15  1  0.764298  0.984742  0.774597  1
  S  S16  1  0.995897  0.860891  0.709889  1
  S  S17  1  0.707512  0.955847  0.446946  1
  S  S18  1  0.004103  0.139109  0.290111  1
  S  S19  1  0.261845  0.568528  0.798109  1
  S  S20  1  0.238155  0.431472  0.298109  1
  S  S21  1  0.761845  0.568528  0.701891  1
  S  S22  1  0.504103  0.139109  0.209889  1
  S  S23  1  0.495897  0.860891  0.790111  1
  S  S24  1  0.125072  0.315068  0.033927  1
  S  S25  1  0.625072  0.315068  0.466073  1
  S  S26  1  0.874928  0.684932  0.966073  1
  S  S27  1  0.292488  0.044153  0.553054  1
  S  S28  1  0.207512  0.955847  0.053054  1
  S  S29  1  0.792488  0.044153  0.946946  1
  S  S30  1  0.738155  0.431472  0.201891  1
  S  S31  1  0.746872  0.838291  0.188784  1
  S  S32  1  0.246872  0.838291  0.311216  1
  S  S33  1  0.753128  0.161709  0.688784  1
  S  S34  1  0.253128  0.161709  0.811216  1
  S  S35  1  0.374928  0.684932  0.533927  1
