# generated using pymatgen
data_MnGaH4O2F5
_symmetry_space_group_name_H-M   'P 1'
_cell_length_a   6.65950344
_cell_length_b   7.46011412
_cell_length_c   7.46011303
_cell_angle_alpha   61.53436296
_cell_angle_beta   63.49085245
_cell_angle_gamma   63.49085191
_symmetry_Int_Tables_number   1
_chemical_formula_structural   MnGaH4O2F5
_chemical_formula_sum   'Mn2 Ga2 H8 O4 F10'
_cell_volume   278.40974975
_cell_formula_units_Z   2
loop_
 _symmetry_equiv_pos_site_id
 _symmetry_equiv_pos_as_xyz
  1  'x, y, z'
loop_
 _atom_site_type_symbol
 _atom_site_label
 _atom_site_symmetry_multiplicity
 _atom_site_fract_x
 _atom_site_fract_y
 _atom_site_fract_z
 _atom_site_occupancy
  Ga  Ga0  1  0.500000  0.000000  0.500000  1
  Ga  Ga1  1  0.500000  0.500000  0.000000  1
  Mn  Mn2  1  0.000000  0.500000  0.500000  1
  Mn  Mn3  1  0.500000  0.000000  0.000000  1
  F  F4  1  0.574249  0.089663  0.657963  1
  F  F5  1  0.821876  0.410337  0.842037  1
  F  F6  1  0.425751  0.342037  0.910337  1
  F  F7  1  0.178124  0.157963  0.589663  1
  F  F8  1  0.425751  0.910337  0.342037  1
  F  F9  1  0.178124  0.589663  0.157963  1
  F  F10  1  0.574249  0.657963  0.089663  1
  F  F11  1  0.821876  0.842037  0.410337  1
  F  F12  1  0.564871  0.250000  0.250000  1
  F  F13  1  0.435129  0.750000  0.750000  1
  O  O14  1  0.876483  0.921192  0.921192  1
  O  O15  1  0.218867  0.578808  0.578808  1
  O  O16  1  0.123517  0.078808  0.078808  1
  O  O17  1  0.781133  0.421192  0.421192  1
  H  H18  1  0.021195  0.995361  0.201349  1
  H  H19  1  0.717905  0.504639  0.298651  1
  H  H20  1  0.978805  0.798651  0.004639  1
  H  H21  1  0.282095  0.701349  0.495361  1
  H  H22  1  0.978805  0.004639  0.798651  1
  H  H23  1  0.282095  0.495361  0.701349  1
  H  H24  1  0.021195  0.201349  0.995361  1
  H  H25  1  0.717905  0.298651  0.504639  1
