# generated using pymatgen
data_BaHo2CoO5
_symmetry_space_group_name_H-M   'P 1'
_cell_length_a   5.73905298
_cell_length_b   7.10571337
_cell_length_c   12.32741862
_cell_angle_alpha   90.00000000
_cell_angle_beta   90.00000000
_cell_angle_gamma   90.00000000
_symmetry_Int_Tables_number   1
_chemical_formula_structural   BaHo2CoO5
_chemical_formula_sum   'Ba4 Ho8 Co4 O20'
_cell_volume   502.71293866
_cell_formula_units_Z   4
loop_
 _symmetry_equiv_pos_site_id
 _symmetry_equiv_pos_as_xyz
  1  'x, y, z'
loop_
 _atom_site_type_symbol
 _atom_site_label
 _atom_site_symmetry_multiplicity
 _atom_site_fract_x
 _atom_site_fract_y
 _atom_site_fract_z
 _atom_site_occupancy
  Ba  Ba0  1  0.250000  0.921482  0.899883  1
  Ba  Ba1  1  0.750000  0.078518  0.100117  1
  Ba  Ba2  1  0.750000  0.421482  0.600117  1
  Ba  Ba3  1  0.250000  0.578518  0.399883  1
  Ho  Ho4  1  0.250000  0.118928  0.291533  1
  Ho  Ho5  1  0.750000  0.881072  0.708467  1
  Ho  Ho6  1  0.750000  0.618928  0.208467  1
  Ho  Ho7  1  0.250000  0.381072  0.791533  1
  Ho  Ho8  1  0.250000  0.401219  0.074475  1
  Ho  Ho9  1  0.750000  0.598781  0.925525  1
  Ho  Ho10  1  0.750000  0.901219  0.425525  1
  Ho  Ho11  1  0.250000  0.098781  0.574475  1
  Co  Co12  1  0.250000  0.692575  0.652423  1
  Co  Co13  1  0.750000  0.307425  0.347577  1
  Co  Co14  1  0.750000  0.192575  0.847577  1
  Co  Co15  1  0.250000  0.807425  0.152423  1
  O  O16  1  0.996756  0.165431  0.434181  1
  O  O17  1  0.496756  0.834569  0.565819  1
  O  O18  1  0.003244  0.665431  0.065819  1
  O  O19  1  0.503244  0.334569  0.934181  1
  O  O20  1  0.003244  0.834569  0.565819  1
  O  O21  1  0.503244  0.165431  0.434181  1
  O  O22  1  0.996756  0.334569  0.934181  1
  O  O23  1  0.496756  0.665431  0.065819  1
  O  O24  1  0.500775  0.360539  0.224719  1
  O  O25  1  0.000775  0.639461  0.775281  1
  O  O26  1  0.499225  0.860539  0.275281  1
  O  O27  1  0.999225  0.139461  0.724719  1
  O  O28  1  0.499225  0.639461  0.775281  1
  O  O29  1  0.999225  0.360539  0.224719  1
  O  O30  1  0.500775  0.139461  0.724719  1
  O  O31  1  0.000775  0.860539  0.275281  1
  O  O32  1  0.250000  0.076345  0.102485  1
  O  O33  1  0.750000  0.923655  0.897515  1
  O  O34  1  0.750000  0.576345  0.397515  1
  O  O35  1  0.250000  0.423655  0.602485  1
