# generated using pymatgen
data_Cs(BBr)6
_symmetry_space_group_name_H-M   'P 1'
_cell_length_a   17.21554302
_cell_length_b   17.21554274
_cell_length_c   17.21554272
_cell_angle_alpha   34.28718081
_cell_angle_beta   34.28718223
_cell_angle_gamma   34.28718028
_symmetry_Int_Tables_number   1
_chemical_formula_structural   Cs(BBr)6
_chemical_formula_sum   'Cs4 B24 Br24'
_cell_volume   1444.02454526
_cell_formula_units_Z   4
loop_
 _symmetry_equiv_pos_site_id
 _symmetry_equiv_pos_as_xyz
  1  'x, y, z'
loop_
 _atom_site_type_symbol
 _atom_site_label
 _atom_site_symmetry_multiplicity
 _atom_site_fract_x
 _atom_site_fract_y
 _atom_site_fract_z
 _atom_site_occupancy
  Cs  Cs0  1  0.626614  0.626614  0.626614  1
  Cs  Cs1  1  0.208479  0.208479  0.208479  1
  Cs  Cs2  1  0.791521  0.791521  0.791521  1
  Cs  Cs3  1  0.373386  0.373386  0.373386  1
  B  B4  1  0.952190  0.082600  0.881350  1
  B  B5  1  0.974226  0.184678  0.861058  1
  B  B6  1  0.642850  0.323174  0.553859  1
  B  B7  1  0.184678  0.861058  0.974226  1
  B  B8  1  0.446141  0.357150  0.676826  1
  B  B9  1  0.047810  0.917400  0.118650  1
  B  B10  1  0.357150  0.676826  0.446141  1
  B  B11  1  0.641369  0.498435  0.443728  1
  B  B12  1  0.861058  0.974226  0.184678  1
  B  B13  1  0.553859  0.642850  0.323174  1
  B  B14  1  0.676826  0.446141  0.357150  1
  B  B15  1  0.138942  0.025774  0.815322  1
  B  B16  1  0.025774  0.815322  0.138942  1
  B  B17  1  0.118650  0.047810  0.917400  1
  B  B18  1  0.881350  0.952190  0.082600  1
  B  B19  1  0.815322  0.138942  0.025774  1
  B  B20  1  0.917400  0.118650  0.047810  1
  B  B21  1  0.501565  0.556272  0.358631  1
  B  B22  1  0.498435  0.443728  0.641369  1
  B  B23  1  0.323174  0.553859  0.642850  1
  B  B24  1  0.358631  0.501565  0.556272  1
  B  B25  1  0.443728  0.641369  0.498435  1
  B  B26  1  0.082600  0.881350  0.952190  1
  B  B27  1  0.556272  0.358631  0.501565  1
  Br  Br28  1  0.622082  0.195506  0.502466  1
  Br  Br29  1  0.502466  0.622082  0.195506  1
  Br  Br30  1  0.701413  0.945117  0.398750  1
  Br  Br31  1  0.101595  0.822487  0.256060  1
  Br  Br32  1  0.385204  0.191043  0.878075  1
  Br  Br33  1  0.822487  0.256060  0.101595  1
  Br  Br34  1  0.195506  0.502466  0.622082  1
  Br  Br35  1  0.808957  0.121925  0.614796  1
  Br  Br36  1  0.601250  0.298587  0.054883  1
  Br  Br37  1  0.177513  0.743940  0.898405  1
  Br  Br38  1  0.054883  0.601250  0.298587  1
  Br  Br39  1  0.804494  0.497534  0.377918  1
  Br  Br40  1  0.614796  0.808957  0.121925  1
  Br  Br41  1  0.743940  0.898405  0.177513  1
  Br  Br42  1  0.191043  0.878075  0.385204  1
  Br  Br43  1  0.878075  0.385204  0.191043  1
  Br  Br44  1  0.256060  0.101595  0.822487  1
  Br  Br45  1  0.898405  0.177513  0.743940  1
  Br  Br46  1  0.377918  0.804494  0.497534  1
  Br  Br47  1  0.398750  0.701413  0.945117  1
  Br  Br48  1  0.497534  0.377918  0.804494  1
  Br  Br49  1  0.298587  0.054883  0.601250  1
  Br  Br50  1  0.121925  0.614796  0.808957  1
  Br  Br51  1  0.945117  0.398750  0.701413  1
