# generated using pymatgen
data_KEuSiS4
_symmetry_space_group_name_H-M   'P 1'
_cell_length_a   6.57566857
_cell_length_b   6.73607927
_cell_length_c   8.70523902
_cell_angle_alpha   90.00000000
_cell_angle_beta   107.51912356
_cell_angle_gamma   90.00000000
_symmetry_Int_Tables_number   1
_chemical_formula_structural   KEuSiS4
_chemical_formula_sum   'K2 Eu2 Si2 S8'
_cell_volume   367.70672797
_cell_formula_units_Z   2
loop_
 _symmetry_equiv_pos_site_id
 _symmetry_equiv_pos_as_xyz
  1  'x, y, z'
loop_
 _atom_site_type_symbol
 _atom_site_label
 _atom_site_symmetry_multiplicity
 _atom_site_fract_x
 _atom_site_fract_y
 _atom_site_fract_z
 _atom_site_occupancy
  Eu  Eu0  1  0.264796  0.225887  0.445440  1
  Eu  Eu1  1  0.735204  0.725887  0.554560  1
  K  K2  1  0.771690  0.691684  0.066696  1
  K  K3  1  0.228310  0.191684  0.933304  1
  Si  Si4  1  0.282648  0.675288  0.677456  1
  Si  Si5  1  0.717352  0.175288  0.322544  1
  S  S6  1  0.919115  0.120922  0.561875  1
  S  S7  1  0.089259  0.673673  0.832441  1
  S  S8  1  0.480673  0.947375  0.275792  1
  S  S9  1  0.532448  0.440741  0.298557  1
  S  S10  1  0.080885  0.620922  0.438125  1
  S  S11  1  0.467552  0.940741  0.701443  1
  S  S12  1  0.910741  0.173673  0.167559  1
  S  S13  1  0.519327  0.447375  0.724208  1
