# generated using pymatgen
data_TlIn3S5
_symmetry_space_group_name_H-M   'P 1'
_cell_length_a   3.89306218
_cell_length_b   10.49629826
_cell_length_c   11.85912489
_cell_angle_alpha   71.05519241
_cell_angle_beta   80.55106035
_cell_angle_gamma   79.29699337
_symmetry_Int_Tables_number   1
_chemical_formula_structural   TlIn3S5
_chemical_formula_sum   'Tl2 In6 S10'
_cell_volume   447.55094498
_cell_formula_units_Z   2
loop_
 _symmetry_equiv_pos_site_id
 _symmetry_equiv_pos_as_xyz
  1  'x, y, z'
loop_
 _atom_site_type_symbol
 _atom_site_label
 _atom_site_symmetry_multiplicity
 _atom_site_fract_x
 _atom_site_fract_y
 _atom_site_fract_z
 _atom_site_occupancy
  Tl  Tl0  1  0.760988  0.673400  0.804462  1
  Tl  Tl1  1  0.239012  0.326600  0.195538  1
  In  In2  1  0.662783  0.075756  0.598336  1
  In  In3  1  0.452490  0.288820  0.805507  1
  In  In4  1  0.547510  0.711180  0.194493  1
  In  In5  1  0.337217  0.924244  0.401664  1
  In  In6  1  0.000000  0.500000  0.500000  1
  In  In7  1  0.000000  0.000000  0.000000  1
  S  S8  1  0.436276  0.971610  0.155804  1
  S  S9  1  0.928883  0.755989  0.386385  1
  S  S10  1  0.239532  0.891862  0.629145  1
  S  S11  1  0.411525  0.520958  0.655721  1
  S  S12  1  0.760468  0.108138  0.370855  1
  S  S13  1  0.588475  0.479042  0.344279  1
  S  S14  1  0.071117  0.244011  0.613615  1
  S  S15  1  0.114852  0.720380  0.050332  1
  S  S16  1  0.563724  0.028390  0.844196  1
  S  S17  1  0.885148  0.279620  0.949668  1
