# generated using pymatgen
data_Eu5Si3O12F
_symmetry_space_group_name_H-M   'P 1'
_cell_length_a   9.70390933
_cell_length_b   9.70390938
_cell_length_c   7.10643693
_cell_angle_alpha   90.00000000
_cell_angle_beta   90.00000000
_cell_angle_gamma   119.99999984
_symmetry_Int_Tables_number   1
_chemical_formula_structural   Eu5Si3O12F
_chemical_formula_sum   'Eu10 Si6 O24 F2'
_cell_volume   579.53010389
_cell_formula_units_Z   2
loop_
 _symmetry_equiv_pos_site_id
 _symmetry_equiv_pos_as_xyz
  1  'x, y, z'
loop_
 _atom_site_type_symbol
 _atom_site_label
 _atom_site_symmetry_multiplicity
 _atom_site_fract_x
 _atom_site_fract_y
 _atom_site_fract_z
 _atom_site_occupancy
  Eu  Eu0  1  0.253590  0.249450  0.750000  1
  Eu  Eu1  1  0.750550  0.004140  0.750000  1
  Eu  Eu2  1  0.666667  0.333333  0.500216  1
  Eu  Eu3  1  0.333333  0.666667  1.000216  1
  Eu  Eu4  1  0.995860  0.746410  0.750000  1
  Eu  Eu5  1  0.666667  0.333333  -0.000216  1
  Eu  Eu6  1  0.746410  0.750550  0.250000  1
  Eu  Eu7  1  0.004140  0.253590  0.250000  1
  Eu  Eu8  1  0.333333  0.666667  0.499784  1
  Eu  Eu9  1  0.249450  0.995860  0.250000  1
  Si  Si10  1  0.631876  0.028194  0.250000  1
  Si  Si11  1  0.603683  0.631876  0.750000  1
  Si  Si12  1  0.971806  0.603683  0.250000  1
  Si  Si13  1  0.028194  0.396317  0.750000  1
  Si  Si14  1  0.396317  0.368124  0.250000  1
  Si  Si15  1  0.368124  0.971806  0.750000  1
  O  O16  1  0.125779  0.593352  0.750000  1
  O  O17  1  0.249924  0.909813  0.565373  1
  O  O18  1  0.322095  0.486720  0.250000  1
  O  O19  1  0.750076  0.090187  0.065373  1
  O  O20  1  0.659889  0.750076  0.934627  1
  O  O21  1  0.406648  0.532428  0.750000  1
  O  O22  1  0.090187  0.340111  0.565373  1
  O  O23  1  0.532428  0.125779  0.250000  1
  O  O24  1  0.909813  0.659889  0.434627  1
  O  O25  1  0.593352  0.467572  0.250000  1
  O  O26  1  0.486720  0.164625  0.750000  1
  O  O27  1  0.340111  0.249924  0.434627  1
  O  O28  1  0.467572  0.874221  0.750000  1
  O  O29  1  0.164625  0.677905  0.250000  1
  O  O30  1  0.835375  0.322095  0.750000  1
  O  O31  1  0.249924  0.909813  0.934627  1
  O  O32  1  0.090187  0.340111  0.934627  1
  O  O33  1  0.750076  0.090187  0.434627  1
  O  O34  1  0.677905  0.513280  0.750000  1
  O  O35  1  0.659889  0.750076  0.565373  1
  O  O36  1  0.874221  0.406648  0.250000  1
  O  O37  1  0.340111  0.249924  0.065373  1
  O  O38  1  0.513280  0.835375  0.250000  1
  O  O39  1  0.909813  0.659889  0.065373  1
  F  F40  1  0.000000  0.000000  0.250000  1
  F  F41  1  0.000000  0.000000  0.750000  1
