# generated using pymatgen
data_NaGaSiO4
_symmetry_space_group_name_H-M   'P 1'
_cell_length_a   8.84896051
_cell_length_b   8.84896074
_cell_length_c   8.36487699
_cell_angle_alpha   90.00000000
_cell_angle_beta   90.00000000
_cell_angle_gamma   119.99999919
_symmetry_Int_Tables_number   1
_chemical_formula_structural   NaGaSiO4
_chemical_formula_sum   'Na6 Ga6 Si6 O24'
_cell_volume   567.25028048
_cell_formula_units_Z   6
loop_
 _symmetry_equiv_pos_site_id
 _symmetry_equiv_pos_as_xyz
  1  'x, y, z'
loop_
 _atom_site_type_symbol
 _atom_site_label
 _atom_site_symmetry_multiplicity
 _atom_site_fract_x
 _atom_site_fract_y
 _atom_site_fract_z
 _atom_site_occupancy
  Na  Na0  1  0.666667  0.333333  0.063424  1
  Na  Na1  1  0.000000  0.000000  0.068660  1
  Na  Na2  1  0.333333  0.666667  0.563424  1
  Na  Na3  1  0.666667  0.333333  0.490956  1
  Na  Na4  1  0.000000  0.000000  0.568660  1
  Na  Na5  1  0.333333  0.666667  -0.009044  1
  Ga  Ga6  1  0.315199  0.342724  0.250265  1
  Ga  Ga7  1  0.684801  0.657276  0.750265  1
  Ga  Ga8  1  0.027526  0.684801  0.250265  1
  Ga  Ga9  1  0.657276  0.972474  0.250265  1
  Ga  Ga10  1  0.972474  0.315199  0.750265  1
  Ga  Ga11  1  0.342724  0.027526  0.750265  1
  Si  Si12  1  0.975309  0.316998  0.365197  1
  Si  Si13  1  0.683002  0.658311  0.365197  1
  Si  Si14  1  0.316998  0.341689  0.865197  1
  Si  Si15  1  0.658311  0.975309  0.865197  1
  Si  Si16  1  0.341689  0.024691  0.365197  1
  Si  Si17  1  0.024691  0.683002  0.865197  1
  O  O18  1  0.409188  0.220532  0.879730  1
  O  O19  1  0.618782  0.886266  0.044093  1
  O  O20  1  0.188656  0.409188  0.379730  1
  O  O21  1  0.590812  0.779468  0.379730  1
  O  O22  1  0.811344  0.590812  0.879730  1
  O  O23  1  0.446292  0.533406  0.782500  1
  O  O24  1  0.866820  0.761500  0.264235  1
  O  O25  1  0.087114  0.553708  0.782500  1
  O  O26  1  0.267484  0.381218  0.044093  1
  O  O27  1  0.894680  0.133180  0.264235  1
  O  O28  1  0.779468  0.188656  0.879730  1
  O  O29  1  0.381218  0.113734  0.544093  1
  O  O30  1  0.761500  0.894680  0.764235  1
  O  O31  1  0.220532  0.811344  0.379730  1
  O  O32  1  0.113734  0.732516  0.044093  1
  O  O33  1  0.105320  0.866820  0.764235  1
  O  O34  1  0.553708  0.466594  0.282500  1
  O  O35  1  0.912886  0.446292  0.282500  1
  O  O36  1  0.466594  0.912886  0.782500  1
  O  O37  1  0.886266  0.267484  0.544093  1
  O  O38  1  0.238500  0.105320  0.264235  1
  O  O39  1  0.133180  0.238500  0.764235  1
  O  O40  1  0.533406  0.087114  0.282500  1
  O  O41  1  0.732516  0.618782  0.544093  1
