# generated using pymatgen
data_NaLi2(RuO2)6
_symmetry_space_group_name_H-M   'P 1'
_cell_length_a   2.76461895
_cell_length_b   9.57113203
_cell_length_c   9.57525325
_cell_angle_alpha   119.98014889
_cell_angle_beta   90.08366485
_cell_angle_gamma   90.06007672
_symmetry_Int_Tables_number   1
_chemical_formula_structural   NaLi2(RuO2)6
_chemical_formula_sum   'Na1 Li2 Ru6 O12'
_cell_volume   219.46483830
_cell_formula_units_Z   1
loop_
 _symmetry_equiv_pos_site_id
 _symmetry_equiv_pos_as_xyz
  1  'x, y, z'
loop_
 _atom_site_type_symbol
 _atom_site_label
 _atom_site_symmetry_multiplicity
 _atom_site_fract_x
 _atom_site_fract_y
 _atom_site_fract_z
 _atom_site_occupancy
  Na  Na0  1  0.000000  0.000000  0.000000  1
  Li  Li1  1  0.749197  0.666920  0.333308  1
  Li  Li2  1  0.250803  0.333080  0.666692  1
  Ru  Ru3  1  0.750135  0.358302  0.341884  1
  Ru  Ru4  1  0.748672  0.658793  0.016743  1
  Ru  Ru5  1  0.251328  0.341207  0.983257  1
  Ru  Ru6  1  0.749856  0.983212  0.641420  1
  Ru  Ru7  1  0.250144  0.016788  0.358580  1
  Ru  Ru8  1  0.249865  0.641698  0.658116  1
  O  O9  1  0.251253  0.543652  0.410757  1
  O  O10  1  0.750477  0.411221  0.867968  1
  O  O11  1  0.748747  0.456348  0.589243  1
  O  O12  1  0.752194  0.132955  0.543915  1
  O  O13  1  0.247806  0.867045  0.456085  1
  O  O14  1  0.251468  0.106398  0.812078  1
  O  O15  1  0.751606  0.292540  0.106070  1
  O  O16  1  0.249523  0.588779  0.132032  1
  O  O17  1  0.249797  0.188211  0.295616  1
  O  O18  1  0.748532  0.893602  0.187922  1
  O  O19  1  0.750203  0.811789  0.704384  1
  O  O20  1  0.248394  0.707460  0.893930  1
