# generated using pymatgen
data_BaVCu4P4O17
_symmetry_space_group_name_H-M   'P 1'
_cell_length_a   7.34686636
_cell_length_b   9.73455564
_cell_length_c   9.73455564
_cell_angle_alpha   90.00000000
_cell_angle_beta   90.00000000
_cell_angle_gamma   90.00000000
_symmetry_Int_Tables_number   1
_chemical_formula_structural   BaVCu4P4O17
_chemical_formula_sum   'Ba2 V2 Cu8 P8 O34'
_cell_volume   696.20061663
_cell_formula_units_Z   2
loop_
 _symmetry_equiv_pos_site_id
 _symmetry_equiv_pos_as_xyz
  1  'x, y, z'
loop_
 _atom_site_type_symbol
 _atom_site_label
 _atom_site_symmetry_multiplicity
 _atom_site_fract_x
 _atom_site_fract_y
 _atom_site_fract_z
 _atom_site_occupancy
  Ba  Ba0  1  0.000000  0.000000  0.000000  1
  Ba  Ba1  1  0.000000  0.500000  0.500000  1
  V  V2  1  0.956353  0.500000  0.000000  1
  V  V3  1  0.043647  0.000000  0.500000  1
  Cu  Cu4  1  0.403508  0.486284  0.237998  1
  Cu  Cu5  1  0.596492  0.237998  0.486284  1
  Cu  Cu6  1  0.403508  0.737998  0.013716  1
  Cu  Cu7  1  0.403508  0.513716  0.762002  1
  Cu  Cu8  1  0.596492  0.013716  0.737998  1
  Cu  Cu9  1  0.403508  0.262002  0.986284  1
  Cu  Cu10  1  0.596492  0.762002  0.513716  1
  Cu  Cu11  1  0.596492  0.986284  0.262002  1
  P  P12  1  0.733775  0.690613  0.218248  1
  P  P13  1  0.733775  0.718248  0.809387  1
  P  P14  1  0.266225  0.809387  0.718248  1
  P  P15  1  0.733775  0.281752  0.190613  1
  P  P16  1  0.733775  0.309387  0.781752  1
  P  P17  1  0.266225  0.190613  0.281752  1
  P  P18  1  0.266225  0.218248  0.690613  1
  P  P19  1  0.266225  0.781752  0.309387  1
  O  O20  1  0.179356  0.500000  0.000000  1
  O  O21  1  0.263145  0.839269  0.873928  1
  O  O22  1  0.896103  0.658569  0.895128  1
  O  O23  1  0.242395  0.342997  0.320677  1
  O  O24  1  0.242395  0.179323  0.842997  1
  O  O25  1  0.896103  0.395128  0.841431  1
  O  O26  1  0.242395  0.657003  0.679323  1
  O  O27  1  0.820644  0.000000  0.500000  1
  O  O28  1  0.757605  0.679323  0.657003  1
  O  O29  1  0.757605  0.157003  0.820677  1
  O  O30  1  0.103897  0.895128  0.658569  1
  O  O31  1  0.896103  0.341431  0.104872  1
  O  O32  1  0.757605  0.320677  0.342997  1
  O  O33  1  0.757605  0.842997  0.179323  1
  O  O34  1  0.736855  0.339269  0.626072  1
  O  O35  1  0.103897  0.104872  0.341431  1
  O  O36  1  0.263145  0.160731  0.126072  1
  O  O37  1  0.736855  0.873928  0.839269  1
  O  O38  1  0.551411  0.653095  0.863640  1
  O  O39  1  0.448589  0.136360  0.346905  1
  O  O40  1  0.263145  0.626072  0.339269  1
  O  O41  1  0.551411  0.363640  0.846905  1
  O  O42  1  0.448589  0.863640  0.653095  1
  O  O43  1  0.896103  0.604872  0.158569  1
  O  O44  1  0.736855  0.126072  0.160731  1
  O  O45  1  0.736855  0.660731  0.373928  1
  O  O46  1  0.242395  0.820677  0.157003  1
  O  O47  1  0.448589  0.846905  0.363640  1
  O  O48  1  0.103897  0.841431  0.395128  1
  O  O49  1  0.263145  0.373928  0.660731  1
  O  O50  1  0.448589  0.153095  0.636360  1
  O  O51  1  0.551411  0.346905  0.136360  1
  O  O52  1  0.103897  0.158569  0.604872  1
  O  O53  1  0.551411  0.636360  0.153095  1
