# generated using pymatgen
data_LiV(IO4)2
_symmetry_space_group_name_H-M   'P 1'
_cell_length_a   5.31555684
_cell_length_b   10.08661470
_cell_length_c   12.71110253
_cell_angle_alpha   106.47734242
_cell_angle_beta   90.00000000
_cell_angle_gamma   90.00000000
_symmetry_Int_Tables_number   1
_chemical_formula_structural   LiV(IO4)2
_chemical_formula_sum   'Li4 V4 I8 O32'
_cell_volume   653.52953460
_cell_formula_units_Z   4
loop_
 _symmetry_equiv_pos_site_id
 _symmetry_equiv_pos_as_xyz
  1  'x, y, z'
loop_
 _atom_site_type_symbol
 _atom_site_label
 _atom_site_symmetry_multiplicity
 _atom_site_fract_x
 _atom_site_fract_y
 _atom_site_fract_z
 _atom_site_occupancy
  Li  Li0  1  0.765760  0.800321  0.563681  1
  Li  Li1  1  0.265760  0.699679  0.936319  1
  Li  Li2  1  0.234240  0.199679  0.436319  1
  Li  Li3  1  0.734240  0.300321  0.063681  1
  V  V4  1  0.722220  0.782815  0.049989  1
  V  V5  1  0.222220  0.717185  0.450011  1
  V  V6  1  0.777780  0.282815  0.549989  1
  V  V7  1  0.277780  0.217185  0.950011  1
  I  I8  1  0.817192  0.905924  0.830726  1
  I  I9  1  0.304787  0.087744  0.671241  1
  I  I10  1  0.195213  0.587744  0.171241  1
  I  I11  1  0.317192  0.594076  0.669274  1
  I  I12  1  0.682808  0.405924  0.330726  1
  I  I13  1  0.182808  0.094076  0.169274  1
  I  I14  1  0.695213  0.912256  0.328759  1
  I  I15  1  0.804787  0.412256  0.828759  1
  O  O16  1  0.587265  0.815111  0.421931  1
  O  O17  1  0.080457  0.518016  0.823373  1
  O  O18  1  0.071686  0.218576  0.293172  1
  O  O19  1  0.571686  0.281424  0.206828  1
  O  O20  1  0.419543  0.018016  0.323373  1
  O  O21  1  0.556631  0.320941  0.435730  1
  O  O22  1  0.129178  0.729102  0.302754  1
  O  O23  1  0.443369  0.679059  0.564270  1
  O  O24  1  0.056631  0.179059  0.064270  1
  O  O25  1  0.019668  0.378833  0.531461  1
  O  O26  1  0.120166  0.876480  0.518842  1
  O  O27  1  0.076772  0.029952  0.839559  1
  O  O28  1  0.912735  0.315111  0.921931  1
  O  O29  1  0.576772  0.470048  0.660441  1
  O  O30  1  0.412735  0.184889  0.578069  1
  O  O31  1  0.370822  0.229102  0.802754  1
  O  O32  1  0.919543  0.481984  0.176627  1
  O  O33  1  0.087265  0.684889  0.078069  1
  O  O34  1  0.870822  0.270898  0.697246  1
  O  O35  1  0.480332  0.878833  0.031461  1
  O  O36  1  0.629178  0.770898  0.197246  1
  O  O37  1  0.923228  0.970048  0.160441  1
  O  O38  1  0.428314  0.718576  0.793172  1
  O  O39  1  0.980332  0.621167  0.468539  1
  O  O40  1  0.379834  0.376480  0.018842  1
  O  O41  1  0.928314  0.781424  0.706828  1
  O  O42  1  0.943369  0.820941  0.935730  1
  O  O43  1  0.423228  0.529952  0.339559  1
  O  O44  1  0.519668  0.121167  0.968539  1
  O  O45  1  0.879834  0.123520  0.481158  1
  O  O46  1  0.580457  0.981984  0.676627  1
  O  O47  1  0.620166  0.623520  0.981158  1
