# generated using pymatgen
data_Rb4LiZr3H2F19
_symmetry_space_group_name_H-M   'P 1'
_cell_length_a   11.60817821
_cell_length_b   12.81725746
_cell_length_c   13.38377284
_cell_angle_alpha   90.00000000
_cell_angle_beta   90.00000000
_cell_angle_gamma   110.61922629
_symmetry_Int_Tables_number   1
_chemical_formula_structural   Rb4LiZr3H2F19
_chemical_formula_sum   'Rb16 Li4 Zr12 H8 F76'
_cell_volume   1863.74460045
_cell_formula_units_Z   4
loop_
 _symmetry_equiv_pos_site_id
 _symmetry_equiv_pos_as_xyz
  1  'x, y, z'
loop_
 _atom_site_type_symbol
 _atom_site_label
 _atom_site_symmetry_multiplicity
 _atom_site_fract_x
 _atom_site_fract_y
 _atom_site_fract_z
 _atom_site_occupancy
  Rb  Rb0  1  0.349481  0.077660  0.386020  1
  Rb  Rb1  1  0.536901  0.415904  0.879731  1
  Rb  Rb2  1  0.963099  0.084096  0.379731  1
  Rb  Rb3  1  0.344134  0.072229  0.866906  1
  Rb  Rb4  1  0.650519  0.922340  0.613980  1
  Rb  Rb5  1  0.655866  0.927771  0.133094  1
  Rb  Rb6  1  0.032581  0.927010  0.129859  1
  Rb  Rb7  1  0.463099  0.584096  0.120269  1
  Rb  Rb8  1  0.150519  0.422340  0.886020  1
  Rb  Rb9  1  0.849481  0.577660  0.113980  1
  Rb  Rb10  1  0.467419  0.572990  0.629860  1
  Rb  Rb11  1  0.967419  0.072990  0.870140  1
  Rb  Rb12  1  0.532581  0.427010  0.370140  1
  Rb  Rb13  1  0.155866  0.427771  0.366906  1
  Rb  Rb14  1  0.844134  0.572229  0.633094  1
  Rb  Rb15  1  0.036901  0.915904  0.620269  1
  Li  Li16  1  0.249010  0.754082  0.121671  1
  Li  Li17  1  0.750990  0.245918  0.878329  1
  Li  Li18  1  0.749010  0.254082  0.378329  1
  Li  Li19  1  0.250990  0.745918  0.621671  1
  Zr  Zr20  1  0.414729  0.760651  0.873497  1
  Zr  Zr21  1  0.772979  0.749502  0.374200  1
  Zr  Zr22  1  0.411428  0.762939  0.373672  1
  Zr  Zr23  1  0.227021  0.250498  0.625800  1
  Zr  Zr24  1  0.914729  0.260651  0.626503  1
  Zr  Zr25  1  0.272979  0.249502  0.125800  1
  Zr  Zr26  1  0.585271  0.239349  0.126503  1
  Zr  Zr27  1  0.727021  0.750498  0.874200  1
  Zr  Zr28  1  0.085271  0.739349  0.373497  1
  Zr  Zr29  1  0.911428  0.262939  0.126328  1
  Zr  Zr30  1  0.088572  0.737061  0.873672  1
  Zr  Zr31  1  0.588572  0.237061  0.626328  1
  H  H32  1  0.372437  0.982057  0.624024  1
  H  H33  1  0.127563  0.517943  0.124024  1
  H  H34  1  0.627563  0.017943  0.375976  1
  H  H35  1  0.629260  0.009851  0.879606  1
  H  H36  1  0.129260  0.509851  0.620394  1
  H  H37  1  0.370740  0.990149  0.120394  1
  H  H38  1  0.872437  0.482057  0.875976  1
  H  H39  1  0.870740  0.490149  0.379606  1
  F  F40  1  0.816243  0.878655  0.272830  1
  F  F41  1  0.585734  0.236090  0.474281  1
  F  F42  1  0.211915  0.578524  0.126256  1
  F  F43  1  0.412598  0.217655  0.036994  1
  F  F44  1  0.012138  0.434681  0.632638  1
  F  F45  1  0.316243  0.378655  0.227170  1
  F  F46  1  0.683757  0.621345  0.772830  1
  F  F47  1  0.087402  0.282345  0.536994  1
  F  F48  1  0.916237  0.275649  0.277875  1
  F  F49  1  0.914266  0.263910  0.974281  1
  F  F50  1  0.915874  0.724739  0.283459  1
  F  F51  1  0.371243  0.764388  0.020425  1
  F  F52  1  0.581117  0.397196  0.120783  1
  F  F53  1  0.715068  0.065398  0.888982  1
  F  F54  1  0.784932  0.434602  0.388982  1
  F  F55  1  0.277198  0.846284  0.870800  1
  F  F56  1  0.584126  0.775261  0.783459  1
  F  F57  1  0.365619  0.750816  0.727042  1
  F  F58  1  0.128757  0.735612  0.520425  1
  F  F59  1  0.914270  0.105089  0.132223  1
  F  F60  1  0.487275  0.060353  0.619836  1
  F  F61  1  0.081117  0.897196  0.379217  1
  F  F62  1  0.396041  0.212893  0.627303  1
  F  F63  1  0.085730  0.894911  0.867777  1
  F  F64  1  0.634381  0.249184  0.272958  1
  F  F65  1  0.084126  0.275261  0.716541  1
  F  F66  1  0.288085  0.921476  0.626256  1
  F  F67  1  0.282481  0.850466  0.377433  1
  F  F68  1  0.777198  0.346284  0.629200  1
  F  F69  1  0.828650  0.863758  0.978376  1
  F  F70  1  0.414266  0.763910  0.525719  1
  F  F71  1  0.782481  0.350466  0.122567  1
  F  F72  1  0.012725  0.439647  0.119836  1
  F  F73  1  0.171349  0.136242  0.021624  1
  F  F74  1  0.674903  0.635384  0.269428  1
  F  F75  1  0.865619  0.250816  0.772958  1
  F  F76  1  0.418883  0.602804  0.879217  1
  F  F77  1  0.684228  0.624509  0.978803  1
  F  F78  1  0.628757  0.235612  0.979575  1
  F  F79  1  0.315772  0.375491  0.021197  1
  F  F80  1  0.583763  0.224351  0.777875  1
  F  F81  1  0.085734  0.736090  0.025719  1
  F  F82  1  0.825097  0.864616  0.769428  1
  F  F83  1  0.912598  0.717655  0.463006  1
  F  F84  1  0.215068  0.565398  0.611018  1
  F  F85  1  0.896041  0.712893  0.872697  1
  F  F86  1  0.222802  0.653716  0.370800  1
  F  F87  1  0.871243  0.264388  0.479575  1
  F  F88  1  0.184228  0.124509  0.521197  1
  F  F89  1  0.788085  0.421476  0.873744  1
  F  F90  1  0.416237  0.775649  0.222125  1
  F  F91  1  0.415874  0.224739  0.216541  1
  F  F92  1  0.103959  0.287107  0.127303  1
  F  F93  1  0.815772  0.875491  0.478803  1
  F  F94  1  0.987862  0.565319  0.367362  1
  F  F95  1  0.711915  0.078524  0.373744  1
  F  F96  1  0.512725  0.939647  0.380164  1
  F  F97  1  0.918883  0.102804  0.620783  1
  F  F98  1  0.325097  0.364616  0.730572  1
  F  F99  1  0.587402  0.782345  0.963006  1
  F  F100  1  0.717519  0.149534  0.622567  1
  F  F101  1  0.585730  0.394911  0.632223  1
  F  F102  1  0.603959  0.787107  0.372697  1
  F  F103  1  0.487862  0.065319  0.132638  1
  F  F104  1  0.512138  0.934681  0.867362  1
  F  F105  1  0.722802  0.153716  0.129200  1
  F  F106  1  0.174903  0.135384  0.230572  1
  F  F107  1  0.284932  0.934602  0.111018  1
  F  F108  1  0.217519  0.649534  0.877433  1
  F  F109  1  0.671350  0.636242  0.478376  1
  F  F110  1  0.083763  0.724351  0.722125  1
  F  F111  1  0.987275  0.560353  0.880164  1
  F  F112  1  0.328651  0.363758  0.521624  1
  F  F113  1  0.414270  0.605089  0.367777  1
  F  F114  1  0.134381  0.749184  0.227042  1
  F  F115  1  0.183757  0.121345  0.727170  1
