# generated using pymatgen
data_Li3Ti8O16
_symmetry_space_group_name_H-M   'P 1'
_cell_length_a   5.98881109
_cell_length_b   23.94642452
_cell_length_c   10.36992785
_cell_angle_alpha   29.99213951
_cell_angle_beta   54.72389429
_cell_angle_gamma   59.98781323
_symmetry_Int_Tables_number   1
_chemical_formula_structural   Li3Ti8O16
_chemical_formula_sum   'Li6 Ti16 O32'
_cell_volume   606.89754022
_cell_formula_units_Z   2
loop_
 _symmetry_equiv_pos_site_id
 _symmetry_equiv_pos_as_xyz
  1  'x, y, z'
loop_
 _atom_site_type_symbol
 _atom_site_label
 _atom_site_symmetry_multiplicity
 _atom_site_fract_x
 _atom_site_fract_y
 _atom_site_fract_z
 _atom_site_occupancy
  Li  Li0  1  0.126201  0.000000  0.123799  1
  Li  Li1  1  0.124120  0.248896  0.128088  1
  Li  Li2  1  0.124120  0.751104  0.123671  1
  Li  Li3  1  0.875880  0.251104  0.871912  1
  Li  Li4  1  0.873799  0.500000  0.876201  1
  Li  Li5  1  0.875880  0.748896  0.876329  1
  Ti  Ti6  1  0.505187  0.124337  0.996140  1
  Ti  Ti7  1  0.494393  1.000000  0.503878  1
  Ti  Ti8  1  0.499021  0.123062  0.504854  1
  Ti  Ti9  1  0.494813  0.375663  0.003860  1
  Ti  Ti10  1  0.500000  0.250000  0.500000  1
  Ti  Ti11  1  0.500979  0.376938  0.495146  1
  Ti  Ti12  1  0.500979  0.623062  0.002897  1
  Ti  Ti13  1  -0.000000  0.250000  0.500000  1
  Ti  Ti14  1  0.505607  0.500000  0.496122  1
  Ti  Ti15  1  0.494813  0.624336  0.506514  1
  Ti  Ti16  1  0.499021  0.876938  0.997103  1
  Ti  Ti17  1  0.002149  0.500000  0.496122  1
  Ti  Ti18  1  0.500000  0.750000  0.500000  1
  Ti  Ti19  1  0.505187  0.875664  0.493486  1
  Ti  Ti20  1  -0.000000  0.750000  0.500000  1
  Ti  Ti21  1  0.997851  1.000000  0.503878  1
  O  O22  1  0.263803  0.112020  0.262158  1
  O  O23  1  0.297650  0.000000  0.733276  1
  O  O24  1  0.263282  0.250269  0.262025  1
  O  O25  1  0.737715  0.112615  0.287054  1
  O  O26  1  0.262282  0.137666  0.712385  1
  O  O27  1  0.266153  0.358426  0.266995  1
  O  O28  1  0.735799  1.000000  0.733276  1
  O  O29  1  0.711591  0.250269  0.262025  1
  O  O30  1  0.288409  0.249731  0.737975  1
  O  O31  1  0.264201  0.500000  0.266724  1
  O  O32  1  0.733847  0.141574  0.733005  1
  O  O33  1  0.262285  0.612615  0.262485  1
  O  O34  1  0.737718  0.362334  0.287615  1
  O  O35  1  0.262285  0.387385  0.712946  1
  O  O36  1  0.736718  0.249731  0.737975  1
  O  O37  1  0.702350  0.500000  0.266724  1
  O  O38  1  0.289113  0.500000  0.736636  1
  O  O39  1  0.263282  0.749731  0.263102  1
  O  O40  1  0.736197  0.387980  0.737842  1
  O  O41  1  0.736197  0.612020  0.289764  1
  O  O42  1  0.262282  0.862334  0.263050  1
  O  O43  1  0.266153  0.641574  0.700698  1
  O  O44  1  0.737615  0.500000  0.736636  1
  O  O45  1  0.711591  0.749731  0.263102  1
  O  O46  1  0.288409  0.750269  0.736898  1
  O  O47  1  0.262385  0.000000  0.263364  1
  O  O48  1  0.737718  0.637666  0.736950  1
  O  O49  1  0.733847  0.858426  0.299302  1
  O  O50  1  0.263803  0.887980  0.710236  1
  O  O51  1  0.736718  0.750269  0.736898  1
  O  O52  1  0.710887  1.000000  0.263364  1
  O  O53  1  0.737715  0.887385  0.737515  1
