# generated using pymatgen
data_Er3SiSe2O10F
_symmetry_space_group_name_H-M   'P 1'
_cell_length_a   5.90701621
_cell_length_b   10.35552778
_cell_length_c   15.44218633
_cell_angle_alpha   90.00000000
_cell_angle_beta   90.00000000
_cell_angle_gamma   90.00000000
_symmetry_Int_Tables_number   1
_chemical_formula_structural   Er3SiSe2O10F
_chemical_formula_sum   'Er12 Si4 Se8 O40 F4'
_cell_volume   944.60271429
_cell_formula_units_Z   4
loop_
 _symmetry_equiv_pos_site_id
 _symmetry_equiv_pos_as_xyz
  1  'x, y, z'
loop_
 _atom_site_type_symbol
 _atom_site_label
 _atom_site_symmetry_multiplicity
 _atom_site_fract_x
 _atom_site_fract_y
 _atom_site_fract_z
 _atom_site_occupancy
  Er  Er0  1  0.929019  0.886858  0.347847  1
  Er  Er1  1  0.070981  0.113142  0.652153  1
  Er  Er2  1  0.250000  0.372856  0.500000  1
  Er  Er3  1  0.750000  0.627144  0.500000  1
  Er  Er4  1  0.429019  0.113142  0.347847  1
  Er  Er5  1  0.429019  0.386858  0.152153  1
  Er  Er6  1  0.570981  0.613142  0.847847  1
  Er  Er7  1  0.750000  0.872856  0.000000  1
  Er  Er8  1  0.929019  0.613142  0.152153  1
  Er  Er9  1  0.070981  0.386858  0.847847  1
  Er  Er10  1  0.570981  0.886858  0.652153  1
  Er  Er11  1  0.250000  0.127144  0.000000  1
  Si  Si12  1  0.750000  0.357900  0.000000  1
  Si  Si13  1  0.250000  0.857900  0.500000  1
  Si  Si14  1  0.750000  0.142100  0.500000  1
  Si  Si15  1  0.250000  0.642100  0.000000  1
  Se  Se16  1  0.030786  0.883816  0.825042  1
  Se  Se17  1  0.969214  0.116184  0.174958  1
  Se  Se18  1  0.969214  0.383816  0.325042  1
  Se  Se19  1  0.530786  0.116184  0.825042  1
  Se  Se20  1  0.530786  0.383816  0.674958  1
  Se  Se21  1  0.469214  0.616184  0.325042  1
  Se  Se22  1  0.030786  0.616184  0.674958  1
  Se  Se23  1  0.469214  0.883816  0.174958  1
  O  O24  1  0.480613  0.985215  0.085871  1
  O  O25  1  0.980613  0.014785  0.085871  1
  O  O26  1  0.232254  0.553031  0.911304  1
  O  O27  1  0.022056  0.774944  0.473081  1
  O  O28  1  0.380978  0.032830  0.744785  1
  O  O29  1  0.732254  0.446969  0.911304  1
  O  O30  1  0.019387  0.985215  0.914129  1
  O  O31  1  0.732254  0.053031  0.588696  1
  O  O32  1  0.477944  0.725056  0.973081  1
  O  O33  1  0.977944  0.225056  0.526919  1
  O  O34  1  0.477944  0.774944  0.526919  1
  O  O35  1  0.880978  0.967170  0.744785  1
  O  O36  1  0.519387  0.014785  0.914129  1
  O  O37  1  0.817399  0.782393  0.861154  1
  O  O38  1  0.980613  0.485215  0.414129  1
  O  O39  1  0.182601  0.217607  0.138846  1
  O  O40  1  0.880978  0.532830  0.755215  1
  O  O41  1  0.767746  0.053031  0.411304  1
  O  O42  1  0.232254  0.946969  0.588696  1
  O  O43  1  0.119022  0.467170  0.244785  1
  O  O44  1  0.380978  0.467170  0.755215  1
  O  O45  1  0.522056  0.225056  0.473081  1
  O  O46  1  0.317399  0.282393  0.638846  1
  O  O47  1  0.767746  0.446969  0.088696  1
  O  O48  1  0.267746  0.553031  0.088696  1
  O  O49  1  0.317399  0.217607  0.861154  1
  O  O50  1  0.522056  0.274944  0.026919  1
  O  O51  1  0.182601  0.282393  0.361154  1
  O  O52  1  0.480613  0.514785  0.414129  1
  O  O53  1  0.022056  0.725056  0.026919  1
  O  O54  1  0.817399  0.717607  0.638846  1
  O  O55  1  0.619022  0.532830  0.244785  1
  O  O56  1  0.682601  0.782393  0.138846  1
  O  O57  1  0.519387  0.485215  0.585871  1
  O  O58  1  0.267746  0.946969  0.411304  1
  O  O59  1  0.119022  0.032830  0.255215  1
  O  O60  1  0.682601  0.717607  0.361154  1
  O  O61  1  0.019387  0.514785  0.585871  1
  O  O62  1  0.977944  0.274944  0.973081  1
  O  O63  1  0.619022  0.967170  0.255215  1
  F  F64  1  0.439143  0.750000  0.750000  1
  F  F65  1  0.939143  0.250000  0.750000  1
  F  F66  1  0.560857  0.250000  0.250000  1
  F  F67  1  0.060857  0.750000  0.250000  1
