# generated using pymatgen
data_KBi(PS3)2
_symmetry_space_group_name_H-M   'P 1'
_cell_length_a   6.75892593
_cell_length_b   7.57116312
_cell_length_c   10.05756157
_cell_angle_alpha   90.00000000
_cell_angle_beta   92.21903742
_cell_angle_gamma   90.00000000
_symmetry_Int_Tables_number   1
_chemical_formula_structural   KBi(PS3)2
_chemical_formula_sum   'K2 Bi2 P4 S12'
_cell_volume   514.28895033
_cell_formula_units_Z   2
loop_
 _symmetry_equiv_pos_site_id
 _symmetry_equiv_pos_as_xyz
  1  'x, y, z'
loop_
 _atom_site_type_symbol
 _atom_site_label
 _atom_site_symmetry_multiplicity
 _atom_site_fract_x
 _atom_site_fract_y
 _atom_site_fract_z
 _atom_site_occupancy
  K  K0  1  0.298354  0.524805  0.498056  1
  K  K1  1  0.701646  0.024805  0.501944  1
  Bi  Bi2  1  0.789411  0.772005  0.982419  1
  Bi  Bi3  1  0.210589  0.272005  0.017581  1
  P  P4  1  0.687667  0.315529  0.828367  1
  P  P5  1  0.203920  0.040780  0.297710  1
  P  P6  1  0.312333  0.815529  0.171633  1
  P  P7  1  0.796080  0.540780  0.702290  1
  S  S8  1  0.427762  0.228093  0.750011  1
  S  S9  1  0.822719  0.460210  0.516854  1
  S  S10  1  0.411434  0.231471  0.269104  1
  S  S11  1  0.655310  0.429863  0.013961  1
  S  S12  1  0.047556  0.620201  0.809562  1
  S  S13  1  0.588566  0.731471  0.730896  1
  S  S14  1  0.344690  0.929863  0.986039  1
  S  S15  1  0.952444  0.120201  0.190438  1
  S  S16  1  0.177281  0.960210  0.483146  1
  S  S17  1  0.091243  0.628152  0.169945  1
  S  S18  1  0.908757  0.128152  0.830055  1
  S  S19  1  0.572238  0.728093  0.249989  1
