# generated using pymatgen
data_CsSO3
_symmetry_space_group_name_H-M   'P 1'
_cell_length_a   6.42837307
_cell_length_b   6.42837328
_cell_length_c   12.17196300
_cell_angle_alpha   90.00000000
_cell_angle_beta   90.00000000
_cell_angle_gamma   119.99999886
_symmetry_Int_Tables_number   1
_chemical_formula_structural   CsSO3
_chemical_formula_sum   'Cs4 S4 O12'
_cell_volume   435.60556620
_cell_formula_units_Z   4
loop_
 _symmetry_equiv_pos_site_id
 _symmetry_equiv_pos_as_xyz
  1  'x, y, z'
loop_
 _atom_site_type_symbol
 _atom_site_label
 _atom_site_symmetry_multiplicity
 _atom_site_fract_x
 _atom_site_fract_y
 _atom_site_fract_z
 _atom_site_occupancy
  Cs  Cs0  1  0.666667  0.333333  0.244826  1
  Cs  Cs1  1  0.000000  0.000000  0.005150  1
  Cs  Cs2  1  0.333333  0.666667  0.744826  1
  Cs  Cs3  1  0.000000  0.000000  0.505150  1
  S  S4  1  0.333333  0.666667  0.220787  1
  S  S5  1  0.666667  0.333333  0.720787  1
  S  S6  1  0.333333  0.666667  0.401769  1
  S  S7  1  0.666667  0.333333  0.901769  1
  O  O8  1  0.410122  0.205061  0.691627  1
  O  O9  1  0.077510  0.538755  0.433032  1
  O  O10  1  0.205061  0.410122  0.191627  1
  O  O11  1  0.538755  0.077510  0.933032  1
  O  O12  1  0.461245  0.922490  0.433032  1
  O  O13  1  0.922490  0.461245  0.933032  1
  O  O14  1  0.205061  0.794939  0.191627  1
  O  O15  1  0.794939  0.589878  0.691627  1
  O  O16  1  0.589878  0.794939  0.191627  1
  O  O17  1  0.794939  0.205061  0.691627  1
  O  O18  1  0.538755  0.461245  0.933032  1
  O  O19  1  0.461245  0.538755  0.433032  1
