# generated using pymatgen
data_Na3B5Pt9
_symmetry_space_group_name_H-M   'P 1'
_cell_length_a   5.61667726
_cell_length_b   6.40957280
_cell_length_c   15.27784964
_cell_angle_alpha   90.00000000
_cell_angle_beta   90.00000000
_cell_angle_gamma   115.98574728
_symmetry_Int_Tables_number   1
_chemical_formula_structural   Na3B5Pt9
_chemical_formula_sum   'Na6 B10 Pt18'
_cell_volume   494.40590292
_cell_formula_units_Z   2
loop_
 _symmetry_equiv_pos_site_id
 _symmetry_equiv_pos_as_xyz
  1  'x, y, z'
loop_
 _atom_site_type_symbol
 _atom_site_label
 _atom_site_symmetry_multiplicity
 _atom_site_fract_x
 _atom_site_fract_y
 _atom_site_fract_z
 _atom_site_occupancy
  Pt  Pt0  1  0.000000  0.000000  0.000000  1
  Pt  Pt1  1  0.000000  0.000000  0.500000  1
  Pt  Pt2  1  0.833346  0.173947  0.250000  1
  Pt  Pt3  1  0.659399  0.826053  0.750000  1
  Pt  Pt4  1  0.166654  0.826053  0.750000  1
  Pt  Pt5  1  0.340601  0.173947  0.250000  1
  Pt  Pt6  1  0.872214  0.744428  0.156977  1
  Pt  Pt7  1  0.127786  0.255572  0.843023  1
  Pt  Pt8  1  0.127786  0.255572  0.656977  1
  Pt  Pt9  1  0.872214  0.744428  0.343023  1
  Pt  Pt10  1  0.936345  0.367932  0.078971  1
  Pt  Pt11  1  0.568413  0.632068  0.921029  1
  Pt  Pt12  1  0.063655  0.632068  0.578971  1
  Pt  Pt13  1  0.431587  0.367932  0.421029  1
  Pt  Pt14  1  0.063655  0.632068  0.921029  1
  Pt  Pt15  1  0.431587  0.367932  0.078971  1
  Pt  Pt16  1  0.936345  0.367932  0.421029  1
  Pt  Pt17  1  0.568413  0.632068  0.578971  1
  Na  Na18  1  0.685952  0.371904  0.750000  1
  Na  Na19  1  0.314048  0.628096  0.250000  1
  Na  Na20  1  0.441046  0.882093  0.086730  1
  Na  Na21  1  0.558954  0.117907  0.913270  1
  Na  Na22  1  0.558954  0.117907  0.586730  1
  Na  Na23  1  0.441046  0.882093  0.413270  1
  B  B24  1  0.055843  0.111685  0.146543  1
  B  B25  1  0.944157  0.888315  0.853457  1
  B  B26  1  0.944157  0.888315  0.646543  1
  B  B27  1  0.055843  0.111685  0.353457  1
  B  B28  1  0.810419  0.620839  0.027779  1
  B  B29  1  0.189581  0.379161  0.972221  1
  B  B30  1  0.189581  0.379161  0.527779  1
  B  B31  1  0.810419  0.620839  0.472221  1
  B  B32  1  0.272498  0.544996  0.750000  1
  B  B33  1  0.727502  0.455004  0.250000  1
