# generated using pymatgen
data_H8CN2(ClO5)2
_symmetry_space_group_name_H-M   'P 1'
_cell_length_a   8.37748850
_cell_length_b   10.01885010
_cell_length_c   11.95107760
_cell_angle_alpha   90.00000000
_cell_angle_beta   90.00000000
_cell_angle_gamma   90.00000000
_symmetry_Int_Tables_number   1
_chemical_formula_structural   H8CN2(ClO5)2
_chemical_formula_sum   'H32 C4 N8 Cl8 O40'
_cell_volume   1003.08742386
_cell_formula_units_Z   4
loop_
 _symmetry_equiv_pos_site_id
 _symmetry_equiv_pos_as_xyz
  1  'x, y, z'
loop_
 _atom_site_type_symbol
 _atom_site_label
 _atom_site_symmetry_multiplicity
 _atom_site_fract_x
 _atom_site_fract_y
 _atom_site_fract_z
 _atom_site_occupancy
  H  H0  1  0.193153  0.193912  0.597248  1
  H  H1  1  0.941850  0.173185  0.887785  1
  H  H2  1  0.219783  0.820389  0.498034  1
  H  H3  1  0.558150  0.173185  0.387785  1
  H  H4  1  0.941850  0.673185  0.112215  1
  H  H5  1  0.806847  0.306088  0.597248  1
  H  H6  1  0.666587  0.684288  0.377030  1
  H  H7  1  0.193153  0.693912  0.402752  1
  H  H8  1  0.780217  0.679611  0.498034  1
  H  H9  1  0.833413  0.684288  0.877030  1
  H  H10  1  0.693153  0.306088  0.097248  1
  H  H11  1  0.719783  0.179611  0.001966  1
  H  H12  1  0.058150  0.826815  0.112215  1
  H  H13  1  0.441850  0.326815  0.387785  1
  H  H14  1  0.280217  0.320389  0.001966  1
  H  H15  1  0.219783  0.320389  0.501966  1
  H  H16  1  0.166587  0.315712  0.122970  1
  H  H17  1  0.833413  0.184288  0.122970  1
  H  H18  1  0.280217  0.820389  0.998034  1
  H  H19  1  0.166587  0.815712  0.877030  1
  H  H20  1  0.666587  0.184288  0.622970  1
  H  H21  1  0.719783  0.679611  0.998034  1
  H  H22  1  0.558150  0.673185  0.612215  1
  H  H23  1  0.058150  0.326815  0.887785  1
  H  H24  1  0.441850  0.826815  0.612215  1
  H  H25  1  0.693153  0.806088  0.902752  1
  H  H26  1  0.306847  0.693912  0.902752  1
  H  H27  1  0.806847  0.806088  0.402752  1
  H  H28  1  0.780217  0.179611  0.501966  1
  H  H29  1  0.333413  0.815712  0.377030  1
  H  H30  1  0.306847  0.193912  0.097248  1
  H  H31  1  0.333413  0.315712  0.622970  1
  C  C32  1  0.000000  0.750000  0.060888  1
  C  C33  1  0.500000  0.750000  0.560888  1
  C  C34  1  0.500000  0.250000  0.439112  1
  C  C35  1  0.000000  0.250000  0.939112  1
  N  N36  1  0.223471  0.758981  0.938910  1
  N  N37  1  0.776529  0.241019  0.061090  1
  N  N38  1  0.276529  0.758981  0.438910  1
  N  N39  1  0.723471  0.741019  0.438910  1
  N  N40  1  0.776529  0.741019  0.938910  1
  N  N41  1  0.276529  0.258981  0.561090  1
  N  N42  1  0.723471  0.241019  0.561090  1
  N  N43  1  0.223471  0.258981  0.061090  1
  Cl  Cl44  1  0.960798  0.538547  0.672252  1
  Cl  Cl45  1  0.539202  0.538547  0.172252  1
  Cl  Cl46  1  0.039202  0.461453  0.327748  1
  Cl  Cl47  1  0.460798  0.461453  0.827748  1
  Cl  Cl48  1  0.460798  0.961453  0.172252  1
  Cl  Cl49  1  0.960798  0.038547  0.327748  1
  Cl  Cl50  1  0.539202  0.038547  0.827748  1
  Cl  Cl51  1  0.039202  0.961453  0.672252  1
  O  O52  1  0.110134  0.175111  0.004831  1
  O  O53  1  0.389866  0.175111  0.504831  1
  O  O54  1  0.544039  0.575035  0.290688  1
  O  O55  1  0.955961  0.075035  0.209312  1
  O  O56  1  0.096236  0.600181  0.618300  1
  O  O57  1  0.973653  0.892014  0.336151  1
  O  O58  1  0.810713  0.079509  0.381624  1
  O  O59  1  0.389866  0.675111  0.495169  1
  O  O60  1  0.189287  0.920491  0.618376  1
  O  O61  1  0.310713  0.920491  0.118376  1
  O  O62  1  0.044039  0.424965  0.209312  1
  O  O63  1  0.026347  0.607986  0.336151  1
  O  O64  1  0.973653  0.392014  0.663849  1
  O  O65  1  0.596236  0.899819  0.118300  1
  O  O66  1  0.889866  0.324889  0.004831  1
  O  O67  1  0.526347  0.392014  0.163849  1
  O  O68  1  0.403764  0.600181  0.118300  1
  O  O69  1  0.096236  0.100181  0.381700  1
  O  O70  1  0.473653  0.107986  0.163849  1
  O  O71  1  0.526347  0.892014  0.836151  1
  O  O72  1  0.689287  0.579509  0.118376  1
  O  O73  1  0.689287  0.079509  0.881624  1
  O  O74  1  0.044039  0.924965  0.790688  1
  O  O75  1  0.455961  0.424965  0.709312  1
  O  O76  1  0.310713  0.420491  0.881624  1
  O  O77  1  0.544039  0.075035  0.709312  1
  O  O78  1  0.955961  0.575035  0.790688  1
  O  O79  1  0.596236  0.399819  0.881700  1
  O  O80  1  0.403764  0.100181  0.881700  1
  O  O81  1  0.903764  0.399819  0.381700  1
  O  O82  1  0.473653  0.607986  0.836151  1
  O  O83  1  0.889866  0.824889  0.995169  1
  O  O84  1  0.110134  0.675111  0.995169  1
  O  O85  1  0.810713  0.579509  0.618376  1
  O  O86  1  0.189287  0.420491  0.381624  1
  O  O87  1  0.610134  0.324889  0.504831  1
  O  O88  1  0.026347  0.107986  0.663849  1
  O  O89  1  0.610134  0.824889  0.495169  1
  O  O90  1  0.903764  0.899819  0.618300  1
  O  O91  1  0.455961  0.924965  0.290688  1
