# generated using pymatgen
data_Fe2Te4O11
_symmetry_space_group_name_H-M   'P 1'
_cell_length_a   7.05522957
_cell_length_b   11.96159961
_cell_length_c   12.76904440
_cell_angle_alpha   109.01068800
_cell_angle_beta   89.99976199
_cell_angle_gamma   90.00026856
_symmetry_Int_Tables_number   1
_chemical_formula_structural   Fe2Te4O11
_chemical_formula_sum   'Fe8 Te16 O44'
_cell_volume   1018.82822917
_cell_formula_units_Z   4
loop_
 _symmetry_equiv_pos_site_id
 _symmetry_equiv_pos_as_xyz
  1  'x, y, z'
loop_
 _atom_site_type_symbol
 _atom_site_label
 _atom_site_symmetry_multiplicity
 _atom_site_fract_x
 _atom_site_fract_y
 _atom_site_fract_z
 _atom_site_occupancy
  O  O0  1  0.043403  0.422564  0.891269  1
  O  O1  1  0.543401  0.077433  0.608728  1
  O  O2  1  0.956597  0.577437  0.108729  1
  O  O3  1  0.456598  0.922563  0.391271  1
  O  O4  1  0.287255  0.706183  0.985232  1
  O  O5  1  0.787259  0.793818  0.514769  1
  O  O6  1  0.712743  0.293821  0.014771  1
  O  O7  1  0.212743  0.206180  0.485227  1
  O  O8  1  0.223610  0.448439  0.615730  1
  O  O9  1  0.723608  0.051563  0.884269  1
  O  O10  1  0.776384  0.551564  0.384271  1
  O  O11  1  0.276390  0.948437  0.115732  1
  O  O12  1  0.179237  0.250278  0.707280  1
  O  O13  1  0.679244  0.249719  0.792724  1
  O  O14  1  0.820766  0.749720  0.292720  1
  O  O15  1  0.320764  0.750278  0.207278  1
  O  O16  1  0.257435  0.730569  0.773447  1
  O  O17  1  0.820341  0.412339  0.703279  1
  O  O18  1  0.679658  0.912337  0.203278  1
  O  O19  1  0.179655  0.587661  0.296721  1
  O  O20  1  0.329853  0.305114  0.937074  1
  O  O21  1  0.829849  0.194888  0.562926  1
  O  O22  1  0.670153  0.694890  0.062924  1
  O  O23  1  0.170152  0.805110  0.437074  1
  O  O24  1  0.425230  0.120668  0.027761  1
  O  O25  1  0.925228  0.379337  0.472240  1
  O  O26  1  0.574770  0.879333  0.972240  1
  O  O27  1  0.074772  0.620667  0.527761  1
  O  O28  1  0.066847  0.110500  0.041355  1
  O  O29  1  0.566844  0.389500  0.458648  1
  O  O30  1  0.933153  0.889501  0.958642  1
  O  O31  1  0.433155  0.610498  0.541355  1
  O  O32  1  0.064799  0.371273  0.131262  1
  O  O33  1  0.564800  0.128726  0.368735  1
  O  O34  1  0.935198  0.628727  0.868733  1
  O  O35  1  0.435197  0.871273  0.631266  1
  O  O36  1  0.425263  0.384567  0.175621  1
  O  O37  1  0.925263  0.115433  0.324378  1
  O  O38  1  0.574737  0.615436  0.824380  1
  O  O39  1  0.074740  0.884565  0.675621  1
  O  O40  1  0.242563  0.230566  0.273450  1
  O  O41  1  0.742563  0.269434  0.226553  1
  O  O42  1  0.757433  0.769433  0.726551  1
  O  O43  1  0.320342  0.087663  0.796721  1
  Fe  Fe44  1  0.247785  0.243584  0.129252  1
  Fe  Fe45  1  0.747784  0.256420  0.370749  1
  Fe  Fe46  1  0.752213  0.756416  0.870747  1
  Fe  Fe47  1  0.252218  0.743582  0.629254  1
  Fe  Fe48  1  0.545829  0.188509  0.902488  1
  Fe  Fe49  1  0.045843  0.311485  0.597516  1
  Fe  Fe50  1  0.454171  0.811491  0.097513  1
  Fe  Fe51  1  0.954166  0.688509  0.402486  1
  Te  Te52  1  0.203285  0.511638  0.138057  1
  Te  Te53  1  0.796252  0.890810  0.664244  1
  Te  Te54  1  0.703748  0.390810  0.164243  1
  Te  Te55  1  0.203748  0.109194  0.335757  1
  Te  Te56  1  0.296251  0.609187  0.835755  1
  Te  Te57  1  0.703285  0.988364  0.361943  1
  Te  Te58  1  0.796718  0.488361  0.861940  1
  Te  Te59  1  0.296717  0.011638  0.638058  1
  Te  Te60  1  0.105907  0.252838  0.852511  1
  Te  Te61  1  0.605906  0.247163  0.647486  1
  Te  Te62  1  0.894095  0.747163  0.147489  1
  Te  Te63  1  0.394097  0.752837  0.352512  1
  Te  Te64  1  0.255960  0.479358  0.479609  1
  Te  Te65  1  0.755964  0.020641  0.020393  1
  Te  Te66  1  0.744028  0.520642  0.520395  1
  Te  Te67  1  0.244036  0.979361  0.979607  1
