# generated using pymatgen
data_MnH8C2NCl3
_symmetry_space_group_name_H-M   'P 1'
_cell_length_a   6.49826908
_cell_length_b   9.02384144
_cell_length_c   13.39437665
_cell_angle_alpha   90.00000000
_cell_angle_beta   90.00000000
_cell_angle_gamma   100.17425066
_symmetry_Int_Tables_number   1
_chemical_formula_structural   MnH8C2NCl3
_chemical_formula_sum   'Mn4 H32 C8 N4 Cl12'
_cell_volume   773.08660499
_cell_formula_units_Z   4
loop_
 _symmetry_equiv_pos_site_id
 _symmetry_equiv_pos_as_xyz
  1  'x, y, z'
loop_
 _atom_site_type_symbol
 _atom_site_label
 _atom_site_symmetry_multiplicity
 _atom_site_fract_x
 _atom_site_fract_y
 _atom_site_fract_z
 _atom_site_occupancy
  Mn  Mn0  1  0.981333  0.796802  0.745554  1
  Mn  Mn1  1  0.481333  0.796802  0.754446  1
  Mn  Mn2  1  0.518667  0.203198  0.245554  1
  Mn  Mn3  1  0.018667  0.203198  0.254446  1
  H  H4  1  0.569229  0.129419  0.580654  1
  H  H5  1  0.428652  0.112044  0.958189  1
  H  H6  1  0.005239  0.687792  0.441797  1
  H  H7  1  0.943760  0.359275  0.910055  1
  H  H8  1  0.930771  0.870581  0.080654  1
  H  H9  1  0.928652  0.112044  0.541811  1
  H  H10  1  0.403014  0.191888  0.837518  1
  H  H11  1  0.096986  0.808112  0.337518  1
  H  H12  1  0.842705  0.765715  0.981326  1
  H  H13  1  0.056240  0.640725  0.089945  1
  H  H14  1  0.793617  0.539027  0.078567  1
  H  H15  1  0.869310  0.649126  0.187565  1
  H  H16  1  0.130690  0.350874  0.812435  1
  H  H17  1  0.706383  0.460973  0.578567  1
  H  H18  1  0.430771  0.870581  0.419346  1
  H  H19  1  0.596986  0.808112  0.162482  1
  H  H20  1  0.494761  0.312208  0.941797  1
  H  H21  1  0.069229  0.129419  0.919346  1
  H  H22  1  0.157295  0.234285  0.018674  1
  H  H23  1  0.505239  0.687792  0.058203  1
  H  H24  1  0.206383  0.460973  0.921433  1
  H  H25  1  0.556240  0.640725  0.410055  1
  H  H26  1  0.903014  0.191888  0.662482  1
  H  H27  1  0.657295  0.234285  0.481326  1
  H  H28  1  0.071348  0.887956  0.458189  1
  H  H29  1  0.293617  0.539027  0.421433  1
  H  H30  1  0.369310  0.649126  0.312435  1
  H  H31  1  0.443760  0.359275  0.589945  1
  H  H32  1  0.994761  0.312208  0.558203  1
  H  H33  1  0.571348  0.887956  0.041811  1
  H  H34  1  0.630690  0.350874  0.687565  1
  H  H35  1  0.342705  0.765715  0.518674  1
  C  C36  1  0.608839  0.790754  0.081958  1
  C  C37  1  0.891161  0.209246  0.581958  1
  C  C38  1  0.391161  0.209246  0.918042  1
  C  C39  1  0.891815  0.641509  0.106877  1
  C  C40  1  0.608185  0.358491  0.606877  1
  C  C41  1  0.391815  0.641509  0.393123  1
  C  C42  1  0.108185  0.358491  0.893123  1
  C  C43  1  0.108839  0.790754  0.418042  1
  N  N44  1  0.827821  0.774812  0.058117  1
  N  N45  1  0.672179  0.225188  0.558117  1
  N  N46  1  0.172179  0.225188  0.941883  1
  N  N47  1  0.327821  0.774812  0.441883  1
  Cl  Cl48  1  0.310481  0.387607  0.167121  1
  Cl  Cl49  1  0.775722  0.200482  0.106982  1
  Cl  Cl50  1  0.189519  0.612393  0.667121  1
  Cl  Cl51  1  0.275722  0.200482  0.393018  1
  Cl  Cl52  1  0.791313  0.994299  0.828803  1
  Cl  Cl53  1  0.208687  0.005701  0.171197  1
  Cl  Cl54  1  0.724278  0.799518  0.606982  1
  Cl  Cl55  1  0.708687  0.005701  0.328803  1
  Cl  Cl56  1  0.291313  0.994299  0.671197  1
  Cl  Cl57  1  0.810481  0.387607  0.332879  1
  Cl  Cl58  1  0.224278  0.799518  0.893018  1
  Cl  Cl59  1  0.689519  0.612393  0.832879  1
