# generated using pymatgen
data_Gd(IO3)3
_symmetry_space_group_name_H-M   'P 1'
_cell_length_a   7.28651702
_cell_length_b   8.66106550
_cell_length_c   13.63808607
_cell_angle_alpha   90.00000000
_cell_angle_beta   100.34096912
_cell_angle_gamma   90.00000000
_symmetry_Int_Tables_number   1
_chemical_formula_structural   Gd(IO3)3
_chemical_formula_sum   'Gd4 I12 O36'
_cell_volume   846.70581113
_cell_formula_units_Z   4
loop_
 _symmetry_equiv_pos_site_id
 _symmetry_equiv_pos_as_xyz
  1  'x, y, z'
loop_
 _atom_site_type_symbol
 _atom_site_label
 _atom_site_symmetry_multiplicity
 _atom_site_fract_x
 _atom_site_fract_y
 _atom_site_fract_z
 _atom_site_occupancy
  Gd  Gd0  1  0.173269  0.245293  0.645392  1
  Gd  Gd1  1  0.826731  0.745293  0.854608  1
  Gd  Gd2  1  0.173269  0.254707  0.145392  1
  Gd  Gd3  1  0.826731  0.754707  0.354608  1
  I  I4  1  0.266623  0.020242  0.390465  1
  I  I5  1  0.832227  0.206217  0.889613  1
  I  I6  1  0.167773  0.706217  0.610387  1
  I  I7  1  0.331943  0.956445  0.856893  1
  I  I8  1  0.266623  0.479758  0.890465  1
  I  I9  1  0.733377  0.520242  0.109535  1
  I  I10  1  0.167773  0.793783  0.110387  1
  I  I11  1  0.832227  0.293783  0.389613  1
  I  I12  1  0.331943  0.543555  0.356893  1
  I  I13  1  0.668057  0.043555  0.143107  1
  I  I14  1  0.733377  0.979758  0.609535  1
  I  I15  1  0.668057  0.456445  0.643107  1
  O  O16  1  0.338539  0.468035  0.231953  1
  O  O17  1  0.147727  0.689005  0.323434  1
  O  O18  1  0.032740  0.330939  0.488284  1
  O  O19  1  0.360812  0.834268  0.045278  1
  O  O20  1  0.838479  0.028003  0.817718  1
  O  O21  1  0.020816  0.972219  0.386460  1
  O  O22  1  0.768906  0.792789  0.675164  1
  O  O23  1  0.231094  0.207211  0.324836  1
  O  O24  1  0.321069  0.422054  0.020768  1
  O  O25  1  0.032740  0.169061  0.988284  1
  O  O26  1  0.020816  0.527781  0.886460  1
  O  O27  1  0.967260  0.669061  0.511716  1
  O  O28  1  0.661461  0.968035  0.268047  1
  O  O29  1  0.979184  0.027781  0.613540  1
  O  O30  1  0.471848  0.174308  0.136985  1
  O  O31  1  0.321069  0.077946  0.520768  1
  O  O32  1  0.661461  0.531965  0.768047  1
  O  O33  1  0.639188  0.165732  0.954722  1
  O  O34  1  0.231094  0.292789  0.824836  1
  O  O35  1  0.852274  0.189005  0.176566  1
  O  O36  1  0.967260  0.830939  0.011716  1
  O  O37  1  0.979184  0.472219  0.113540  1
  O  O38  1  0.528152  0.825692  0.863015  1
  O  O39  1  0.471848  0.325692  0.636985  1
  O  O40  1  0.528152  0.674308  0.363015  1
  O  O41  1  0.639188  0.334268  0.454722  1
  O  O42  1  0.852274  0.310995  0.676566  1
  O  O43  1  0.360812  0.665732  0.545278  1
  O  O44  1  0.338539  0.031965  0.731953  1
  O  O45  1  0.838479  0.471997  0.317718  1
  O  O46  1  0.678931  0.577946  0.979232  1
  O  O47  1  0.147727  0.810995  0.823434  1
  O  O48  1  0.678931  0.922054  0.479232  1
  O  O49  1  0.161521  0.971997  0.182282  1
  O  O50  1  0.161521  0.528003  0.682282  1
  O  O51  1  0.768906  0.707211  0.175164  1
