# generated using pymatgen
data_Nd2Si2O7
_symmetry_space_group_name_H-M   'P 1'
_cell_length_a   5.43541836
_cell_length_b   8.68770009
_cell_length_c   13.08982354
_cell_angle_alpha   90.00000000
_cell_angle_beta   90.00000000
_cell_angle_gamma   90.00000000
_symmetry_Int_Tables_number   1
_chemical_formula_structural   Nd2Si2O7
_chemical_formula_sum   'Nd8 Si8 O28'
_cell_volume   618.11828242
_cell_formula_units_Z   4
loop_
 _symmetry_equiv_pos_site_id
 _symmetry_equiv_pos_as_xyz
  1  'x, y, z'
loop_
 _atom_site_type_symbol
 _atom_site_label
 _atom_site_symmetry_multiplicity
 _atom_site_fract_x
 _atom_site_fract_y
 _atom_site_fract_z
 _atom_site_occupancy
  Nd  Nd0  1  0.236655  0.103613  0.339069  1
  Nd  Nd1  1  0.263345  0.603613  0.660931  1
  Nd  Nd2  1  0.736655  0.896387  0.160931  1
  Nd  Nd3  1  0.257153  0.195958  0.018287  1
  Nd  Nd4  1  0.757153  0.804042  0.481713  1
  Nd  Nd5  1  0.242847  0.695958  0.981713  1
  Nd  Nd6  1  0.763345  0.396387  0.839069  1
  Nd  Nd7  1  0.742847  0.304042  0.518287  1
  Si  Si8  1  0.272854  0.500864  0.429319  1
  Si  Si9  1  0.773994  0.247587  0.225426  1
  Si  Si10  1  0.226006  0.252413  0.725426  1
  Si  Si11  1  0.727146  -0.000864  0.929319  1
  Si  Si12  1  0.227146  1.000864  0.570681  1
  Si  Si13  1  0.273994  0.752413  0.274574  1
  Si  Si14  1  0.772854  0.499136  0.070681  1
  Si  Si15  1  0.726006  0.747587  0.774574  1
  O  O16  1  0.002233  0.146164  0.174947  1
  O  O17  1  0.997767  0.353836  0.674947  1
  O  O18  1  0.148758  0.820315  0.575164  1
  O  O19  1  0.497697  0.575958  0.497255  1
  O  O20  1  0.236968  0.074380  0.685940  1
  O  O21  1  0.263032  0.574380  0.314060  1
  O  O22  1  0.334135  0.759771  0.153198  1
  O  O23  1  0.834135  0.240229  0.346802  1
  O  O24  1  0.648758  0.179685  0.924836  1
  O  O25  1  0.665865  0.740229  0.653198  1
  O  O26  1  0.520716  0.153390  0.192580  1
  O  O27  1  0.979284  0.653390  0.807420  1
  O  O28  1  0.497767  0.646164  0.825053  1
  O  O29  1  0.502233  0.853836  0.325053  1
  O  O30  1  0.986007  0.971446  0.990991  1
  O  O31  1  0.486007  0.028554  0.509009  1
  O  O32  1  -0.002303  0.424042  0.002745  1
  O  O33  1  1.002303  0.075958  0.502745  1
  O  O34  1  0.736968  0.925620  0.814060  1
  O  O35  1  0.513993  0.471446  0.009009  1
  O  O36  1  0.763032  0.425620  0.185940  1
  O  O37  1  0.013993  0.528554  0.490991  1
  O  O38  1  0.020716  0.846610  0.307420  1
  O  O39  1  0.502303  0.924042  0.997255  1
  O  O40  1  0.479284  0.346610  0.692580  1
  O  O41  1  0.351242  0.320315  0.424836  1
  O  O42  1  0.165865  0.259771  0.846802  1
  O  O43  1  0.851242  0.679685  0.075164  1
