# generated using pymatgen
data_CsCO2
_symmetry_space_group_name_H-M   'P 1'
_cell_length_a   6.72319683
_cell_length_b   8.74454592
_cell_length_c   11.19055246
_cell_angle_alpha   90.00000000
_cell_angle_beta   90.00000000
_cell_angle_gamma   96.93688082
_symmetry_Int_Tables_number   1
_chemical_formula_structural   CsCO2
_chemical_formula_sum   'Cs8 C8 O16'
_cell_volume   653.09115670
_cell_formula_units_Z   8
loop_
 _symmetry_equiv_pos_site_id
 _symmetry_equiv_pos_as_xyz
  1  'x, y, z'
loop_
 _atom_site_type_symbol
 _atom_site_label
 _atom_site_symmetry_multiplicity
 _atom_site_fract_x
 _atom_site_fract_y
 _atom_site_fract_z
 _atom_site_occupancy
  Cs  Cs0  1  0.714559  0.517565  0.795865  1
  Cs  Cs1  1  0.714559  0.017565  0.704135  1
  Cs  Cs2  1  0.285441  0.482435  0.204135  1
  Cs  Cs3  1  0.229404  0.831344  0.912541  1
  Cs  Cs4  1  0.229404  0.331344  0.587459  1
  Cs  Cs5  1  0.285441  0.982435  0.295865  1
  Cs  Cs6  1  0.770596  0.168656  0.087459  1
  Cs  Cs7  1  0.770596  0.668656  0.412541  1
  C  C8  1  0.166848  0.333023  0.890246  1
  C  C9  1  0.309482  0.225521  0.942671  1
  C  C10  1  0.166848  0.833023  0.609754  1
  C  C11  1  0.833152  0.666977  0.109754  1
  C  C12  1  0.690518  0.274479  0.442671  1
  C  C13  1  0.833152  0.166977  0.390246  1
  C  C14  1  0.690518  0.774479  0.057329  1
  C  C15  1  0.309482  0.725521  0.557329  1
  O  O16  1  0.726781  0.826464  0.951839  1
  O  O17  1  0.726781  0.326464  0.548161  1
  O  O18  1  0.273219  0.673536  0.451839  1
  O  O19  1  0.273219  0.173536  0.048161  1
  O  O20  1  0.224111  0.476890  0.891154  1
  O  O21  1  0.452347  0.694381  0.624346  1
  O  O22  1  0.002265  0.267161  0.847454  1
  O  O23  1  0.997735  0.732839  0.152546  1
  O  O24  1  0.547653  0.805619  0.124346  1
  O  O25  1  0.775889  0.023110  0.391154  1
  O  O26  1  0.224111  0.976890  0.608846  1
  O  O27  1  0.775889  0.523110  0.108846  1
  O  O28  1  0.002265  0.767161  0.652546  1
  O  O29  1  0.547653  0.305619  0.375654  1
  O  O30  1  0.997735  0.232839  0.347454  1
  O  O31  1  0.452347  0.194381  0.875654  1
