# generated using pymatgen
data_PrNiSnH2
_symmetry_space_group_name_H-M   'P 1'
_cell_length_a   4.40897614
_cell_length_b   7.64730469
_cell_length_c   8.56631690
_cell_angle_alpha   90.00000000
_cell_angle_beta   90.00000000
_cell_angle_gamma   90.00000000
_symmetry_Int_Tables_number   1
_chemical_formula_structural   PrNiSnH2
_chemical_formula_sum   'Pr4 Ni4 Sn4 H8'
_cell_volume   288.82865585
_cell_formula_units_Z   4
loop_
 _symmetry_equiv_pos_site_id
 _symmetry_equiv_pos_as_xyz
  1  'x, y, z'
loop_
 _atom_site_type_symbol
 _atom_site_label
 _atom_site_symmetry_multiplicity
 _atom_site_fract_x
 _atom_site_fract_y
 _atom_site_fract_z
 _atom_site_occupancy
  Pr  Pr0  1  0.250000  0.750016  0.000055  1
  Pr  Pr1  1  0.750000  0.249984  0.999945  1
  Pr  Pr2  1  0.750000  0.250016  0.499945  1
  Pr  Pr3  1  0.250000  0.749984  0.500055  1
  Ni  Ni4  1  0.250000  0.417273  0.248130  1
  Ni  Ni5  1  0.750000  0.582727  0.751870  1
  Ni  Ni6  1  0.750000  0.917273  0.251870  1
  Ni  Ni7  1  0.250000  0.082727  0.748130  1
  Sn  Sn8  1  0.250000  0.084018  0.249958  1
  Sn  Sn9  1  0.750000  0.915982  0.750042  1
  Sn  Sn10  1  0.750000  0.584018  0.250042  1
  Sn  Sn11  1  0.250000  0.415982  0.749958  1
  H  H12  1  0.250000  0.084675  0.934512  1
  H  H13  1  0.750000  0.915325  0.065488  1
  H  H14  1  0.750000  0.584675  0.565488  1
  H  H15  1  0.250000  0.415325  0.434512  1
  H  H16  1  0.250000  0.083949  0.561577  1
  H  H17  1  0.750000  0.916051  0.438423  1
  H  H18  1  0.750000  0.583949  0.938423  1
  H  H19  1  0.250000  0.416051  0.061577  1
