# generated using pymatgen
data_AgC2N3
_symmetry_space_group_name_H-M   'P 1'
_cell_length_a   3.80325432
_cell_length_b   6.23355636
_cell_length_c   16.13919065
_cell_angle_alpha   90.00000000
_cell_angle_beta   90.00000000
_cell_angle_gamma   90.00000000
_symmetry_Int_Tables_number   1
_chemical_formula_structural   AgC2N3
_chemical_formula_sum   'Ag4 C8 N12'
_cell_volume   382.62470660
_cell_formula_units_Z   4
loop_
 _symmetry_equiv_pos_site_id
 _symmetry_equiv_pos_as_xyz
  1  'x, y, z'
loop_
 _atom_site_type_symbol
 _atom_site_label
 _atom_site_symmetry_multiplicity
 _atom_site_fract_x
 _atom_site_fract_y
 _atom_site_fract_z
 _atom_site_occupancy
  Ag  Ag0  1  0.250000  0.109156  0.087160  1
  Ag  Ag1  1  0.750000  0.890844  0.912840  1
  Ag  Ag2  1  0.750000  0.609156  0.412840  1
  Ag  Ag3  1  0.250000  0.390844  0.587160  1
  C  C4  1  0.250000  0.119158  0.415105  1
  C  C5  1  0.250000  0.380842  0.915105  1
  C  C6  1  0.250000  0.992305  0.280355  1
  C  C7  1  0.750000  0.492305  0.219645  1
  C  C8  1  0.750000  0.007695  0.719645  1
  C  C9  1  0.250000  0.507695  0.780355  1
  C  C10  1  0.750000  0.880842  0.584895  1
  C  C11  1  0.750000  0.619158  0.084895  1
  N  N12  1  0.750000  0.014814  0.792482  1
  N  N13  1  0.250000  0.985186  0.207518  1
  N  N14  1  0.250000  0.243494  0.470235  1
  N  N15  1  0.750000  0.469117  0.140188  1
  N  N16  1  0.250000  0.530883  0.859812  1
  N  N17  1  0.750000  0.756506  0.529765  1
  N  N18  1  0.750000  0.743494  0.029765  1
  N  N19  1  0.250000  0.256506  0.970235  1
  N  N20  1  0.250000  0.514814  0.707518  1
  N  N21  1  0.250000  0.969117  0.359812  1
  N  N22  1  0.750000  0.485186  0.292482  1
  N  N23  1  0.750000  0.030883  0.640188  1
