# generated using pymatgen
data_B2H12C3(NO)6
_symmetry_space_group_name_H-M   'P 1'
_cell_length_a   3.82169384
_cell_length_b   14.11796746
_cell_length_c   20.01524507
_cell_angle_alpha   90.00000000
_cell_angle_beta   90.00000000
_cell_angle_gamma   89.64885877
_symmetry_Int_Tables_number   1
_chemical_formula_structural   B2H12C3(NO)6
_chemical_formula_sum   'B8 H48 C12 N24 O24'
_cell_volume   1079.89324642
_cell_formula_units_Z   4
loop_
 _symmetry_equiv_pos_site_id
 _symmetry_equiv_pos_as_xyz
  1  'x, y, z'
loop_
 _atom_site_type_symbol
 _atom_site_label
 _atom_site_symmetry_multiplicity
 _atom_site_fract_x
 _atom_site_fract_y
 _atom_site_fract_z
 _atom_site_occupancy
  B  B0  1  0.553609  0.832559  0.367669  1
  B  B1  1  0.658870  0.862001  0.010131  1
  B  B2  1  0.446391  0.667441  0.867669  1
  B  B3  1  0.341130  0.137999  0.989869  1
  B  B4  1  0.553609  0.332559  0.132331  1
  B  B5  1  0.658870  0.362001  0.489869  1
  B  B6  1  0.446391  0.167441  0.632331  1
  B  B7  1  0.341130  0.637999  0.510131  1
  H  H8  1  0.429066  0.844009  0.920115  1
  H  H9  1  0.260992  0.982348  0.205265  1
  H  H10  1  0.794603  0.895918  0.524875  1
  H  H11  1  0.862591  0.745731  0.059161  1
  H  H12  1  0.570934  0.155991  0.079885  1
  H  H13  1  0.137204  0.580319  0.342416  1
  H  H14  1  0.185314  0.636790  0.646422  1
  H  H15  1  0.205397  0.604082  0.024875  1
  H  H16  1  0.570934  0.655991  0.420115  1
  H  H17  1  0.699908  0.502848  0.933167  1
  H  H18  1  0.429066  0.344009  0.579885  1
  H  H19  1  0.647516  0.185915  0.540250  1
  H  H20  1  0.137409  0.254269  0.940839  1
  H  H21  1  0.790307  0.723715  0.318969  1
  H  H22  1  0.790307  0.223715  0.181031  1
  H  H23  1  0.260992  0.482348  0.294735  1
  H  H24  1  0.300092  -0.002848  0.433167  1
  H  H25  1  0.653316  0.989728  0.055227  1
  H  H26  1  0.185314  0.136790  0.853578  1
  H  H27  1  0.647516  0.685915  0.959750  1
  H  H28  1  0.548012  0.045028  0.681639  1
  H  H29  1  0.739008  0.017652  0.794735  1
  H  H30  1  0.548012  0.545028  0.818361  1
  H  H31  1  0.653316  0.489728  0.444773  1
  H  H32  1  0.862591  0.245731  0.440839  1
  H  H33  1  0.346684  0.510272  0.555227  1
  H  H34  1  0.209693  0.276285  0.681031  1
  H  H35  1  0.346684  0.010272  0.944773  1
  H  H36  1  0.228298  0.145697  0.765077  1
  H  H37  1  0.699908  1.002848  0.566833  1
  H  H38  1  0.205397  0.104082  0.475125  1
  H  H39  1  0.228298  0.645697  0.734923  1
  H  H40  1  0.794603  0.395918  0.975125  1
  H  H41  1  0.739008  0.517652  0.705265  1
  H  H42  1  0.451988  0.454972  0.181639  1
  H  H43  1  0.137409  0.754269  0.559161  1
  H  H44  1  0.352484  0.314085  0.040250  1
  H  H45  1  0.771702  0.854303  0.234923  1
  H  H46  1  0.137204  0.080319  0.157584  1
  H  H47  1  0.352484  0.814085  0.459750  1
  H  H48  1  0.451988  0.954972  0.318361  1
  H  H49  1  0.771702  0.354303  0.265077  1
  H  H50  1  0.814686  0.863210  0.146422  1
  H  H51  1  0.814686  0.363210  0.353578  1
  H  H52  1  0.300092  0.497152  0.066833  1
  H  H53  1  0.862796  0.919681  0.842416  1
  H  H54  1  0.862796  0.419681  0.657584  1
  H  H55  1  0.209693  0.776285  0.818969  1
  C  C56  1  0.034851  0.263202  0.812468  1
  C  C57  1  0.965149  0.736798  0.187532  1
  C  C58  1  0.129436  0.600494  0.240529  1
  C  C59  1  0.839260  0.390660  0.873175  1
  C  C60  1  0.870564  0.899506  0.740529  1
  C  C61  1  0.034851  0.763202  0.687532  1
  C  C62  1  0.160740  0.109340  0.373175  1
  C  C63  1  0.129436  0.100494  0.259471  1
  C  C64  1  0.160740  0.609340  0.126825  1
  C  C65  1  0.965149  0.236798  0.312468  1
  C  C66  1  0.839260  0.890660  0.626825  1
  C  C67  1  0.870564  0.399506  0.759471  1
  N  N68  1  0.227808  0.558786  0.182861  1
  N  N69  1  0.227101  0.067146  0.431923  1
  N  N70  1  0.140238  0.672685  0.690125  1
  N  N71  1  0.772899  0.432854  0.931923  1
  N  N72  1  -0.005436  0.688597  0.245941  1
  N  N73  1  0.772192  0.441214  0.817139  1
  N  N74  1  0.966275  0.301168  0.873303  1
  N  N75  1  0.859762  0.827315  0.190125  1
  N  N76  1  0.168015  0.049536  0.202878  1
  N  N77  1  1.005436  0.311403  0.754059  1
  N  N78  1  0.831985  0.450464  0.702878  1
  N  N79  1  0.227101  0.567146  0.068077  1
  N  N80  1  0.227808  0.058786  0.317139  1
  N  N81  1  0.859762  0.327315  0.309875  1
  N  N82  1  0.168015  0.549536  0.297122  1
  N  N83  1  0.140238  0.172685  0.809875  1
  N  N84  1  0.772899  0.932854  0.568077  1
  N  N85  1  0.966275  0.801168  0.626697  1
  N  N86  1  1.005436  0.811403  0.745941  1
  N  N87  1  -0.005436  0.188597  0.254059  1
  N  N88  1  0.831985  0.950464  0.797122  1
  N  N89  1  0.772192  0.941214  0.682861  1
  N  N90  1  0.033725  0.698832  0.126697  1
  N  N91  1  0.033725  0.198832  0.373303  1
  O  O92  1  0.581067  0.392034  0.186219  1
  O  O93  1  0.594621  0.634958  0.926388  1
  O  O94  1  0.745369  0.267732  0.484566  1
  O  O95  1  0.266652  0.576898  0.561683  1
  O  O96  1  0.405379  0.365042  0.073612  1
  O  O97  1  0.254631  0.732268  0.515434  1
  O  O98  1  0.266652  0.076898  0.938317  1
  O  O99  1  0.502971  0.105007  0.047519  1
  O  O100  1  0.676541  0.240203  0.136540  1
  O  O101  1  0.405379  0.865042  0.426388  1
  O  O102  1  0.418933  0.107966  0.686219  1
  O  O103  1  0.497029  0.894993  0.952481  1
  O  O104  1  0.676541  0.740203  0.363460  1
  O  O105  1  0.581067  0.892034  0.313781  1
  O  O106  1  0.323459  0.759797  0.863460  1
  O  O107  1  0.594621  0.134958  0.573612  1
  O  O108  1  0.502971  0.605007  0.452481  1
  O  O109  1  0.323459  0.259797  0.636540  1
  O  O110  1  0.733348  0.923102  0.061683  1
  O  O111  1  0.745369  0.767732  0.015434  1
  O  O112  1  0.733348  0.423102  0.438317  1
  O  O113  1  0.254631  0.232268  0.984566  1
  O  O114  1  0.497029  0.394993  0.547519  1
  O  O115  1  0.418933  0.607966  0.813781  1
