# generated using pymatgen
data_Cs2GaP3O10
_symmetry_space_group_name_H-M   'P 1'
_cell_length_a   9.16220348
_cell_length_b   9.68903934
_cell_length_c   12.50495628
_cell_angle_alpha   95.18234691
_cell_angle_beta   90.00000000
_cell_angle_gamma   90.00000000
_symmetry_Int_Tables_number   1
_chemical_formula_structural   Cs2GaP3O10
_chemical_formula_sum   'Cs8 Ga4 P12 O40'
_cell_volume   1105.56406781
_cell_formula_units_Z   4
loop_
 _symmetry_equiv_pos_site_id
 _symmetry_equiv_pos_as_xyz
  1  'x, y, z'
loop_
 _atom_site_type_symbol
 _atom_site_label
 _atom_site_symmetry_multiplicity
 _atom_site_fract_x
 _atom_site_fract_y
 _atom_site_fract_z
 _atom_site_occupancy
  Cs  Cs0  1  0.603587  0.735277  0.539371  1
  Cs  Cs1  1  0.896413  0.235277  0.539371  1
  Cs  Cs2  1  0.396413  0.264723  0.460629  1
  Cs  Cs3  1  0.120336  0.005494  0.147570  1
  Cs  Cs4  1  0.879664  0.994506  0.852430  1
  Cs  Cs5  1  0.620336  0.494506  0.852430  1
  Cs  Cs6  1  0.379664  0.505494  0.147570  1
  Cs  Cs7  1  0.103587  0.764723  0.460629  1
  Ga  Ga8  1  0.148528  0.355881  0.847275  1
  Ga  Ga9  1  0.351472  0.855881  0.847275  1
  Ga  Ga10  1  0.648528  0.144119  0.152725  1
  Ga  Ga11  1  0.851472  0.644119  0.152725  1
  P  P12  1  0.082730  0.678985  0.951946  1
  P  P13  1  0.714650  0.430800  0.310945  1
  P  P14  1  0.533498  0.081546  0.741046  1
  P  P15  1  0.966502  0.581546  0.741046  1
  P  P16  1  0.785350  0.930800  0.310945  1
  P  P17  1  0.033498  0.418454  0.258954  1
  P  P18  1  0.917270  0.321015  0.048054  1
  P  P19  1  0.582730  0.821015  0.048054  1
  P  P20  1  0.285350  0.569200  0.689055  1
  P  P21  1  0.466502  0.918454  0.258954  1
  P  P22  1  0.214650  0.069200  0.689055  1
  P  P23  1  0.417270  0.178985  0.951946  1
  O  O24  1  0.996663  0.718952  0.054493  1
  O  O25  1  0.719063  0.568452  0.258324  1
  O  O26  1  0.871940  0.820555  0.240740  1
  O  O27  1  0.628060  0.320555  0.240740  1
  O  O28  1  0.885374  0.371725  0.312625  1
  O  O29  1  0.477496  0.069941  0.235196  1
  O  O30  1  0.183661  0.800668  0.933651  1
  O  O31  1  0.503337  0.218952  0.054493  1
  O  O32  1  0.683661  0.699332  0.066349  1
  O  O33  1  0.540596  0.175235  0.855596  1
  O  O34  1  0.128060  0.179445  0.759260  1
  O  O35  1  0.667189  0.444918  0.426401  1
  O  O36  1  0.280937  0.431548  0.741676  1
  O  O37  1  0.371940  0.679445  0.759260  1
  O  O38  1  0.332811  0.555082  0.573599  1
  O  O39  1  0.977496  0.430059  0.764804  1
  O  O40  1  0.657292  0.962150  0.055598  1
  O  O41  1  0.342708  0.037850  0.944402  1
  O  O42  1  0.157292  0.537850  0.944402  1
  O  O43  1  0.959404  0.675235  0.855596  1
  O  O44  1  0.614626  0.871725  0.312625  1
  O  O45  1  0.219063  0.931548  0.741676  1
  O  O46  1  0.459404  0.824765  0.144404  1
  O  O47  1  0.022504  0.569941  0.235196  1
  O  O48  1  0.780937  0.068452  0.258324  1
  O  O49  1  0.338927  0.878773  0.323188  1
  O  O50  1  0.114626  0.628275  0.687375  1
  O  O51  1  0.167189  0.055082  0.573599  1
  O  O52  1  0.496663  0.781048  0.945507  1
  O  O53  1  0.838927  0.621227  0.676812  1
  O  O54  1  0.003337  0.281048  0.945507  1
  O  O55  1  0.385374  0.128275  0.687375  1
  O  O56  1  0.161073  0.378773  0.323188  1
  O  O57  1  0.040596  0.324765  0.144404  1
  O  O58  1  0.832811  0.944918  0.426401  1
  O  O59  1  0.816339  0.199332  0.066349  1
  O  O60  1  0.522504  0.930059  0.764804  1
  O  O61  1  0.661073  0.121227  0.676812  1
  O  O62  1  0.316339  0.300668  0.933651  1
  O  O63  1  0.842708  0.462150  0.055598  1
