# generated using pymatgen
data_Mn2Si2Pb2O9
_symmetry_space_group_name_H-M   'P 1'
_cell_length_a   6.32778541
_cell_length_b   6.32778550
_cell_length_c   11.34068831
_cell_angle_alpha   90.00000000
_cell_angle_beta   90.00000000
_cell_angle_gamma   108.27167740
_symmetry_Int_Tables_number   1
_chemical_formula_structural   Mn2Si2Pb2O9
_chemical_formula_sum   'Mn4 Si4 Pb4 O18'
_cell_volume   431.19600418
_cell_formula_units_Z   2
loop_
 _symmetry_equiv_pos_site_id
 _symmetry_equiv_pos_as_xyz
  1  'x, y, z'
loop_
 _atom_site_type_symbol
 _atom_site_label
 _atom_site_symmetry_multiplicity
 _atom_site_fract_x
 _atom_site_fract_y
 _atom_site_fract_z
 _atom_site_occupancy
  Mn  Mn0  1  0.413154  0.413154  0.500000  1
  Mn  Mn1  1  0.314853  0.685147  0.250000  1
  Mn  Mn2  1  0.685147  0.314853  0.750000  1
  Mn  Mn3  1  0.586846  0.586846  0.000000  1
  Si  Si4  1  0.391561  0.201287  0.272960  1
  Si  Si5  1  0.201287  0.391561  0.727040  1
  Si  Si6  1  0.798713  0.608439  0.227040  1
  Si  Si7  1  0.608439  0.798713  0.772960  1
  Pb  Pb8  1  0.934471  0.278877  0.028283  1
  Pb  Pb9  1  0.721123  0.065529  0.471717  1
  Pb  Pb10  1  0.065529  0.721123  0.528283  1
  Pb  Pb11  1  0.278877  0.934471  0.971717  1
  O  O12  1  0.659236  0.340764  0.250000  1
  O  O13  1  0.877211  0.629384  0.086329  1
  O  O14  1  0.759112  0.633812  0.759243  1
  O  O15  1  0.418715  0.704879  0.466138  1
  O  O16  1  0.629384  0.877211  0.913671  1
  O  O17  1  0.018330  0.671061  0.312336  1
  O  O18  1  0.122789  0.370616  0.586329  1
  O  O19  1  0.671061  0.018330  0.687664  1
  O  O20  1  0.340764  0.659236  0.750000  1
  O  O21  1  0.370616  0.122789  0.413671  1
  O  O22  1  0.581285  0.295121  0.966138  1
  O  O23  1  0.295121  0.581285  0.033862  1
  O  O24  1  0.366188  0.240888  0.740757  1
  O  O25  1  0.981670  0.328939  0.812336  1
  O  O26  1  0.704879  0.418715  0.533862  1
  O  O27  1  0.240888  0.366188  0.259243  1
  O  O28  1  0.633812  0.759112  0.240757  1
  O  O29  1  0.328939  0.981670  0.187664  1
