# generated using pymatgen
data_LiHo3Ge2(O4F)2
_symmetry_space_group_name_H-M   'P 1'
_cell_length_a   5.11064968
_cell_length_b   9.22109957
_cell_length_c   9.32099506
_cell_angle_alpha   78.16090760
_cell_angle_beta   74.08879687
_cell_angle_gamma   73.91177433
_symmetry_Int_Tables_number   1
_chemical_formula_structural   LiHo3Ge2(O4F)2
_chemical_formula_sum   'Li2 Ho6 Ge4 O16 F4'
_cell_volume   401.89960460
_cell_formula_units_Z   2
loop_
 _symmetry_equiv_pos_site_id
 _symmetry_equiv_pos_as_xyz
  1  'x, y, z'
loop_
 _atom_site_type_symbol
 _atom_site_label
 _atom_site_symmetry_multiplicity
 _atom_site_fract_x
 _atom_site_fract_y
 _atom_site_fract_z
 _atom_site_occupancy
  Li  Li0  1  0.000000  0.000000  0.500000  1
  Li  Li1  1  0.500000  0.500000  0.000000  1
  Ho  Ho2  1  0.328021  0.906802  0.848835  1
  Ho  Ho3  1  0.083658  0.593198  0.651165  1
  Ho  Ho4  1  0.671979  0.093198  0.151165  1
  Ho  Ho5  1  0.789759  0.250000  0.750000  1
  Ho  Ho6  1  0.210241  0.750000  0.250000  1
  Ho  Ho7  1  0.916342  0.406802  0.348835  1
  Ge  Ge8  1  0.908830  0.700195  0.010574  1
  Ge  Ge9  1  0.619598  0.799805  0.489426  1
  Ge  Ge10  1  0.380402  0.200195  0.510574  1
  Ge  Ge11  1  0.091170  0.299805  0.989426  1
  O  O12  1  0.676173  0.784755  0.670791  1
  O  O13  1  0.323827  0.215245  0.329209  1
  O  O14  1  0.224009  0.055756  0.634033  1
  O  O15  1  0.958350  0.863143  0.071603  1
  O  O16  1  0.041650  0.136857  0.928397  1
  O  O17  1  0.893095  0.636857  0.428397  1
  O  O18  1  0.552467  0.712814  0.023928  1
  O  O19  1  0.447533  0.287186  0.976072  1
  O  O20  1  0.289209  0.787186  0.476072  1
  O  O21  1  0.710791  0.212814  0.523928  1
  O  O22  1  0.775991  0.944244  0.365967  1
  O  O23  1  0.086202  0.555756  0.134033  1
  O  O24  1  0.868282  0.284755  0.170791  1
  O  O25  1  0.913798  0.444244  0.865967  1
  O  O26  1  0.131718  0.715245  0.829209  1
  O  O27  1  0.106905  0.363143  0.571603  1
  F  F28  1  0.659812  0.028775  0.828837  1
  F  F29  1  0.482576  0.528775  0.328837  1
  F  F30  1  0.517424  0.471225  0.671163  1
  F  F31  1  0.340188  0.971225  0.171163  1
