# generated using pymatgen
data_Cu2P2PbO8
_symmetry_space_group_name_H-M   'P 1'
_cell_length_a   7.97033692
_cell_length_b   10.39567138
_cell_length_c   15.39862025
_cell_angle_alpha   90.00000000
_cell_angle_beta   90.00000000
_cell_angle_gamma   90.00000000
_symmetry_Int_Tables_number   1
_chemical_formula_structural   Cu2P2PbO8
_chemical_formula_sum   'Cu16 P16 Pb8 O64'
_cell_volume   1275.88353054
_cell_formula_units_Z   8
loop_
 _symmetry_equiv_pos_site_id
 _symmetry_equiv_pos_as_xyz
  1  'x, y, z'
loop_
 _atom_site_type_symbol
 _atom_site_label
 _atom_site_symmetry_multiplicity
 _atom_site_fract_x
 _atom_site_fract_y
 _atom_site_fract_z
 _atom_site_occupancy
  Cu  Cu0  1  0.434322  0.444987  0.337764  1
  Cu  Cu1  1  0.594808  0.707177  0.422718  1
  Cu  Cu2  1  0.405192  0.292823  0.577282  1
  Cu  Cu3  1  0.094808  0.792823  0.577282  1
  Cu  Cu4  1  0.594808  0.207177  0.077282  1
  Cu  Cu5  1  0.065678  0.444987  0.162236  1
  Cu  Cu6  1  0.905192  0.707177  0.077282  1
  Cu  Cu7  1  0.934322  0.055013  0.662236  1
  Cu  Cu8  1  0.905192  0.207177  0.422718  1
  Cu  Cu9  1  0.565678  0.055013  0.837764  1
  Cu  Cu10  1  0.565678  0.555013  0.662236  1
  Cu  Cu11  1  0.934322  0.555013  0.837764  1
  Cu  Cu12  1  0.405192  0.792823  0.922718  1
  Cu  Cu13  1  0.434322  0.944987  0.162236  1
  Cu  Cu14  1  0.094808  0.292823  0.922718  1
  Cu  Cu15  1  0.065678  0.944987  0.337764  1
  P  P16  1  0.800581  0.427745  0.009966  1
  P  P17  1  0.750000  0.322643  0.250000  1
  P  P18  1  0.199419  0.072255  0.509966  1
  P  P19  1  0.750000  0.292564  0.750000  1
  P  P20  1  0.250000  0.677357  0.750000  1
  P  P21  1  0.250000  0.707436  0.250000  1
  P  P22  1  0.199419  0.572255  0.990034  1
  P  P23  1  0.300581  0.072255  0.990034  1
  P  P24  1  0.750000  0.792564  0.750000  1
  P  P25  1  0.250000  0.177357  0.750000  1
  P  P26  1  0.750000  0.822643  0.250000  1
  P  P27  1  0.800581  0.927745  0.490034  1
  P  P28  1  0.699419  0.927745  0.009966  1
  P  P29  1  0.250000  0.207436  0.250000  1
  P  P30  1  0.699419  0.427745  0.490034  1
  P  P31  1  0.300581  0.572255  0.509966  1
  Pb  Pb32  1  0.481123  0.419196  0.870354  1
  Pb  Pb33  1  0.018877  0.919196  0.870354  1
  Pb  Pb34  1  0.518877  0.080804  0.370354  1
  Pb  Pb35  1  0.018877  0.419196  0.629646  1
  Pb  Pb36  1  0.481123  0.919196  0.629646  1
  Pb  Pb37  1  0.981123  0.080804  0.129646  1
  Pb  Pb38  1  0.981123  0.580804  0.370354  1
  Pb  Pb39  1  0.518877  0.580804  0.129646  1
  O  O40  1  0.096520  0.121458  0.275725  1
  O  O41  1  0.589477  0.906803  0.255641  1
  O  O42  1  0.195124  0.285911  0.169567  1
  O  O43  1  0.418009  0.189205  0.995167  1
  O  O44  1  0.089477  0.093197  0.755641  1
  O  O45  1  0.861691  0.020658  0.415186  1
  O  O46  1  0.195124  0.785911  0.330433  1
  O  O47  1  0.257502  0.264244  0.831708  1
  O  O48  1  0.804876  0.214089  0.669567  1
  O  O49  1  0.242498  0.764244  0.831708  1
  O  O50  1  0.596520  0.378542  0.724275  1
  O  O51  1  0.880039  0.382726  0.464198  1
  O  O52  1  0.380039  0.117274  0.535802  1
  O  O53  1  0.081991  0.689205  0.995167  1
  O  O54  1  0.619961  0.382726  0.035802  1
  O  O55  1  0.903480  0.378542  0.775725  1
  O  O56  1  0.410523  0.093197  0.744359  1
  O  O57  1  0.274641  0.497512  0.424932  1
  O  O58  1  0.918009  0.810795  0.495167  1
  O  O59  1  0.880039  0.882726  0.035802  1
  O  O60  1  0.861691  0.520658  0.084814  1
  O  O61  1  0.361691  0.479342  0.584814  1
  O  O62  1  0.742498  0.735756  0.168292  1
  O  O63  1  0.089477  0.593197  0.744359  1
  O  O64  1  0.138309  0.979342  0.584814  1
  O  O65  1  0.581991  0.310795  0.495167  1
  O  O66  1  0.138309  0.479342  0.915186  1
  O  O67  1  0.757502  0.235756  0.168292  1
  O  O68  1  0.910523  0.406803  0.255641  1
  O  O69  1  0.380039  0.617274  0.964198  1
  O  O70  1  0.119961  0.617274  0.535802  1
  O  O71  1  0.225359  0.497512  0.075068  1
  O  O72  1  0.638309  0.020658  0.084814  1
  O  O73  1  0.619961  0.882726  0.464198  1
  O  O74  1  0.918009  0.310795  0.004833  1
  O  O75  1  0.274641  0.997512  0.075068  1
  O  O76  1  0.119961  0.117274  0.964198  1
  O  O77  1  0.725359  0.502488  0.575068  1
  O  O78  1  0.695124  0.214089  0.830433  1
  O  O79  1  0.774641  0.502488  0.924932  1
  O  O80  1  0.589477  0.406803  0.244359  1
  O  O81  1  0.695124  0.714089  0.669567  1
  O  O82  1  0.081991  0.189205  0.504833  1
  O  O83  1  0.903480  0.878542  0.724275  1
  O  O84  1  0.910523  0.906803  0.244359  1
  O  O85  1  0.757502  0.735756  0.331708  1
  O  O86  1  0.403480  0.121458  0.224275  1
  O  O87  1  0.304876  0.285911  0.330433  1
  O  O88  1  0.804876  0.714089  0.830433  1
  O  O89  1  0.304876  0.785911  0.169567  1
  O  O90  1  0.638309  0.520658  0.415186  1
  O  O91  1  0.257502  0.764244  0.668292  1
  O  O92  1  0.410523  0.593197  0.755641  1
  O  O93  1  0.096520  0.621458  0.224275  1
  O  O94  1  0.581991  0.810795  0.004833  1
  O  O95  1  0.242498  0.264244  0.668292  1
  O  O96  1  0.361691  0.979342  0.915186  1
  O  O97  1  0.418009  0.689205  0.504833  1
  O  O98  1  0.742498  0.235756  0.331708  1
  O  O99  1  0.725359  0.002488  0.924932  1
  O  O100  1  0.774641  0.002488  0.575068  1
  O  O101  1  0.403480  0.621458  0.275725  1
  O  O102  1  0.225359  0.997512  0.424932  1
  O  O103  1  0.596520  0.878542  0.775725  1
