# generated using pymatgen
data_TiZn2O4
_symmetry_space_group_name_H-M   'P 1'
_cell_length_a   6.11565489
_cell_length_b   12.21036566
_cell_length_c   10.37727645
_cell_angle_alpha   53.96195854
_cell_angle_beta   89.87343757
_cell_angle_gamma   90.00000000
_symmetry_Int_Tables_number   1
_chemical_formula_structural   TiZn2O4
_chemical_formula_sum   'Ti8 Zn16 O32'
_cell_volume   626.61589405
_cell_formula_units_Z   8
loop_
 _symmetry_equiv_pos_site_id
 _symmetry_equiv_pos_as_xyz
  1  'x, y, z'
loop_
 _atom_site_type_symbol
 _atom_site_label
 _atom_site_symmetry_multiplicity
 _atom_site_fract_x
 _atom_site_fract_y
 _atom_site_fract_z
 _atom_site_occupancy
  O  O0  1  0.031043  0.256304  0.751257  1
  O  O1  1  0.023944  0.489894  0.752445  1
  O  O2  1  0.027977  0.754086  0.753710  1
  O  O3  1  0.011671  0.996017  0.737293  1
  O  O4  1  0.266042  0.500448  0.516457  1
  O  O5  1  0.234334  0.000290  0.515715  1
  O  O6  1  0.262397  0.749416  -0.015989  1
  O  O7  1  0.270704  0.250804  -0.016605  1
  O  O8  1  0.268656  0.511356  0.002047  1
  O  O9  1  0.268119  0.012310  0.002907  1
  O  O10  1  0.231067  0.238840  0.496251  1
  O  O11  1  0.265892  0.738250  0.498224  1
  O  O12  1  0.488041  0.250999  0.765041  1
  O  O13  1  0.484484  0.754851  0.762847  1
  O  O14  1  0.482262  0.500541  0.733774  1
  O  O15  1  0.466644  0.998124  0.742368  1
  O  O16  1  0.515516  0.017697  0.237153  1
  O  O17  1  0.511959  0.516040  0.234959  1
  O  O18  1  0.517738  0.734315  0.266226  1
  O  O19  1  0.533356  0.240492  0.257632  1
  O  O20  1  0.731344  0.013402  0.997953  1
  O  O21  1  0.768933  0.235091  0.503749  1
  O  O22  1  0.731881  0.515217  0.997093  1
  O  O23  1  0.734108  0.736474  0.501776  1
  O  O24  1  0.765666  0.016005  0.484285  1
  O  O25  1  0.733958  0.516904  0.483543  1
  O  O26  1  0.737603  0.233427  1.015989  1
  O  O27  1  0.729296  0.734199  1.016605  1
  O  O28  1  0.972023  0.007796  0.246290  1
  O  O29  1  0.988329  0.233309  0.262707  1
  O  O30  1  0.968957  0.507560  0.248743  1
  O  O31  1  0.976056  0.742339  0.247555  1
  Ti  Ti32  1  0.236208  0.376002  0.750782  1
  Ti  Ti33  1  0.249717  0.873084  0.749005  1
  Ti  Ti34  1  0.500000  0.632077  0.500000  1
  Ti  Ti35  1  0.501354  0.121708  0.995737  1
  Ti  Ti36  1  0.498646  0.617445  0.004263  1
  Ti  Ti37  1  0.750283  0.122089  0.250995  1
  Ti  Ti38  1  0.763792  0.626784  0.249218  1
  Ti  Ti39  1  0.000000  0.131471  0.500000  1
  Zn  Zn40  1  0.000780  0.120271  1.000433  1
  Zn  Zn41  1  0.999220  0.620704  -0.000433  1
  Zn  Zn42  1  0.250036  0.124660  0.749784  1
  Zn  Zn43  1  0.242568  0.623793  0.751327  1
  Zn  Zn44  1  0.261785  0.308506  0.128390  1
  Zn  Zn45  1  0.256865  0.811051  0.124341  1
  Zn  Zn46  1  0.247094  0.440201  0.375111  1
  Zn  Zn47  1  0.244148  0.940065  0.373246  1
  Zn  Zn48  1  0.500000  0.127894  0.500000  1
  Zn  Zn49  1  0.752906  0.315312  0.624889  1
  Zn  Zn50  1  0.743135  0.435392  0.875659  1
  Zn  Zn51  1  0.738215  0.936896  0.871610  1
  Zn  Zn52  1  0.755852  0.813311  0.626754  1
  Zn  Zn53  1  0.749964  0.374444  0.250216  1
  Zn  Zn54  1  0.757432  0.875120  0.248673  1
  Zn  Zn55  1  0.000000  0.628922  0.500000  1
