# generated using pymatgen
data_SiO2
_symmetry_space_group_name_H-M   'P 1'
_cell_length_a   8.40102352
_cell_length_b   8.40102016
_cell_length_c   8.40102397
_cell_angle_alpha   105.24633081
_cell_angle_beta   105.24633697
_cell_angle_gamma   118.29824439
_symmetry_Int_Tables_number   1
_chemical_formula_structural   SiO2
_chemical_formula_sum   'Si8 O16'
_cell_volume   448.19242700
_cell_formula_units_Z   8
loop_
 _symmetry_equiv_pos_site_id
 _symmetry_equiv_pos_as_xyz
  1  'x, y, z'
loop_
 _atom_site_type_symbol
 _atom_site_label
 _atom_site_symmetry_multiplicity
 _atom_site_fract_x
 _atom_site_fract_y
 _atom_site_fract_z
 _atom_site_occupancy
  Si  Si0  1  0.918001  0.207518  0.000477  1
  Si  Si1  1  0.707041  0.707518  0.289517  1
  Si  Si2  1  0.292482  0.581999  0.999523  1
  Si  Si3  1  0.792482  0.792958  0.710483  1
  Si  Si4  1  0.582475  0.292958  0.000476  1
  Si  Si5  1  0.207041  0.917524  0.999524  1
  Si  Si6  1  0.418001  0.417524  0.710483  1
  Si  Si7  1  0.082476  0.081999  0.289517  1
  O  O8  1  0.500795  0.314689  0.814736  1
  O  O9  1  0.999953  0.814689  0.813894  1
  O  O10  1  0.606204  0.606204  0.712407  1
  O  O11  1  0.750595  0.250595  0.001190  1
  O  O12  1  0.499953  0.686059  0.185264  1
  O  O13  1  0.250595  0.249405  0.500000  1
  O  O14  1  0.893796  0.893796  0.287593  1
  O  O15  1  0.685311  0.500047  0.186106  1
  O  O16  1  0.749405  0.750595  0.500000  1
  O  O17  1  0.813941  0.000047  0.814736  1
  O  O18  1  0.185311  0.999205  0.185264  1
  O  O19  1  0.393796  0.106204  -0.000000  1
  O  O20  1  0.000795  0.186059  0.186106  1
  O  O21  1  0.313941  0.499205  0.813894  1
  O  O22  1  0.106203  0.393796  1.000000  1
  O  O23  1  0.249405  0.749405  0.998810  1
