# generated using pymatgen
data_SrFeF5
_symmetry_space_group_name_H-M   'P 1'
_cell_length_a   7.15439857
_cell_length_b   7.40421881
_cell_length_c   14.92312347
_cell_angle_alpha   90.00000000
_cell_angle_beta   95.41094519
_cell_angle_gamma   90.00000000
_symmetry_Int_Tables_number   1
_chemical_formula_structural   SrFeF5
_chemical_formula_sum   'Sr8 Fe8 F40'
_cell_volume   786.99605146
_cell_formula_units_Z   8
loop_
 _symmetry_equiv_pos_site_id
 _symmetry_equiv_pos_as_xyz
  1  'x, y, z'
loop_
 _atom_site_type_symbol
 _atom_site_label
 _atom_site_symmetry_multiplicity
 _atom_site_fract_x
 _atom_site_fract_y
 _atom_site_fract_z
 _atom_site_occupancy
  Sr  Sr0  1  0.000942  0.842430  0.637604  1
  Sr  Sr1  1  0.999058  0.342430  0.862396  1
  Sr  Sr2  1  0.999058  0.157570  0.362396  1
  Sr  Sr3  1  0.000942  0.657570  0.137604  1
  Sr  Sr4  1  0.685882  0.345533  0.587096  1
  Sr  Sr5  1  0.314118  0.845533  0.912904  1
  Sr  Sr6  1  0.314118  0.654467  0.412904  1
  Sr  Sr7  1  0.685882  0.154467  0.087096  1
  Fe  Fe8  1  0.811539  0.815879  0.875355  1
  Fe  Fe9  1  0.188462  0.315879  0.624645  1
  Fe  Fe10  1  0.188462  0.184121  0.124645  1
  Fe  Fe11  1  0.811539  0.684121  0.375355  1
  Fe  Fe12  1  0.507045  0.883276  0.661326  1
  Fe  Fe13  1  0.492955  0.383276  0.838674  1
  Fe  Fe14  1  0.492955  0.116724  0.338674  1
  Fe  Fe15  1  0.507045  0.616724  0.161326  1
  F  F16  1  0.957109  0.677942  0.967148  1
  F  F17  1  0.042891  0.177942  0.532852  1
  F  F18  1  0.042891  0.322058  0.032852  1
  F  F19  1  0.957109  0.822058  0.467148  1
  F  F20  1  0.653590  0.924400  0.958937  1
  F  F21  1  0.346410  0.424400  0.541063  1
  F  F22  1  0.346410  0.075600  0.041063  1
  F  F23  1  0.653590  0.575600  0.458937  1
  F  F24  1  0.605362  0.636259  0.856198  1
  F  F25  1  0.394638  0.136259  0.643802  1
  F  F26  1  0.394638  0.363741  0.143802  1
  F  F27  1  0.605362  0.863741  0.356198  1
  F  F28  1  0.967156  0.690460  0.793757  1
  F  F29  1  0.032844  0.190460  0.706243  1
  F  F30  1  0.032844  0.309540  0.206243  1
  F  F31  1  0.967156  0.809540  0.293757  1
  F  F32  1  0.700419  0.495538  0.098441  1
  F  F33  1  0.299581  0.995538  0.401559  1
  F  F34  1  0.299581  0.504462  0.901559  1
  F  F35  1  0.700419  0.004462  0.598441  1
  F  F36  1  0.319194  0.694371  0.067613  1
  F  F37  1  0.680806  0.194371  0.432387  1
  F  F38  1  0.680806  0.305629  0.932387  1
  F  F39  1  0.319194  0.805629  0.567613  1
  F  F40  1  0.312603  0.659277  0.241752  1
  F  F41  1  0.687397  0.159277  0.258248  1
  F  F42  1  0.687397  0.340723  0.758248  1
  F  F43  1  0.312603  0.840723  0.741752  1
  F  F44  1  0.680345  0.554347  0.272022  1
  F  F45  1  0.319655  0.054347  0.227978  1
  F  F46  1  0.319655  0.445653  0.727978  1
  F  F47  1  0.680345  0.945653  0.772022  1
  F  F48  1  0.654350  0.829359  0.149024  1
  F  F49  1  0.345650  0.329359  0.350976  1
  F  F50  1  0.345650  0.170641  0.850976  1
  F  F51  1  0.654350  0.670641  0.649024  1
  F  F52  1  0.998518  0.492066  0.390102  1
  F  F53  1  0.001482  0.992066  0.109898  1
  F  F54  1  0.001482  0.507934  0.609898  1
  F  F55  1  0.998518  0.007934  0.890102  1
