# generated using pymatgen
data_CsLa(SO4)2
_symmetry_space_group_name_H-M   'P 1'
_cell_length_a   5.55149485
_cell_length_b   8.13149505
_cell_length_c   17.41002187
_cell_angle_alpha   92.03016801
_cell_angle_beta   90.00000000
_cell_angle_gamma   90.00000000
_symmetry_Int_Tables_number   1
_chemical_formula_structural   CsLa(SO4)2
_chemical_formula_sum   'Cs4 La4 S8 O32'
_cell_volume   785.42907400
_cell_formula_units_Z   4
loop_
 _symmetry_equiv_pos_site_id
 _symmetry_equiv_pos_as_xyz
  1  'x, y, z'
loop_
 _atom_site_type_symbol
 _atom_site_label
 _atom_site_symmetry_multiplicity
 _atom_site_fract_x
 _atom_site_fract_y
 _atom_site_fract_z
 _atom_site_occupancy
  Cs  Cs0  1  0.733705  0.862105  0.884393  1
  Cs  Cs1  1  0.233705  0.637895  0.615607  1
  Cs  Cs2  1  0.266295  0.137895  0.115607  1
  Cs  Cs3  1  0.766295  0.362105  0.384393  1
  La  La4  1  0.312509  0.868488  0.363816  1
  La  La5  1  0.812509  0.631512  0.136184  1
  La  La6  1  0.187491  0.368488  0.863816  1
  La  La7  1  0.687491  0.131512  0.636184  1
  S  S8  1  0.736110  0.453999  0.754239  1
  S  S9  1  0.244490  0.173712  0.521366  1
  S  S10  1  0.744490  0.326288  0.978634  1
  S  S11  1  0.236110  0.046001  0.745761  1
  S  S12  1  0.263890  0.546001  0.245761  1
  S  S13  1  0.255510  0.673712  0.021366  1
  S  S14  1  0.763890  0.953999  0.254239  1
  S  S15  1  0.755510  0.826288  0.478634  1
  O  O16  1  0.562062  0.701782  0.462427  1
  O  O17  1  0.714445  0.442005  0.668889  1
  O  O18  1  0.776643  0.864026  0.562641  1
  O  O19  1  0.489322  0.479633  0.210978  1
  O  O20  1  0.214445  0.057995  0.831111  1
  O  O21  1  0.946601  0.558547  0.777641  1
  O  O22  1  0.285555  0.557995  0.331111  1
  O  O23  1  0.685674  0.975988  0.436664  1
  O  O24  1  0.992315  0.761545  0.449951  1
  O  O25  1  0.223357  0.135974  0.437359  1
  O  O26  1  0.785555  0.942005  0.168889  1
  O  O27  1  0.185674  0.524012  0.063336  1
  O  O28  1  0.786149  0.282595  0.781154  1
  O  O29  1  0.276643  0.635974  0.937359  1
  O  O30  1  0.446601  0.941453  0.722359  1
  O  O31  1  0.213851  0.717405  0.218846  1
  O  O32  1  0.007685  0.238455  0.550049  1
  O  O33  1  0.937938  0.201782  0.962427  1
  O  O34  1  0.053399  0.441453  0.222359  1
  O  O35  1  0.314326  0.024012  0.563336  1
  O  O36  1  0.989322  0.020367  0.289022  1
  O  O37  1  0.286149  0.217405  0.718846  1
  O  O38  1  0.814326  0.475988  0.936664  1
  O  O39  1  0.437938  0.298218  0.537573  1
  O  O40  1  0.713851  0.782595  0.281154  1
  O  O41  1  0.510678  0.520367  0.789022  1
  O  O42  1  0.492315  0.738455  0.050049  1
  O  O43  1  0.062062  0.798218  0.037573  1
  O  O44  1  0.507685  0.261545  0.949951  1
  O  O45  1  0.010678  0.979633  0.710978  1
  O  O46  1  0.553399  0.058547  0.277641  1
  O  O47  1  0.723357  0.364026  0.062641  1
