# generated using pymatgen
data_YbGa5
_symmetry_space_group_name_H-M   'P 1'
_cell_length_a   4.32075481
_cell_length_b   4.32075467
_cell_length_c   13.40896155
_cell_angle_alpha   99.27159640
_cell_angle_beta   99.27159612
_cell_angle_gamma   89.99999861
_symmetry_Int_Tables_number   1
_chemical_formula_structural   YbGa5
_chemical_formula_sum   'Yb2 Ga10'
_cell_volume   243.74618520
_cell_formula_units_Z   2
loop_
 _symmetry_equiv_pos_site_id
 _symmetry_equiv_pos_as_xyz
  1  'x, y, z'
loop_
 _atom_site_type_symbol
 _atom_site_label
 _atom_site_symmetry_multiplicity
 _atom_site_fract_x
 _atom_site_fract_y
 _atom_site_fract_z
 _atom_site_occupancy
  Yb  Yb0  1  0.149953  0.149953  0.299906  1
  Yb  Yb1  1  0.850047  0.850047  0.700094  1
  Ga  Ga2  1  0.399128  0.399128  0.798255  1
  Ga  Ga3  1  0.452433  0.952433  0.904867  1
  Ga  Ga4  1  0.547567  0.047567  0.095133  1
  Ga  Ga5  1  0.952433  0.452433  0.904867  1
  Ga  Ga6  1  0.600872  0.600872  0.201745  1
  Ga  Ga7  1  0.305347  0.305347  0.610695  1
  Ga  Ga8  1  0.694653  0.694653  0.389305  1
  Ga  Ga9  1  0.250000  0.750000  0.500000  1
  Ga  Ga10  1  0.047567  0.547567  0.095133  1
  Ga  Ga11  1  0.750000  0.250000  0.500000  1
