# generated using pymatgen
data_SiO2
_symmetry_space_group_name_H-M   'P 1'
_cell_length_a   9.22883379
_cell_length_b   9.22882505
_cell_length_c   12.25194308
_cell_angle_alpha   112.12453649
_cell_angle_beta   112.12443706
_cell_angle_gamma   89.99943895
_symmetry_Int_Tables_number   1
_chemical_formula_structural   SiO2
_chemical_formula_sum   'Si16 O32'
_cell_volume   883.18341357
_cell_formula_units_Z   16
loop_
 _symmetry_equiv_pos_site_id
 _symmetry_equiv_pos_as_xyz
  1  'x, y, z'
loop_
 _atom_site_type_symbol
 _atom_site_label
 _atom_site_symmetry_multiplicity
 _atom_site_fract_x
 _atom_site_fract_y
 _atom_site_fract_z
 _atom_site_occupancy
  Si  Si0  1  0.764366  0.510118  0.866748  1
  Si  Si1  1  0.510085  0.102392  0.366712  1
  Si  Si2  1  0.143380  0.235658  0.633253  1
  Si  Si3  1  0.235656  0.143381  0.133251  1
  Si  Si4  1  0.510118  0.764364  0.366747  1
  Si  Si5  1  0.102378  0.856620  0.866743  1
  Si  Si6  1  0.102392  0.510085  0.866712  1
  Si  Si7  1  0.489915  0.897608  0.633288  1
  Si  Si8  1  0.489882  0.235636  0.633253  1
  Si  Si9  1  0.235634  0.489882  0.133252  1
  Si  Si10  1  0.764344  0.856619  0.866749  1
  Si  Si11  1  0.143378  0.897623  0.633257  1
  Si  Si12  1  0.897622  0.143380  0.133257  1
  Si  Si13  1  0.856622  0.102377  0.366743  1
  Si  Si14  1  0.897608  0.489915  0.133288  1
  Si  Si15  1  0.856620  0.764342  0.366747  1
  O  O16  1  0.454976  0.918138  0.336276  1
  O  O17  1  0.918137  0.454976  0.836277  1
  O  O18  1  0.118646  0.081848  0.663705  1
  O  O19  1  0.247911  0.308860  0.117715  1
  O  O20  1  0.081863  0.545024  0.163723  1
  O  O21  1  0.854921  0.145079  0.250001  1
  O  O22  1  0.545024  0.081862  0.663724  1
  O  O23  1  0.145101  0.395106  0.749987  1
  O  O24  1  0.854899  0.604894  0.250013  1
  O  O25  1  0.081849  0.118647  0.163705  1
  O  O26  1  0.779059  1.000025  0.000018  1
  O  O27  1  0.220940  0.500003  0.000011  1
  O  O28  1  0.881354  0.918152  0.336295  1
  O  O29  1  0.691138  0.752089  0.382285  1
  O  O30  1  0.604892  0.854899  0.750012  1
  O  O31  1  0.220941  -0.000025  0.999982  1
  O  O32  1  0.395108  0.145101  0.249988  1
  O  O33  1  0.145079  0.854921  0.749999  1
  O  O34  1  0.395101  0.604901  0.250001  1
  O  O35  1  0.308862  0.247911  0.617715  1
  O  O36  1  0.130181  0.691169  0.882248  1
  O  O37  1  0.499997  0.779060  0.499990  1
  O  O38  1  0.308834  0.869819  0.617752  1
  O  O39  1  0.500003  0.220940  0.500010  1
  O  O40  1  1.000027  0.779059  0.500019  1
  O  O41  1  0.752089  0.691140  0.882285  1
  O  O42  1  0.869819  0.308831  0.117752  1
  O  O43  1  0.691166  0.130181  0.382248  1
  O  O44  1  0.604899  0.395099  0.749999  1
  O  O45  1  -0.000027  0.220941  0.499981  1
  O  O46  1  0.918151  0.881353  0.836295  1
  O  O47  1  0.779060  0.499997  0.999989  1
