# generated using pymatgen
data_GdP2H9O10
_symmetry_space_group_name_H-M   'P 1'
_cell_length_a   7.29742131
_cell_length_b   10.01026107
_cell_length_c   11.72871924
_cell_angle_alpha   90.00000000
_cell_angle_beta   90.00000000
_cell_angle_gamma   90.00000000
_symmetry_Int_Tables_number   1
_chemical_formula_structural   GdP2H9O10
_chemical_formula_sum   'Gd4 P8 H36 O40'
_cell_volume   856.77229609
_cell_formula_units_Z   4
loop_
 _symmetry_equiv_pos_site_id
 _symmetry_equiv_pos_as_xyz
  1  'x, y, z'
loop_
 _atom_site_type_symbol
 _atom_site_label
 _atom_site_symmetry_multiplicity
 _atom_site_fract_x
 _atom_site_fract_y
 _atom_site_fract_z
 _atom_site_occupancy
  Gd  Gd0  1  0.250000  0.742430  0.250000  1
  Gd  Gd1  1  0.250000  0.757570  0.750000  1
  Gd  Gd2  1  0.750000  0.257570  0.750000  1
  Gd  Gd3  1  0.750000  0.242430  0.250000  1
  P  P4  1  0.414669  0.030115  0.072894  1
  P  P5  1  0.414669  0.469885  0.927106  1
  P  P6  1  0.085331  0.030115  0.427106  1
  P  P7  1  0.085331  0.469885  0.572894  1
  P  P8  1  0.585331  0.969885  0.927106  1
  P  P9  1  0.585331  0.530115  0.072894  1
  P  P10  1  0.914669  0.969885  0.572894  1
  P  P11  1  0.914669  0.530115  0.427106  1
  O  O12  1  0.960631  0.084942  0.333052  1
  O  O13  1  0.960631  0.415058  0.666948  1
  O  O14  1  0.539369  0.084942  0.166948  1
  O  O15  1  0.539369  0.415058  0.833052  1
  O  O16  1  0.039369  0.915058  0.666948  1
  O  O17  1  0.039369  0.584942  0.333052  1
  O  O18  1  0.460631  0.915058  0.833052  1
  O  O19  1  0.460631  0.584942  0.166948  1
  O  O20  1  0.225927  0.135153  0.473239  1
  O  O21  1  0.225927  0.364847  0.526761  1
  O  O22  1  0.274073  0.135153  0.026761  1
  O  O23  1  0.274073  0.364847  0.973239  1
  O  O24  1  0.774073  0.864847  0.526761  1
  O  O25  1  0.774073  0.635153  0.473239  1
  O  O26  1  0.725927  0.864847  0.973239  1
  O  O27  1  0.725927  0.635153  0.026761  1
  O  O28  1  0.046836  0.350591  0.210317  1
  O  O29  1  0.046836  0.149409  0.789683  1
  O  O30  1  0.453164  0.350591  0.289683  1
  O  O31  1  0.453164  0.149409  0.710317  1
  O  O32  1  0.953164  0.649409  0.789683  1
  O  O33  1  0.953164  0.850591  0.210317  1
  O  O34  1  0.546836  0.649409  0.710317  1
  O  O35  1  0.546836  0.850591  0.289683  1
  O  O36  1  0.691271  0.403388  0.106855  1
  O  O37  1  0.691271  0.096612  0.893145  1
  O  O38  1  0.808729  0.403388  0.393145  1
  O  O39  1  0.808729  0.096612  0.606855  1
  O  O40  1  0.308729  0.596612  0.893145  1
  O  O41  1  0.308729  0.903388  0.106855  1
  O  O42  1  0.191271  0.596612  0.606855  1
  O  O43  1  0.191271  0.903388  0.393145  1
  O  O44  1  0.902789  0.132427  0.088827  1
  O  O45  1  0.902789  0.367573  0.911173  1
  O  O46  1  0.597211  0.132427  0.411173  1
  O  O47  1  0.597211  0.367573  0.588827  1
  O  O48  1  0.097211  0.867573  0.911173  1
  O  O49  1  0.097211  0.632427  0.088827  1
  O  O50  1  0.402789  0.867573  0.588827  1
  O  O51  1  0.402789  0.632427  0.411173  1
  H  H52  1  0.056275  0.442002  0.242204  1
  H  H53  1  0.056275  0.057998  0.757796  1
  H  H54  1  0.443725  0.442002  0.257796  1
  H  H55  1  0.443725  0.057998  0.742204  1
  H  H56  1  0.943725  0.557998  0.757796  1
  H  H57  1  0.943725  0.942002  0.242204  1
  H  H58  1  0.556275  0.557998  0.742204  1
  H  H59  1  0.556275  0.942002  0.257796  1
  H  H60  1  0.299574  0.250000  0.000000  1
  H  H61  1  0.200426  0.250000  0.500000  1
  H  H62  1  0.700426  0.750000  0.000000  1
  H  H63  1  0.799574  0.750000  0.500000  1
  H  H64  1  0.035988  0.128571  0.073672  1
  H  H65  1  0.035988  0.371429  0.926328  1
  H  H66  1  0.464012  0.128571  0.426328  1
  H  H67  1  0.464012  0.371429  0.573672  1
  H  H68  1  0.964012  0.871429  0.926328  1
  H  H69  1  0.964012  0.628571  0.073672  1
  H  H70  1  0.535988  0.871429  0.573672  1
  H  H71  1  0.535988  0.628571  0.426328  1
  H  H72  1  0.161291  0.877445  0.985316  1
  H  H73  1  0.161291  0.622555  0.014684  1
  H  H74  1  0.338709  0.877445  0.514684  1
  H  H75  1  0.338709  0.622555  0.485316  1
  H  H76  1  0.838709  0.122555  0.014684  1
  H  H77  1  0.838709  0.377445  0.985316  1
  H  H78  1  0.661291  0.122555  0.485316  1
  H  H79  1  0.661291  0.377445  0.514684  1
  H  H80  1  0.116498  0.351828  0.139355  1
  H  H81  1  0.116498  0.148172  0.860645  1
  H  H82  1  0.383502  0.351828  0.360645  1
  H  H83  1  0.383502  0.148172  0.639355  1
  H  H84  1  0.883502  0.648172  0.860645  1
  H  H85  1  0.883502  0.851828  0.139355  1
  H  H86  1  0.616498  0.648172  0.639355  1
  H  H87  1  0.616498  0.851828  0.360645  1
