# generated using pymatgen
data_Sb(MoO4)2
_symmetry_space_group_name_H-M   'P 1'
_cell_length_a   12.03242489
_cell_length_b   12.03242489
_cell_length_c   5.50263231
_cell_angle_alpha   75.69469542
_cell_angle_beta   104.30530460
_cell_angle_gamma   156.22315906
_symmetry_Int_Tables_number   1
_chemical_formula_structural   Sb(MoO4)2
_chemical_formula_sum   'Sb2 Mo4 O16'
_cell_volume   310.78838557
_cell_formula_units_Z   2
loop_
 _symmetry_equiv_pos_site_id
 _symmetry_equiv_pos_as_xyz
  1  'x, y, z'
loop_
 _atom_site_type_symbol
 _atom_site_label
 _atom_site_symmetry_multiplicity
 _atom_site_fract_x
 _atom_site_fract_y
 _atom_site_fract_z
 _atom_site_occupancy
  O  O0  1  0.553816  0.647455  0.382809  1
  O  O1  1  0.944198  0.146296  0.110703  1
  O  O2  1  0.853704  0.055802  0.610703  1
  O  O3  1  0.703728  0.118468  0.226682  1
  O  O4  1  0.055802  0.853704  0.889297  1
  O  O5  1  0.146296  0.944198  0.389297  1
  O  O6  1  0.296272  0.881532  0.773318  1
  O  O7  1  0.118468  0.703728  0.273318  1
  O  O8  1  0.319401  0.621315  0.503527  1
  O  O9  1  0.378685  0.680599  0.003527  1
  O  O10  1  0.352545  0.446184  0.882809  1
  O  O11  1  0.680599  0.378685  0.496473  1
  O  O12  1  0.446184  0.352545  0.617191  1
  O  O13  1  0.647455  0.553816  0.117191  1
  O  O14  1  0.621315  0.319401  0.996473  1
  O  O15  1  0.881532  0.296272  0.726682  1
  Mo  Mo16  1  0.090302  0.369730  0.766376  1
  Mo  Mo17  1  0.909698  0.630270  0.233624  1
  Mo  Mo18  1  0.369730  0.090302  0.733624  1
  Mo  Mo19  1  0.630270  0.909698  0.266376  1
  Sb  Sb20  1  0.674077  0.674077  0.750000  1
  Sb  Sb21  1  0.325923  0.325923  0.250000  1
