# generated using pymatgen
data_Sr4Al14O25
_symmetry_space_group_name_H-M   'P 1'
_cell_length_a   4.93598712
_cell_length_b   8.57499168
_cell_length_c   25.02219292
_cell_angle_alpha   90.00000000
_cell_angle_beta   90.00000000
_cell_angle_gamma   90.00000000
_symmetry_Int_Tables_number   1
_chemical_formula_structural   Sr4Al14O25
_chemical_formula_sum   'Sr8 Al28 O50'
_cell_volume   1059.09055077
_cell_formula_units_Z   2
loop_
 _symmetry_equiv_pos_site_id
 _symmetry_equiv_pos_as_xyz
  1  'x, y, z'
loop_
 _atom_site_type_symbol
 _atom_site_label
 _atom_site_symmetry_multiplicity
 _atom_site_fract_x
 _atom_site_fract_y
 _atom_site_fract_z
 _atom_site_occupancy
  O  O0  1  0.110641  0.500000  0.250000  1
  O  O1  1  0.889359  0.500000  0.750000  1
  O  O2  1  0.152764  0.662721  0.542646  1
  O  O3  1  0.152764  0.337279  0.957354  1
  O  O4  1  0.847236  0.662721  0.457354  1
  O  O5  1  0.847236  0.337279  0.042646  1
  O  O6  1  0.847236  0.337279  0.457354  1
  O  O7  1  0.847236  0.662721  0.042646  1
  O  O8  1  0.152764  0.337279  0.542646  1
  O  O9  1  0.152764  0.662721  0.957354  1
  O  O10  1  0.576921  0.000000  0.333718  1
  O  O11  1  0.576921  0.000000  0.166282  1
  O  O12  1  0.423079  0.000000  0.666282  1
  O  O13  1  0.423079  0.000000  0.833718  1
  O  O14  1  0.324813  0.500000  0.449634  1
  O  O15  1  0.324813  0.500000  0.050366  1
  O  O16  1  0.675187  0.500000  0.550366  1
  O  O17  1  0.675187  0.500000  0.949634  1
  O  O18  1  0.828760  0.000000  0.461174  1
  O  O19  1  0.828760  0.000000  0.038826  1
  O  O20  1  0.171240  0.000000  0.538826  1
  O  O21  1  0.171240  0.000000  0.961174  1
  O  O22  1  0.474786  0.232413  0.250000  1
  O  O23  1  0.474786  0.767587  0.250000  1
  O  O24  1  0.525214  0.232413  0.750000  1
  O  O25  1  0.525214  0.767587  0.750000  1
  O  O26  1  0.021764  0.771365  0.690411  1
  O  O27  1  0.021764  0.228635  0.809589  1
  O  O28  1  0.978236  0.771365  0.309589  1
  O  O29  1  0.978236  0.228635  0.190411  1
  O  O30  1  0.978236  0.228635  0.309589  1
  O  O31  1  0.978236  0.771365  0.190411  1
  O  O32  1  0.021764  0.228635  0.690411  1
  O  O33  1  0.021764  0.771365  0.809589  1
  O  O34  1  0.499480  0.678009  0.636791  1
  O  O35  1  0.499480  0.321991  0.863209  1
  O  O36  1  0.677072  0.840776  0.956968  1
  O  O37  1  0.677072  0.159224  0.543032  1
  O  O38  1  0.322928  0.840776  0.043032  1
  O  O39  1  0.322928  0.159224  0.456968  1
  O  O40  1  0.322928  0.159224  0.043032  1
  O  O41  1  0.322928  0.840776  0.456968  1
  O  O42  1  0.677072  0.159224  0.956968  1
  O  O43  1  0.677072  0.840776  0.543032  1
  O  O44  1  0.499480  0.678009  0.863209  1
  O  O45  1  0.499480  0.321991  0.636791  1
  O  O46  1  0.500520  0.678009  0.136791  1
  O  O47  1  0.500520  0.321991  0.363209  1
  O  O48  1  0.500520  0.321991  0.136791  1
  O  O49  1  0.500520  0.678009  0.363209  1
  Al  Al50  1  0.000000  0.500000  0.500000  1
  Al  Al51  1  0.000000  0.500000  0.000000  1
  Al  Al52  1  0.500000  0.000000  0.500000  1
  Al  Al53  1  0.500000  0.000000  0.000000  1
  Al  Al54  1  0.000000  0.832380  0.500000  1
  Al  Al55  1  0.000000  0.167620  0.000000  1
  Al  Al56  1  0.000000  0.167620  0.500000  1
  Al  Al57  1  0.000000  0.832380  0.000000  1
  Al  Al58  1  0.128591  0.296733  0.250000  1
  Al  Al59  1  0.128591  0.703267  0.250000  1
  Al  Al60  1  0.871409  0.296733  0.750000  1
  Al  Al61  1  0.871409  0.703267  0.750000  1
  Al  Al62  1  0.492979  0.678078  0.566135  1
  Al  Al63  1  0.492979  0.321922  0.933865  1
  Al  Al64  1  0.507021  0.678078  0.433865  1
  Al  Al65  1  0.507021  0.321922  0.066135  1
  Al  Al66  1  0.507021  0.321922  0.433865  1
  Al  Al67  1  0.507021  0.678078  0.066135  1
  Al  Al68  1  0.492979  0.321922  0.566135  1
  Al  Al69  1  0.492979  0.678078  0.933865  1
  Al  Al70  1  0.374412  0.805303  0.685597  1
  Al  Al71  1  0.374412  0.194697  0.814403  1
  Al  Al72  1  0.625588  0.805303  0.314403  1
  Al  Al73  1  0.625588  0.194697  0.185597  1
  Al  Al74  1  0.625588  0.194697  0.314403  1
  Al  Al75  1  0.625588  0.805303  0.185597  1
  Al  Al76  1  0.374412  0.194697  0.685597  1
  Al  Al77  1  0.374412  0.805303  0.814403  1
  Sr  Sr78  1  0.112991  0.000000  0.379587  1
  Sr  Sr79  1  0.112991  0.000000  0.120413  1
  Sr  Sr80  1  0.887009  0.000000  0.620413  1
  Sr  Sr81  1  0.887009  0.000000  0.879587  1
  Sr  Sr82  1  0.040273  0.500000  0.361606  1
  Sr  Sr83  1  0.040273  0.500000  0.138394  1
  Sr  Sr84  1  0.959727  0.500000  0.638394  1
  Sr  Sr85  1  0.959727  0.500000  0.861606  1
