# generated using pymatgen
data_K2Pd(NO3)4
_symmetry_space_group_name_H-M   'P 1'
_cell_length_a   8.13887179
_cell_length_b   9.67561839
_cell_length_c   15.92584147
_cell_angle_alpha   90.00000000
_cell_angle_beta   90.00000000
_cell_angle_gamma   91.33396838
_symmetry_Int_Tables_number   1
_chemical_formula_structural   K2Pd(NO3)4
_chemical_formula_sum   'K8 Pd4 N16 O48'
_cell_volume   1253.79810697
_cell_formula_units_Z   4
loop_
 _symmetry_equiv_pos_site_id
 _symmetry_equiv_pos_as_xyz
  1  'x, y, z'
loop_
 _atom_site_type_symbol
 _atom_site_label
 _atom_site_symmetry_multiplicity
 _atom_site_fract_x
 _atom_site_fract_y
 _atom_site_fract_z
 _atom_site_occupancy
  K  K0  1  0.775233  0.015127  0.839651  1
  K  K1  1  0.775233  0.515127  0.660349  1
  K  K2  1  0.745569  0.549963  0.093572  1
  K  K3  1  0.254431  0.450037  0.906428  1
  K  K4  1  0.224767  0.984873  0.160349  1
  K  K5  1  0.745569  0.049963  0.406428  1
  K  K6  1  0.254431  0.950037  0.593572  1
  K  K7  1  0.224767  0.484873  0.339651  1
  Pd  Pd8  1  0.269994  0.824109  0.879914  1
  Pd  Pd9  1  0.269994  0.324109  0.620086  1
  Pd  Pd10  1  0.730006  0.175891  0.120086  1
  Pd  Pd11  1  0.730006  0.675891  0.379914  1
  N  N12  1  0.429939  0.285121  0.193824  1
  N  N13  1  0.568944  0.237792  0.962059  1
  N  N14  1  0.570061  0.714879  0.806176  1
  N  N15  1  0.045777  0.239927  0.040989  1
  N  N16  1  0.045777  0.739927  0.459011  1
  N  N17  1  0.102027  0.207445  0.766201  1
  N  N18  1  0.102027  0.707445  0.733799  1
  N  N19  1  0.431056  0.262208  0.462059  1
  N  N20  1  0.429939  0.785121  0.306176  1
  N  N21  1  0.954223  0.260073  0.540989  1
  N  N22  1  0.570061  0.214879  0.693824  1
  N  N23  1  0.954223  0.760073  0.959011  1
  N  N24  1  0.897973  0.792555  0.233799  1
  N  N25  1  0.568944  0.737792  0.537941  1
  N  N26  1  0.897973  0.292555  0.266201  1
  N  N27  1  0.431056  0.762208  0.037941  1
  O  O28  1  0.545974  0.349536  0.998520  1
  O  O29  1  0.484688  0.791021  0.109164  1
  O  O30  1  0.050775  0.212282  0.840004  1
  O  O31  1  0.512111  0.394325  0.198463  1
  O  O32  1  0.807426  0.282862  0.525863  1
  O  O33  1  0.192574  0.717138  0.474137  1
  O  O34  1  0.487889  0.605675  0.801537  1
  O  O35  1  0.033090  0.356592  0.586079  1
  O  O36  1  0.966910  0.143408  0.086079  1
  O  O37  1  0.949225  0.787718  0.159996  1
  O  O38  1  0.545974  0.849536  0.501480  1
  O  O39  1  0.949225  0.287718  0.340004  1
  O  O40  1  0.343855  0.359409  0.499107  1
  O  O41  1  0.027649  0.155948  0.516938  1
  O  O42  1  0.285962  0.270330  0.220280  1
  O  O43  1  0.507697  0.826829  0.840708  1
  O  O44  1  0.050775  0.712282  0.659996  1
  O  O45  1  0.197628  0.813586  0.757357  1
  O  O46  1  0.802372  0.186414  0.242643  1
  O  O47  1  0.068369  0.112317  0.716298  1
  O  O48  1  0.343855  0.859409  0.000893  1
  O  O49  1  0.068369  0.612317  0.783702  1
  O  O50  1  0.931631  0.887683  0.283702  1
  O  O51  1  0.027649  0.655948  0.983062  1
  O  O52  1  0.656145  0.640591  0.500893  1
  O  O53  1  0.492303  0.673171  0.340708  1
  O  O54  1  0.033090  0.856592  0.913921  1
  O  O55  1  0.714038  0.229670  0.720280  1
  O  O56  1  0.492303  0.173171  0.159292  1
  O  O57  1  0.507697  0.326829  0.659292  1
  O  O58  1  0.807426  0.782862  0.974137  1
  O  O59  1  0.512111  0.894325  0.301537  1
  O  O60  1  0.454026  0.150464  0.498520  1
  O  O61  1  0.197628  0.313586  0.742643  1
  O  O62  1  0.487889  0.105675  0.698463  1
  O  O63  1  0.972351  0.344052  0.016938  1
  O  O64  1  0.966910  0.643408  0.413921  1
  O  O65  1  0.515312  0.208979  0.890836  1
  O  O66  1  0.285962  0.770330  0.279720  1
  O  O67  1  0.192574  0.217138  0.025863  1
  O  O68  1  0.931631  0.387683  0.216298  1
  O  O69  1  0.484688  0.291021  0.390836  1
  O  O70  1  0.972351  0.844052  0.483062  1
  O  O71  1  0.454026  0.650464  0.001480  1
  O  O72  1  0.802372  0.686414  0.257357  1
  O  O73  1  0.656145  0.140591  0.999107  1
  O  O74  1  0.714038  0.729670  0.779720  1
  O  O75  1  0.515312  0.708979  0.609164  1
