# generated using pymatgen
data_KH18OsN6(ClO2)4
_symmetry_space_group_name_H-M   'P 1'
_cell_length_a   10.13393450
_cell_length_b   10.13393495
_cell_length_c   10.13393483
_cell_angle_alpha   41.57010821
_cell_angle_beta   41.57010528
_cell_angle_gamma   41.57010530
_symmetry_Int_Tables_number   1
_chemical_formula_structural   KH18OsN6(ClO2)4
_chemical_formula_sum   'K1 Os1 H18 N6 Cl4 O8'
_cell_volume   414.12681855
_cell_formula_units_Z   1
loop_
 _symmetry_equiv_pos_site_id
 _symmetry_equiv_pos_as_xyz
  1  'x, y, z'
loop_
 _atom_site_type_symbol
 _atom_site_label
 _atom_site_symmetry_multiplicity
 _atom_site_fract_x
 _atom_site_fract_y
 _atom_site_fract_z
 _atom_site_occupancy
  Os  Os0  1  0.000000  0.000000  0.000000  1
  N  N1  1  0.079159  0.675371  0.116062  1
  N  N2  1  0.116062  0.079159  0.675371  1
  N  N3  1  0.675371  0.116062  0.079159  1
  N  N4  1  0.920841  0.324629  0.883938  1
  N  N5  1  0.883938  0.920841  0.324629  1
  N  N6  1  0.324629  0.883938  0.920841  1
  Cl  Cl7  1  0.185018  0.185018  0.185018  1
  Cl  Cl8  1  0.814982  0.814982  0.814982  1
  O  O9  1  0.132480  0.132480  0.132480  1
  O  O10  1  0.867520  0.867520  0.867520  1
  O  O11  1  0.319921  0.981754  0.307322  1
  O  O12  1  0.307322  0.319921  0.981754  1
  O  O13  1  0.981754  0.307322  0.319921  1
  O  O14  1  0.680079  0.018246  0.692678  1
  O  O15  1  0.692678  0.680079  0.018246  1
  O  O16  1  0.018246  0.692678  0.680079  1
  Cl  Cl17  1  0.375912  0.375912  0.375912  1
  Cl  Cl18  1  0.624088  0.624088  0.624088  1
  K  K19  1  0.500000  0.500000  0.500000  1
  H  H20  1  0.192009  0.561177  0.179620  1
  H  H21  1  0.179620  0.192009  0.561177  1
  H  H22  1  0.561177  0.179620  0.192009  1
  H  H23  1  0.807991  0.438823  0.820380  1
  H  H24  1  0.820380  0.807991  0.438823  1
  H  H25  1  0.438823  0.820380  0.807991  1
  H  H26  1  0.142691  0.640568  1.000781  1
  H  H27  1  1.000781  0.142691  0.640568  1
  H  H28  1  0.640568  1.000781  0.142691  1
  H  H29  1  0.857309  0.359432  -0.000781  1
  H  H30  1  -0.000781  0.857309  0.359432  1
  H  H31  1  0.359432  -0.000781  0.857309  1
  H  H32  1  0.944686  0.639450  0.243629  1
  H  H33  1  0.243629  0.944686  0.639450  1
  H  H34  1  0.639450  0.243629  0.944686  1
  H  H35  1  0.055314  0.360550  0.756371  1
  H  H36  1  0.756371  0.055314  0.360550  1
  H  H37  1  0.360550  0.756371  0.055314  1
