# generated using pymatgen
data_K3V(PO4)2
_symmetry_space_group_name_H-M   'P 1'
_cell_length_a   9.73008322
_cell_length_b   11.28940197
_cell_length_c   15.67675854
_cell_angle_alpha   90.00000000
_cell_angle_beta   90.22082220
_cell_angle_gamma   90.00000000
_symmetry_Int_Tables_number   1
_chemical_formula_structural   K3V(PO4)2
_chemical_formula_sum   'K24 V8 P16 O64'
_cell_volume   1722.02929404
_cell_formula_units_Z   8
loop_
 _symmetry_equiv_pos_site_id
 _symmetry_equiv_pos_as_xyz
  1  'x, y, z'
loop_
 _atom_site_type_symbol
 _atom_site_label
 _atom_site_symmetry_multiplicity
 _atom_site_fract_x
 _atom_site_fract_y
 _atom_site_fract_z
 _atom_site_occupancy
  K  K0  1  0.885365  0.077428  0.319113  1
  K  K1  1  0.297133  0.619842  0.007274  1
  K  K2  1  0.815972  0.361020  0.259572  1
  K  K3  1  0.261049  0.099872  0.001218  1
  K  K4  1  0.315972  0.138980  0.759572  1
  K  K5  1  0.596420  0.118235  0.579148  1
  K  K6  1  0.702867  0.380158  0.992726  1
  K  K7  1  0.293162  0.597849  0.254366  1
  K  K8  1  0.385365  0.422572  0.819113  1
  K  K9  1  0.706838  0.402151  0.745634  1
  K  K10  1  0.797133  0.880158  0.507274  1
  K  K11  1  0.761049  0.400128  0.501218  1
  K  K12  1  0.684028  0.861020  0.240428  1
  K  K13  1  0.184028  0.638980  0.740428  1
  K  K14  1  0.238951  0.599872  0.498782  1
  K  K15  1  0.096420  0.381765  0.079148  1
  K  K16  1  0.793162  0.902151  0.754366  1
  K  K17  1  0.114635  0.922572  0.680887  1
  K  K18  1  0.614635  0.577428  0.180887  1
  K  K19  1  0.202867  0.119842  0.492726  1
  K  K20  1  0.206838  0.097849  0.245634  1
  K  K21  1  0.738951  0.900128  0.998782  1
  K  K22  1  0.903580  0.618235  0.920852  1
  K  K23  1  0.403580  0.881765  0.420852  1
  V  V24  1  0.578335  0.131262  0.131759  1
  V  V25  1  0.078335  0.368738  0.631759  1
  V  V26  1  0.075061  0.844059  0.113776  1
  V  V27  1  0.424939  0.344059  0.386224  1
  V  V28  1  0.924939  0.155941  0.886224  1
  V  V29  1  0.921665  0.631262  0.368241  1
  V  V30  1  0.575061  0.655941  0.613776  1
  V  V31  1  0.421665  0.868738  0.868241  1
  P  P32  1  0.435696  0.861075  0.646034  1
  P  P33  1  0.423304  0.376697  0.600016  1
  P  P34  1  0.064304  0.361075  0.853966  1
  P  P35  1  0.923304  0.123303  0.100016  1
  P  P36  1  0.080318  0.360087  0.408349  1
  P  P37  1  0.419682  0.860087  0.091651  1
  P  P38  1  0.076696  0.876697  0.899984  1
  P  P39  1  0.919682  0.639913  0.591651  1
  P  P40  1  0.580318  0.139913  0.908349  1
  P  P41  1  0.935696  0.638925  0.146034  1
  P  P42  1  0.576696  0.623303  0.399984  1
  P  P43  1  0.442739  0.336535  0.164392  1
  P  P44  1  0.057261  0.836535  0.335608  1
  P  P45  1  0.564304  0.138925  0.353966  1
  P  P46  1  0.942739  0.163465  0.664392  1
  P  P47  1  0.557261  0.663465  0.835608  1
  O  O48  1  0.126066  0.456711  0.912466  1
  O  O49  1  0.450526  0.742227  0.135463  1
  O  O50  1  0.939480  0.655744  0.493359  1
  O  O51  1  0.601660  0.316519  0.147748  1
  O  O52  1  0.475636  0.518095  0.406797  1
  O  O53  1  0.118739  0.932263  0.393320  1
  O  O54  1  0.382588  0.209621  0.147147  1
  O  O55  1  0.373934  0.956711  0.587534  1
  O  O56  1  0.478320  0.042535  0.877655  1
  O  O57  1  0.898340  0.816519  0.352252  1
  O  O58  1  0.594733  0.846388  0.634804  1
  O  O59  1  0.521680  0.957465  0.122345  1
  O  O60  1  0.423961  0.306627  0.512870  1
  O  O61  1  0.924150  0.123087  0.758536  1
  O  O62  1  0.075850  0.876913  0.241464  1
  O  O63  1  0.021680  0.542535  0.622345  1
  O  O64  1  0.975636  0.981905  0.906797  1
  O  O65  1  0.777222  0.073393  0.119447  1
  O  O66  1  0.618739  0.567737  0.893320  1
  O  O67  1  0.882588  0.290379  0.647147  1
  O  O68  1  0.379835  0.733144  0.623538  1
  O  O69  1  0.970513  0.209056  0.170478  1
  O  O70  1  0.873934  0.543289  0.087534  1
  O  O71  1  0.560520  0.155744  0.006641  1
  O  O72  1  0.222778  0.926607  0.880553  1
  O  O73  1  0.770752  0.595963  0.609529  1
  O  O74  1  0.529487  0.709056  0.329522  1
  O  O75  1  0.524364  0.481905  0.593203  1
  O  O76  1  0.424150  0.376913  0.258536  1
  O  O77  1  0.395172  0.893691  0.739356  1
  O  O78  1  0.626066  0.043289  0.412466  1
  O  O79  1  0.277222  0.426607  0.619447  1
  O  O80  1  0.881261  0.067737  0.606680  1
  O  O81  1  0.117412  0.709621  0.352853  1
  O  O82  1  0.879835  0.766856  0.123538  1
  O  O83  1  0.575850  0.623087  0.741464  1
  O  O84  1  0.060520  0.344256  0.506641  1
  O  O85  1  0.270752  0.904037  0.109529  1
  O  O86  1  0.950526  0.757773  0.635463  1
  O  O87  1  0.604828  0.106309  0.260644  1
  O  O88  1  0.923961  0.193373  0.012870  1
  O  O89  1  0.549474  0.257773  0.864537  1
  O  O90  1  0.895172  0.606309  0.239356  1
  O  O91  1  0.381261  0.432263  0.106680  1
  O  O92  1  0.229248  0.404037  0.390471  1
  O  O93  1  0.620165  0.266856  0.376462  1
  O  O94  1  0.905267  0.346388  0.865196  1
  O  O95  1  0.094733  0.653612  0.134804  1
  O  O96  1  0.101660  0.183481  0.647748  1
  O  O97  1  0.076039  0.806627  0.987130  1
  O  O98  1  0.576039  0.693373  0.487130  1
  O  O99  1  0.120165  0.233144  0.876462  1
  O  O100  1  0.398340  0.683481  0.852252  1
  O  O101  1  0.024364  0.018095  0.093203  1
  O  O102  1  0.722778  0.573393  0.380553  1
  O  O103  1  0.049474  0.242227  0.364537  1
  O  O104  1  0.405267  0.153612  0.365196  1
  O  O105  1  0.729248  0.095963  0.890471  1
  O  O106  1  0.104828  0.393691  0.760644  1
  O  O107  1  0.978320  0.457465  0.377655  1
  O  O108  1  0.029487  0.790944  0.829522  1
  O  O109  1  0.439480  0.844256  0.993359  1
  O  O110  1  0.470513  0.290944  0.670478  1
  O  O111  1  0.617412  0.790379  0.852853  1
