# generated using pymatgen
data_SnHg6(P2Cl3)2
_symmetry_space_group_name_H-M   'P 1'
_cell_length_a   12.13392049
_cell_length_b   12.13392049
_cell_length_c   12.13392049
_cell_angle_alpha   90.00000000
_cell_angle_beta   90.00000000
_cell_angle_gamma   90.00000000
_symmetry_Int_Tables_number   1
_chemical_formula_structural   SnHg6(P2Cl3)2
_chemical_formula_sum   'Sn4 Hg24 P16 Cl24'
_cell_volume   1786.50170262
_cell_formula_units_Z   4
loop_
 _symmetry_equiv_pos_site_id
 _symmetry_equiv_pos_as_xyz
  1  'x, y, z'
loop_
 _atom_site_type_symbol
 _atom_site_label
 _atom_site_symmetry_multiplicity
 _atom_site_fract_x
 _atom_site_fract_y
 _atom_site_fract_z
 _atom_site_occupancy
  Sn  Sn0  1  0.724894  0.724894  0.724894  1
  Sn  Sn1  1  0.775106  0.275106  0.224894  1
  Sn  Sn2  1  0.224894  0.775106  0.275106  1
  Sn  Sn3  1  0.275106  0.224894  0.775106  1
  Hg  Hg4  1  0.971302  0.016403  0.761701  1
  Hg  Hg5  1  0.974786  0.764514  0.461366  1
  Hg  Hg6  1  0.528698  0.983597  0.261701  1
  Hg  Hg7  1  0.483597  0.238299  0.471302  1
  Hg  Hg8  1  0.738299  0.028698  0.516403  1
  Hg  Hg9  1  0.261701  0.528698  0.983597  1
  Hg  Hg10  1  0.983597  0.261701  0.528698  1
  Hg  Hg11  1  0.028698  0.516403  0.738299  1
  Hg  Hg12  1  0.025214  0.264514  0.038634  1
  Hg  Hg13  1  0.525214  0.235486  0.961366  1
  Hg  Hg14  1  0.516403  0.738299  0.028698  1
  Hg  Hg15  1  0.238299  0.471302  0.483597  1
  Hg  Hg16  1  0.264514  0.038634  0.025214  1
  Hg  Hg17  1  0.016403  0.761701  0.971302  1
  Hg  Hg18  1  0.538634  0.474786  0.735486  1
  Hg  Hg19  1  0.474786  0.735486  0.538634  1
  Hg  Hg20  1  0.038634  0.025214  0.264514  1
  Hg  Hg21  1  0.761701  0.971302  0.016403  1
  Hg  Hg22  1  0.735486  0.538634  0.474786  1
  Hg  Hg23  1  0.461366  0.974786  0.764514  1
  Hg  Hg24  1  0.235486  0.961366  0.525214  1
  Hg  Hg25  1  0.471302  0.483597  0.238299  1
  Hg  Hg26  1  0.764514  0.461366  0.974786  1
  Hg  Hg27  1  0.961366  0.525214  0.235486  1
  P  P28  1  0.436319  0.936319  0.563681  1
  P  P29  1  0.564720  0.935280  0.064720  1
  P  P30  1  0.959033  0.959033  0.959033  1
  P  P31  1  0.540462  0.540462  0.540462  1
  P  P32  1  0.936319  0.563681  0.436319  1
  P  P33  1  0.435280  0.435280  0.435280  1
  P  P34  1  0.459033  0.540967  0.040967  1
  P  P35  1  0.040967  0.459033  0.540967  1
  P  P36  1  0.563681  0.436319  0.936319  1
  P  P37  1  0.935280  0.064720  0.564720  1
  P  P38  1  0.063681  0.063681  0.063681  1
  P  P39  1  0.459538  0.040462  0.959538  1
  P  P40  1  0.064720  0.564720  0.935280  1
  P  P41  1  0.959538  0.459538  0.040462  1
  P  P42  1  0.040462  0.959538  0.459538  1
  P  P43  1  0.540967  0.040967  0.459033  1
  Cl  Cl44  1  0.028284  0.264550  0.297776  1
  Cl  Cl45  1  0.528284  0.235450  0.702224  1
  Cl  Cl46  1  0.742987  0.292046  0.439444  1
  Cl  Cl47  1  0.060556  0.257013  0.792046  1
  Cl  Cl48  1  0.707954  0.939444  0.757013  1
  Cl  Cl49  1  0.292046  0.439444  0.742987  1
  Cl  Cl50  1  0.257013  0.792046  0.060556  1
  Cl  Cl51  1  0.735450  0.797776  0.471716  1
  Cl  Cl52  1  0.702224  0.528284  0.235450  1
  Cl  Cl53  1  0.797776  0.471716  0.735450  1
  Cl  Cl54  1  0.757013  0.707954  0.939444  1
  Cl  Cl55  1  0.242987  0.207954  0.560556  1
  Cl  Cl56  1  0.439444  0.742987  0.292046  1
  Cl  Cl57  1  0.971716  0.764550  0.202224  1
  Cl  Cl58  1  0.235450  0.702224  0.528284  1
  Cl  Cl59  1  0.764550  0.202224  0.971716  1
  Cl  Cl60  1  0.471716  0.735450  0.797776  1
  Cl  Cl61  1  0.792046  0.060556  0.257013  1
  Cl  Cl62  1  0.297776  0.028284  0.264550  1
  Cl  Cl63  1  0.560556  0.242987  0.207954  1
  Cl  Cl64  1  0.939444  0.757013  0.707954  1
  Cl  Cl65  1  0.264550  0.297776  0.028284  1
  Cl  Cl66  1  0.202224  0.971716  0.764550  1
  Cl  Cl67  1  0.207954  0.560556  0.242987  1
