# generated using pymatgen
data_KTiPS5
_symmetry_space_group_name_H-M   'P 1'
_cell_length_a   6.57846728
_cell_length_b   7.17023685
_cell_length_c   9.68504049
_cell_angle_alpha   111.72614371
_cell_angle_beta   98.04526084
_cell_angle_gamma   90.00000367
_symmetry_Int_Tables_number   1
_chemical_formula_structural   KTiPS5
_chemical_formula_sum   'K2 Ti2 P2 S10'
_cell_volume   419.53954229
_cell_formula_units_Z   2
loop_
 _symmetry_equiv_pos_site_id
 _symmetry_equiv_pos_as_xyz
  1  'x, y, z'
loop_
 _atom_site_type_symbol
 _atom_site_label
 _atom_site_symmetry_multiplicity
 _atom_site_fract_x
 _atom_site_fract_y
 _atom_site_fract_z
 _atom_site_occupancy
  K  K0  1  0.734682  0.230966  0.461933  1
  K  K1  1  0.265318  0.769034  0.538067  1
  Ti  Ti2  1  0.500000  0.778138  1.000000  1
  Ti  Ti3  1  0.500000  0.221862  0.000000  1
  P  P4  1  0.708138  0.631919  0.263839  1
  P  P5  1  0.291862  0.368081  0.736161  1
  S  S6  1  0.176770  0.646938  0.829489  1
  S  S7  1  0.245169  0.255655  0.511311  1
  S  S8  1  0.823230  0.353062  0.170511  1
  S  S9  1  0.398886  0.583980  0.167960  1
  S  S10  1  0.823230  0.817449  0.170511  1
  S  S11  1  0.330947  0.060063  0.120127  1
  S  S12  1  0.669053  0.939937  0.879873  1
  S  S13  1  0.601114  0.416020  0.832040  1
  S  S14  1  0.176770  0.182551  0.829489  1
  S  S15  1  0.754831  0.744345  0.488689  1
