# generated using pymatgen
data_Ba5Fe5O14
_symmetry_space_group_name_H-M   'P 1'
_cell_length_a   5.87406248
_cell_length_b   5.87406282
_cell_length_c   24.52782661
_cell_angle_alpha   90.00000000
_cell_angle_beta   90.00000000
_cell_angle_gamma   119.82831599
_symmetry_Int_Tables_number   1
_chemical_formula_structural   Ba5Fe5O14
_chemical_formula_sum   'Ba10 Fe10 O28'
_cell_volume   734.20203019
_cell_formula_units_Z   2
loop_
 _symmetry_equiv_pos_site_id
 _symmetry_equiv_pos_as_xyz
  1  'x, y, z'
loop_
 _atom_site_type_symbol
 _atom_site_label
 _atom_site_symmetry_multiplicity
 _atom_site_fract_x
 _atom_site_fract_y
 _atom_site_fract_z
 _atom_site_occupancy
  Ba  Ba0  1  0.332596  0.667404  0.960680  1
  Ba  Ba1  1  0.667404  0.332596  0.460680  1
  Ba  Ba2  1  0.667404  0.332596  0.039320  1
  Ba  Ba3  1  0.332596  0.667404  0.539320  1
  Ba  Ba4  1  0.959799  0.040201  0.750000  1
  Ba  Ba5  1  0.040201  0.959799  0.250000  1
  Ba  Ba6  1  0.653882  0.346118  0.857738  1
  Ba  Ba7  1  0.346118  0.653882  0.357738  1
  Ba  Ba8  1  0.346118  0.653882  0.142262  1
  Ba  Ba9  1  0.653882  0.346118  0.642262  1
  Fe  Fe10  1  0.989467  0.010533  0.892886  1
  Fe  Fe11  1  0.010533  0.989467  0.392886  1
  Fe  Fe12  1  0.010533  0.989467  0.107114  1
  Fe  Fe13  1  0.989467  0.010533  0.607114  1
  Fe  Fe14  1  0.000000  0.000000  0.000000  1
  Fe  Fe15  1  0.000000  0.000000  0.500000  1
  Fe  Fe16  1  0.319443  0.680557  0.820122  1
  Fe  Fe17  1  0.680557  0.319443  0.320122  1
  Fe  Fe18  1  0.680557  0.319443  0.179878  1
  Fe  Fe19  1  0.319443  0.680557  0.679878  1
  O  O20  1  0.392551  0.607449  0.750000  1
  O  O21  1  0.607449  0.392551  0.250000  1
  O  O22  1  0.706141  0.293859  0.750000  1
  O  O23  1  0.293859  0.706141  0.250000  1
  O  O24  1  0.847794  0.152206  0.955409  1
  O  O25  1  0.152206  0.847794  0.455409  1
  O  O26  1  0.152206  0.847794  0.044591  1
  O  O27  1  0.847794  0.152206  0.544591  1
  O  O28  1  0.849562  0.708146  0.950503  1
  O  O29  1  0.150438  0.291854  0.450503  1
  O  O30  1  0.708146  0.849562  0.049497  1
  O  O31  1  0.291854  0.150438  0.549497  1
  O  O32  1  0.150438  0.291854  0.049497  1
  O  O33  1  0.849562  0.708146  0.549497  1
  O  O34  1  0.291854  0.150438  0.950503  1
  O  O35  1  0.708146  0.849562  0.450503  1
  O  O36  1  0.651378  0.857939  0.853681  1
  O  O37  1  0.348622  0.142061  0.353681  1
  O  O38  1  0.857939  0.651378  0.146319  1
  O  O39  1  0.142061  0.348622  0.646319  1
  O  O40  1  0.348622  0.142061  0.146319  1
  O  O41  1  0.651378  0.857939  0.646319  1
  O  O42  1  0.142061  0.348622  0.853681  1
  O  O43  1  0.857939  0.651378  0.353681  1
  O  O44  1  0.141232  0.858768  0.840473  1
  O  O45  1  0.858768  0.141232  0.340473  1
  O  O46  1  0.858768  0.141232  0.159527  1
  O  O47  1  0.141232  0.858768  0.659527  1
