# generated using pymatgen
data_W8O21
_symmetry_space_group_name_H-M   'P 1'
_cell_length_a   3.85741596
_cell_length_b   18.42037693
_cell_length_c   21.94028764
_cell_angle_alpha   90.00000000
_cell_angle_beta   90.00000000
_cell_angle_gamma   90.00000000
_symmetry_Int_Tables_number   1
_chemical_formula_structural   W8O21
_chemical_formula_sum   'W32 O84'
_cell_volume   1558.96836602
_cell_formula_units_Z   4
loop_
 _symmetry_equiv_pos_site_id
 _symmetry_equiv_pos_as_xyz
  1  'x, y, z'
loop_
 _atom_site_type_symbol
 _atom_site_label
 _atom_site_symmetry_multiplicity
 _atom_site_fract_x
 _atom_site_fract_y
 _atom_site_fract_z
 _atom_site_occupancy
  W  W0  1  0.000000  0.411052  0.273653  1
  W  W1  1  0.000000  0.911052  0.226347  1
  W  W2  1  0.000000  0.909979  0.753568  1
  W  W3  1  0.000000  0.145164  0.942384  1
  W  W4  1  0.000000  0.645164  0.557616  1
  W  W5  1  0.000000  0.777360  0.652505  1
  W  W6  1  0.000000  0.854836  0.057616  1
  W  W7  1  0.000000  0.341409  0.013120  1
  W  W8  1  0.000000  0.088948  0.773653  1
  W  W9  1  0.000000  0.557193  0.404367  1
  W  W10  1  0.000000  0.588948  0.726347  1
  W  W11  1  0.000000  0.658591  0.986880  1
  W  W12  1  0.000000  0.987256  0.613092  1
  W  W13  1  0.000000  0.251888  0.667188  1
  W  W14  1  0.000000  0.090021  0.246432  1
  W  W15  1  0.000000  0.512744  0.113092  1
  W  W16  1  0.000000  0.442807  0.595633  1
  W  W17  1  0.000000  0.277360  0.847495  1
  W  W18  1  0.000000  0.748112  0.332812  1
  W  W19  1  0.000000  0.354836  0.442384  1
  W  W20  1  0.000000  0.942807  0.904367  1
  W  W21  1  0.000000  0.722640  0.152505  1
  W  W22  1  0.000000  0.222640  0.347495  1
  W  W23  1  0.000000  0.248112  0.167188  1
  W  W24  1  0.000000  0.012744  0.386908  1
  W  W25  1  0.000000  0.841409  0.486880  1
  W  W26  1  0.000000  0.158591  0.513120  1
  W  W27  1  0.000000  0.487256  0.886908  1
  W  W28  1  0.000000  0.057193  0.095633  1
  W  W29  1  0.000000  0.409979  0.746432  1
  W  W30  1  0.000000  0.590021  0.253568  1
  W  W31  1  0.000000  0.751888  0.832812  1
  O  O32  1  0.000000  0.990805  0.818880  1
  O  O33  1  0.000000  0.574689  0.047480  1
  O  O34  1  0.000000  0.260167  0.941381  1
  O  O35  1  0.000000  0.335629  0.208258  1
  O  O36  1  0.000000  0.535485  0.564369  1
  O  O37  1  0.500000  0.512132  0.119352  1
  O  O38  1  0.500000  0.089857  0.246035  1
  O  O39  1  0.500000  0.441009  0.598821  1
  O  O40  1  0.000000  0.362287  0.660208  1
  O  O41  1  0.000000  0.490805  0.681120  1
  O  O42  1  0.000000  0.271609  0.085422  1
  O  O43  1  0.000000  0.164371  0.708258  1
  O  O44  1  0.500000  0.756763  0.830821  1
  O  O45  1  0.500000  0.277194  0.847704  1
  O  O46  1  0.000000  0.798338  0.744148  1
  O  O47  1  0.500000  0.146186  0.941420  1
  O  O48  1  0.500000  0.743237  0.330821  1
  O  O49  1  0.500000  0.222806  0.347704  1
  O  O50  1  0.000000  0.876065  0.967890  1
  O  O51  1  0.000000  0.376065  0.532110  1
  O  O52  1  0.500000  0.558991  0.401179  1
  O  O53  1  0.000000  0.771609  0.414578  1
  O  O54  1  0.000000  0.921282  0.422467  1
  O  O55  1  0.500000  0.941009  0.901179  1
  O  O56  1  0.000000  0.835629  0.291742  1
  O  O57  1  0.000000  0.421282  0.077533  1
  O  O58  1  0.000000  0.739833  0.058619  1
  O  O59  1  0.500000  0.722806  0.152296  1
  O  O60  1  0.500000  0.409444  0.276714  1
  O  O61  1  0.000000  0.009567  0.707185  1
  O  O62  1  0.000000  0.137713  0.160208  1
  O  O63  1  0.500000  0.256763  0.669179  1
  O  O64  1  0.500000  0.012132  0.380648  1
  O  O65  1  0.000000  0.123935  0.032110  1
  O  O66  1  0.500000  0.243237  0.169179  1
  O  O67  1  0.500000  0.487868  0.880648  1
  O  O68  1  0.500000  0.589857  0.253965  1
  O  O69  1  0.000000  0.623935  0.467890  1
  O  O70  1  0.000000  0.888234  0.662306  1
  O  O71  1  0.500000  0.646186  0.558580  1
  O  O72  1  0.500000  0.853814  0.058580  1
  O  O73  1  0.000000  0.862287  0.839792  1
  O  O74  1  0.000000  0.228391  0.585422  1
  O  O75  1  0.000000  0.298338  0.755852  1
  O  O76  1  0.500000  0.161041  0.511168  1
  O  O77  1  0.000000  0.664332  0.652470  1
  O  O78  1  0.500000  0.410143  0.746035  1
  O  O79  1  0.000000  0.009195  0.181120  1
  O  O80  1  0.500000  0.338959  0.011168  1
  O  O81  1  0.000000  0.578718  0.922467  1
  O  O82  1  0.500000  0.909443  0.223286  1
  O  O83  1  0.000000  0.078718  0.577533  1
  O  O84  1  0.000000  0.425311  0.952520  1
  O  O85  1  0.000000  0.925311  0.547480  1
  O  O86  1  0.500000  0.777194  0.652296  1
  O  O87  1  0.000000  0.388234  0.837694  1
  O  O88  1  0.500000  0.090556  0.776714  1
  O  O89  1  0.000000  0.074689  0.452520  1
  O  O90  1  0.000000  0.164332  0.847530  1
  O  O91  1  0.000000  0.335668  0.347530  1
  O  O92  1  0.000000  0.664371  0.791742  1
  O  O93  1  0.000000  0.509195  0.318880  1
  O  O94  1  0.000000  0.990433  0.292815  1
  O  O95  1  0.000000  0.728391  0.914578  1
  O  O96  1  0.000000  0.637713  0.339792  1
  O  O97  1  0.000000  0.835668  0.152470  1
  O  O98  1  0.000000  0.111766  0.337694  1
  O  O99  1  0.000000  0.239833  0.441381  1
  O  O100  1  0.000000  0.701662  0.244148  1
  O  O101  1  0.500000  0.661041  0.988832  1
  O  O102  1  0.500000  0.987868  0.619352  1
  O  O103  1  0.500000  0.838959  0.488832  1
  O  O104  1  0.000000  0.035485  0.935631  1
  O  O105  1  0.000000  0.509567  0.792815  1
  O  O106  1  0.000000  0.464515  0.435631  1
  O  O107  1  0.500000  0.353814  0.441420  1
  O  O108  1  0.000000  0.611766  0.162306  1
  O  O109  1  0.000000  0.201662  0.255852  1
  O  O110  1  0.000000  0.760167  0.558619  1
  O  O111  1  0.000000  0.490433  0.207185  1
  O  O112  1  0.000000  0.964515  0.064369  1
  O  O113  1  0.500000  0.058991  0.098821  1
  O  O114  1  0.500000  0.910143  0.753965  1
  O  O115  1  0.500000  0.590557  0.723286  1
