# generated using pymatgen
data_Cs3CuTeS9
_symmetry_space_group_name_H-M   'P 1'
_cell_length_a   12.32958370
_cell_length_b   12.86587982
_cell_length_c   12.86587930
_cell_angle_alpha   116.47800751
_cell_angle_beta   90.00000000
_cell_angle_gamma   90.00000000
_symmetry_Int_Tables_number   1
_chemical_formula_structural   Cs3CuTeS9
_chemical_formula_sum   'Cs12 Cu4 Te4 S36'
_cell_volume   1826.84471621
_cell_formula_units_Z   4
loop_
 _symmetry_equiv_pos_site_id
 _symmetry_equiv_pos_as_xyz
  1  'x, y, z'
loop_
 _atom_site_type_symbol
 _atom_site_label
 _atom_site_symmetry_multiplicity
 _atom_site_fract_x
 _atom_site_fract_y
 _atom_site_fract_z
 _atom_site_occupancy
  Cs  Cs0  1  0.823773  0.553459  0.854132  1
  Cs  Cs1  1  0.334045  0.536245  0.536245  1
  Cs  Cs2  1  0.823773  0.854132  0.553459  1
  Cs  Cs3  1  0.676227  0.053459  0.354132  1
  Cs  Cs4  1  0.176227  0.446541  0.145868  1
  Cs  Cs5  1  0.323773  0.946541  0.645868  1
  Cs  Cs6  1  0.165955  0.036245  0.036245  1
  Cs  Cs7  1  0.665955  0.463755  0.463755  1
  Cs  Cs8  1  0.176227  0.145868  0.446541  1
  Cs  Cs9  1  0.676227  0.354132  0.053459  1
  Cs  Cs10  1  0.834045  0.963755  0.963755  1
  Cs  Cs11  1  0.323773  0.645868  0.946541  1
  Cu  Cu12  1  0.000000  0.568173  0.431827  1
  Cu  Cu13  1  0.500000  0.068173  0.931827  1
  Cu  Cu14  1  0.000000  0.431827  0.568173  1
  Cu  Cu15  1  0.500000  0.931827  0.068173  1
  Te  Te16  1  0.074823  0.731303  0.731303  1
  Te  Te17  1  0.574823  0.768697  0.768697  1
  Te  Te18  1  0.425177  0.231303  0.231303  1
  Te  Te19  1  0.925177  0.268697  0.268697  1
  S  S20  1  0.097332  0.832017  0.424333  1
  S  S21  1  0.544328  0.747375  0.579653  1
  S  S22  1  0.143739  0.682946  0.435168  1
  S  S23  1  0.455672  0.420347  0.252625  1
  S  S24  1  0.643739  0.064832  0.817054  1
  S  S25  1  0.402668  0.924333  0.332017  1
  S  S26  1  0.955672  0.247375  0.079653  1
  S  S27  1  0.419105  0.296796  0.751239  1
  S  S28  1  0.902668  0.575667  0.167983  1
  S  S29  1  0.544328  0.579653  0.747375  1
  S  S30  1  0.044328  0.752625  0.920347  1
  S  S31  1  0.919105  0.748761  0.203204  1
  S  S32  1  0.580895  0.703204  0.248761  1
  S  S33  1  0.580895  0.248761  0.703204  1
  S  S34  1  0.955672  0.079653  0.247375  1
  S  S35  1  0.080895  0.251239  0.796796  1
  S  S36  1  0.419105  0.751239  0.296796  1
  S  S37  1  0.856261  0.564832  0.317054  1
  S  S38  1  0.080689  0.382118  0.382118  1
  S  S39  1  0.597332  0.075667  0.667983  1
  S  S40  1  0.580689  0.117882  0.117882  1
  S  S41  1  0.097332  0.424333  0.832017  1
  S  S42  1  0.597332  0.667983  0.075667  1
  S  S43  1  0.356261  0.935168  0.182946  1
  S  S44  1  0.044328  0.920347  0.752625  1
  S  S45  1  0.419311  0.882118  0.882118  1
  S  S46  1  0.643739  0.817054  0.064832  1
  S  S47  1  0.455672  0.252625  0.420347  1
  S  S48  1  0.356261  0.182946  0.935168  1
  S  S49  1  0.143739  0.435168  0.682946  1
  S  S50  1  0.919311  0.617882  0.617882  1
  S  S51  1  0.402668  0.332017  0.924333  1
  S  S52  1  0.902668  0.167983  0.575667  1
  S  S53  1  0.919105  0.203204  0.748761  1
  S  S54  1  0.856261  0.317054  0.564832  1
  S  S55  1  0.080895  0.796796  0.251239  1
