# generated using pymatgen
data_SiO2
_symmetry_space_group_name_H-M   'P 1'
_cell_length_a   5.15137374
_cell_length_b   14.04005363
_cell_length_c   25.84398496
_cell_angle_alpha   90.00000000
_cell_angle_beta   90.00000000
_cell_angle_gamma   90.00000000
_symmetry_Int_Tables_number   1
_chemical_formula_structural   SiO2
_chemical_formula_sum   'Si32 O64'
_cell_volume   1869.18077733
_cell_formula_units_Z   32
loop_
 _symmetry_equiv_pos_site_id
 _symmetry_equiv_pos_as_xyz
  1  'x, y, z'
loop_
 _atom_site_type_symbol
 _atom_site_label
 _atom_site_symmetry_multiplicity
 _atom_site_fract_x
 _atom_site_fract_y
 _atom_site_fract_z
 _atom_site_occupancy
  Si  Si0  1  0.235740  0.500000  0.296249  1
  Si  Si1  1  0.756302  0.804070  0.858013  1
  Si  Si2  1  0.209768  0.209976  0.693194  1
  Si  Si3  1  0.195614  0.110875  0.036822  1
  Si  Si4  1  0.299058  0.803921  0.146520  1
  Si  Si5  1  0.246738  0.500000  0.777280  1
  Si  Si6  1  0.209768  0.790024  0.693194  1
  Si  Si7  1  0.308150  0.389114  0.468671  1
  Si  Si8  1  0.700942  0.303921  0.646520  1
  Si  Si9  1  0.266533  0.000000  0.727748  1
  Si  Si10  1  0.299058  0.196079  0.146520  1
  Si  Si11  1  0.804386  0.389125  0.536822  1
  Si  Si12  1  0.243698  0.304070  0.358013  1
  Si  Si13  1  0.261774  0.709241  0.810476  1
  Si  Si14  1  0.804386  0.610875  0.536822  1
  Si  Si15  1  0.744851  0.500000  0.708719  1
  Si  Si16  1  0.790232  0.709976  0.193194  1
  Si  Si17  1  0.764260  0.000000  0.796249  1
  Si  Si18  1  0.733467  0.500000  0.227748  1
  Si  Si19  1  0.790232  0.290024  0.193194  1
  Si  Si20  1  0.700942  0.696079  0.646520  1
  Si  Si21  1  0.308150  0.610885  0.468671  1
  Si  Si22  1  0.195614  0.889125  0.036822  1
  Si  Si23  1  0.738226  0.790759  0.310476  1
  Si  Si24  1  0.255149  0.000000  0.208719  1
  Si  Si25  1  0.243698  0.695930  0.358013  1
  Si  Si26  1  0.738226  0.209241  0.310476  1
  Si  Si27  1  0.691850  0.110885  0.968671  1
  Si  Si28  1  0.753262  0.000000  0.277280  1
  Si  Si29  1  0.756302  0.195930  0.858013  1
  Si  Si30  1  0.261774  0.290759  0.810476  1
  Si  Si31  1  0.691850  0.889115  0.968671  1
  O  O32  1  0.566642  0.000000  0.747316  1
  O  O33  1  0.764426  0.682066  0.585536  1
  O  O34  1  0.041883  0.235316  0.843376  1
  O  O35  1  0.065398  0.000000  0.776777  1
  O  O36  1  0.199168  0.595394  0.811752  1
  O  O37  1  0.706424  0.093761  0.830617  1
  O  O38  1  0.578527  0.751384  0.152360  1
  O  O39  1  0.199168  0.404606  0.811752  1
  O  O40  1  0.433358  0.500000  0.247316  1
  O  O41  1  0.311995  0.092743  0.173859  1
  O  O42  1  0.743038  0.818111  0.920308  1
  O  O43  1  0.764426  0.317934  0.585536  1
  O  O44  1  0.269328  0.252025  0.750897  1
  O  O45  1  0.311995  0.907257  0.173859  1
  O  O46  1  0.079439  0.260400  0.174643  1
  O  O47  1  0.730672  0.752025  0.250897  1
  O  O48  1  0.295736  0.500000  0.449247  1
  O  O49  1  0.706424  0.906239  0.830617  1
  O  O50  1  0.406689  0.864796  0.991992  1
  O  O51  1  0.228528  0.000000  0.055493  1
  O  O52  1  0.779840  0.594315  0.192776  1
  O  O53  1  0.688005  0.592743  0.673859  1
  O  O54  1  0.235574  0.182066  0.085536  1
  O  O55  1  0.406689  0.135204  0.991992  1
  O  O56  1  0.779840  0.405685  0.192776  1
  O  O57  1  0.269328  0.747975  0.750897  1
  O  O58  1  0.704264  0.000000  0.949247  1
  O  O59  1  0.041883  0.764684  0.843376  1
  O  O60  1  0.256962  0.318111  0.420308  1
  O  O61  1  0.547318  0.500000  0.757735  1
  O  O62  1  0.293576  0.406239  0.330617  1
  O  O63  1  0.093345  0.628536  0.513724  1
  O  O64  1  0.934602  0.500000  0.276777  1
  O  O65  1  0.093345  0.371464  0.513724  1
  O  O66  1  0.771472  0.500000  0.555493  1
  O  O67  1  0.688005  0.407257  0.673859  1
  O  O68  1  0.045790  0.500000  0.728257  1
  O  O69  1  0.743038  0.181889  0.920308  1
  O  O70  1  0.958117  0.735316  0.343376  1
  O  O71  1  0.459433  0.227947  0.338105  1
  O  O72  1  0.079439  0.739600  0.174643  1
  O  O73  1  0.220160  0.905685  0.692776  1
  O  O74  1  0.954210  0.000000  0.228257  1
  O  O75  1  0.421473  0.251384  0.652360  1
  O  O76  1  0.593311  0.364796  0.491992  1
  O  O77  1  0.293576  0.593761  0.330617  1
  O  O78  1  0.220160  0.094315  0.692776  1
  O  O79  1  0.920561  0.760400  0.674643  1
  O  O80  1  0.730672  0.247975  0.250897  1
  O  O81  1  0.540567  0.727947  0.838105  1
  O  O82  1  0.256962  0.681889  0.420308  1
  O  O83  1  0.906655  0.128536  0.013724  1
  O  O84  1  0.459433  0.772053  0.338105  1
  O  O85  1  0.800832  0.904606  0.311752  1
  O  O86  1  0.578527  0.248616  0.152360  1
  O  O87  1  0.540567  0.272053  0.838105  1
  O  O88  1  0.452682  0.000000  0.257735  1
  O  O89  1  0.235574  0.817934  0.085536  1
  O  O90  1  0.800832  0.095394  0.311752  1
  O  O91  1  0.958117  0.264684  0.343376  1
  O  O92  1  0.920561  0.239600  0.674643  1
  O  O93  1  0.593311  0.635204  0.491992  1
  O  O94  1  0.421473  0.748616  0.652360  1
  O  O95  1  0.906655  0.871464  0.013724  1
