# generated using pymatgen
data_C2SClO4F3
_symmetry_space_group_name_H-M   'P 1'
_cell_length_a   7.69927387
_cell_length_b   7.69204435
_cell_length_c   25.70921929
_cell_angle_alpha   90.00000000
_cell_angle_beta   90.00000000
_cell_angle_gamma   99.25233968
_symmetry_Int_Tables_number   1
_chemical_formula_structural   C2SClO4F3
_chemical_formula_sum   'C16 S8 Cl8 O32 F24'
_cell_volume   1502.77202372
_cell_formula_units_Z   8
loop_
 _symmetry_equiv_pos_site_id
 _symmetry_equiv_pos_as_xyz
  1  'x, y, z'
loop_
 _atom_site_type_symbol
 _atom_site_label
 _atom_site_symmetry_multiplicity
 _atom_site_fract_x
 _atom_site_fract_y
 _atom_site_fract_z
 _atom_site_occupancy
  C  C0  1  0.325135  0.242065  0.990780  1
  C  C1  1  0.586721  0.647107  0.261979  1
  C  C2  1  0.900608  0.165795  0.663747  1
  C  C3  1  0.139219  0.544990  0.093394  1
  C  C4  1  0.360781  0.955010  0.593394  1
  C  C5  1  0.599392  0.334205  0.163747  1
  C  C6  1  0.860781  0.455010  0.906606  1
  C  C7  1  0.099392  0.834205  0.336253  1
  C  C8  1  0.400608  0.665795  0.836253  1
  C  C9  1  0.639219  0.044990  0.406606  1
  C  C10  1  0.825135  0.742065  0.509220  1
  C  C11  1  0.174865  0.257935  0.490780  1
  C  C12  1  0.674865  0.757935  0.009220  1
  C  C13  1  0.086721  0.147107  0.238021  1
  C  C14  1  0.913279  0.852893  0.761979  1
  C  C15  1  0.413279  0.352893  0.738021  1
  S  S16  1  0.242475  0.369780  0.790012  1
  S  S17  1  0.257525  0.130220  0.290012  1
  S  S18  1  0.742475  0.869780  0.709988  1
  S  S19  1  0.364782  0.236364  0.535906  1
  S  S20  1  0.135218  0.263636  0.035906  1
  S  S21  1  0.757525  0.630220  0.209988  1
  S  S22  1  0.864782  0.736364  0.964094  1
  S  S23  1  0.635218  0.763636  0.464094  1
  Cl  Cl24  1  0.347145  0.869449  0.851225  1
  Cl  Cl25  1  0.652855  0.130551  0.148775  1
  Cl  Cl26  1  0.236206  0.755397  0.609144  1
  Cl  Cl27  1  0.847145  0.369449  0.648775  1
  Cl  Cl28  1  0.736206  0.255397  0.890856  1
  Cl  Cl29  1  0.152855  0.630551  0.351225  1
  Cl  Cl30  1  0.763794  0.244603  0.390856  1
  Cl  Cl31  1  0.263794  0.744603  0.109144  1
  O  O32  1  0.424775  0.160394  0.264720  1
  O  O33  1  0.784308  0.775031  0.665179  1
  O  O34  1  0.001667  0.514338  0.888595  1
  O  O35  1  0.633028  0.638859  0.422871  1
  O  O36  1  0.271280  0.035737  0.556308  1
  O  O37  1  0.866972  0.861141  0.922871  1
  O  O38  1  0.775304  0.085909  0.699113  1
  O  O39  1  0.215692  0.224969  0.334821  1
  O  O40  1  0.015409  0.721699  0.995365  1
  O  O41  1  0.228720  0.464263  0.056308  1
  O  O42  1  0.724696  0.414091  0.199113  1
  O  O43  1  0.976149  0.893651  0.352755  1
  O  O44  1  0.715692  0.724969  0.165179  1
  O  O45  1  0.523851  0.606349  0.852755  1
  O  O46  1  0.224696  0.914091  0.300887  1
  O  O47  1  0.575225  0.839606  0.735280  1
  O  O48  1  0.476149  0.393651  0.147245  1
  O  O49  1  0.984591  0.278301  0.004635  1
  O  O50  1  0.515409  0.221699  0.504635  1
  O  O51  1  0.023851  0.106349  0.647245  1
  O  O52  1  0.075225  0.339606  0.764720  1
  O  O53  1  0.484591  0.778301  0.495365  1
  O  O54  1  0.498333  0.985662  0.388595  1
  O  O55  1  0.284308  0.275031  0.834821  1
  O  O56  1  0.924775  0.660394  0.235280  1
  O  O57  1  0.501667  0.014338  0.611405  1
  O  O58  1  0.366972  0.361141  0.577129  1
  O  O59  1  0.728720  0.964263  0.443692  1
  O  O60  1  0.133028  0.138859  0.077129  1
  O  O61  1  0.771280  0.535737  0.943692  1
  O  O62  1  0.275304  0.585909  0.800887  1
  O  O63  1  0.998333  0.485662  0.111405  1
  F  F64  1  0.348339  0.375099  0.956560  1
  F  F65  1  0.890594  0.682914  0.776661  1
  F  F66  1  0.112646  0.044995  0.197416  1
  F  F67  1  0.848339  0.875099  0.543440  1
  F  F68  1  0.526882  0.760607  0.981851  1
  F  F69  1  0.109406  0.317086  0.223339  1
  F  F70  1  0.609406  0.817086  0.276661  1
  F  F71  1  0.651661  0.624901  0.043440  1
  F  F72  1  0.612646  0.544995  0.302584  1
  F  F73  1  0.076115  0.900855  0.742860  1
  F  F74  1  0.887354  0.955005  0.802584  1
  F  F75  1  0.719956  0.912223  0.034348  1
  F  F76  1  0.973118  0.739393  0.481851  1
  F  F77  1  0.423885  0.599145  0.242860  1
  F  F78  1  0.780044  0.587777  0.534348  1
  F  F79  1  0.390594  0.182914  0.723339  1
  F  F80  1  0.219956  0.412223  0.465652  1
  F  F81  1  0.576115  0.400855  0.757140  1
  F  F82  1  0.473118  0.239393  0.018149  1
  F  F83  1  0.923885  0.099145  0.257140  1
  F  F84  1  0.280044  0.087777  0.965652  1
  F  F85  1  0.387354  0.455005  0.697416  1
  F  F86  1  0.151661  0.124901  0.456560  1
  F  F87  1  0.026882  0.260607  0.518149  1
