# generated using pymatgen
data_Ti3(BiO3)4
_symmetry_space_group_name_H-M   'P 1'
_cell_length_a   5.43020651
_cell_length_b   5.49598955
_cell_length_c   17.00772813
_cell_angle_alpha   90.08359200
_cell_angle_beta   99.18596634
_cell_angle_gamma   89.99999924
_symmetry_Int_Tables_number   1
_chemical_formula_structural   Ti3(BiO3)4
_chemical_formula_sum   'Ti6 Bi8 O24'
_cell_volume   501.07461060
_cell_formula_units_Z   2
loop_
 _symmetry_equiv_pos_site_id
 _symmetry_equiv_pos_as_xyz
  1  'x, y, z'
loop_
 _atom_site_type_symbol
 _atom_site_label
 _atom_site_symmetry_multiplicity
 _atom_site_fract_x
 _atom_site_fract_y
 _atom_site_fract_z
 _atom_site_occupancy
  Ti  Ti0  1  0.006564  0.480789  0.003876  1
  Ti  Ti1  1  0.131647  0.471474  0.256671  1
  Ti  Ti2  1  0.368905  0.976106  0.741583  1
  Ti  Ti3  1  0.872679  0.476106  0.741583  1
  Ti  Ti4  1  0.625024  0.971474  0.256671  1
  Ti  Ti5  1  0.497313  0.980789  0.003876  1
  Bi  Bi6  1  0.719388  0.539616  0.419519  1
  Bi  Bi7  1  0.787954  0.032015  0.573369  1
  Bi  Bi8  1  0.200131  0.039616  0.419519  1
  Bi  Bi9  1  0.437924  0.525002  0.866004  1
  Bi  Bi10  1  0.285415  0.532015  0.573369  1
  Bi  Bi11  1  0.569832  0.517844  0.132469  1
  Bi  Bi12  1  0.062637  0.017844  0.132469  1
  Bi  Bi13  1  0.928080  0.025001  0.866004  1
  O  O14  1  0.725254  0.231671  0.025079  1
  O  O15  1  0.274120  0.970521  0.637721  1
  O  O16  1  0.323592  0.152532  0.251594  1
  O  O17  1  0.481065  0.928326  0.120145  1
  O  O18  1  0.997741  0.262932  0.498755  1
  O  O19  1  0.874389  0.433734  0.889168  1
  O  O20  1  0.139080  0.428326  0.120145  1
  O  O21  1  0.894198  0.730842  0.221688  1
  O  O22  1  0.514779  0.933734  0.889168  1
  O  O23  1  0.739201  0.960502  0.361604  1
  O  O24  1  0.120378  0.730784  0.778337  1
  O  O25  1  0.863601  0.470521  0.637721  1
  O  O26  1  0.198217  0.153859  0.987621  1
  O  O27  1  0.591787  0.677135  0.755359  1
  O  O28  1  0.428002  0.652532  0.251594  1
  O  O29  1  0.497324  0.266617  0.498238  1
  O  O30  1  0.157959  0.230784  0.778337  1
  O  O31  1  0.122403  0.460502  0.361604  1
  O  O32  1  0.289405  0.653859  0.987621  1
  O  O33  1  0.001014  0.762932  0.498755  1
  O  O34  1  0.827490  0.230842  0.221688  1
  O  O35  1  0.500914  0.766617  0.498238  1
  O  O36  1  0.663572  0.177135  0.755359  1
  O  O37  1  0.799826  0.731671  0.025079  1
