# generated using pymatgen
data_FeH44C12(N5O8)2
_symmetry_space_group_name_H-M   'P 1'
_cell_length_a   9.19381838
_cell_length_b   9.45104322
_cell_length_c   9.83669559
_cell_angle_alpha   88.17706037
_cell_angle_beta   75.73606059
_cell_angle_gamma   61.18885804
_symmetry_Int_Tables_number   1
_chemical_formula_structural   FeH44C12(N5O8)2
_chemical_formula_sum   'Fe1 H44 C12 N10 O16'
_cell_volume   722.01714025
_cell_formula_units_Z   1
loop_
 _symmetry_equiv_pos_site_id
 _symmetry_equiv_pos_as_xyz
  1  'x, y, z'
loop_
 _atom_site_type_symbol
 _atom_site_label
 _atom_site_symmetry_multiplicity
 _atom_site_fract_x
 _atom_site_fract_y
 _atom_site_fract_z
 _atom_site_occupancy
  Fe  Fe0  1  0.000000  0.000000  0.000000  1
  H  H1  1  0.435277  0.545626  0.851384  1
  H  H2  1  0.765186  0.225714  0.864054  1
  H  H3  1  0.546127  0.816293  0.997276  1
  H  H4  1  0.234814  0.774286  0.135946  1
  H  H5  1  0.164052  0.369793  0.001151  1
  H  H6  1  0.720122  0.959810  0.122804  1
  H  H7  1  0.408788  0.317549  0.304332  1
  H  H8  1  0.279878  0.040190  0.877196  1
  H  H9  1  0.859608  0.501519  0.684602  1
  H  H10  1  0.167807  0.321503  0.298134  1
  H  H11  1  0.028446  0.167950  0.216648  1
  H  H12  1  0.295704  0.847809  0.358732  1
  H  H13  1  0.046351  0.843939  0.240090  1
  H  H14  1  0.591212  0.682451  0.695668  1
  H  H15  1  0.953649  0.156061  0.759910  1
  H  H16  1  0.496643  0.724698  0.571149  1
  H  H17  1  0.503357  0.275302  0.428851  1
  H  H18  1  0.909066  0.624905  0.153043  1
  H  H19  1  0.600891  0.046981  0.849247  1
  H  H20  1  0.631032  0.366283  0.644485  1
  H  H21  1  0.357866  0.466264  0.004255  1
  H  H22  1  0.090005  0.694443  0.867224  1
  H  H23  1  0.564723  0.454374  0.148616  1
  H  H24  1  0.491273  0.946718  0.358648  1
  H  H25  1  0.909995  0.305557  0.132776  1
  H  H26  1  0.399109  0.953019  0.150753  1
  H  H27  1  0.453873  0.183707  0.002724  1
  H  H28  1  0.368968  0.633717  0.355515  1
  H  H29  1  0.140392  0.498481  0.315398  1
  H  H30  1  0.508727  0.053282  0.641352  1
  H  H31  1  0.090934  0.375095  0.846957  1
  H  H32  1  0.324578  0.869673  0.802697  1
  H  H33  1  0.290917  0.190856  0.638920  1
  H  H34  1  0.342945  0.551423  0.642925  1
  H  H35  1  0.704296  0.152191  0.641268  1
  H  H36  1  0.194802  0.480617  0.639052  1
  H  H37  1  0.642134  0.533736  0.995745  1
  H  H38  1  0.657055  0.448577  0.357075  1
  H  H39  1  0.709083  0.809144  0.361080  1
  H  H40  1  0.805198  0.519383  0.360948  1
  H  H41  1  0.832193  0.678497  0.701866  1
  H  H42  1  0.675422  0.130327  0.197303  1
  H  H43  1  0.971554  0.832050  0.783352  1
  H  H44  1  0.835948  0.630207  0.998849  1
  C  C45  1  0.405271  0.726286  0.319205  1
  C  C46  1  0.696048  0.539378  0.320672  1
  C  C47  1  0.601894  0.546033  0.111490  1
  C  C48  1  0.507764  0.830572  0.113033  1
  C  C49  1  0.492236  0.169428  0.886967  1
  C  C50  1  0.799391  0.642557  0.114620  1
  C  C51  1  0.601116  0.824601  0.321295  1
  C  C52  1  0.398106  0.453967  0.888510  1
  C  C53  1  0.303952  0.460622  0.679328  1
  C  C54  1  0.200609  0.357443  0.885380  1
  C  C55  1  0.398884  0.175399  0.678705  1
  C  C56  1  0.594729  0.273714  0.680795  1
  N  N57  1  0.654616  0.808700  0.165317  1
  N  N58  1  0.450266  0.296828  0.624523  1
  N  N59  1  0.059720  0.189232  0.495566  1
  N  N60  1  0.345384  0.191300  0.834683  1
  N  N61  1  0.546963  0.290084  0.837169  1
  N  N62  1  0.750730  0.517890  0.164448  1
  N  N63  1  0.940280  0.810768  0.504434  1
  N  N64  1  0.549734  0.703172  0.375477  1
  N  N65  1  0.453037  0.709916  0.162831  1
  N  N66  1  0.249270  0.482110  0.835552  1
  O  O67  1  0.888397  0.186632  0.860572  1
  O  O68  1  0.911255  0.917247  0.418799  1
  O  O69  1  0.993528  0.186450  0.128249  1
  O  O70  1  0.250386  0.950317  0.887922  1
  O  O71  1  0.477094  0.724240  0.675701  1
  O  O72  1  0.213270  0.393703  0.256946  1
  O  O73  1  0.749614  0.049683  0.112078  1
  O  O74  1  0.786730  0.606297  0.743054  1
  O  O75  1  0.522906  0.275760  0.324299  1
  O  O76  1  0.138617  0.146508  0.364217  1
  O  O77  1  0.006472  0.813550  0.871751  1
  O  O78  1  0.088745  0.082753  0.581201  1
  O  O79  1  0.861383  0.853492  0.635783  1
  O  O80  1  0.111603  0.813368  0.139428  1
  O  O81  1  0.043706  0.662008  0.463993  1
  O  O82  1  0.956294  0.337992  0.536007  1
