# generated using pymatgen
data_BaCa(GaO2)4
_symmetry_space_group_name_H-M   'P 1'
_cell_length_a   5.23942474
_cell_length_b   6.76962978
_cell_length_c   6.76963032
_cell_angle_alpha   76.00734152
_cell_angle_beta   67.23327780
_cell_angle_gamma   67.23327649
_symmetry_Int_Tables_number   1
_chemical_formula_structural   BaCa(GaO2)4
_chemical_formula_sum   'Ba1 Ca1 Ga4 O8'
_cell_volume   202.95438504
_cell_formula_units_Z   1
loop_
 _symmetry_equiv_pos_site_id
 _symmetry_equiv_pos_as_xyz
  1  'x, y, z'
loop_
 _atom_site_type_symbol
 _atom_site_label
 _atom_site_symmetry_multiplicity
 _atom_site_fract_x
 _atom_site_fract_y
 _atom_site_fract_z
 _atom_site_occupancy
  Ba  Ba0  1  0.994630  0.000000  0.000000  1
  Ca  Ca1  1  0.067833  0.500000  0.500000  1
  Ga  Ga2  1  0.372630  0.458195  0.875522  1
  Ga  Ga3  1  0.706348  0.124478  0.541805  1
  Ga  Ga4  1  0.706348  0.541805  0.124478  1
  Ga  Ga5  1  0.372630  0.875522  0.458195  1
  O  O6  1  0.730841  0.871330  0.459871  1
  O  O7  1  0.062042  0.128670  0.540129  1
  O  O8  1  0.425763  0.191029  0.808971  1
  O  O9  1  0.425763  0.808971  0.191029  1
  O  O10  1  0.062042  0.540129  0.128670  1
  O  O11  1  0.730841  0.459871  0.871330  1
  O  O12  1  0.582214  0.329181  0.329181  1
  O  O13  1  0.240576  0.670819  0.670819  1
