# generated using pymatgen
data_Cr2(Co7B2)3
_symmetry_space_group_name_H-M   'P 1'
_cell_length_a   7.35243378
_cell_length_b   7.35243389
_cell_length_c   7.35243327
_cell_angle_alpha   59.99999832
_cell_angle_beta   59.99999786
_cell_angle_gamma   59.99999900
_symmetry_Int_Tables_number   1
_chemical_formula_structural   Cr2(Co7B2)3
_chemical_formula_sum   'Cr2 Co21 B6'
_cell_volume   281.04659492
_cell_formula_units_Z   1
loop_
 _symmetry_equiv_pos_site_id
 _symmetry_equiv_pos_as_xyz
  1  'x, y, z'
loop_
 _atom_site_type_symbol
 _atom_site_label
 _atom_site_symmetry_multiplicity
 _atom_site_fract_x
 _atom_site_fract_y
 _atom_site_fract_z
 _atom_site_occupancy
  Co  Co0  1  0.000000  0.000000  0.000000  1
  Co  Co1  1  0.379597  0.379597  0.379597  1
  Co  Co2  1  0.620403  0.620403  0.138792  1
  Co  Co3  1  0.138792  0.620403  0.620403  1
  Co  Co4  1  0.620403  0.138792  0.620403  1
  Co  Co5  1  0.861208  0.379597  0.379597  1
  Co  Co6  1  0.379597  0.861208  0.379597  1
  Co  Co7  1  0.379597  0.379597  0.861208  1
  Co  Co8  1  0.620403  0.620403  0.620403  1
  Co  Co9  1  0.338021  0.000000  1.000000  1
  Co  Co10  1  0.000000  0.000000  0.338021  1
  Co  Co11  1  0.338021  0.661979  0.000000  1
  Co  Co12  1  1.000000  0.338021  0.661979  1
  Co  Co13  1  0.000000  0.661979  0.338021  1
  Co  Co14  1  0.000000  0.338021  1.000000  1
  Co  Co15  1  0.338021  1.000000  0.661979  1
  Co  Co16  1  0.661979  0.338021  1.000000  1
  Co  Co17  1  1.000000  0.661979  0.000000  1
  Co  Co18  1  0.661979  0.000000  0.338021  1
  Co  Co19  1  1.000000  1.000000  0.661979  1
  Co  Co20  1  0.661979  1.000000  0.000000  1
  Cr  Cr21  1  0.250000  0.250000  0.250000  1
  Cr  Cr22  1  0.750000  0.750000  0.750000  1
  B  B23  1  0.723882  0.276118  0.276118  1
  B  B24  1  0.723882  0.723882  0.276118  1
  B  B25  1  0.276118  0.276118  0.723882  1
  B  B26  1  0.723882  0.276118  0.723882  1
  B  B27  1  0.276118  0.723882  0.276118  1
  B  B28  1  0.276118  0.723882  0.723882  1
