# generated using pymatgen
data_Ca3SiBr2
_symmetry_space_group_name_H-M   'P 1'
_cell_length_a   12.00093684
_cell_length_b   12.00093684
_cell_length_c   12.00093721
_cell_angle_alpha   19.94085066
_cell_angle_beta   19.94085062
_cell_angle_gamma   19.94085114
_symmetry_Int_Tables_number   1
_chemical_formula_structural   Ca3SiBr2
_chemical_formula_sum   'Ca3 Si1 Br2'
_cell_volume   175.86218089
_cell_formula_units_Z   1
loop_
 _symmetry_equiv_pos_site_id
 _symmetry_equiv_pos_as_xyz
  1  'x, y, z'
loop_
 _atom_site_type_symbol
 _atom_site_label
 _atom_site_symmetry_multiplicity
 _atom_site_fract_x
 _atom_site_fract_y
 _atom_site_fract_z
 _atom_site_occupancy
  Ca  Ca0  1  0.451076  0.451076  0.451076  1
  Ca  Ca1  1  0.572565  0.572565  0.572565  1
  Ca  Ca2  1  0.999448  0.999448  0.999448  1
  Si  Si3  1  0.286100  0.286100  0.286100  1
  Br  Br4  1  0.841407  0.841407  0.841407  1
  Br  Br5  1  0.728404  0.728404  0.728404  1
