# generated using pymatgen
data_Y5Ga3
_symmetry_space_group_name_H-M   'P 1'
_cell_length_a   8.62770048
_cell_length_b   8.62725449
_cell_length_c   6.62405572
_cell_angle_alpha   90.00000000
_cell_angle_beta   90.00000000
_cell_angle_gamma   119.99829118
_symmetry_Int_Tables_number   1
_chemical_formula_structural   Y5Ga3
_chemical_formula_sum   'Y10 Ga6'
_cell_volume   427.00184928
_cell_formula_units_Z   2
loop_
 _symmetry_equiv_pos_site_id
 _symmetry_equiv_pos_as_xyz
  1  'x, y, z'
loop_
 _atom_site_type_symbol
 _atom_site_label
 _atom_site_symmetry_multiplicity
 _atom_site_fract_x
 _atom_site_fract_y
 _atom_site_fract_z
 _atom_site_occupancy
  Y  Y0  1  0.751002  0.750989  0.250000  1
  Y  Y1  1  0.000000  0.249017  0.250000  1
  Y  Y2  1  0.751002  0.000012  0.750000  1
  Y  Y3  1  0.333322  0.666662  0.000000  1
  Y  Y4  1  0.248998  -0.000012  0.250000  1
  Y  Y5  1  0.666678  0.333338  -0.000000  1
  Y  Y6  1  -0.000000  0.750983  0.750000  1
  Y  Y7  1  0.333322  0.666662  0.500000  1
  Y  Y8  1  0.248998  0.249011  0.750000  1
  Y  Y9  1  0.666678  0.333338  0.500000  1
  Ga  Ga10  1  0.602977  0.602978  0.750000  1
  Ga  Ga11  1  0.397023  0.000001  0.750000  1
  Ga  Ga12  1  0.602977  -0.000001  0.250000  1
  Ga  Ga13  1  0.000000  0.397024  0.750000  1
  Ga  Ga14  1  0.397023  0.397022  0.250000  1
  Ga  Ga15  1  -0.000000  0.602976  0.250000  1
