# generated using pymatgen
data_Ba2MnO3
_symmetry_space_group_name_H-M   'P 1'
_cell_length_a   6.05853140
_cell_length_b   6.59448071
_cell_length_c   12.82793109
_cell_angle_alpha   88.42811121
_cell_angle_beta   86.57651033
_cell_angle_gamma   62.65393790
_symmetry_Int_Tables_number   1
_chemical_formula_structural   Ba2MnO3
_chemical_formula_sum   'Ba8 Mn4 O12'
_cell_volume   454.42603882
_cell_formula_units_Z   4
loop_
 _symmetry_equiv_pos_site_id
 _symmetry_equiv_pos_as_xyz
  1  'x, y, z'
loop_
 _atom_site_type_symbol
 _atom_site_label
 _atom_site_symmetry_multiplicity
 _atom_site_fract_x
 _atom_site_fract_y
 _atom_site_fract_z
 _atom_site_occupancy
  O  O0  1  0.741699  0.650926  0.271932  1
  O  O1  1  0.392625  0.349074  0.771932  1
  O  O2  1  0.229344  0.017662  0.652545  1
  O  O3  1  0.247006  0.982338  0.152545  1
  O  O4  1  0.921457  0.200434  0.935362  1
  O  O5  1  0.121891  0.799566  0.435362  1
  O  O6  1  0.636589  0.202869  0.152153  1
  O  O7  1  0.357049  0.198468  0.369203  1
  O  O8  1  0.736545  0.347645  0.532270  1
  O  O9  1  0.084190  0.652355  0.032270  1
  O  O10  1  0.555516  0.801532  0.869203  1
  O  O11  1  0.839458  0.797131  0.652153  1
  Mn  Mn12  1  0.967150  0.994175  0.065726  1
  Mn  Mn13  1  0.516665  0.992877  0.238720  1
  Mn  Mn14  1  0.961325  0.005825  0.565726  1
  Mn  Mn15  1  0.509543  0.007123  0.738720  1
  Ba  Ba16  1  0.367085  0.212265  0.977610  1
  Ba  Ba17  1  0.898568  0.210659  0.326680  1
  Ba  Ba18  1  0.109228  0.789341  0.826680  1
  Ba  Ba19  1  0.579349  0.787735  0.477610  1
  Ba  Ba20  1  0.267221  0.412876  0.552496  1
  Ba  Ba21  1  0.680096  0.587124  0.052496  1
  Ba  Ba22  1  0.796523  0.414352  0.751604  1
  Ba  Ba23  1  0.210875  0.585648  0.251604  1
