# generated using pymatgen
data_LiGeBO4
_symmetry_space_group_name_H-M   'P 1'
_cell_length_a   3.84318199
_cell_length_b   3.84318218
_cell_length_c   5.69491408
_cell_angle_alpha   110.40997138
_cell_angle_beta   110.41018076
_cell_angle_gamma   88.07838454
_symmetry_Int_Tables_number   1
_chemical_formula_structural   LiGeBO4
_chemical_formula_sum   'Li1 Ge1 B1 O4'
_cell_volume   73.51197117
_cell_formula_units_Z   1
loop_
 _symmetry_equiv_pos_site_id
 _symmetry_equiv_pos_as_xyz
  1  'x, y, z'
loop_
 _atom_site_type_symbol
 _atom_site_label
 _atom_site_symmetry_multiplicity
 _atom_site_fract_x
 _atom_site_fract_y
 _atom_site_fract_z
 _atom_site_occupancy
  Li  Li0  1  0.007541  0.007540  0.015081  1
  O  O1  1  0.639177  0.639176  0.698013  1
  O  O2  1  0.892397  0.435020  0.327417  1
  O  O3  1  0.058837  0.058836  0.698013  1
  Ge  Ge4  1  0.271260  0.271260  0.542520  1
  O  O5  1  0.435019  0.892399  0.327417  1
  B  B6  1  0.747770  0.747770  0.495539  1
