# generated using pymatgen
data_CuH20S2(NO7)2
_symmetry_space_group_name_H-M   'P 1'
_cell_length_a   6.46160410
_cell_length_b   9.19760534
_cell_length_c   12.34138967
_cell_angle_alpha   90.00000000
_cell_angle_beta   90.00000000
_cell_angle_gamma   105.38803047
_symmetry_Int_Tables_number   1
_chemical_formula_structural   CuH20S2(NO7)2
_chemical_formula_sum   'Cu2 H40 S4 N4 O28'
_cell_volume   707.17056247
_cell_formula_units_Z   2
loop_
 _symmetry_equiv_pos_site_id
 _symmetry_equiv_pos_as_xyz
  1  'x, y, z'
loop_
 _atom_site_type_symbol
 _atom_site_label
 _atom_site_symmetry_multiplicity
 _atom_site_fract_x
 _atom_site_fract_y
 _atom_site_fract_z
 _atom_site_occupancy
  Cu  Cu0  1  0.000000  0.000000  0.000000  1
  Cu  Cu1  1  0.000000  0.500000  0.500000  1
  S  S2  1  0.747441  0.416120  0.138157  1
  S  S3  1  0.252559  0.083880  0.638157  1
  S  S4  1  0.252559  0.583880  0.861843  1
  S  S5  1  0.747441  0.916120  0.361843  1
  O  O6  1  0.600672  0.420611  0.231830  1
  O  O7  1  0.399328  0.079389  0.731830  1
  O  O8  1  0.399328  0.579389  0.768170  1
  O  O9  1  0.600672  0.920611  0.268170  1
  O  O10  1  0.784394  0.556648  0.074368  1
  O  O11  1  0.215606  0.943352  0.574368  1
  O  O12  1  0.215606  0.443352  0.925632  1
  O  O13  1  0.784394  0.056648  0.425632  1
  O  O14  1  0.640186  0.285162  0.067065  1
  O  O15  1  0.359814  0.214838  0.567065  1
  O  O16  1  0.359814  0.714838  0.932935  1
  O  O17  1  0.640186  0.785162  0.432935  1
  O  O18  1  0.955032  0.395041  0.181024  1
  O  O19  1  0.044968  0.104959  0.681024  1
  O  O20  1  0.044968  0.604959  0.818976  1
  O  O21  1  0.955032  0.895041  0.318976  1
  O  O22  1  0.190571  0.185407  0.124078  1
  O  O23  1  0.809429  0.314593  0.624078  1
  O  O24  1  0.809429  0.814593  0.875922  1
  O  O25  1  0.190571  0.685407  0.375922  1
  O  O26  1  0.025494  0.838436  0.107908  1
  O  O27  1  0.974506  0.661564  0.607908  1
  O  O28  1  0.974506  0.161564  0.892092  1
  O  O29  1  0.025494  0.338436  0.392092  1
  O  O30  1  0.277352  0.989718  0.935267  1
  O  O31  1  0.722648  0.510282  0.435267  1
  O  O32  1  0.722648  0.010282  0.064733  1
  O  O33  1  0.277352  0.489718  0.564733  1
  N  N34  1  0.351041  0.128631  0.343647  1
  N  N35  1  0.648959  0.371369  0.843647  1
  N  N36  1  0.648959  0.871369  0.656353  1
  N  N37  1  0.351041  0.628631  0.156353  1
  H  H38  1  0.196780  0.062108  0.328671  1
  H  H39  1  0.803220  0.437892  0.828671  1
  H  H40  1  0.803220  0.937892  0.671329  1
  H  H41  1  0.196780  0.562108  0.171329  1
  H  H42  1  0.385119  0.221590  0.293422  1
  H  H43  1  0.614881  0.278410  0.793422  1
  H  H44  1  0.614881  0.778410  0.706578  1
  H  H45  1  0.385119  0.721590  0.206578  1
  H  H46  1  0.456894  0.064456  0.326269  1
  H  H47  1  0.543106  0.435544  0.826269  1
  H  H48  1  0.543106  0.935544  0.673731  1
  H  H49  1  0.456894  0.564456  0.173731  1
  H  H50  1  0.362897  0.161467  0.424810  1
  H  H51  1  0.637103  0.338533  0.924810  1
  H  H52  1  0.637103  0.838533  0.575190  1
  H  H53  1  0.362897  0.661467  0.075190  1
  H  H54  1  0.335689  0.229427  0.095137  1
  H  H55  1  0.664311  0.270573  0.595137  1
  H  H56  1  0.664311  0.770573  0.904863  1
  H  H57  1  0.335689  0.729427  0.404863  1
  H  H58  1  0.119506  0.267269  0.130952  1
  H  H59  1  0.880494  0.232731  0.630952  1
  H  H60  1  0.880494  0.732731  0.869048  1
  H  H61  1  0.119506  0.767269  0.369048  1
  H  H62  1  0.931427  0.734670  0.093790  1
  H  H63  1  0.068573  0.765330  0.593790  1
  H  H64  1  0.068573  0.265330  0.906210  1
  H  H65  1  0.931427  0.234670  0.406210  1
  H  H66  1  0.994144  0.863439  0.183759  1
  H  H67  1  0.005856  0.636561  0.683759  1
  H  H68  1  0.005856  0.136561  0.816241  1
  H  H69  1  0.994144  0.363439  0.316241  1
  H  H70  1  0.303050  0.887674  0.939576  1
  H  H71  1  0.696950  0.612326  0.439576  1
  H  H72  1  0.696950  0.112326  0.060424  1
  H  H73  1  0.303050  0.387674  0.560424  1
  H  H74  1  0.305926  0.022184  0.858232  1
  H  H75  1  0.694074  0.477816  0.358232  1
  H  H76  1  0.694074  0.977816  0.141768  1
  H  H77  1  0.305926  0.522184  0.641768  1
