# generated using pymatgen
data_B12S
_symmetry_space_group_name_H-M   'P 1'
_cell_length_a   5.13414655
_cell_length_b   5.13414671
_cell_length_c   5.13414665
_cell_angle_alpha   68.73695954
_cell_angle_beta   68.73695887
_cell_angle_gamma   68.73695920
_symmetry_Int_Tables_number   1
_chemical_formula_structural   B12S
_chemical_formula_sum   'B12 S1'
_cell_volume   113.29612034
_cell_formula_units_Z   1
loop_
 _symmetry_equiv_pos_site_id
 _symmetry_equiv_pos_as_xyz
  1  'x, y, z'
loop_
 _atom_site_type_symbol
 _atom_site_label
 _atom_site_symmetry_multiplicity
 _atom_site_fract_x
 _atom_site_fract_y
 _atom_site_fract_z
 _atom_site_occupancy
  B  B0  1  0.188396  0.188396  0.710367  1
  B  B1  1  0.670471  0.990095  0.990095  1
  B  B2  1  0.811604  0.811604  0.289633  1
  B  B3  1  0.990095  0.670471  0.990095  1
  B  B4  1  0.289633  0.811604  0.811604  1
  B  B5  1  0.009905  0.329529  0.009905  1
  B  B6  1  0.811604  0.289633  0.811604  1
  B  B7  1  0.188396  0.710367  0.188396  1
  B  B8  1  0.710367  0.188396  0.188396  1
  B  B9  1  0.329529  0.009905  0.009905  1
  B  B10  1  0.009905  0.009905  0.329529  1
  B  B11  1  0.990095  0.990095  0.670471  1
  S  S12  1  0.500000  0.500000  0.500000  1
