# generated using pymatgen
data_Rb3CrF7
_symmetry_space_group_name_H-M   'P 1'
_cell_length_a   5.96016750
_cell_length_b   8.26190750
_cell_length_c   8.26190750
_cell_angle_alpha   90.00000000
_cell_angle_beta   90.00000000
_cell_angle_gamma   90.00000000
_symmetry_Int_Tables_number   1
_chemical_formula_structural   Rb3CrF7
_chemical_formula_sum   'Rb6 Cr2 F14'
_cell_volume   406.83576201
_cell_formula_units_Z   2
loop_
 _symmetry_equiv_pos_site_id
 _symmetry_equiv_pos_as_xyz
  1  'x, y, z'
loop_
 _atom_site_type_symbol
 _atom_site_label
 _atom_site_symmetry_multiplicity
 _atom_site_fract_x
 _atom_site_fract_y
 _atom_site_fract_z
 _atom_site_occupancy
  F  F0  1  0.778183  0.889682  0.389682  1
  F  F1  1  0.778183  0.110318  0.610318  1
  F  F2  1  0.778183  0.389682  0.110318  1
  F  F3  1  0.778183  0.610318  0.889682  1
  F  F4  1  0.221817  0.889682  0.389682  1
  F  F5  1  0.221817  0.610318  0.889682  1
  F  F6  1  0.221817  0.389682  0.110318  1
  F  F7  1  0.221817  0.110318  0.610318  1
  F  F8  1  0.500000  0.000000  0.000000  1
  F  F9  1  0.500000  0.500000  0.500000  1
  F  F10  1  0.000000  0.338011  0.838011  1
  F  F11  1  0.000000  0.161989  0.338011  1
  F  F12  1  0.000000  0.838011  0.661989  1
  F  F13  1  0.000000  0.661989  0.161989  1
  Cr  Cr14  1  0.000000  0.500000  0.000000  1
  Cr  Cr15  1  0.000000  0.000000  0.500000  1
  Rb  Rb16  1  0.500000  0.692516  0.192516  1
  Rb  Rb17  1  0.500000  0.807484  0.692516  1
  Rb  Rb18  1  0.500000  0.192516  0.307484  1
  Rb  Rb19  1  0.500000  0.307484  0.807484  1
  Rb  Rb20  1  0.000000  0.500000  0.500000  1
  Rb  Rb21  1  0.000000  0.000000  0.000000  1
