# generated using pymatgen
data_Eu2Si2O7
_symmetry_space_group_name_H-M   'P 1'
_cell_length_a   6.72051462
_cell_length_b   6.83196280
_cell_length_c   12.52464167
_cell_angle_alpha   90.00000000
_cell_angle_beta   101.96861404
_cell_angle_gamma   90.00000000
_symmetry_Int_Tables_number   1
_chemical_formula_structural   Eu2Si2O7
_chemical_formula_sum   'Eu8 Si8 O28'
_cell_volume   562.55919354
_cell_formula_units_Z   4
loop_
 _symmetry_equiv_pos_site_id
 _symmetry_equiv_pos_as_xyz
  1  'x, y, z'
loop_
 _atom_site_type_symbol
 _atom_site_label
 _atom_site_symmetry_multiplicity
 _atom_site_fract_x
 _atom_site_fract_y
 _atom_site_fract_z
 _atom_site_occupancy
  Eu  Eu0  1  0.169115  0.895102  0.637275  1
  Eu  Eu1  1  0.330885  0.395102  0.862725  1
  Eu  Eu2  1  0.830885  0.104898  0.362725  1
  Eu  Eu3  1  0.669115  0.604898  0.137275  1
  Eu  Eu4  1  0.190875  0.669908  0.347289  1
  Eu  Eu5  1  0.309125  0.169908  0.152711  1
  Eu  Eu6  1  0.809125  0.330092  0.652711  1
  Eu  Eu7  1  0.690875  0.830092  0.847289  1
  Si  Si8  1  0.690510  0.829342  0.585982  1
  Si  Si9  1  0.809490  0.329342  0.914018  1
  Si  Si10  1  0.309490  0.170658  0.414018  1
  Si  Si11  1  0.190510  0.670658  0.085982  1
  Si  Si12  1  0.681851  0.582371  0.391269  1
  Si  Si13  1  0.818149  0.082371  0.108731  1
  Si  Si14  1  0.318149  0.417629  0.608731  1
  Si  Si15  1  0.181851  0.917629  0.891269  1
  O  O16  1  0.569221  0.718539  0.472259  1
  O  O17  1  0.930779  0.218539  0.027741  1
  O  O18  1  0.430779  0.281461  0.527741  1
  O  O19  1  0.069221  0.781461  0.972259  1
  O  O20  1  0.824312  0.012313  0.551099  1
  O  O21  1  0.675688  0.512313  0.948901  1
  O  O22  1  0.175688  0.987687  0.448901  1
  O  O23  1  0.324312  0.487687  0.051099  1
  O  O24  1  0.829767  0.721677  0.333860  1
  O  O25  1  0.670233  0.221677  0.166140  1
  O  O26  1  0.170233  0.278323  0.666140  1
  O  O27  1  0.329767  0.778323  0.833860  1
  O  O28  1  0.493875  0.515087  0.292513  1
  O  O29  1  0.006125  0.015087  0.207487  1
  O  O30  1  0.506125  0.484913  0.707487  1
  O  O31  1  0.993875  0.984913  0.792513  1
  O  O32  1  0.532964  0.906562  0.658890  1
  O  O33  1  0.967036  0.406562  0.841110  1
  O  O34  1  0.467036  0.093438  0.341110  1
  O  O35  1  0.032964  0.593438  0.158890  1
  O  O36  1  0.858950  0.675940  0.652915  1
  O  O37  1  0.641050  0.175940  0.847085  1
  O  O38  1  0.141050  0.324060  0.347085  1
  O  O39  1  0.358950  0.824060  0.152915  1
  O  O40  1  0.798221  0.397071  0.457978  1
  O  O41  1  0.701779  0.897071  0.042022  1
  O  O42  1  0.201779  0.602929  0.542022  1
  O  O43  1  0.298221  0.102929  0.957978  1
