# generated using pymatgen
data_SrVF5
_symmetry_space_group_name_H-M   'P 1'
_cell_length_a   7.19844239
_cell_length_b   7.39654195
_cell_length_c   14.98265770
_cell_angle_alpha   90.00000000
_cell_angle_beta   94.93994286
_cell_angle_gamma   90.00000000
_symmetry_Int_Tables_number   1
_chemical_formula_structural   SrVF5
_chemical_formula_sum   'Sr8 V8 F40'
_cell_volume   794.76718733
_cell_formula_units_Z   8
loop_
 _symmetry_equiv_pos_site_id
 _symmetry_equiv_pos_as_xyz
  1  'x, y, z'
loop_
 _atom_site_type_symbol
 _atom_site_label
 _atom_site_symmetry_multiplicity
 _atom_site_fract_x
 _atom_site_fract_y
 _atom_site_fract_z
 _atom_site_occupancy
  Sr  Sr0  1  0.002250  0.839914  0.636687  1
  Sr  Sr1  1  0.997750  0.339914  0.863313  1
  Sr  Sr2  1  0.997750  0.160086  0.363313  1
  Sr  Sr3  1  0.002250  0.660086  0.136687  1
  Sr  Sr4  1  0.690079  0.342120  0.584867  1
  Sr  Sr5  1  0.309921  0.842120  0.915133  1
  Sr  Sr6  1  0.309921  0.657880  0.415133  1
  Sr  Sr7  1  0.690079  0.157880  0.084867  1
  V  V8  1  0.810197  0.815132  0.874028  1
  V  V9  1  0.189803  0.315132  0.625972  1
  V  V10  1  0.189803  0.184868  0.125972  1
  V  V11  1  0.810197  0.684868  0.374028  1
  V  V12  1  0.506350  0.881225  0.662846  1
  V  V13  1  0.493650  0.381225  0.837154  1
  V  V14  1  0.493650  0.118775  0.337154  1
  V  V15  1  0.506350  0.618775  0.162846  1
  F  F16  1  0.955961  0.677050  0.966120  1
  F  F17  1  0.044039  0.177050  0.533880  1
  F  F18  1  0.044039  0.322950  0.033880  1
  F  F19  1  0.955961  0.822950  0.466120  1
  F  F20  1  0.650872  0.920573  0.958292  1
  F  F21  1  0.349128  0.420573  0.541708  1
  F  F22  1  0.349128  0.079427  0.041708  1
  F  F23  1  0.650872  0.579427  0.458292  1
  F  F24  1  0.600559  0.633871  0.852435  1
  F  F25  1  0.399441  0.133871  0.647565  1
  F  F26  1  0.399441  0.366129  0.147565  1
  F  F27  1  0.600559  0.866129  0.352435  1
  F  F28  1  0.969051  0.688839  0.793459  1
  F  F29  1  0.030949  0.188839  0.706541  1
  F  F30  1  0.030949  0.311161  0.206541  1
  F  F31  1  0.969051  0.811161  0.293459  1
  F  F32  1  0.700584  0.501004  0.097730  1
  F  F33  1  0.299416  0.001004  0.402270  1
  F  F34  1  0.299416  0.498996  0.902270  1
  F  F35  1  0.700584  0.998996  0.597730  1
  F  F36  1  0.313227  0.694201  0.067398  1
  F  F37  1  0.686773  0.194201  0.432602  1
  F  F38  1  0.686773  0.305799  0.932602  1
  F  F39  1  0.313227  0.805799  0.567398  1
  F  F40  1  0.312759  0.661784  0.243441  1
  F  F41  1  0.687241  0.161784  0.256559  1
  F  F42  1  0.687241  0.338216  0.756559  1
  F  F43  1  0.312759  0.838216  0.743441  1
  F  F44  1  0.690292  0.552908  0.270931  1
  F  F45  1  0.309708  0.052908  0.229069  1
  F  F46  1  0.309708  0.447092  0.729069  1
  F  F47  1  0.690292  0.947092  0.770931  1
  F  F48  1  0.646231  0.836664  0.148942  1
  F  F49  1  0.353769  0.336664  0.351058  1
  F  F50  1  0.353769  0.163336  0.851058  1
  F  F51  1  0.646231  0.663336  0.648942  1
  F  F52  1  0.003804  0.491149  0.391694  1
  F  F53  1  0.996196  0.991149  0.108306  1
  F  F54  1  0.996196  0.508851  0.608306  1
  F  F55  1  0.003804  0.008851  0.891694  1
