# generated using pymatgen
data_Na2Be(SiO3)2
_symmetry_space_group_name_H-M   'P 1'
_cell_length_a   7.10534102
_cell_length_b   11.19043528
_cell_length_c   11.59538754
_cell_angle_alpha   84.41419542
_cell_angle_beta   72.15652254
_cell_angle_gamma   71.49087484
_symmetry_Int_Tables_number   1
_chemical_formula_structural   Na2Be(SiO3)2
_chemical_formula_sum   'Na12 Be6 Si12 O36'
_cell_volume   832.22476418
_cell_formula_units_Z   6
loop_
 _symmetry_equiv_pos_site_id
 _symmetry_equiv_pos_as_xyz
  1  'x, y, z'
loop_
 _atom_site_type_symbol
 _atom_site_label
 _atom_site_symmetry_multiplicity
 _atom_site_fract_x
 _atom_site_fract_y
 _atom_site_fract_z
 _atom_site_occupancy
  Na  Na0  1  0.305320  0.750088  0.389042  1
  Na  Na1  1  0.616991  0.416331  0.123588  1
  Na  Na2  1  0.944482  0.750009  0.110959  1
  Na  Na3  1  0.383009  0.583669  0.876412  1
  Na  Na4  1  0.694680  0.249912  0.610958  1
  Na  Na5  1  0.740873  0.916225  0.876425  1
  Na  Na6  1  0.055518  0.249991  0.889041  1
  Na  Na7  1  0.342998  0.916296  0.623613  1
  Na  Na8  1  0.657002  0.083704  0.376387  1
  Na  Na9  1  0.259127  0.083775  0.123575  1
  Na  Na10  1  0.033569  0.583650  0.623611  1
  Na  Na11  1  0.966431  0.416350  0.376389  1
  Be  Be12  1  0.559423  0.881058  0.250003  1
  Be  Be13  1  0.809549  0.380967  0.750016  1
  Be  Be14  1  0.440577  0.118942  0.749997  1
  Be  Be15  1  0.874940  0.250053  0.249967  1
  Be  Be16  1  0.190451  0.619033  0.249984  1
  Be  Be17  1  0.125060  0.749947  0.750033  1
  Si  Si18  1  0.781019  0.750013  0.437836  1
  Si  Si19  1  0.118928  0.432054  0.101967  1
  Si  Si20  1  0.220923  0.932048  0.898028  1
  Si  Si21  1  0.468874  0.750011  0.062194  1
  Si  Si22  1  0.218981  0.249987  0.562164  1
  Si  Si23  1  0.152874  0.067987  0.397997  1
  Si  Si24  1  0.531126  0.249989  0.937806  1
  Si  Si25  1  0.779077  0.067952  0.101972  1
  Si  Si26  1  0.847126  0.932013  0.602003  1
  Si  Si27  1  0.449018  0.432131  0.397981  1
  Si  Si28  1  0.550982  0.567869  0.602019  1
  Si  Si29  1  0.881072  0.567946  0.898033  1
  O  O30  1  0.976444  0.290327  0.635278  1
  O  O31  1  0.383973  0.534402  0.298127  1
  O  O32  1  0.748688  0.624974  0.528887  1
  O  O33  1  0.815190  0.179920  0.158542  1
  O  O34  1  0.283537  0.034306  0.798133  1
  O  O35  1  0.973691  0.679943  0.841454  1
  O  O36  1  0.373729  0.375022  0.028837  1
  O  O37  1  0.626271  0.624978  0.971163  1
  O  O38  1  0.266625  0.709683  0.135230  1
  O  O39  1  0.000000  0.500000  0.000000  1
  O  O40  1  0.004670  0.179941  0.341495  1
  O  O41  1  0.682230  0.034224  0.701926  1
  O  O42  1  0.733375  0.290317  0.864770  1
  O  O43  1  0.616027  0.465598  0.701873  1
  O  O44  1  0.918333  0.465695  0.798147  1
  O  O45  1  0.317770  0.965776  0.298074  1
  O  O46  1  0.388561  0.209579  0.635200  1
  O  O47  1  0.026309  0.320057  0.158546  1
  O  O48  1  0.611439  0.790421  0.364800  1
  O  O49  1  0.995330  0.820059  0.658505  1
  O  O50  1  0.081667  0.534305  0.201853  1
  O  O51  1  0.023556  0.709673  0.364722  1
  O  O52  1  0.346314  0.679770  0.658683  1
  O  O53  1  0.251312  0.375026  0.471113  1
  O  O54  1  0.000000  0.000000  0.500000  1
  O  O55  1  0.722407  0.874999  0.528908  1
  O  O56  1  0.401995  0.209654  0.864697  1
  O  O57  1  0.184810  0.820080  0.841458  1
  O  O58  1  0.402648  0.875040  0.971123  1
  O  O59  1  0.598005  0.790346  0.135303  1
  O  O60  1  0.277593  0.125001  0.471092  1
  O  O61  1  0.653686  0.320230  0.341317  1
  O  O62  1  0.500000  0.500000  0.500000  1
  O  O63  1  0.597352  0.124960  0.028877  1
  O  O64  1  0.000000  0.000000  0.000000  1
  O  O65  1  0.716463  0.965694  0.201867  1
