# generated using pymatgen
data_Rb2Sb4O11
_symmetry_space_group_name_H-M   'P 1'
_cell_length_a   7.34175450
_cell_length_b   7.70840520
_cell_length_c   10.64961345
_cell_angle_alpha   111.21716119
_cell_angle_beta   95.10263921
_cell_angle_gamma   90.00115113
_symmetry_Int_Tables_number   1
_chemical_formula_structural   Rb2Sb4O11
_chemical_formula_sum   'Rb4 Sb8 O22'
_cell_volume   559.27906144
_cell_formula_units_Z   2
loop_
 _symmetry_equiv_pos_site_id
 _symmetry_equiv_pos_as_xyz
  1  'x, y, z'
loop_
 _atom_site_type_symbol
 _atom_site_label
 _atom_site_symmetry_multiplicity
 _atom_site_fract_x
 _atom_site_fract_y
 _atom_site_fract_z
 _atom_site_occupancy
  Rb  Rb0  1  0.745255  0.491919  0.983836  1
  Rb  Rb1  1  0.005967  0.734639  0.469271  1
  Rb  Rb2  1  0.254745  0.508081  0.016164  1
  Rb  Rb3  1  0.994033  0.265361  0.530729  1
  Sb  Sb4  1  0.098227  0.071615  0.143218  1
  Sb  Sb5  1  0.563308  0.082436  0.651221  1
  Sb  Sb6  1  0.436714  0.431199  0.348783  1
  Sb  Sb7  1  0.563286  0.568801  0.651217  1
  Sb  Sb8  1  0.617177  0.075901  0.151861  1
  Sb  Sb9  1  0.901773  0.928385  0.856782  1
  Sb  Sb10  1  0.382823  0.924099  0.848139  1
  Sb  Sb11  1  0.436692  0.917564  0.348779  1
  O  O12  1  0.666836  0.523942  0.473559  1
  O  O13  1  0.131365  0.882420  0.764765  1
  O  O14  1  0.666839  0.949618  0.473559  1
  O  O15  1  0.570807  0.343277  0.177782  1
  O  O16  1  0.510018  0.166471  0.332971  1
  O  O17  1  0.358221  0.660022  0.320059  1
  O  O18  1  0.810487  0.069715  0.742681  1
  O  O19  1  0.999993  0.829103  -0.000000  1
  O  O20  1  0.570796  0.834467  0.177772  1
  O  O21  1  0.189513  0.930285  0.257319  1
  O  O22  1  0.489982  0.833529  0.667029  1
  O  O23  1  0.429193  0.656723  0.822218  1
  O  O24  1  0.189513  0.327039  0.257319  1
  O  O25  1  0.000007  0.170897  1.000000  1
  O  O26  1  0.333161  0.050382  0.526441  1
  O  O27  1  0.810487  0.672961  0.742681  1
  O  O28  1  0.641779  0.339978  0.679941  1
  O  O29  1  0.345789  0.023318  0.046630  1
  O  O30  1  0.333164  0.476058  0.526441  1
  O  O31  1  0.429204  0.165533  0.822228  1
  O  O32  1  0.654211  0.976682  0.953370  1
  O  O33  1  0.868635  0.117580  0.235235  1
