# generated using pymatgen
data_KMoIO6
_symmetry_space_group_name_H-M   'P 1'
_cell_length_a   7.56317133
_cell_length_b   7.72197910
_cell_length_c   10.80943282
_cell_angle_alpha   109.87934186
_cell_angle_beta   90.00000000
_cell_angle_gamma   90.00000000
_symmetry_Int_Tables_number   1
_chemical_formula_structural   KMoIO6
_chemical_formula_sum   'K4 Mo4 I4 O24'
_cell_volume   593.68089184
_cell_formula_units_Z   4
loop_
 _symmetry_equiv_pos_site_id
 _symmetry_equiv_pos_as_xyz
  1  'x, y, z'
loop_
 _atom_site_type_symbol
 _atom_site_label
 _atom_site_symmetry_multiplicity
 _atom_site_fract_x
 _atom_site_fract_y
 _atom_site_fract_z
 _atom_site_occupancy
  K  K0  1  0.728675  0.841440  0.922568  1
  K  K1  1  0.228675  0.658560  0.577432  1
  K  K2  1  0.271325  0.158560  0.077432  1
  K  K3  1  0.771325  0.341440  0.422568  1
  Mo  Mo4  1  0.998384  0.768537  0.278112  1
  Mo  Mo5  1  0.498384  0.731463  0.221888  1
  Mo  Mo6  1  0.001616  0.231463  0.721888  1
  Mo  Mo7  1  0.501616  0.268537  0.778112  1
  I  I8  1  0.674627  0.856415  0.544160  1
  I  I9  1  0.825373  0.356415  0.044160  1
  I  I10  1  0.325373  0.143585  0.455840  1
  I  I11  1  0.174627  0.643585  0.955840  1
  O  O12  1  0.047496  0.817622  0.088959  1
  O  O13  1  0.952504  0.182378  0.911041  1
  O  O14  1  0.971144  0.517313  0.869193  1
  O  O15  1  0.743815  0.722158  0.198165  1
  O  O16  1  0.051197  0.998608  0.644309  1
  O  O17  1  0.028856  0.482687  0.130807  1
  O  O18  1  0.286931  0.280477  0.353299  1
  O  O19  1  0.528856  0.017313  0.369193  1
  O  O20  1  0.713069  0.719523  0.646701  1
  O  O21  1  0.471144  0.982687  0.630807  1
  O  O22  1  0.547496  0.682378  0.411041  1
  O  O23  1  0.213069  0.780477  0.853299  1
  O  O24  1  0.448803  0.498608  0.144309  1
  O  O25  1  0.256185  0.277842  0.801835  1
  O  O26  1  0.756185  0.222158  0.698165  1
  O  O27  1  0.243815  0.777842  0.301835  1
  O  O28  1  0.786931  0.219523  0.146701  1
  O  O29  1  0.551197  0.501392  0.855691  1
  O  O30  1  0.566020  0.171617  0.899834  1
  O  O31  1  0.066020  0.328383  0.600166  1
  O  O32  1  0.433980  0.828383  0.100166  1
  O  O33  1  0.933980  0.671617  0.399834  1
  O  O34  1  0.948803  0.001392  0.355691  1
  O  O35  1  0.452504  0.317622  0.588959  1
