# generated using pymatgen
data_Na3Ca(BO2)5
_symmetry_space_group_name_H-M   'P 1'
_cell_length_a   7.51304882
_cell_length_b   9.83416464
_cell_length_c   13.08957228
_cell_angle_alpha   91.24418117
_cell_angle_beta   90.07142518
_cell_angle_gamma   109.48306124
_symmetry_Int_Tables_number   1
_chemical_formula_structural   Na3Ca(BO2)5
_chemical_formula_sum   'Na12 Ca4 B20 O40'
_cell_volume   911.48834763
_cell_formula_units_Z   4
loop_
 _symmetry_equiv_pos_site_id
 _symmetry_equiv_pos_as_xyz
  1  'x, y, z'
loop_
 _atom_site_type_symbol
 _atom_site_label
 _atom_site_symmetry_multiplicity
 _atom_site_fract_x
 _atom_site_fract_y
 _atom_site_fract_z
 _atom_site_occupancy
  Na  Na0  1  0.508234  0.262920  0.229281  1
  Na  Na1  1  0.491766  0.737080  0.770719  1
  Na  Na2  1  0.126613  0.053256  0.109794  1
  Na  Na3  1  0.873387  0.946744  0.890206  1
  Na  Na4  1  0.184475  0.684661  0.003212  1
  Na  Na5  1  0.815525  0.315339  0.996788  1
  Na  Na6  1  0.383150  0.957989  0.388934  1
  Na  Na7  1  0.616850  0.042011  0.611066  1
  Na  Na8  1  1.001565  0.762180  0.262767  1
  Na  Na9  1  -0.001565  0.237820  0.737233  1
  Na  Na10  1  0.683657  0.668843  0.519493  1
  Na  Na11  1  0.316343  0.331157  0.480507  1
  Ca  Ca12  1  0.476393  0.611565  0.267117  1
  Ca  Ca13  1  0.523607  0.388435  0.732883  1
  Ca  Ca14  1  0.003786  0.371633  0.240997  1
  Ca  Ca15  1  0.996214  0.628367  0.759003  1
  B  B16  1  0.820625  0.367347  0.581925  1
  B  B17  1  0.179375  0.632653  0.418075  1
  B  B18  1  0.696420  0.406643  0.413912  1
  B  B19  1  0.303580  0.593357  0.586088  1
  B  B20  1  0.837535  0.203857  0.432265  1
  B  B21  1  0.162465  0.796143  0.567735  1
  B  B22  1  0.748287  0.937071  0.382433  1
  B  B23  1  0.251713  0.062929  0.617567  1
  B  B24  1  0.078034  0.099484  0.352496  1
  B  B25  1  0.921966  0.900516  0.647504  1
  B  B26  1  0.291479  0.370270  0.075616  1
  B  B27  1  0.708521  0.629730  0.924384  1
  B  B28  1  0.219697  0.434975  0.902271  1
  B  B29  1  0.780303  0.565025  0.097729  1
  B  B30  1  0.338949  0.220893  0.923984  1
  B  B31  1  0.661051  0.779107  0.076016  1
  B  B32  1  0.249555  0.955045  0.875546  1
  B  B33  1  0.750445  0.044955  0.124454  1
  B  B34  1  0.585115  0.111703  0.861932  1
  B  B35  1  0.414885  0.888297  0.138068  1
  O  O36  1  0.836247  0.400243  0.682642  1
  O  O37  1  0.163753  0.599757  0.317358  1
  O  O38  1  0.862440  0.250169  0.541308  1
  O  O39  1  0.137560  0.749831  0.458692  1
  O  O40  1  0.749366  0.449150  0.516563  1
  O  O41  1  0.250634  0.550850  0.483437  1
  O  O42  1  0.756967  0.297751  0.371063  1
  O  O43  1  0.243033  0.702249  0.628937  1
  O  O44  1  0.587242  0.467078  0.365410  1
  O  O45  1  0.412758  0.532922  0.634590  1
  O  O46  1  0.706790  0.054144  0.426815  1
  O  O47  1  0.293210  0.945856  0.573185  1
  O  O48  1  0.022313  0.217339  0.386285  1
  O  O49  1  0.977687  0.782661  0.613715  1
  O  O50  1  0.933484  0.962129  0.346168  1
  O  O51  1  0.066516  0.037871  0.653832  1
  O  O52  1  0.615901  0.805921  0.376596  1
  O  O53  1  0.384099  0.194079  0.623404  1
  O  O54  1  0.255741  0.118736  0.328475  1
  O  O55  1  0.744259  0.881264  0.671525  1
  O  O56  1  0.305695  0.401997  0.176301  1
  O  O57  1  0.694305  0.598003  0.823699  1
  O  O58  1  0.357233  0.265674  0.033492  1
  O  O59  1  0.642767  0.734326  0.966508  1
  O  O60  1  0.204620  0.442837  0.010224  1
  O  O61  1  0.795380  0.557163  0.989776  1
  O  O62  1  0.272781  0.321610  0.860783  1
  O  O63  1  0.727219  0.678390  0.139217  1
  O  O64  1  0.180254  0.532010  0.846153  1
  O  O65  1  0.819746  0.467990  0.153847  1
  O  O66  1  0.204770  0.073525  0.914675  1
  O  O67  1  0.795230  0.926475  0.085325  1
  O  O68  1  0.526014  0.231902  0.883016  1
  O  O69  1  0.473986  0.768098  0.116984  1
  O  O70  1  0.440056  0.975385  0.849433  1
  O  O71  1  0.559944  0.024615  0.150567  1
  O  O72  1  0.114321  0.825858  0.866282  1
  O  O73  1  0.885679  0.174142  0.133718  1
  O  O74  1  0.768107  0.130668  0.855279  1
  O  O75  1  0.231893  0.869332  0.144721  1
