# generated using pymatgen
data_MgSiO3
_symmetry_space_group_name_H-M   'P 1'
_cell_length_a   10.04867298
_cell_length_b   10.04867262
_cell_length_c   20.06221451
_cell_angle_alpha   109.33855177
_cell_angle_beta   109.37710954
_cell_angle_gamma   109.76878127
_symmetry_Int_Tables_number   1
_chemical_formula_structural   MgSiO3
_chemical_formula_sum   'Mg32 Si32 O96'
_cell_volume   1558.07662803
_cell_formula_units_Z   32
loop_
 _symmetry_equiv_pos_site_id
 _symmetry_equiv_pos_as_xyz
  1  'x, y, z'
loop_
 _atom_site_type_symbol
 _atom_site_label
 _atom_site_symmetry_multiplicity
 _atom_site_fract_x
 _atom_site_fract_y
 _atom_site_fract_z
 _atom_site_occupancy
  Mg  Mg0  1  0.998675  -0.000501  0.747910  1
  Mg  Mg1  1  0.996466  0.498797  0.748754  1
  Mg  Mg2  1  0.122612  0.872612  0.625000  1
  Mg  Mg3  1  0.003679  0.502856  0.502090  1
  Mg  Mg4  1  0.221217  0.605052  0.680737  1
  Mg  Mg5  1  0.105936  0.249193  0.693810  1
  Mg  Mg6  1  0.243012  0.131871  0.933025  1
  Mg  Mg7  1  0.373437  0.621162  0.875623  1
  Mg  Mg8  1  0.003876  0.501553  0.251079  1
  Mg  Mg9  1  0.130524  0.880524  0.125000  1
  Mg  Mg10  1  0.361574  0.718317  0.556190  1
  Mg  Mg11  1  0.245119  0.628290  0.187229  1
  Mg  Mg12  1  0.122706  0.252824  0.186551  1
  Mg  Mg13  1  0.252908  0.136559  0.433733  1
  Mg  Mg14  1  0.625357  0.264092  0.941614  1
  Mg  Mg15  1  0.369916  0.622191  0.374377  1
  Mg  Mg16  1  0.495279  0.994860  0.246976  1
  Mg  Mg17  1  1.000908  1.001327  0.003024  1
  Mg  Mg18  1  0.501289  0.498958  0.501246  1
  Mg  Mg19  1  0.627161  0.377161  0.625000  1
  Mg  Mg20  1  0.379721  0.749604  0.063449  1
  Mg  Mg21  1  0.743579  0.859743  0.569263  1
  Mg  Mg22  1  0.898045  0.758437  0.811057  1
  Mg  Mg23  1  0.769094  0.385443  0.816267  1
  Mg  Mg24  1  0.636322  0.275930  0.438943  1
  Mg  Mg25  1  0.883088  0.112567  0.876091  1
  Mg  Mg26  1  0.499394  0.501717  0.998921  1
  Mg  Mg27  1  0.629471  0.379471  0.125000  1
  Mg  Mg28  1  0.753833  0.870662  0.062771  1
  Mg  Mg29  1  0.880864  0.742129  0.308386  1
  Mg  Mg30  1  0.765820  0.376961  0.316975  1
  Mg  Mg31  1  0.860385  0.130906  0.373909  1
  O  O32  1  0.098332  0.904557  0.942001  1
  O  O33  1  0.112829  0.915825  0.812392  1
  O  O34  1  0.094838  0.197763  0.993137  1
  O  O35  1  0.033690  0.632860  0.615336  1
  O  O36  1  0.325459  0.814494  0.965989  1
  O  O37  1  0.008853  0.379647  0.649124  1
  O  O38  1  0.089040  0.194381  0.859769  1
  O  O39  1  0.126475  0.407924  0.803227  1
  O  O40  1  0.221457  0.693783  0.792952  1
  O  O41  1  0.084399  0.909937  0.440052  1
  O  O42  1  0.307355  0.534235  0.953990  1
  O  O43  1  0.316126  0.906307  0.750449  1
  O  O44  1  0.142232  0.727473  0.518041  1
  O  O45  1  0.108724  0.928858  0.311389  1
  O  O46  1  0.387522  0.999580  0.659699  1
  O  O47  1  0.565141  0.882713  0.943792  1
  O  O48  1  0.218160  0.515147  0.566236  1
  O  O49  1  0.191390  0.106149  0.731959  1
  O  O50  1  0.097119  0.181955  0.495429  1
  O  O51  1  0.411483  0.282614  0.898952  1
  O  O52  1  0.298159  0.414865  0.664090  1
  O  O53  1  0.484925  0.674697  0.803891  1
  O  O54  1  0.394106  0.400846  0.792206  1
  O  O55  1  0.013026  0.621691  0.094116  1
  O  O56  1  0.316434  0.809693  0.457794  1
  O  O57  1  0.477581  0.808458  0.695068  1
  O  O58  1  0.603854  0.630329  0.952797  1
  O  O59  1  0.180183  0.068125  0.590301  1
  O  O60  1  0.024056  0.404923  0.150670  1
  O  O61  1  0.075644  0.174670  0.348116  1
  O  O62  1  0.403226  0.021952  0.914521  1
  O  O63  1  0.126256  0.399376  0.296010  1
  O  O64  1  0.224735  0.698260  0.297203  1
  O  O65  1  0.301470  0.520021  0.446773  1
  O  O66  1  0.276940  0.878417  0.236699  1
  O  O67  1  0.586685  0.969978  0.585910  1
  O  O68  1  0.122054  0.689764  0.006923  1
  O  O69  1  0.802835  0.912952  0.898035  1
  O  O70  1  0.393926  0.360058  0.544638  1
  O  O71  1  0.529832  0.204295  0.809948  1
  O  O72  1  0.598272  0.599328  0.710085  1
  O  O73  1  0.503486  0.320304  0.694673  1
  O  O74  1  0.695158  0.570831  0.837430  1
  O  O75  1  0.581399  0.710606  0.600876  1
  O  O76  1  0.376699  0.976169  0.137833  1
  O  O77  1  0.566916  0.877143  0.446109  1
  O  O78  1  0.185262  0.511763  0.059357  1
  O  O79  1  0.175918  0.108209  0.243077  1
  O  O80  1  0.808591  0.893160  0.764620  1
  O  O81  1  0.806079  0.485946  0.938611  1
  O  O82  1  0.430957  0.114139  0.555327  1
  O  O83  1  0.613958  0.013216  0.846837  1
  O  O84  1  0.406364  0.285709  0.400709  1
  O  O85  1  0.311760  0.436594  0.163190  1
  O  O86  1  0.495128  0.677556  0.306208  1
  O  O87  1  0.382515  0.393481  0.284011  1
  O  O88  1  0.472094  0.773760  0.184924  1
  O  O89  1  0.607878  0.635552  0.457048  1
  O  O90  1  0.200502  0.101032  0.112167  1
  O  O91  1  0.872283  0.306986  0.990689  1
  O  O92  1  0.395970  0.020298  0.412570  1
  O  O93  1  0.691098  0.106262  0.754571  1
  O  O94  1  0.694743  0.465336  0.549616  1
  O  O95  1  0.770783  0.304651  0.705362  1
  O  O96  1  0.866105  0.595511  0.700384  1
  O  O97  1  0.610213  0.985379  0.086810  1
  O  O98  1  0.902188  0.803018  0.634664  1
  O  O99  1  0.984291  0.604946  0.849291  1
  O  O100  1  0.819541  0.920283  0.403163  1
  O  O101  1  0.394889  0.376670  0.045674  1
  O  O102  1  0.520555  0.214329  0.307999  1
  O  O103  1  0.679158  0.178102  0.539915  1
  O  O104  1  0.978439  0.379412  0.901884  1
  O  O105  1  0.622307  0.606936  0.213707  1
  O  O106  1  0.515761  0.326694  0.194790  1
  O  O107  1  0.692909  0.574183  0.335479  1
  O  O108  1  0.603582  0.722715  0.099330  1
  O  O109  1  0.905410  0.815229  0.499551  1
  O  O110  1  0.825609  0.890906  0.259311  1
  O  O111  1  0.791040  0.488044  0.437608  1
  O  O112  1  0.437113  0.126181  0.055210  1
  O  O113  1  0.616881  0.006764  0.351965  1
  O  O114  1  0.882675  0.085688  0.683764  1
  O  O115  1  0.863920  0.279351  0.485380  1
  O  O116  1  0.711489  0.108565  0.256863  1
  O  O117  1  0.696184  0.479369  0.050148  1
  O  O118  1  0.918321  0.087444  0.554932  1
  O  O119  1  0.785322  0.303540  0.204326  1
  O  O120  1  0.879073  0.595888  0.199852  1
  O  O121  1  0.933460  0.824795  0.155884  1
  O  O122  1  0.984711  0.613579  0.351048  1
  O  O123  1  0.679521  0.194893  0.036293  1
  O  O124  1  0.974844  0.369503  0.390231  1
  O  O125  1  0.905019  0.803542  0.013301  1
  O  O126  1  0.893049  0.066548  0.190643  1
  O  O127  1  0.903912  0.102246  0.065076  1
  Si  Si128  1  0.129769  0.755185  0.940274  1
  Si  Si129  1  0.127894  0.378978  0.879524  1
  Si  Si130  1  0.260988  0.880215  0.816898  1
  Si  Si131  1  0.129023  0.762811  0.442774  1
  Si  Si132  1  0.502427  0.004538  0.752242  1
  Si  Si133  1  0.000053  0.997942  0.497758  1
  Si  Si134  1  0.119930  0.368846  0.370476  1
  Si  Si135  1  0.618519  0.871343  0.872698  1
  Si  Si136  1  0.255198  0.369922  0.568164  1
  Si  Si137  1  0.254988  0.879532  0.313922  1
  Si  Si138  1  0.377263  0.243475  0.807226  1
  Si  Si139  1  0.997463  0.498981  0.998898  1
  Si  Si140  1  0.497280  0.498895  0.750943  1
  Si  Si141  1  0.620157  0.756004  0.693884  1
  Si  Si142  1  0.751687  0.627143  0.936078  1
  Si  Si143  1  0.375196  0.125196  0.625000  1
  Si  Si144  1  0.625948  0.873124  0.377302  1
  Si  Si145  1  0.248285  0.377536  0.063919  1
  Si  Si146  1  0.374637  0.249221  0.309726  1
  Si  Si147  1  0.502468  0.500698  0.249223  1
  Si  Si148  1  0.497009  0.995394  0.499057  1
  Si  Si149  1  0.627273  0.750980  0.188190  1
  Si  Si150  1  0.733594  0.118870  0.681836  1
  Si  Si151  1  0.746419  0.627192  0.433102  1
  Si  Si152  1  0.379138  0.129138  0.125000  1
  Si  Si153  1  0.874454  0.624454  0.625000  1
  Si  Si154  1  0.868236  0.232389  0.556116  1
  Si  Si155  1  0.001186  0.999668  0.251102  1
  Si  Si156  1  0.502252  0.004021  0.000777  1
  Si  Si157  1  0.749698  0.120447  0.186081  1
  Si  Si158  1  0.877843  0.627843  0.125000  1
  Si  Si159  1  0.874601  0.250894  0.061810  1
