# generated using pymatgen
data_Ta2Te4Br10O
_symmetry_space_group_name_H-M   'P 1'
_cell_length_a   7.39679229
_cell_length_b   8.93789552
_cell_length_c   9.62715904
_cell_angle_alpha   82.86036591
_cell_angle_beta   91.72894875
_cell_angle_gamma   74.98877977
_symmetry_Int_Tables_number   1
_chemical_formula_structural   Ta2Te4Br10O
_chemical_formula_sum   'Ta2 Te4 Br10 O1'
_cell_volume   608.68958748
_cell_formula_units_Z   1
loop_
 _symmetry_equiv_pos_site_id
 _symmetry_equiv_pos_as_xyz
  1  'x, y, z'
loop_
 _atom_site_type_symbol
 _atom_site_label
 _atom_site_symmetry_multiplicity
 _atom_site_fract_x
 _atom_site_fract_y
 _atom_site_fract_z
 _atom_site_occupancy
  Ta  Ta0  1  0.513674  0.637296  0.633395  1
  Ta  Ta1  1  0.486326  0.362704  0.366605  1
  Te  Te2  1  0.917328  0.812276  0.002696  1
  Te  Te3  1  0.816965  0.100407  0.845146  1
  Te  Te4  1  0.082672  0.187724  0.997304  1
  Te  Te5  1  0.183035  0.899593  0.154854  1
  Br  Br6  1  0.659117  0.795515  0.461472  1
  Br  Br7  1  0.340883  0.204485  0.538528  1
  Br  Br8  1  0.606275  0.527004  0.176395  1
  Br  Br9  1  0.459353  0.168415  0.179792  1
  Br  Br10  1  0.148475  0.530231  0.278833  1
  Br  Br11  1  0.851525  0.469769  0.721167  1
  Br  Br12  1  0.812230  0.198744  0.431958  1
  Br  Br13  1  0.393725  0.472996  0.823605  1
  Br  Br14  1  0.187770  0.801256  0.568042  1
  Br  Br15  1  0.540647  0.831585  0.820208  1
  O  O16  1  0.500000  0.500000  0.500000  1
