# generated using pymatgen
data_Ho5(Mo3S4)12
_symmetry_space_group_name_H-M   'P 1'
_cell_length_a   12.98848835
_cell_length_b   19.48690382
_cell_length_c   11.33462842
_cell_angle_alpha   54.42225154
_cell_angle_beta   54.44764897
_cell_angle_gamma   89.56038008
_symmetry_Int_Tables_number   1
_chemical_formula_structural   Ho5(Mo3S4)12
_chemical_formula_sum   'Ho5 Mo36 S48'
_cell_volume   1644.41429641
_cell_formula_units_Z   1
loop_
 _symmetry_equiv_pos_site_id
 _symmetry_equiv_pos_as_xyz
  1  'x, y, z'
loop_
 _atom_site_type_symbol
 _atom_site_label
 _atom_site_symmetry_multiplicity
 _atom_site_fract_x
 _atom_site_fract_y
 _atom_site_fract_z
 _atom_site_occupancy
  Ho  Ho0  1  0.999139  0.331689  0.002256  1
  Ho  Ho1  1  0.000861  0.668311  0.997744  1
  Ho  Ho2  1  0.500000  0.000000  0.000000  1
  Ho  Ho3  1  0.499594  0.333474  -0.000199  1
  Ho  Ho4  1  0.500406  0.666526  1.000199  1
  Mo  Mo5  1  0.166673  0.065571  0.222263  1
  Mo  Mo6  1  0.168457  0.398927  0.222814  1
  Mo  Mo7  1  0.171049  0.732472  0.220203  1
  Mo  Mo8  1  0.068332  0.111005  0.444222  1
  Mo  Mo9  1  0.068758  0.445393  0.441098  1
  Mo  Mo10  1  0.070766  0.778924  0.438940  1
  Mo  Mo11  1  0.098754  0.286761  0.581814  1
  Mo  Mo12  1  0.098742  0.620229  0.579869  1
  Mo  Mo13  1  0.098309  0.954573  0.580466  1
  Mo  Mo14  1  0.401916  0.046805  0.420133  1
  Mo  Mo15  1  0.401219  0.381508  0.417202  1
  Mo  Mo16  1  0.401534  0.713316  0.420176  1
  Mo  Mo17  1  0.430378  0.221238  0.557398  1
  Mo  Mo18  1  0.430408  0.554566  0.559511  1
  Mo  Mo19  1  0.427236  0.885567  0.562484  1
  Mo  Mo20  1  0.331560  0.268342  0.775530  1
  Mo  Mo21  1  0.331376  0.600130  0.778265  1
  Mo  Mo22  1  0.331826  0.934393  0.778602  1
  Mo  Mo23  1  0.668174  0.065607  0.221398  1
  Mo  Mo24  1  0.668624  0.399870  0.221735  1
  Mo  Mo25  1  0.668440  0.731658  0.224470  1
  Mo  Mo26  1  0.572764  0.114433  0.437516  1
  Mo  Mo27  1  0.569592  0.445434  0.440489  1
  Mo  Mo28  1  0.569622  0.778762  0.442602  1
  Mo  Mo29  1  0.598466  0.286684  0.579824  1
  Mo  Mo30  1  0.598781  0.618492  0.582798  1
  Mo  Mo31  1  0.598084  0.953195  0.579867  1
  Mo  Mo32  1  0.901691  0.045427  0.419534  1
  Mo  Mo33  1  0.901258  0.379771  0.420131  1
  Mo  Mo34  1  0.901246  0.713239  0.418186  1
  Mo  Mo35  1  0.929234  0.221076  0.561060  1
  Mo  Mo36  1  0.931242  0.554607  0.558902  1
  Mo  Mo37  1  0.931668  0.888995  0.555778  1
  Mo  Mo38  1  0.828951  0.267528  0.779797  1
  Mo  Mo39  1  0.831543  0.601073  0.777186  1
  Mo  Mo40  1  0.833327  0.934429  0.777737  1
  S  S41  1  0.119758  0.207683  0.128940  1
  S  S42  1  0.119582  0.540766  0.128416  1
  S  S43  1  0.123193  0.870021  0.128525  1
  S  S44  1  0.191117  0.252873  0.370893  1
  S  S45  1  0.191803  0.585283  0.370472  1
  S  S46  1  0.999782  0.000085  0.765592  1
  S  S47  1  0.191927  0.920388  0.367700  1
  S  S48  1  0.997542  0.332969  0.764976  1
  S  S49  1  0.999510  0.666692  0.762966  1
  S  S50  1  0.311484  0.127718  0.248246  1
  S  S51  1  0.311091  0.461525  0.247715  1
  S  S52  1  0.312955  0.794909  0.246782  1
  S  S53  1  0.195165  0.212219  0.738491  1
  S  S54  1  0.188542  0.538690  0.751274  1
  S  S55  1  0.186096  0.872619  0.755317  1
  S  S56  1  0.500318  0.334890  0.234880  1
  S  S57  1  0.499743  0.667250  0.237246  1
  S  S58  1  0.319214  0.082516  0.624230  1
  S  S59  1  0.497312  0.997877  0.240854  1
  S  S60  1  0.307697  0.413790  0.631104  1
  S  S61  1  0.306893  0.745432  0.633597  1
  S  S62  1  0.619652  0.208343  0.128643  1
  S  S63  1  0.621718  0.542820  0.126553  1
  S  S64  1  0.620409  0.874302  0.129622  1
  S  S65  1  0.379591  0.125698  0.870378  1
  S  S66  1  0.378282  0.457180  0.873447  1
  S  S67  1  0.380348  0.791657  0.871357  1
  S  S68  1  0.693106  0.254568  0.366403  1
  S  S69  1  0.692303  0.586210  0.368896  1
  S  S70  1  0.502688  0.002123  0.759146  1
  S  S71  1  0.680786  0.917484  0.375770  1
  S  S72  1  0.500257  0.332750  0.762754  1
  S  S73  1  0.499682  0.665110  0.765120  1
  S  S74  1  0.813904  0.127381  0.244683  1
  S  S75  1  0.811458  0.461310  0.248726  1
  S  S76  1  0.804835  0.787781  0.261509  1
  S  S77  1  0.687045  0.205091  0.753218  1
  S  S78  1  0.688909  0.538475  0.752285  1
  S  S79  1  0.688516  0.872282  0.751754  1
  S  S80  1  0.000490  0.333308  0.237034  1
  S  S81  1  0.002458  0.667031  0.235024  1
  S  S82  1  0.808073  0.079612  0.632300  1
  S  S83  1  0.000218  0.999915  0.234408  1
  S  S84  1  0.808197  0.414717  0.629528  1
  S  S85  1  0.808883  0.747127  0.629107  1
  S  S86  1  0.876807  0.129979  0.871475  1
  S  S87  1  0.880418  0.459234  0.871584  1
  S  S88  1  0.880242  0.792317  0.871060  1
