# generated using pymatgen
data_Ca4Nb2O9
_symmetry_space_group_name_H-M   'P 1'
_cell_length_a   16.83694876
_cell_length_b   8.13717305
_cell_length_c   9.84552595
_cell_angle_alpha   66.96028543
_cell_angle_beta   55.31443449
_cell_angle_gamma   45.97229684
_symmetry_Int_Tables_number   1
_chemical_formula_structural   Ca4Nb2O9
_chemical_formula_sum   'Ca16 Nb8 O36'
_cell_volume   797.48051593
_cell_formula_units_Z   4
loop_
 _symmetry_equiv_pos_site_id
 _symmetry_equiv_pos_as_xyz
  1  'x, y, z'
loop_
 _atom_site_type_symbol
 _atom_site_label
 _atom_site_symmetry_multiplicity
 _atom_site_fract_x
 _atom_site_fract_y
 _atom_site_fract_z
 _atom_site_occupancy
  Ca  Ca0  1  0.167942  1.000696  0.997258  1
  Ca  Ca1  1  0.231285  0.058399  0.230382  1
  Ca  Ca2  1  0.089534  0.437552  0.756659  1
  Ca  Ca3  1  0.498741  -0.000733  0.002724  1
  Ca  Ca4  1  0.245501  0.551550  0.223104  1
  Ca  Ca5  1  0.563999  0.038386  0.258138  1
  Ca  Ca6  1  0.333318  0.500049  0.500001  1
  Ca  Ca7  1  0.102646  0.961623  0.741823  1
  Ca  Ca8  1  0.421147  0.448436  0.776918  1
  Ca  Ca9  1  0.833322  1.000018  1.000013  1
  Ca  Ca10  1  0.577141  0.562483  0.243325  1
  Ca  Ca11  1  0.896859  0.053531  0.247677  1
  Ca  Ca12  1  0.435411  0.941576  0.769613  1
  Ca  Ca13  1  0.764275  0.440006  0.758705  1
  Ca  Ca14  1  0.902391  0.559989  0.241274  1
  Ca  Ca15  1  0.769790  0.946486  0.752309  1
  Nb  Nb16  1  0.997799  0.495413  0.493682  1
  Nb  Nb17  1  0.159937  0.510728  0.987575  1
  Nb  Nb18  1  0.006941  0.973373  0.501836  1
  Nb  Nb19  1  0.506713  0.489258  0.012447  1
  Nb  Nb20  1  0.333280  1.000083  0.500038  1
  Nb  Nb21  1  0.668790  0.504687  0.506323  1
  Nb  Nb22  1  0.833356  0.499985  1.000036  1
  Nb  Nb23  1  0.659673  0.026690  0.498144  1
  O  O24  1  0.110358  0.315494  0.073527  1
  O  O25  1  0.124598  0.463461  0.274655  1
  O  O26  1  0.006287  0.209691  0.940064  1
  O  O27  1  0.142909  0.219466  0.560072  1
  O  O28  1  0.006284  0.715272  0.566215  1
  O  O29  1  0.047454  0.973381  0.272569  1
  O  O30  1  0.279619  0.064349  0.725251  1
  O  O31  1  0.335200  0.266019  0.411490  1
  O  O32  1  0.450052  0.329890  0.031270  1
  O  O33  1  0.173553  0.825375  0.439517  1
  O  O34  1  0.333267  0.781266  0.051537  1
  O  O35  1  0.176715  0.565094  0.768640  1
  O  O36  1  0.489953  0.434932  0.231366  1
  O  O37  1  0.333402  0.218672  0.948470  1
  O  O38  1  0.493058  0.174742  0.560522  1
  O  O39  1  0.216628  0.670037  0.968758  1
  O  O40  1  0.331495  0.733993  0.588564  1
  O  O41  1  0.387102  0.935681  0.274754  1
  O  O42  1  0.619215  0.026595  0.727404  1
  O  O43  1  0.660385  0.284717  0.433757  1
  O  O44  1  0.775969  0.330405  0.045230  1
  O  O45  1  0.523837  0.780464  0.439920  1
  O  O46  1  0.660432  0.790263  0.059847  1
  O  O47  1  0.542078  0.536471  0.725370  1
  O  O48  1  0.791869  0.462546  0.251974  1
  O  O49  1  0.681670  0.216970  0.917073  1
  O  O50  1  0.811014  0.211258  0.545520  1
  O  O51  1  0.556303  0.684486  0.926467  1
  O  O52  1  0.685448  0.686895  0.549071  1
  O  O53  1  0.724906  0.943582  0.275206  1
  O  O54  1  0.941718  0.056430  0.724810  1
  O  O55  1  0.981189  0.313127  0.450931  1
  O  O56  1  0.855665  0.788748  0.454436  1
  O  O57  1  0.984983  0.782986  0.082952  1
  O  O58  1  0.874856  0.537425  0.747970  1
  O  O59  1  0.890739  0.669554  0.954820  1
