# generated using pymatgen
data_VCu2BiO6
_symmetry_space_group_name_H-M   'P 1'
_cell_length_a   7.85239438
_cell_length_b   9.21280047
_cell_length_c   12.93120089
_cell_angle_alpha   74.67344231
_cell_angle_beta   72.35718198
_cell_angle_gamma   64.75912997
_symmetry_Int_Tables_number   1
_chemical_formula_structural   VCu2BiO6
_chemical_formula_sum   'V6 Cu12 Bi6 O36'
_cell_volume   796.39749407
_cell_formula_units_Z   6
loop_
 _symmetry_equiv_pos_site_id
 _symmetry_equiv_pos_as_xyz
  1  'x, y, z'
loop_
 _atom_site_type_symbol
 _atom_site_label
 _atom_site_symmetry_multiplicity
 _atom_site_fract_x
 _atom_site_fract_y
 _atom_site_fract_z
 _atom_site_occupancy
  V  V0  1  0.653516  0.154931  0.538421  1
  V  V1  1  0.957013  0.852576  0.232859  1
  V  V2  1  0.042987  0.147424  0.767141  1
  V  V3  1  0.346484  0.845069  0.461579  1
  V  V4  1  0.314981  0.492618  0.876948  1
  V  V5  1  0.685019  0.507382  0.123052  1
  Cu  Cu6  1  0.738622  0.528413  0.364174  1
  Cu  Cu7  1  0.078059  0.182855  0.020964  1
  Cu  Cu8  1  0.438727  0.822615  0.702129  1
  Cu  Cu9  1  0.367238  0.530050  0.363640  1
  Cu  Cu10  1  0.281985  0.817025  0.979464  1
  Cu  Cu11  1  0.038111  0.821608  0.702456  1
  Cu  Cu12  1  0.561273  0.177385  0.297871  1
  Cu  Cu13  1  0.632762  0.469950  0.636360  1
  Cu  Cu14  1  0.921941  0.817145  0.979036  1
  Cu  Cu15  1  0.961889  0.178392  0.297544  1
  Cu  Cu16  1  0.261378  0.471587  0.635826  1
  Cu  Cu17  1  0.718015  0.182975  0.020536  1
  Bi  Bi18  1  0.562982  0.029790  0.843423  1
  Bi  Bi19  1  0.215346  0.407630  0.161928  1
  Bi  Bi20  1  0.784654  0.592370  0.838072  1
  Bi  Bi21  1  0.879132  0.709570  0.532268  1
  Bi  Bi22  1  0.437018  0.970210  0.156577  1
  Bi  Bi23  1  0.120868  0.290430  0.467732  1
  O  O24  1  0.806256  0.324605  0.062990  1
  O  O25  1  0.507786  0.186584  0.155915  1
  O  O26  1  0.519141  0.150855  0.455991  1
  O  O27  1  0.168318  0.385568  0.919745  1
  O  O28  1  0.474377  0.615160  0.079910  1
  O  O29  1  0.366000  0.538787  0.729243  1
  O  O30  1  0.326495  0.999730  0.999902  1
  O  O31  1  0.683299  0.987986  0.645557  1
  O  O32  1  0.492214  0.813416  0.844085  1
  O  O33  1  0.316701  0.012014  0.354443  1
  O  O34  1  0.172362  0.500199  0.499488  1
  O  O35  1  0.466064  0.657596  0.410218  1
  O  O36  1  0.003879  0.630157  0.686214  1
  O  O37  1  0.673505  0.000270  0.000098  1
  O  O38  1  0.027463  0.858212  0.086483  1
  O  O39  1  0.827638  0.499801  0.500512  1
  O  O40  1  0.874021  0.152297  0.456099  1
  O  O41  1  0.847188  0.812909  0.844540  1
  O  O42  1  0.836121  0.055489  0.271348  1
  O  O43  1  0.152812  0.187091  0.155460  1
  O  O44  1  0.634000  0.461213  0.270757  1
  O  O45  1  0.972537  0.141788  0.913517  1
  O  O46  1  0.843225  0.245167  0.713055  1
  O  O47  1  0.675992  0.631868  0.686305  1
  O  O48  1  0.480859  0.849145  0.544009  1
  O  O49  1  0.125979  0.847703  0.543901  1
  O  O50  1  0.193744  0.675395  0.937010  1
  O  O51  1  0.800931  0.755167  0.286977  1
  O  O52  1  0.163879  0.944511  0.728652  1
  O  O53  1  0.525623  0.384840  0.920090  1
  O  O54  1  0.324008  0.368132  0.313695  1
  O  O55  1  0.156775  0.754833  0.286945  1
  O  O56  1  0.533936  0.342404  0.589782  1
  O  O57  1  0.996121  0.369843  0.313786  1
  O  O58  1  0.199069  0.244833  0.713023  1
  O  O59  1  0.831682  0.614432  0.080255  1
