# generated using pymatgen
data_NbI4
_symmetry_space_group_name_H-M   'P 1'
_cell_length_a   8.06197749
_cell_length_b   8.06197786
_cell_length_c   14.89742855
_cell_angle_alpha   90.00000000
_cell_angle_beta   90.00000000
_cell_angle_gamma   121.93933579
_symmetry_Int_Tables_number   1
_chemical_formula_structural   NbI4
_chemical_formula_sum   'Nb4 I16'
_cell_volume   821.67858966
_cell_formula_units_Z   4
loop_
 _symmetry_equiv_pos_site_id
 _symmetry_equiv_pos_as_xyz
  1  'x, y, z'
loop_
 _atom_site_type_symbol
 _atom_site_label
 _atom_site_symmetry_multiplicity
 _atom_site_fract_x
 _atom_site_fract_y
 _atom_site_fract_z
 _atom_site_occupancy
  Nb  Nb0  1  0.662932  0.909708  0.376677  1
  Nb  Nb1  1  0.337068  0.090292  0.876677  1
  Nb  Nb2  1  0.090292  0.337068  0.376677  1
  Nb  Nb3  1  0.909708  0.662932  0.876677  1
  I  I4  1  0.259429  0.227591  0.027962  1
  I  I5  1  0.265516  0.734484  0.448227  1
  I  I6  1  0.772409  0.740571  0.027962  1
  I  I7  1  0.512295  0.487705  0.804949  1
  I  I8  1  0.746134  0.253866  0.460429  1
  I  I9  1  0.740571  0.772409  0.527962  1
  I  I10  1  0.990223  0.525369  0.726369  1
  I  I11  1  0.992785  0.007215  0.793079  1
  I  I12  1  0.253866  0.746134  0.960429  1
  I  I13  1  0.474631  0.009777  0.726369  1
  I  I14  1  0.009777  0.474631  0.226369  1
  I  I15  1  0.525369  0.990223  0.226369  1
  I  I16  1  0.487705  0.512295  0.304949  1
  I  I17  1  0.007215  0.992785  0.293079  1
  I  I18  1  0.227591  0.259429  0.527962  1
  I  I19  1  0.734484  0.265516  0.948227  1
