# generated using pymatgen
data_Cr2(PO4)3
_symmetry_space_group_name_H-M   'P 1'
_cell_length_a   8.79415979
_cell_length_b   8.79415982
_cell_length_c   8.79416004
_cell_angle_alpha   57.12694506
_cell_angle_beta   57.12694483
_cell_angle_gamma   57.12694617
_symmetry_Int_Tables_number   1
_chemical_formula_structural   Cr2(PO4)3
_chemical_formula_sum   'Cr4 P6 O24'
_cell_volume   449.07614300
_cell_formula_units_Z   2
loop_
 _symmetry_equiv_pos_site_id
 _symmetry_equiv_pos_as_xyz
  1  'x, y, z'
loop_
 _atom_site_type_symbol
 _atom_site_label
 _atom_site_symmetry_multiplicity
 _atom_site_fract_x
 _atom_site_fract_y
 _atom_site_fract_z
 _atom_site_occupancy
  O  O0  1  0.903642  0.268278  0.096304  1
  O  O1  1  0.838413  0.765549  0.486708  1
  O  O2  1  0.765549  0.486707  0.838412  1
  O  O3  1  0.486707  0.838411  0.765550  1
  O  O4  1  0.161588  0.234450  0.513293  1
  O  O5  1  0.234451  0.513293  0.161587  1
  O  O6  1  0.513292  0.161588  0.234451  1
  O  O7  1  0.187635  0.549870  0.474309  1
  O  O8  1  0.096304  0.903642  0.268278  1
  O  O9  1  0.004101  0.797211  0.626588  1
  O  O10  1  0.268278  0.096304  0.903642  1
  O  O11  1  0.474309  0.187635  0.549870  1
  O  O12  1  0.549871  0.474309  0.187634  1
  O  O13  1  0.202789  0.373412  0.995899  1
  O  O14  1  0.903696  0.096358  0.731721  1
  O  O15  1  0.373410  0.995899  0.202790  1
  O  O16  1  0.626588  0.004101  0.797210  1
  O  O17  1  0.812365  0.450129  0.525691  1
  O  O18  1  0.797211  0.626589  0.004101  1
  O  O19  1  0.450129  0.525692  0.812365  1
  O  O20  1  0.525691  0.812365  0.450129  1
  O  O21  1  0.731722  0.903696  0.096358  1
  O  O22  1  0.995899  0.202790  0.373411  1
  O  O23  1  0.096358  0.731721  0.903696  1
  P  P24  1  0.465831  0.030606  0.751918  1
  P  P25  1  0.751918  0.465830  0.030607  1
  P  P26  1  0.248082  0.534169  0.969393  1
  P  P27  1  0.534169  0.969393  0.248082  1
  P  P28  1  0.030607  0.751918  0.465831  1
  P  P29  1  0.969393  0.248081  0.534170  1
  Cr  Cr30  1  0.858629  0.858628  0.858629  1
  Cr  Cr31  1  0.644303  0.644302  0.644304  1
  Cr  Cr32  1  0.355697  0.355697  0.355697  1
  Cr  Cr33  1  0.141372  0.141371  0.141371  1
