# generated using pymatgen
data_Hg9Bi2(AsBr3)4
_symmetry_space_group_name_H-M   'P 1'
_cell_length_a   11.23111674
_cell_length_b   11.23111674
_cell_length_c   29.20922877
_cell_angle_alpha   90.00000000
_cell_angle_beta   90.00000000
_cell_angle_gamma   90.00000000
_symmetry_Int_Tables_number   1
_chemical_formula_structural   Hg9Bi2(AsBr3)4
_chemical_formula_sum   'Hg36 Bi8 As16 Br48'
_cell_volume   3684.39320868
_cell_formula_units_Z   4
loop_
 _symmetry_equiv_pos_site_id
 _symmetry_equiv_pos_as_xyz
  1  'x, y, z'
loop_
 _atom_site_type_symbol
 _atom_site_label
 _atom_site_symmetry_multiplicity
 _atom_site_fract_x
 _atom_site_fract_y
 _atom_site_fract_z
 _atom_site_occupancy
  Hg  Hg0  1  0.832640  0.531970  0.998539  1
  Hg  Hg1  1  0.468030  0.832640  0.748539  1
  Hg  Hg2  1  0.891494  0.195305  0.950443  1
  Hg  Hg3  1  0.426021  0.244477  0.882882  1
  Hg  Hg4  1  0.574449  0.165886  0.699053  1
  Hg  Hg5  1  0.450146  0.310085  0.570575  1
  Hg  Hg6  1  0.029574  0.897240  0.890135  1
  Hg  Hg7  1  0.510510  0.560410  0.944227  1
  Hg  Hg8  1  0.108506  0.804695  0.450443  1
  Hg  Hg9  1  0.733102  0.864203  0.953847  1
  Hg  Hg10  1  0.195305  0.108506  0.200443  1
  Hg  Hg11  1  0.027091  0.268421  0.074007  1
  Hg  Hg12  1  0.970426  0.102760  0.390135  1
  Hg  Hg13  1  0.135797  0.733102  0.703847  1
  Hg  Hg14  1  0.439590  0.510510  0.694227  1
  Hg  Hg15  1  0.834114  0.574449  0.449053  1
  Hg  Hg16  1  0.489490  0.439590  0.444227  1
  Hg  Hg17  1  0.549854  0.689915  0.070575  1
  Hg  Hg18  1  0.560410  0.489490  0.194227  1
  Hg  Hg19  1  0.864203  0.266898  0.203847  1
  Hg  Hg20  1  0.167360  0.468030  0.498539  1
  Hg  Hg21  1  0.897240  0.970426  0.140135  1
  Hg  Hg22  1  0.268421  0.972909  0.324007  1
  Hg  Hg23  1  0.804695  0.891494  0.700443  1
  Hg  Hg24  1  0.425551  0.834114  0.199053  1
  Hg  Hg25  1  0.689915  0.450146  0.320575  1
  Hg  Hg26  1  0.573979  0.755523  0.382882  1
  Hg  Hg27  1  0.755523  0.426021  0.632882  1
  Hg  Hg28  1  0.310085  0.549854  0.820575  1
  Hg  Hg29  1  0.731579  0.027091  0.824007  1
  Hg  Hg30  1  0.244477  0.573979  0.132882  1
  Hg  Hg31  1  0.266898  0.135797  0.453847  1
  Hg  Hg32  1  0.531970  0.167360  0.248539  1
  Hg  Hg33  1  0.972909  0.731579  0.574007  1
  Hg  Hg34  1  0.102760  0.029574  0.640135  1
  Hg  Hg35  1  0.165886  0.425551  0.949053  1
  Bi  Bi36  1  0.773901  0.134109  0.509027  1
  Bi  Bi37  1  0.568453  0.187057  0.062996  1
  Bi  Bi38  1  0.812943  0.568453  0.812996  1
  Bi  Bi39  1  0.187057  0.431547  0.312996  1
  Bi  Bi40  1  0.134109  0.226099  0.759027  1
  Bi  Bi41  1  0.226099  0.865891  0.009027  1
  Bi  Bi42  1  0.431547  0.812943  0.562996  1
  Bi  Bi43  1  0.865891  0.773901  0.259027  1
  As  As44  1  0.324320  0.658303  0.743989  1
  As  As45  1  0.349215  0.451795  0.898159  1
  As  As46  1  0.341697  0.324320  0.493989  1
  As  As47  1  0.635384  0.985146  0.746271  1
  As  As48  1  0.013343  0.161532  0.151511  1
  As  As49  1  0.985146  0.364616  0.996271  1
  As  As50  1  0.650785  0.548205  0.398159  1
  As  As51  1  0.014854  0.635384  0.496271  1
  As  As52  1  0.838468  0.013343  0.901511  1
  As  As53  1  0.451795  0.650785  0.148159  1
  As  As54  1  0.658303  0.675680  0.993989  1
  As  As55  1  0.548205  0.349215  0.648159  1
  As  As56  1  0.675680  0.341697  0.243989  1
  As  As57  1  0.364616  0.014854  0.246271  1
  As  As58  1  0.161532  0.986657  0.401511  1
  As  As59  1  0.986657  0.838468  0.651511  1
  Br  Br60  1  0.794497  0.102476  0.601383  1
  Br  Br61  1  0.231712  0.796520  0.898610  1
  Br  Br62  1  0.047276  0.479444  0.769045  1
  Br  Br63  1  0.381007  0.302449  0.349625  1
  Br  Br64  1  0.612434  0.700071  0.270767  1
  Br  Br65  1  0.768288  0.203480  0.398610  1
  Br  Br66  1  0.897524  0.794497  0.351383  1
  Br  Br67  1  0.203480  0.231712  0.648610  1
  Br  Br68  1  0.393390  0.702682  0.472064  1
  Br  Br69  1  0.302449  0.618993  0.599625  1
  Br  Br70  1  0.697551  0.381007  0.099625  1
  Br  Br71  1  0.618993  0.697551  0.849625  1
  Br  Br72  1  0.205503  0.897524  0.101383  1
  Br  Br73  1  0.520556  0.047276  0.519045  1
  Br  Br74  1  0.905209  0.165487  0.729641  1
  Br  Br75  1  0.297318  0.393390  0.222064  1
  Br  Br76  1  0.165487  0.094791  0.979641  1
  Br  Br77  1  0.700071  0.387566  0.520767  1
  Br  Br78  1  0.586063  0.065013  0.147859  1
  Br  Br79  1  0.063725  0.200959  0.292799  1
  Br  Br80  1  0.413937  0.934987  0.647859  1
  Br  Br81  1  0.518033  0.970490  0.373869  1
  Br  Br82  1  0.289353  0.653027  0.335738  1
  Br  Br83  1  0.606610  0.297318  0.972064  1
  Br  Br84  1  0.009801  0.211885  0.505940  1
  Br  Br85  1  0.990199  0.788115  0.005940  1
  Br  Br86  1  0.934987  0.586063  0.897859  1
  Br  Br87  1  0.094791  0.834513  0.229641  1
  Br  Br88  1  0.788115  0.009801  0.255940  1
  Br  Br89  1  0.653027  0.710647  0.585738  1
  Br  Br90  1  0.952724  0.520556  0.269045  1
  Br  Br91  1  0.346973  0.289353  0.085738  1
  Br  Br92  1  0.936275  0.799041  0.792799  1
  Br  Br93  1  0.299929  0.612434  0.020767  1
  Br  Br94  1  0.211885  0.990199  0.755940  1
  Br  Br95  1  0.799041  0.063725  0.042799  1
  Br  Br96  1  0.710647  0.346973  0.835738  1
  Br  Br97  1  0.387566  0.299929  0.770767  1
  Br  Br98  1  0.102476  0.205503  0.851383  1
  Br  Br99  1  0.970490  0.481967  0.623869  1
  Br  Br100  1  0.479444  0.952724  0.019045  1
  Br  Br101  1  0.029510  0.518033  0.123869  1
  Br  Br102  1  0.796520  0.768288  0.148610  1
  Br  Br103  1  0.481967  0.029510  0.873869  1
  Br  Br104  1  0.065013  0.413937  0.397859  1
  Br  Br105  1  0.702682  0.606610  0.722064  1
  Br  Br106  1  0.200959  0.936275  0.542799  1
  Br  Br107  1  0.834513  0.905209  0.479641  1
