# generated using pymatgen
data_NiAs2S6N4(OF2)8
_symmetry_space_group_name_H-M   'P 1'
_cell_length_a   9.81089513
_cell_length_b   15.50217530
_cell_length_c   16.63166659
_cell_angle_alpha   90.00000000
_cell_angle_beta   90.00000000
_cell_angle_gamma   106.18504771
_symmetry_Int_Tables_number   1
_chemical_formula_structural   NiAs2S6N4(OF2)8
_chemical_formula_sum   'Ni4 As8 S24 N16 O32 F64'
_cell_volume   2429.26018271
_cell_formula_units_Z   4
loop_
 _symmetry_equiv_pos_site_id
 _symmetry_equiv_pos_as_xyz
  1  'x, y, z'
loop_
 _atom_site_type_symbol
 _atom_site_label
 _atom_site_symmetry_multiplicity
 _atom_site_fract_x
 _atom_site_fract_y
 _atom_site_fract_z
 _atom_site_occupancy
  Ni  Ni0  1  0.550248  0.740428  0.854414  1
  Ni  Ni1  1  0.949752  0.759572  0.354414  1
  Ni  Ni2  1  0.050248  0.240427  0.645586  1
  Ni  Ni3  1  0.449752  0.259572  0.145586  1
  As  As4  1  0.230143  0.186128  0.505293  1
  As  As5  1  0.098937  0.448337  0.683220  1
  As  As6  1  0.769857  0.813872  0.494707  1
  As  As7  1  0.901063  0.551663  0.316780  1
  As  As8  1  0.269857  0.313872  0.005293  1
  As  As9  1  0.730143  0.686128  0.994707  1
  As  As10  1  0.401063  0.051663  0.183220  1
  As  As11  1  0.598937  0.948337  0.816780  1
  S  S12  1  0.261575  0.404058  0.170790  1
  S  S13  1  0.210542  0.664840  0.345378  1
  S  S14  1  0.256738  0.572652  0.922401  1
  S  S15  1  0.243262  0.927348  0.422401  1
  S  S16  1  0.939582  0.203164  0.843153  1
  S  S17  1  0.560418  0.296836  0.343153  1
  S  S18  1  0.060418  0.796836  0.156847  1
  S  S19  1  0.761575  0.904058  0.329210  1
  S  S20  1  0.738425  0.595942  0.829210  1
  S  S21  1  0.710542  0.164840  0.154621  1
  S  S22  1  0.358075  0.374296  0.706163  1
  S  S23  1  0.238425  0.095942  0.670790  1
  S  S24  1  0.141925  0.125704  0.206163  1
  S  S25  1  0.439582  0.703164  0.656847  1
  S  S26  1  0.472758  0.202310  0.955934  1
  S  S27  1  0.743262  0.427348  0.077599  1
  S  S28  1  0.858075  0.874296  0.793837  1
  S  S29  1  0.641925  0.625704  0.293837  1
  S  S30  1  0.027242  0.297690  0.455934  1
  S  S31  1  0.756738  0.072652  0.577599  1
  S  S32  1  0.527242  0.797690  0.044066  1
  S  S33  1  0.972758  0.702310  0.544066  1
  S  S34  1  0.289458  0.835160  0.845379  1
  S  S35  1  0.789458  0.335160  0.654621  1
  N  N36  1  0.410467  0.247815  0.020063  1
  N  N37  1  0.444065  0.841158  0.840880  1
  N  N38  1  0.944065  0.341158  0.659120  1
  N  N39  1  0.812239  0.839953  0.380615  1
  N  N40  1  0.187761  0.160047  0.619385  1
  N  N41  1  0.589533  0.752185  0.979937  1
  N  N42  1  0.555935  0.158842  0.159120  1
  N  N43  1  0.706339  0.859207  0.817074  1
  N  N44  1  0.312239  0.339953  0.119385  1
  N  N45  1  0.089533  0.252185  0.520063  1
  N  N46  1  0.206339  0.359207  0.682926  1
  N  N47  1  0.793661  0.640793  0.317074  1
  N  N48  1  0.293661  0.140793  0.182926  1
  N  N49  1  0.055935  0.658842  0.340880  1
  N  N50  1  0.910467  0.747815  0.479937  1
  N  N51  1  0.687761  0.660047  0.880615  1
  O  O52  1  0.625559  0.376191  0.127940  1
  O  O53  1  0.125559  0.876191  0.372060  1
  O  O54  1  0.766965  0.387630  0.002510  1
  O  O55  1  0.810771  0.248749  0.139403  1
  O  O56  1  0.329820  0.748337  0.657634  1
  O  O57  1  0.417701  0.301436  0.714782  1
  O  O58  1  0.733035  0.112370  0.502510  1
  O  O59  1  0.586351  0.165894  0.973993  1
  O  O60  1  0.917701  0.801436  0.785218  1
  O  O61  1  0.018271  0.202910  0.768278  1
  O  O62  1  0.874441  0.123809  0.627940  1
  O  O63  1  0.170180  0.751663  0.157634  1
  O  O64  1  0.374441  0.623809  0.872060  1
  O  O65  1  0.310771  0.748749  0.360597  1
  O  O66  1  0.413649  0.834106  0.026007  1
  O  O67  1  0.802164  0.916978  0.247395  1
  O  O68  1  0.189229  0.751251  0.860597  1
  O  O69  1  0.689229  0.251251  0.639403  1
  O  O70  1  0.913649  0.334106  0.473993  1
  O  O71  1  0.266965  0.887630  0.497490  1
  O  O72  1  0.197836  0.083022  0.752605  1
  O  O73  1  0.481729  0.297090  0.268278  1
  O  O74  1  0.518271  0.702910  0.731722  1
  O  O75  1  0.233035  0.612370  0.997490  1
  O  O76  1  0.302164  0.416978  0.252605  1
  O  O77  1  0.981729  0.797090  0.231722  1
  O  O78  1  0.582299  0.698564  0.285218  1
  O  O79  1  0.829820  0.248337  0.842366  1
  O  O80  1  0.697836  0.583022  0.747395  1
  O  O81  1  0.082299  0.198564  0.214782  1
  O  O82  1  0.086351  0.665894  0.526007  1
  O  O83  1  0.670180  0.251663  0.342366  1
  F  F84  1  0.514201  0.264835  0.880200  1
  F  F85  1  0.739823  0.784157  0.597753  1
  F  F86  1  0.240336  0.593492  0.404818  1
  F  F87  1  0.631886  0.716805  0.468277  1
  F  F88  1  0.645597  0.877722  0.499369  1
  F  F89  1  0.866523  0.533072  0.420667  1
  F  F90  1  0.093511  0.088469  0.477262  1
  F  F91  1  0.760177  0.715843  0.097753  1
  F  F92  1  0.894307  0.934193  0.715860  1
  F  F93  1  0.239823  0.284157  0.902247  1
  F  F94  1  0.751059  0.039597  0.794858  1
  F  F95  1  0.366523  0.033072  0.079333  1
  F  F96  1  0.368114  0.283195  0.531723  1
  F  F97  1  0.759664  0.406508  0.595182  1
  F  F98  1  0.248941  0.960403  0.205142  1
  F  F99  1  0.430506  0.069757  0.288312  1
  F  F100  1  0.903644  0.613884  0.834987  1
  F  F101  1  0.131886  0.216805  0.031723  1
  F  F102  1  0.704967  0.500854  0.870925  1
  F  F103  1  0.758618  0.121397  0.231174  1
  F  F104  1  0.605693  0.565807  0.215860  1
  F  F105  1  0.251059  0.539597  0.705142  1
  F  F106  1  0.069494  0.430243  0.788312  1
  F  F107  1  0.354403  0.122278  0.500631  1
  F  F108  1  0.096356  0.386116  0.165013  1
  F  F109  1  0.258618  0.621397  0.268826  1
  F  F110  1  0.133477  0.466928  0.579333  1
  F  F111  1  0.795033  0.999146  0.370925  1
  F  F112  1  0.394307  0.434193  0.784140  1
  F  F113  1  0.646738  0.870631  0.088556  1
  F  F114  1  0.511604  0.979582  0.183319  1
  F  F115  1  0.204967  0.000854  0.629075  1
  F  F116  1  0.406489  0.411531  0.977262  1
  F  F117  1  0.459075  0.446813  0.650171  1
  F  F118  1  0.014201  0.764835  0.619800  1
  F  F119  1  0.748941  0.460403  0.294858  1
  F  F120  1  0.959075  0.946813  0.849829  1
  F  F121  1  0.569494  0.930243  0.711688  1
  F  F122  1  0.868114  0.783195  0.968277  1
  F  F123  1  0.260177  0.215843  0.402247  1
  F  F124  1  0.403644  0.113884  0.665013  1
  F  F125  1  0.146738  0.370631  0.411444  1
  F  F126  1  0.985799  0.235165  0.380200  1
  F  F127  1  0.741382  0.378603  0.731174  1
  F  F128  1  0.854403  0.622278  0.999369  1
  F  F129  1  0.930506  0.569757  0.211688  1
  F  F130  1  0.596356  0.886116  0.334987  1
  F  F131  1  0.633477  0.966928  0.920667  1
  F  F132  1  0.853262  0.629369  0.588556  1
  F  F133  1  0.906489  0.911531  0.522738  1
  F  F134  1  0.241382  0.878603  0.768826  1
  F  F135  1  0.353262  0.129369  0.911444  1
  F  F136  1  0.295033  0.499146  0.129075  1
  F  F137  1  0.259664  0.906508  0.904818  1
  F  F138  1  0.145597  0.377722  0.000631  1
  F  F139  1  0.593511  0.588469  0.022738  1
  F  F140  1  0.011604  0.479582  0.316681  1
  F  F141  1  0.540925  0.553187  0.349829  1
  F  F142  1  0.740336  0.093492  0.095182  1
  F  F143  1  0.485799  0.735165  0.119800  1
  F  F144  1  0.488396  0.020418  0.816681  1
  F  F145  1  0.105693  0.065807  0.284140  1
  F  F146  1  0.040925  0.053187  0.150171  1
  F  F147  1  0.988396  0.520418  0.683319  1
