# generated using pymatgen
data_CdI2
_symmetry_space_group_name_H-M   'P 1'
_cell_length_a   4.33749743
_cell_length_b   4.33749769
_cell_length_c   125.80690075
_cell_angle_alpha   90.00000000
_cell_angle_beta   90.00000000
_cell_angle_gamma   119.99999792
_symmetry_Int_Tables_number   1
_chemical_formula_structural   CdI2
_chemical_formula_sum   'Cd16 I32'
_cell_volume   2049.80992570
_cell_formula_units_Z   16
loop_
 _symmetry_equiv_pos_site_id
 _symmetry_equiv_pos_as_xyz
  1  'x, y, z'
loop_
 _atom_site_type_symbol
 _atom_site_label
 _atom_site_symmetry_multiplicity
 _atom_site_fract_x
 _atom_site_fract_y
 _atom_site_fract_z
 _atom_site_occupancy
  Cd  Cd0  1  0.666667  0.333333  0.765643  1
  Cd  Cd1  1  0.666667  0.333333  0.140596  1
  Cd  Cd2  1  0.666667  0.333333  0.015630  1
  Cd  Cd3  1  0.000000  0.000000  0.328117  1
  Cd  Cd4  1  0.000000  0.000000  0.703162  1
  Cd  Cd5  1  0.000000  0.000000  0.578124  1
  Cd  Cd6  1  0.666667  0.333333  0.265638  1
  Cd  Cd7  1  0.000000  0.000000  0.453052  1
  Cd  Cd8  1  0.666667  0.333333  0.640593  1
  Cd  Cd9  1  0.666667  0.333333  0.828136  1
  Cd  Cd10  1  0.666667  0.333333  0.390691  1
  Cd  Cd11  1  0.666667  0.333333  0.515633  1
  Cd  Cd12  1  0.000000  0.000000  0.203172  1
  Cd  Cd13  1  0.000000  0.000000  0.078113  1
  Cd  Cd14  1  0.000000  0.000000  0.890634  1
  Cd  Cd15  1  0.666667  0.333333  0.953109  1
  I  I16  1  0.666667  0.333333  0.876983  1
  I  I17  1  0.333333  0.666667  0.029287  1
  I  I18  1  0.333333  0.666667  0.279299  1
  I  I19  1  0.333333  0.666667  0.529292  1
  I  I20  1  0.666667  0.333333  0.189476  1
  I  I21  1  0.000000  0.000000  0.377036  1
  I  I22  1  0.000000  0.000000  0.939463  1
  I  I23  1  0.333333  0.666667  0.154294  1
  I  I24  1  0.333333  0.666667  0.654278  1
  I  I25  1  0.333333  0.666667  0.091754  1
  I  I26  1  0.333333  0.666667  0.716808  1
  I  I27  1  0.666667  0.333333  0.314365  1
  I  I28  1  0.333333  0.666667  0.466725  1
  I  I29  1  0.666667  0.333333  0.689487  1
  I  I30  1  0.666667  0.333333  0.064464  1
  I  I31  1  0.333333  0.666667  0.904294  1
  I  I32  1  0.000000  0.000000  0.251985  1
  I  I33  1  0.000000  0.000000  0.501983  1
  I  I34  1  0.666667  0.333333  0.564477  1
  I  I35  1  0.333333  0.666667  0.779301  1
  I  I36  1  0.000000  0.000000  0.751991  1
  I  I37  1  0.000000  0.000000  0.126904  1
  I  I38  1  0.000000  0.000000  0.814464  1
  I  I39  1  0.333333  0.666667  0.404342  1
  I  I40  1  0.333333  0.666667  0.216847  1
  I  I41  1  0.000000  0.000000  0.001985  1
  I  I42  1  0.333333  0.666667  0.966750  1
  I  I43  1  0.666667  0.333333  0.439372  1
  I  I44  1  0.333333  0.666667  0.841806  1
  I  I45  1  0.000000  0.000000  0.626925  1
  I  I46  1  0.333333  0.666667  0.591764  1
  I  I47  1  0.333333  0.666667  0.341837  1
