# generated using pymatgen
data_CaV4(CuO4)3
_symmetry_space_group_name_H-M   'P 1'
_cell_length_a   6.40870910
_cell_length_b   6.41363928
_cell_length_c   6.41131455
_cell_angle_alpha   109.43904813
_cell_angle_beta   109.36666027
_cell_angle_gamma   109.42638863
_symmetry_Int_Tables_number   1
_chemical_formula_structural   CaV4(CuO4)3
_chemical_formula_sum   'Ca1 V4 Cu3 O12'
_cell_volume   203.31502742
_cell_formula_units_Z   1
loop_
 _symmetry_equiv_pos_site_id
 _symmetry_equiv_pos_as_xyz
  1  'x, y, z'
loop_
 _atom_site_type_symbol
 _atom_site_label
 _atom_site_symmetry_multiplicity
 _atom_site_fract_x
 _atom_site_fract_y
 _atom_site_fract_z
 _atom_site_occupancy
  Ca  Ca0  1  0.999999  1.000000  0.999999  1
  V  V1  1  0.000003  0.000003  0.499999  1
  V  V2  1  0.000006  0.500007  0.000012  1
  V  V3  1  0.500005  0.500005  0.500003  1
  V  V4  1  0.499998  -0.000001  -0.000004  1
  Cu  Cu5  1  0.499997  0.500001  0.999997  1
  Cu  Cu6  1  0.000001  0.500001  0.500002  1
  Cu  Cu7  1  0.500001  -0.000004  0.499997  1
  O  O8  1  0.518139  0.820694  0.698057  1
  O  O9  1  0.122812  0.824060  0.304790  1
  O  O10  1  0.877186  0.175938  0.695209  1
  O  O11  1  0.181835  0.302868  0.480591  1
  O  O12  1  0.298009  0.480242  0.178246  1
  O  O13  1  0.701989  0.519756  0.821754  1
  O  O14  1  0.821953  0.301776  0.122432  1
  O  O15  1  0.696767  0.875509  0.176941  1
  O  O16  1  0.481859  0.179305  0.301942  1
  O  O17  1  0.178045  0.698223  0.877568  1
  O  O18  1  0.818163  0.697131  0.519409  1
  O  O19  1  0.303233  0.124491  0.823060  1
