# generated using pymatgen
data_Ba2TbBiO6
_symmetry_space_group_name_H-M   'P 1'
_cell_length_a   6.16524930
_cell_length_b   6.16068176
_cell_length_c   6.17191192
_cell_angle_alpha   60.26423001
_cell_angle_beta   60.03567620
_cell_angle_gamma   59.97543693
_symmetry_Int_Tables_number   1
_chemical_formula_structural   Ba2TbBiO6
_chemical_formula_sum   'Ba2 Tb1 Bi1 O6'
_cell_volume   166.10406830
_cell_formula_units_Z   1
loop_
 _symmetry_equiv_pos_site_id
 _symmetry_equiv_pos_as_xyz
  1  'x, y, z'
loop_
 _atom_site_type_symbol
 _atom_site_label
 _atom_site_symmetry_multiplicity
 _atom_site_fract_x
 _atom_site_fract_y
 _atom_site_fract_z
 _atom_site_occupancy
  O  O0  1  0.716150  0.271000  0.785539  1
  O  O1  1  0.772687  0.729000  0.214462  1
  O  O2  1  0.227313  0.271000  0.785538  1
  Ba  Ba3  1  0.750955  0.252177  0.245911  1
  O  O4  1  0.743105  0.810225  0.703564  1
  O  O5  1  0.256895  0.189775  0.296436  1
  Tb  Tb6  1  0.000000  0.500000  0.500000  1
  Ba  Ba7  1  0.249044  0.747823  0.754089  1
  O  O8  1  0.283850  0.729000  0.214461  1
  Bi  Bi9  1  0.500000  1.000000  1.000000  1
