# generated using pymatgen
data_U2V2O11
_symmetry_space_group_name_H-M   'P 1'
_cell_length_a   5.99462927
_cell_length_b   6.83205648
_cell_length_c   13.25790537
_cell_angle_alpha   90.00000000
_cell_angle_beta   90.00000000
_cell_angle_gamma   110.19218077
_symmetry_Int_Tables_number   1
_chemical_formula_structural   U2V2O11
_chemical_formula_sum   'U4 V4 O22'
_cell_volume   509.61422678
_cell_formula_units_Z   2
loop_
 _symmetry_equiv_pos_site_id
 _symmetry_equiv_pos_as_xyz
  1  'x, y, z'
loop_
 _atom_site_type_symbol
 _atom_site_label
 _atom_site_symmetry_multiplicity
 _atom_site_fract_x
 _atom_site_fract_y
 _atom_site_fract_z
 _atom_site_occupancy
  U  U0  1  0.167734  0.328358  0.176908  1
  U  U1  1  0.332266  0.171642  0.676908  1
  U  U2  1  0.667734  0.828358  0.323092  1
  U  U3  1  0.832266  0.671642  0.823092  1
  V  V4  1  0.643926  0.852111  0.070705  1
  V  V5  1  0.143926  0.352111  0.429295  1
  V  V6  1  0.356074  0.147889  0.929295  1
  V  V7  1  0.856074  0.647889  0.570705  1
  O  O8  1  0.545465  0.050776  0.647034  1
  O  O9  1  0.341192  0.509017  0.342056  1
  O  O10  1  0.119939  0.297866  0.698995  1
  O  O11  1  0.281649  0.237003  0.510855  1
  O  O12  1  0.461322  0.669942  0.153341  1
  O  O13  1  0.841192  0.009017  0.157944  1
  O  O14  1  0.619939  0.797866  0.801005  1
  O  O15  1  0.158808  0.990983  0.842056  1
  O  O16  1  0.954535  0.449224  0.147034  1
  O  O17  1  0.380061  0.202134  0.198995  1
  O  O18  1  0.218351  0.262997  0.010855  1
  O  O19  1  0.045465  0.550776  0.852966  1
  O  O20  1  0.454535  0.949224  0.352966  1
  O  O21  1  0.538678  0.330058  0.846659  1
  O  O22  1  0.658808  0.490983  0.657944  1
  O  O23  1  0.038678  0.830058  0.653341  1
  O  O24  1  0.880061  0.702134  0.301005  1
  O  O25  1  0.961322  0.169942  0.346659  1
  O  O26  1  0.781649  0.737003  0.989145  1
  O  O27  1  0.500000  0.000000  0.000000  1
  O  O28  1  0.718351  0.762997  0.489145  1
  O  O29  1  0.000000  0.500000  0.500000  1
