# generated using pymatgen
data_K17Fe5O16
_symmetry_space_group_name_H-M   'P 1'
_cell_length_a   6.79114923
_cell_length_b   6.79433959
_cell_length_c   18.63027125
_cell_angle_alpha   79.49831067
_cell_angle_beta   84.88017566
_cell_angle_gamma   60.67575321
_symmetry_Int_Tables_number   1
_chemical_formula_structural   K17Fe5O16
_chemical_formula_sum   'K17 Fe5 O16'
_cell_volume   736.92153298
_cell_formula_units_Z   1
loop_
 _symmetry_equiv_pos_site_id
 _symmetry_equiv_pos_as_xyz
  1  'x, y, z'
loop_
 _atom_site_type_symbol
 _atom_site_label
 _atom_site_symmetry_multiplicity
 _atom_site_fract_x
 _atom_site_fract_y
 _atom_site_fract_z
 _atom_site_occupancy
  K  K0  1  0.879463  0.083673  0.830836  1
  K  K1  1  0.457852  0.326836  0.451593  1
  K  K2  1  0.607472  0.827346  0.338433  1
  K  K3  1  0.017667  0.593069  0.721305  1
  K  K4  1  0.458138  0.494997  0.091812  1
  K  K5  1  0.582940  0.997583  0.999974  1
  K  K6  1  0.607532  0.165880  0.661563  1
  K  K7  1  0.458198  0.586690  0.908198  1
  K  K8  1  0.011073  0.673931  0.534231  1
  K  K9  1  0.457896  0.778377  0.548448  1
  K  K10  1  0.011338  0.208206  0.465738  1
  K  K11  1  0.879235  0.915006  0.169183  1
  K  K12  1  0.474045  0.405597  0.274997  1
  K  K13  1  0.017650  0.314405  0.278625  1
  K  K14  1  0.999967  0.410200  0.093202  1
  K  K15  1  -0.000055  0.503313  0.906842  1
  K  K16  1  0.474194  0.680665  0.725001  1
  Fe  Fe17  1  0.074477  0.998874  0.999999  1
  Fe  Fe18  1  0.085261  0.178058  0.641300  1
  Fe  Fe19  1  0.085230  0.819418  0.358701  1
  Fe  Fe20  1  0.388965  0.088781  0.820714  1
  Fe  Fe21  1  0.389050  0.909388  0.179285  1
  O  O22  1  0.408898  0.173374  0.185824  1
  O  O23  1  0.196036  0.868286  0.257265  1
  O  O24  1  0.673264  0.640117  0.185765  1
  O  O25  1  0.408849  0.359328  0.814170  1
  O  O26  1  0.066199  0.916719  0.626744  1
  O  O27  1  0.673193  0.826057  0.814236  1
  O  O28  1  0.195965  0.125579  0.742734  1
  O  O29  1  0.056722  0.730006  0.999991  1
  O  O30  1  0.299306  0.210304  0.573459  1
  O  O31  1  0.803432  0.453831  0.628534  1
  O  O32  1  0.066125  0.543564  0.373256  1
  O  O33  1  0.299325  0.783770  0.426549  1
  O  O34  1  0.803478  0.082503  0.371467  1
  O  O35  1  0.244566  0.042088  0.914016  1
  O  O36  1  0.790408  0.265391  0.000019  1
  O  O37  1  0.244608  0.956041  0.085991  1
