# generated using pymatgen
data_Na2B4O7
_symmetry_space_group_name_H-M   'P 1'
_cell_length_a   6.82875495
_cell_length_b   9.71578489
_cell_length_c   13.42440435
_cell_angle_alpha   104.35187687
_cell_angle_beta   91.91612893
_cell_angle_gamma   106.30983225
_symmetry_Int_Tables_number   1
_chemical_formula_structural   Na2B4O7
_chemical_formula_sum   'Na12 B24 O42'
_cell_volume   823.04297464
_cell_formula_units_Z   6
loop_
 _symmetry_equiv_pos_site_id
 _symmetry_equiv_pos_as_xyz
  1  'x, y, z'
loop_
 _atom_site_type_symbol
 _atom_site_label
 _atom_site_symmetry_multiplicity
 _atom_site_fract_x
 _atom_site_fract_y
 _atom_site_fract_z
 _atom_site_occupancy
  Na  Na0  1  0.701846  0.404457  0.522653  1
  Na  Na1  1  0.298154  0.595543  0.477347  1
  Na  Na2  1  0.420446  0.172073  0.620985  1
  Na  Na3  1  0.579554  0.827927  0.379015  1
  Na  Na4  1  0.134132  0.907260  0.297983  1
  Na  Na5  1  0.865868  0.092740  0.702017  1
  Na  Na6  1  0.672356  0.401121  0.030258  1
  Na  Na7  1  0.447932  0.146543  0.113621  1
  Na  Na8  1  0.923202  0.108302  0.200088  1
  Na  Na9  1  0.076798  0.891698  0.799912  1
  Na  Na10  1  0.327644  0.598879  0.969742  1
  Na  Na11  1  0.552068  0.853457  0.886379  1
  B  B12  1  0.879096  0.183981  0.954976  1
  B  B13  1  0.820860  0.664986  0.911645  1
  B  B14  1  0.426579  0.873770  0.673104  1
  B  B15  1  0.757097  0.401692  0.299989  1
  B  B16  1  0.120904  0.816019  0.045024  1
  B  B17  1  0.304302  0.603044  0.199302  1
  B  B18  1  0.695698  0.396956  0.800698  1
  B  B19  1  0.295934  0.246569  0.420694  1
  B  B20  1  0.085215  0.845836  0.575079  1
  B  B21  1  0.708090  0.598130  0.718908  1
  B  B22  1  0.179140  0.335014  0.088355  1
  B  B23  1  0.234907  0.219334  0.903279  1
  B  B24  1  0.226159  0.389852  0.775617  1
  B  B25  1  0.291910  0.401870  0.281092  1
  B  B26  1  0.457989  0.878682  0.168582  1
  B  B27  1  0.242903  0.598308  0.700011  1
  B  B28  1  0.542011  0.121318  0.831418  1
  B  B29  1  0.573421  0.126230  0.326896  1
  B  B30  1  0.704066  0.753431  0.579306  1
  B  B31  1  0.765093  0.780666  0.096721  1
  B  B32  1  0.773841  0.610148  0.224383  1
  B  B33  1  0.871056  0.663378  0.416208  1
  B  B34  1  0.128944  0.336622  0.583792  1
  B  B35  1  0.914785  0.154164  0.424921  1
  O  O36  1  0.086717  0.138949  0.376466  1
  O  O37  1  0.303289  0.272150  0.015050  1
  O  O38  1  0.696711  0.727850  0.984950  1
  O  O39  1  0.333130  0.113720  0.849566  1
  O  O40  1  0.700721  0.691947  0.468269  1
  O  O41  1  0.282885  0.543701  0.783955  1
  O  O42  1  0.219792  0.297338  0.188015  1
  O  O43  1  0.230307  0.501339  0.106054  1
  O  O44  1  0.272737  0.933087  0.629253  1
  O  O45  1  0.865566  0.710535  0.316533  1
  O  O46  1  0.540581  0.822335  0.590352  1
  O  O47  1  0.134434  0.289465  0.683467  1
  O  O48  1  0.358941  0.754408  0.218356  1
  O  O49  1  0.143006  0.499358  0.608813  1
  O  O50  1  0.856994  0.500642  0.391187  1
  O  O51  1  0.667263  0.146686  0.934465  1
  O  O52  1  0.927523  0.248730  0.522247  1
  O  O53  1  0.697775  0.250444  0.280430  1
  O  O54  1  0.299279  0.308053  0.531731  1
  O  O55  1  0.727263  0.066913  0.370747  1
  O  O56  1  0.641059  0.245592  0.781644  1
  O  O57  1  0.728535  0.643449  0.135760  1
  O  O58  1  0.666870  0.886280  0.150434  1
  O  O59  1  0.956291  0.268726  0.054661  1
  O  O60  1  0.072477  0.751270  0.477753  1
  O  O61  1  0.302225  0.749556  0.719570  1
  O  O62  1  0.332737  0.853314  0.065535  1
  O  O63  1  0.271465  0.356551  0.864240  1
  O  O64  1  0.459419  0.177665  0.409648  1
  O  O65  1  0.004261  0.140433  0.882887  1
  O  O66  1  0.560117  0.985392  0.761006  1
  O  O67  1  0.913283  0.861051  0.623534  1
  O  O68  1  0.780208  0.702662  0.811985  1
  O  O69  1  0.332414  0.373288  0.371613  1
  O  O70  1  0.043709  0.731274  0.945339  1
  O  O71  1  0.769693  0.498661  0.893946  1
  O  O72  1  0.674263  0.445952  0.711975  1
  O  O73  1  0.717115  0.456299  0.216045  1
  O  O74  1  0.667586  0.626712  0.628387  1
  O  O75  1  0.439883  0.014608  0.238994  1
  O  O76  1  0.325737  0.554048  0.288025  1
  O  O77  1  0.995739  0.859567  0.117113  1
