# generated using pymatgen
data_YbBr2
_symmetry_space_group_name_H-M   'P 1'
_cell_length_a   6.64182316
_cell_length_b   7.27755967
_cell_length_c   8.12888867
_cell_angle_alpha   90.00000000
_cell_angle_beta   90.00000000
_cell_angle_gamma   90.00000000
_symmetry_Int_Tables_number   1
_chemical_formula_structural   YbBr2
_chemical_formula_sum   'Yb4 Br8'
_cell_volume   392.92011174
_cell_formula_units_Z   4
loop_
 _symmetry_equiv_pos_site_id
 _symmetry_equiv_pos_as_xyz
  1  'x, y, z'
loop_
 _atom_site_type_symbol
 _atom_site_label
 _atom_site_symmetry_multiplicity
 _atom_site_fract_x
 _atom_site_fract_y
 _atom_site_fract_z
 _atom_site_occupancy
  Yb  Yb0  1  0.000000  0.250000  0.351618  1
  Yb  Yb1  1  0.500000  0.250000  0.851618  1
  Yb  Yb2  1  0.500000  0.750000  0.148382  1
  Yb  Yb3  1  0.000000  0.750000  0.648382  1
  Br  Br4  1  0.757349  0.922182  0.392605  1
  Br  Br5  1  0.257349  0.077818  0.107395  1
  Br  Br6  1  0.742651  0.922182  0.892605  1
  Br  Br7  1  0.242651  0.577818  0.392605  1
  Br  Br8  1  0.242651  0.077818  0.607395  1
  Br  Br9  1  0.757349  0.422182  0.607395  1
  Br  Br10  1  0.742651  0.422182  0.107395  1
  Br  Br11  1  0.257349  0.577818  0.892605  1
