# generated using pymatgen
data_KCrF4
_symmetry_space_group_name_H-M   'P 1'
_cell_length_a   7.58426387
_cell_length_b   16.07602850
_cell_length_c   18.71052531
_cell_angle_alpha   90.00000000
_cell_angle_beta   90.00000000
_cell_angle_gamma   90.00000000
_symmetry_Int_Tables_number   1
_chemical_formula_structural   KCrF4
_chemical_formula_sum   'K24 Cr24 F96'
_cell_volume   2281.27784451
_cell_formula_units_Z   24
loop_
 _symmetry_equiv_pos_site_id
 _symmetry_equiv_pos_as_xyz
  1  'x, y, z'
loop_
 _atom_site_type_symbol
 _atom_site_label
 _atom_site_symmetry_multiplicity
 _atom_site_fract_x
 _atom_site_fract_y
 _atom_site_fract_z
 _atom_site_occupancy
  K  K0  1  0.750000  0.043199  0.468437  1
  K  K1  1  0.250000  0.956801  0.531563  1
  K  K2  1  0.750000  0.543199  0.031563  1
  K  K3  1  0.250000  0.456801  0.968437  1
  K  K4  1  0.250000  0.539320  0.523195  1
  K  K5  1  0.750000  0.460680  0.476805  1
  K  K6  1  0.250000  0.039320  0.976805  1
  K  K7  1  0.750000  0.960680  0.023195  1
  K  K8  1  0.250000  0.569803  0.179869  1
  K  K9  1  0.750000  0.430197  0.820131  1
  K  K10  1  0.250000  0.069803  0.320131  1
  K  K11  1  0.750000  0.930197  0.679869  1
  K  K12  1  0.250000  0.899104  0.165671  1
  K  K13  1  0.750000  0.100896  0.834329  1
  K  K14  1  0.250000  0.399104  0.334329  1
  K  K15  1  0.750000  0.600896  0.665671  1
  K  K16  1  0.250000  0.781878  0.710222  1
  K  K17  1  0.750000  0.218122  0.289778  1
  K  K18  1  0.250000  0.281878  0.789778  1
  K  K19  1  0.750000  0.718122  0.210222  1
  K  K20  1  0.750000  0.959422  0.214702  1
  K  K21  1  0.250000  0.040578  0.785298  1
  K  K22  1  0.750000  0.459422  0.285298  1
  K  K23  1  0.250000  0.540578  0.714702  1
  Cr  Cr24  1  0.000712  0.631807  0.368980  1
  Cr  Cr25  1  0.500712  0.368193  0.631020  1
  Cr  Cr26  1  0.499288  0.131807  0.131020  1
  Cr  Cr27  1  0.999288  0.868193  0.868980  1
  Cr  Cr28  1  0.999288  0.368193  0.631020  1
  Cr  Cr29  1  0.499288  0.631807  0.368980  1
  Cr  Cr30  1  0.500712  0.868193  0.868980  1
  Cr  Cr31  1  0.000712  0.131807  0.131020  1
  Cr  Cr32  1  0.002027  0.864057  0.373790  1
  Cr  Cr33  1  0.502027  0.135943  0.626210  1
  Cr  Cr34  1  0.497973  0.364057  0.126210  1
  Cr  Cr35  1  0.997973  0.635943  0.873790  1
  Cr  Cr36  1  0.997973  0.135943  0.626210  1
  Cr  Cr37  1  0.497973  0.864057  0.373790  1
  Cr  Cr38  1  0.502027  0.635943  0.873790  1
  Cr  Cr39  1  0.002027  0.364057  0.126210  1
  Cr  Cr40  1  0.000954  0.747225  0.546973  1
  Cr  Cr41  1  0.500954  0.252775  0.453027  1
  Cr  Cr42  1  0.499046  0.247225  0.953027  1
  Cr  Cr43  1  0.999046  0.752775  0.046973  1
  Cr  Cr44  1  0.999046  0.252775  0.453027  1
  Cr  Cr45  1  0.499046  0.747225  0.546973  1
  Cr  Cr46  1  0.500954  0.752775  0.046973  1
  Cr  Cr47  1  0.000954  0.247225  0.953027  1
  F  F48  1  0.958953  0.596897  0.273540  1
  F  F49  1  0.458953  0.403103  0.726460  1
  F  F50  1  0.541047  0.096897  0.226460  1
  F  F51  1  0.041047  0.903103  0.773540  1
  F  F52  1  0.041047  0.403103  0.726460  1
  F  F53  1  0.541047  0.596897  0.273540  1
  F  F54  1  0.458953  0.903103  0.773540  1
  F  F55  1  0.958953  0.096897  0.226460  1
  F  F56  1  0.041580  0.663645  0.469963  1
  F  F57  1  0.541580  0.336355  0.530037  1
  F  F58  1  0.458420  0.163645  0.030037  1
  F  F59  1  0.958420  0.836355  0.969963  1
  F  F60  1  0.958420  0.336355  0.530037  1
  F  F61  1  0.458420  0.663645  0.469963  1
  F  F62  1  0.541580  0.836355  0.969963  1
  F  F63  1  0.041580  0.163645  0.030037  1
  F  F64  1  0.038504  0.519355  0.399114  1
  F  F65  1  0.538504  0.480645  0.600887  1
  F  F66  1  0.461496  0.019355  0.100886  1
  F  F67  1  0.961496  0.980645  0.899113  1
  F  F68  1  0.961496  0.480645  0.600887  1
  F  F69  1  0.461496  0.519355  0.399114  1
  F  F70  1  0.538504  0.980645  0.899113  1
  F  F71  1  0.038504  0.019355  0.100886  1
  F  F72  1  0.951187  0.748369  0.340050  1
  F  F73  1  0.451187  0.251631  0.659950  1
  F  F74  1  0.548813  0.248369  0.159950  1
  F  F75  1  0.048813  0.751631  0.840050  1
  F  F76  1  0.048813  0.251631  0.659950  1
  F  F77  1  0.548813  0.748369  0.340050  1
  F  F78  1  0.451187  0.751631  0.840050  1
  F  F79  1  0.951187  0.248369  0.159950  1
  F  F80  1  0.039692  0.899001  0.278019  1
  F  F81  1  0.539692  0.100999  0.721981  1
  F  F82  1  0.460308  0.399001  0.221981  1
  F  F83  1  0.960308  0.600999  0.778019  1
  F  F84  1  0.960308  0.100999  0.721981  1
  F  F85  1  0.460308  0.899001  0.278019  1
  F  F86  1  0.539692  0.600999  0.778019  1
  F  F87  1  0.039692  0.399001  0.221981  1
  F  F88  1  0.750000  0.613903  0.393607  1
  F  F89  1  0.250000  0.386097  0.606393  1
  F  F90  1  0.750000  0.113903  0.106393  1
  F  F91  1  0.250000  0.886097  0.893607  1
  F  F92  1  0.750000  0.893790  0.359665  1
  F  F93  1  0.250000  0.106210  0.640335  1
  F  F94  1  0.750000  0.393790  0.140335  1
  F  F95  1  0.250000  0.606210  0.859665  1
  F  F96  1  0.250000  0.647719  0.345193  1
  F  F97  1  0.750000  0.352281  0.654807  1
  F  F98  1  0.250000  0.147719  0.154807  1
  F  F99  1  0.750000  0.852281  0.845193  1
  F  F100  1  0.250000  0.833511  0.388808  1
  F  F101  1  0.750000  0.166489  0.611192  1
  F  F102  1  0.250000  0.333511  0.111192  1
  F  F103  1  0.750000  0.666489  0.888808  1
  F  F104  1  0.042559  0.973239  0.409353  1
  F  F105  1  0.542559  0.026762  0.590647  1
  F  F106  1  0.457441  0.473239  0.090647  1
  F  F107  1  0.957441  0.526761  0.909353  1
  F  F108  1  0.957441  0.026762  0.590647  1
  F  F109  1  0.457441  0.973239  0.409353  1
  F  F110  1  0.542559  0.526761  0.909353  1
  F  F111  1  0.042559  0.473239  0.090647  1
  F  F112  1  0.250000  0.781208  0.539155  1
  F  F113  1  0.750000  0.218792  0.460845  1
  F  F114  1  0.250000  0.281208  0.960845  1
  F  F115  1  0.750000  0.718792  0.039155  1
  F  F116  1  0.057885  0.663734  0.615778  1
  F  F117  1  0.557885  0.336266  0.384222  1
  F  F118  1  0.442115  0.163734  0.884222  1
  F  F119  1  0.942115  0.836266  0.115778  1
  F  F120  1  0.942115  0.336266  0.384222  1
  F  F121  1  0.442115  0.663734  0.615778  1
  F  F122  1  0.557885  0.836266  0.115778  1
  F  F123  1  0.057885  0.163734  0.884222  1
  F  F124  1  0.947968  0.831977  0.473719  1
  F  F125  1  0.447968  0.168023  0.526281  1
  F  F126  1  0.552032  0.331977  0.026281  1
  F  F127  1  0.052032  0.668023  0.973719  1
  F  F128  1  0.052032  0.168023  0.526281  1
  F  F129  1  0.552032  0.831977  0.473719  1
  F  F130  1  0.447968  0.668023  0.973719  1
  F  F131  1  0.947968  0.331977  0.026281  1
  F  F132  1  0.980369  0.827882  0.619806  1
  F  F133  1  0.480369  0.172118  0.380194  1
  F  F134  1  0.519631  0.327882  0.880194  1
  F  F135  1  0.019631  0.672118  0.119806  1
  F  F136  1  0.019631  0.172118  0.380194  1
  F  F137  1  0.519631  0.827882  0.619806  1
  F  F138  1  0.480369  0.672118  0.119806  1
  F  F139  1  0.980369  0.327882  0.880194  1
  F  F140  1  0.750000  0.713276  0.552468  1
  F  F141  1  0.250000  0.286724  0.447532  1
  F  F142  1  0.750000  0.213276  0.947532  1
  F  F143  1  0.250000  0.786724  0.052468  1
