# generated using pymatgen
data_Sr2FeWO6
_symmetry_space_group_name_H-M   'P 1'
_cell_length_a   5.66895468
_cell_length_b   5.69260046
_cell_length_c   5.66765364
_cell_angle_alpha   119.96767291
_cell_angle_beta   119.92293240
_cell_angle_gamma   89.84522115
_symmetry_Int_Tables_number   1
_chemical_formula_structural   Sr2FeWO6
_chemical_formula_sum   'Sr2 Fe1 W1 O6'
_cell_volume   129.71710814
_cell_formula_units_Z   1
loop_
 _symmetry_equiv_pos_site_id
 _symmetry_equiv_pos_as_xyz
  1  'x, y, z'
loop_
 _atom_site_type_symbol
 _atom_site_label
 _atom_site_symmetry_multiplicity
 _atom_site_fract_x
 _atom_site_fract_y
 _atom_site_fract_z
 _atom_site_occupancy
  Sr  Sr0  1  0.750090  0.250671  0.500305  1
  Sr  Sr1  1  0.249910  0.749328  0.499696  1
  Fe  Fe2  1  0.500001  0.500001  0.000001  1
  W  W3  1  0.000000  0.000000  0.000000  1
  O  O4  1  0.244997  0.245133  0.489672  1
  O  O5  1  0.755003  0.754866  0.510327  1
  O  O6  1  0.749812  0.759840  0.999539  1
  O  O7  1  0.250188  0.240160  0.000460  1
  O  O8  1  0.760520  0.250395  0.000448  1
  O  O9  1  0.239480  0.749605  0.999551  1
