# generated using pymatgen
data_TiS4(NCl)5
_symmetry_space_group_name_H-M   'P 1'
_cell_length_a   6.99321760
_cell_length_b   11.35381706
_cell_length_c   16.96287878
_cell_angle_alpha   90.00000000
_cell_angle_beta   90.00000000
_cell_angle_gamma   98.58534456
_symmetry_Int_Tables_number   1
_chemical_formula_structural   TiS4(NCl)5
_chemical_formula_sum   'Ti4 S16 N20 Cl20'
_cell_volume   1331.75574073
_cell_formula_units_Z   4
loop_
 _symmetry_equiv_pos_site_id
 _symmetry_equiv_pos_as_xyz
  1  'x, y, z'
loop_
 _atom_site_type_symbol
 _atom_site_label
 _atom_site_symmetry_multiplicity
 _atom_site_fract_x
 _atom_site_fract_y
 _atom_site_fract_z
 _atom_site_occupancy
  Ti  Ti0  1  0.381576  0.838605  0.018135  1
  Ti  Ti1  1  0.618424  0.661395  0.518135  1
  Ti  Ti2  1  0.618424  0.161395  0.981865  1
  Ti  Ti3  1  0.381576  0.338605  0.481865  1
  S  S4  1  0.975747  0.976811  0.228817  1
  S  S5  1  0.836766  0.128549  0.652285  1
  S  S6  1  0.163234  0.371451  0.152285  1
  S  S7  1  0.368731  0.566408  0.235291  1
  S  S8  1  0.874258  0.513016  0.111677  1
  S  S9  1  0.836766  0.628549  0.847715  1
  S  S10  1  0.163234  0.871451  0.347715  1
  S  S11  1  0.631269  0.433592  0.764709  1
  S  S12  1  0.024253  0.023189  0.771183  1
  S  S13  1  0.975747  0.476811  0.271183  1
  S  S14  1  0.368731  0.066408  0.264709  1
  S  S15  1  0.125742  0.986984  0.611677  1
  S  S16  1  0.874258  0.013016  0.388323  1
  S  S17  1  0.125742  0.486984  0.888323  1
  S  S18  1  0.631269  0.933592  0.735291  1
  S  S19  1  0.024253  0.523189  0.728817  1
  N  N20  1  0.841388  0.035020  0.298450  1
  N  N21  1  0.826485  0.416089  0.724173  1
  N  N22  1  0.158612  0.964980  0.701550  1
  N  N23  1  0.042262  0.357293  0.234289  1
  N  N24  1  0.173515  0.583911  0.275827  1
  N  N25  1  0.634897  0.528394  0.832086  1
  N  N26  1  0.365103  0.971606  0.332086  1
  N  N27  1  0.957738  0.142707  0.734289  1
  N  N28  1  0.826485  0.916089  0.775827  1
  N  N29  1  0.046058  0.947464  0.413709  1
  N  N30  1  0.841388  0.535020  0.201550  1
  N  N31  1  0.957738  0.642707  0.765711  1
  N  N32  1  0.173515  0.083911  0.224173  1
  N  N33  1  0.046058  0.447464  0.086291  1
  N  N34  1  0.634897  0.028394  0.667914  1
  N  N35  1  0.365103  0.471606  0.167914  1
  N  N36  1  0.953942  0.052536  0.586291  1
  N  N37  1  0.953942  0.552536  0.913709  1
  N  N38  1  0.042262  0.857293  0.265711  1
  N  N39  1  0.158612  0.464980  0.798450  1
  Cl  Cl40  1  0.497936  0.859063  0.149122  1
  Cl  Cl41  1  0.694600  0.954418  0.975571  1
  Cl  Cl42  1  0.283368  0.829249  0.887545  1
  Cl  Cl43  1  0.496016  0.835177  0.505915  1
  Cl  Cl44  1  0.503984  0.164823  0.494085  1
  Cl  Cl45  1  0.502064  0.640937  0.649122  1
  Cl  Cl46  1  0.716632  0.670751  0.387545  1
  Cl  Cl47  1  0.923491  0.226494  0.937126  1
  Cl  Cl48  1  0.694600  0.454418  0.524429  1
  Cl  Cl49  1  0.076509  0.773506  0.062874  1
  Cl  Cl50  1  0.305400  0.045582  0.024429  1
  Cl  Cl51  1  0.283368  0.329249  0.612455  1
  Cl  Cl52  1  0.497936  0.359063  0.350878  1
  Cl  Cl53  1  0.503984  0.664823  0.005915  1
  Cl  Cl54  1  0.923491  0.726494  0.562874  1
  Cl  Cl55  1  0.076509  0.273506  0.437126  1
  Cl  Cl56  1  0.496016  0.335177  0.994085  1
  Cl  Cl57  1  0.716632  0.170751  0.112455  1
  Cl  Cl58  1  0.502064  0.140937  0.850878  1
  Cl  Cl59  1  0.305400  0.545582  0.475571  1
