# generated using pymatgen
data_Ba7MnFe6F34
_symmetry_space_group_name_H-M   'P 1'
_cell_length_a   7.84667787
_cell_length_b   10.42693839
_cell_length_c   10.42693841
_cell_angle_alpha   67.54131954
_cell_angle_beta   79.89298089
_cell_angle_gamma   79.89298085
_symmetry_Int_Tables_number   1
_chemical_formula_structural   Ba7MnFe6F34
_chemical_formula_sum   'Ba7 Mn1 Fe6 F34'
_cell_volume   770.62771672
_cell_formula_units_Z   1
loop_
 _symmetry_equiv_pos_site_id
 _symmetry_equiv_pos_as_xyz
  1  'x, y, z'
loop_
 _atom_site_type_symbol
 _atom_site_label
 _atom_site_symmetry_multiplicity
 _atom_site_fract_x
 _atom_site_fract_y
 _atom_site_fract_z
 _atom_site_occupancy
  Ba  Ba0  1  0.703719  0.840050  0.444893  1
  Ba  Ba1  1  0.296281  0.555107  0.159950  1
  Ba  Ba2  1  0.296281  0.159950  0.555107  1
  Ba  Ba3  1  0.703719  0.444893  0.840050  1
  Ba  Ba4  1  0.125012  0.737636  0.737636  1
  Ba  Ba5  1  0.874988  0.262364  0.262364  1
  Ba  Ba6  1  0.000000  0.000000  0.000000  1
  Mn  Mn7  1  0.500000  0.500000  0.500000  1
  Fe  Fe8  1  0.799293  0.647008  0.133857  1
  Fe  Fe9  1  0.799293  0.133857  0.647008  1
  Fe  Fe10  1  0.200707  0.352992  0.866143  1
  Fe  Fe11  1  0.540026  0.828144  0.828144  1
  Fe  Fe12  1  0.459974  0.171856  0.171856  1
  Fe  Fe13  1  0.200707  0.866143  0.352992  1
  F  F14  1  0.686188  0.568351  0.568351  1
  F  F15  1  0.313812  0.431649  0.431649  1
  F  F16  1  0.305923  0.891570  0.891570  1
  F  F17  1  0.694077  0.108430  0.108430  1
  F  F18  1  0.759835  0.748584  0.748584  1
  F  F19  1  0.240165  0.251416  0.251416  1
  F  F20  1  0.545064  0.117719  0.353482  1
  F  F21  1  0.454936  0.646518  0.882281  1
  F  F22  1  0.454936  0.882281  0.646518  1
  F  F23  1  0.545064  0.353482  0.117719  1
  F  F24  1  0.383398  0.985736  0.229538  1
  F  F25  1  0.616602  0.770462  0.014264  1
  F  F26  1  0.616602  0.014264  0.770462  1
  F  F27  1  0.383398  0.229538  0.985736  1
  F  F28  1  0.966806  0.510454  0.247484  1
  F  F29  1  0.033194  0.752516  0.489546  1
  F  F30  1  0.033194  0.489546  0.752516  1
  F  F31  1  0.966806  0.247484  0.510454  1
  F  F32  1  0.006130  0.263879  1.001935  1
  F  F33  1  0.993870  -0.001935  0.736121  1
  F  F34  1  0.993870  0.736121  -0.001935  1
  F  F35  1  0.006130  1.001935  0.263879  1
  F  F36  1  0.803693  0.516735  0.041395  1
  F  F37  1  0.196307  0.958605  0.483265  1
  F  F38  1  0.196307  0.483265  0.958605  1
  F  F39  1  0.803693  0.041395  0.516735  1
  F  F40  1  0.202846  0.210754  0.789722  1
  F  F41  1  0.797154  0.210278  0.789246  1
  F  F42  1  0.797154  0.789246  0.210278  1
  F  F43  1  0.202846  0.789722  0.210754  1
  F  F44  1  0.610810  0.552870  0.275562  1
  F  F45  1  0.389190  0.724438  0.447130  1
  F  F46  1  0.389190  0.447130  0.724438  1
  F  F47  1  0.610810  0.275562  0.552870  1
