# generated using pymatgen
data_BaBiIO2
_symmetry_space_group_name_H-M   'P 1'
_cell_length_a   5.92634570
_cell_length_b   6.17190331
_cell_length_c   7.89440197
_cell_angle_alpha   113.01223799
_cell_angle_beta   90.00002731
_cell_angle_gamma   89.99994412
_symmetry_Int_Tables_number   1
_chemical_formula_structural   BaBiIO2
_chemical_formula_sum   'Ba2 Bi2 I2 O4'
_cell_volume   265.77371522
_cell_formula_units_Z   2
loop_
 _symmetry_equiv_pos_site_id
 _symmetry_equiv_pos_as_xyz
  1  'x, y, z'
loop_
 _atom_site_type_symbol
 _atom_site_label
 _atom_site_symmetry_multiplicity
 _atom_site_fract_x
 _atom_site_fract_y
 _atom_site_fract_z
 _atom_site_occupancy
  Ba  Ba0  1  0.749997  0.398693  0.797371  1
  Bi  Bi1  1  0.250000  0.932620  0.865501  1
  I  I2  1  0.750000  0.748038  0.496035  1
  O  O3  1  0.500015  0.776452  0.000023  1
  Bi  Bi4  1  0.750000  0.067380  0.134499  1
  I  I5  1  0.250000  0.251962  0.503966  1
  O  O6  1  0.499985  0.223548  0.999978  1
  O  O7  1  0.000015  0.223549  0.999977  1
  Ba  Ba8  1  0.250003  0.601307  0.202629  1
  O  O9  1  0.999985  0.776452  0.000023  1
