# generated using pymatgen
data_MnPO4
_symmetry_space_group_name_H-M   'P 1'
_cell_length_a   10.10617616
_cell_length_b   7.73309662
_cell_length_c   5.11151930
_cell_angle_alpha   90.00000000
_cell_angle_beta   90.00000000
_cell_angle_gamma   90.00000000
_symmetry_Int_Tables_number   1
_chemical_formula_structural   MnPO4
_chemical_formula_sum   'Mn4 P4 O16'
_cell_volume   399.47564395
_cell_formula_units_Z   4
loop_
 _symmetry_equiv_pos_site_id
 _symmetry_equiv_pos_as_xyz
  1  'x, y, z'
loop_
 _atom_site_type_symbol
 _atom_site_label
 _atom_site_symmetry_multiplicity
 _atom_site_fract_x
 _atom_site_fract_y
 _atom_site_fract_z
 _atom_site_occupancy
  Mn  Mn0  1  0.149564  0.712877  0.674917  1
  Mn  Mn1  1  0.350436  0.212877  0.174917  1
  Mn  Mn2  1  0.649564  0.712877  0.825083  1
  Mn  Mn3  1  0.850436  0.212877  0.325083  1
  P  P4  1  0.586824  0.960965  0.341289  1
  P  P5  1  0.086824  0.960965  0.158711  1
  P  P6  1  0.413176  0.460965  0.658711  1
  P  P7  1  0.913176  0.460965  0.841289  1
  O  O8  1  0.442055  0.006525  0.268391  1
  O  O9  1  0.672507  0.123656  0.302628  1
  O  O10  1  0.908438  0.409167  0.134041  1
  O  O11  1  0.557945  0.506525  0.731609  1
  O  O12  1  0.635255  0.806934  0.176000  1
  O  O13  1  0.942055  0.006525  0.231609  1
  O  O14  1  0.172507  0.123656  0.197372  1
  O  O15  1  0.135255  0.806934  0.324000  1
  O  O16  1  0.408438  0.409167  0.365959  1
  O  O17  1  0.091562  0.909167  0.865959  1
  O  O18  1  0.364745  0.306934  0.824000  1
  O  O19  1  0.327493  0.623656  0.697372  1
  O  O20  1  0.591562  0.909167  0.634041  1
  O  O21  1  0.827493  0.623656  0.802628  1
  O  O22  1  0.057945  0.506525  0.768391  1
  O  O23  1  0.864745  0.306934  0.676000  1
