# generated using pymatgen
data_V6Fe4(CuO8)3
_symmetry_space_group_name_H-M   'P 1'
_cell_length_a   6.66607683
_cell_length_b   8.15557266
_cell_length_c   9.95437759
_cell_angle_alpha   106.78061256
_cell_angle_beta   103.04391588
_cell_angle_gamma   102.47734973
_symmetry_Int_Tables_number   1
_chemical_formula_structural   V6Fe4(CuO8)3
_chemical_formula_sum   'V6 Fe4 Cu3 O24'
_cell_volume   481.27374404
_cell_formula_units_Z   1
loop_
 _symmetry_equiv_pos_site_id
 _symmetry_equiv_pos_as_xyz
  1  'x, y, z'
loop_
 _atom_site_type_symbol
 _atom_site_label
 _atom_site_symmetry_multiplicity
 _atom_site_fract_x
 _atom_site_fract_y
 _atom_site_fract_z
 _atom_site_occupancy
  V  V0  1  0.585634  0.265596  0.122852  1
  V  V1  1  0.113344  0.107698  0.338525  1
  V  V2  1  0.216362  0.655325  0.265879  1
  V  V3  1  0.414366  0.734404  0.877148  1
  V  V4  1  0.783638  0.344675  0.734121  1
  V  V5  1  0.886656  0.892302  0.661475  1
  Fe  Fe6  1  0.378330  0.948851  0.607120  1
  Fe  Fe7  1  0.621670  0.051149  0.392880  1
  Fe  Fe8  1  0.960527  0.799693  0.990256  1
  Fe  Fe9  1  0.039473  0.200307  0.009744  1
  Cu  Cu10  1  0.000000  0.500000  0.500000  1
  Cu  Cu11  1  0.717369  0.709859  0.200579  1
  Cu  Cu12  1  0.282631  0.290141  0.799421  1
  O  O13  1  0.332750  0.039318  0.427974  1
  O  O14  1  0.437653  0.853083  0.758549  1
  O  O15  1  0.307284  0.510789  0.766612  1
  O  O16  1  0.996494  0.283730  0.834308  1
  O  O17  1  0.825088  0.563771  0.823028  1
  O  O18  1  0.003506  0.716270  0.165692  1
  O  O19  1  0.335358  0.225113  0.988090  1
  O  O20  1  0.562347  0.146917  0.241451  1
  O  O21  1  0.692716  0.489211  0.233388  1
  O  O22  1  0.241437  0.795212  0.972968  1
  O  O23  1  0.134578  0.325125  0.423652  1
  O  O24  1  0.798574  0.309632  0.551384  1
  O  O25  1  0.079610  0.060726  0.147664  1
  O  O26  1  0.664642  0.774887  0.011910  1
  O  O27  1  0.174912  0.436229  0.176972  1
  O  O28  1  0.865422  0.674875  0.576349  1
  O  O29  1  0.920390  0.939274  0.852336  1
  O  O30  1  0.473863  0.771066  0.264860  1
  O  O31  1  0.667250  0.960682  0.572026  1
  O  O32  1  0.758563  0.204788  0.027032  1
  O  O33  1  0.876006  0.983192  0.350807  1
  O  O34  1  0.526137  0.228934  0.735140  1
  O  O35  1  0.201426  0.690368  0.448616  1
  O  O36  1  0.123994  0.016808  0.649193  1
