# generated using pymatgen
data_RbUSO6F
_symmetry_space_group_name_H-M   'P 1'
_cell_length_a   6.80914175
_cell_length_b   12.06641746
_cell_length_c   25.69676805
_cell_angle_alpha   90.00000000
_cell_angle_beta   90.00000000
_cell_angle_gamma   90.00000000
_symmetry_Int_Tables_number   1
_chemical_formula_structural   RbUSO6F
_chemical_formula_sum   'Rb12 U12 S12 O72 F12'
_cell_volume   2111.29649202
_cell_formula_units_Z   12
loop_
 _symmetry_equiv_pos_site_id
 _symmetry_equiv_pos_as_xyz
  1  'x, y, z'
loop_
 _atom_site_type_symbol
 _atom_site_label
 _atom_site_symmetry_multiplicity
 _atom_site_fract_x
 _atom_site_fract_y
 _atom_site_fract_z
 _atom_site_occupancy
  Rb  Rb0  1  0.711852  0.786397  0.409797  1
  Rb  Rb1  1  0.711852  0.286397  0.090203  1
  Rb  Rb2  1  0.688156  0.293679  0.739047  1
  Rb  Rb3  1  0.650406  0.788013  0.076902  1
  Rb  Rb4  1  0.311844  0.293679  0.239047  1
  Rb  Rb5  1  0.288148  0.786397  0.909797  1
  Rb  Rb6  1  0.288148  0.286397  0.590203  1
  Rb  Rb7  1  0.311844  0.793679  0.260953  1
  Rb  Rb8  1  0.688156  0.793679  0.760953  1
  Rb  Rb9  1  0.349594  0.288013  0.923098  1
  Rb  Rb10  1  0.650406  0.288013  0.423098  1
  Rb  Rb11  1  0.349594  0.788013  0.576902  1
  U  U12  1  0.101445  0.541704  0.038859  1
  U  U13  1  0.100615  0.491832  0.370488  1
  U  U14  1  0.098953  0.556620  0.703751  1
  U  U15  1  0.098953  0.056620  0.796249  1
  U  U16  1  0.101445  0.041704  0.461141  1
  U  U17  1  0.899385  0.491832  0.870488  1
  U  U18  1  0.898555  0.041704  0.961141  1
  U  U19  1  0.901047  0.056620  0.296249  1
  U  U20  1  0.901047  0.556620  0.203751  1
  U  U21  1  0.100615  0.991832  0.129512  1
  U  U22  1  0.898555  0.541704  0.538859  1
  U  U23  1  0.899385  0.991832  0.629512  1
  S  S24  1  0.404097  0.028009  0.681477  1
  S  S25  1  0.404097  0.528009  0.818523  1
  S  S26  1  0.595903  0.028009  0.181477  1
  S  S27  1  0.407849  0.550187  0.153040  1
  S  S28  1  0.595438  0.044795  0.513985  1
  S  S29  1  0.404562  0.544795  0.486015  1
  S  S30  1  0.407849  0.050187  0.346960  1
  S  S31  1  0.595903  0.528009  0.318523  1
  S  S32  1  0.404562  0.044795  0.013985  1
  S  S33  1  0.595438  0.544795  0.986015  1
  S  S34  1  0.592151  0.050187  0.846960  1
  S  S35  1  0.592151  0.550187  0.653040  1
  O  O36  1  0.092118  0.696604  0.728425  1
  O  O37  1  0.093974  0.915001  0.819082  1
  O  O38  1  0.247414  0.077488  0.308764  1
  O  O39  1  0.104136  0.141446  0.130079  1
  O  O40  1  0.560631  0.663042  0.979173  1
  O  O41  1  0.108344  0.682549  0.014937  1
  O  O42  1  0.246947  0.489978  0.855524  1
  O  O43  1  0.439369  0.663042  0.479173  1
  O  O44  1  0.108344  0.182549  0.485063  1
  O  O45  1  0.089749  0.901186  0.437577  1
  O  O46  1  0.442099  0.146217  0.675810  1
  O  O47  1  0.582926  0.459044  0.829705  1
  O  O48  1  0.753053  0.989978  0.144476  1
  O  O49  1  0.654141  0.488536  0.936334  1
  O  O50  1  0.560631  0.163042  0.520827  1
  O  O51  1  0.415012  0.484580  0.004202  1
  O  O52  1  0.345859  0.488536  0.436334  1
  O  O53  1  0.752586  0.077488  0.808764  1
  O  O54  1  0.415012  0.984580  0.495798  1
  O  O55  1  0.551771  0.931679  0.847936  1
  O  O56  1  0.088906  0.842431  0.129473  1
  O  O57  1  0.657750  0.998073  0.235694  1
  O  O58  1  0.448229  0.931679  0.347936  1
  O  O59  1  0.753175  0.024282  0.474218  1
  O  O60  1  0.092118  0.196604  0.771575  1
  O  O61  1  0.247414  0.577488  0.191236  1
  O  O62  1  0.753053  0.489978  0.355524  1
  O  O63  1  0.657750  0.498073  0.264306  1
  O  O64  1  0.895864  0.641446  0.869921  1
  O  O65  1  0.907882  0.196604  0.271575  1
  O  O66  1  0.439369  0.163042  0.020827  1
  O  O67  1  0.417074  0.459044  0.329705  1
  O  O68  1  0.415250  0.116596  0.831140  1
  O  O69  1  0.584750  0.116596  0.331140  1
  O  O70  1  0.442099  0.646217  0.824190  1
  O  O71  1  0.088906  0.342431  0.370527  1
  O  O72  1  0.584750  0.616596  0.168860  1
  O  O73  1  0.752586  0.577488  0.691236  1
  O  O74  1  0.652563  0.593837  0.600668  1
  O  O75  1  0.347437  0.093837  0.399332  1
  O  O76  1  0.557901  0.646217  0.324190  1
  O  O77  1  0.891656  0.182549  0.985063  1
  O  O78  1  0.906026  0.915001  0.319082  1
  O  O79  1  0.246825  0.024282  0.974218  1
  O  O80  1  0.584988  0.984580  0.995798  1
  O  O81  1  0.246947  0.989978  0.644476  1
  O  O82  1  0.093974  0.415001  0.680918  1
  O  O83  1  0.417074  0.959044  0.170295  1
  O  O84  1  0.654141  0.988536  0.563666  1
  O  O85  1  0.347437  0.593837  0.100668  1
  O  O86  1  0.753175  0.524282  0.025782  1
  O  O87  1  0.906026  0.415001  0.180918  1
  O  O88  1  0.895864  0.141446  0.630079  1
  O  O89  1  0.652563  0.093837  0.899332  1
  O  O90  1  0.342250  0.498073  0.764306  1
  O  O91  1  0.448229  0.431679  0.152064  1
  O  O92  1  0.891656  0.682549  0.514937  1
  O  O93  1  0.582926  0.959044  0.670295  1
  O  O94  1  0.089749  0.401186  0.062423  1
  O  O95  1  0.342250  0.998073  0.735694  1
  O  O96  1  0.910251  0.401186  0.562423  1
  O  O97  1  0.551771  0.431679  0.652064  1
  O  O98  1  0.907882  0.696604  0.228425  1
  O  O99  1  0.104136  0.641446  0.369921  1
  O  O100  1  0.911094  0.342431  0.870527  1
  O  O101  1  0.345859  0.988536  0.063666  1
  O  O102  1  0.415250  0.616596  0.668860  1
  O  O103  1  0.557901  0.146217  0.175810  1
  O  O104  1  0.910251  0.901186  0.937577  1
  O  O105  1  0.584988  0.484580  0.504202  1
  O  O106  1  0.246825  0.524282  0.525782  1
  O  O107  1  0.911094  0.842431  0.629473  1
  F  F108  1  0.055158  0.489312  0.951679  1
  F  F109  1  0.943956  0.599966  0.115350  1
  F  F110  1  0.944842  0.989312  0.048321  1
  F  F111  1  0.055158  0.989312  0.548321  1
  F  F112  1  0.057498  0.498621  0.280319  1
  F  F113  1  0.944842  0.489312  0.451679  1
  F  F114  1  0.942502  0.498621  0.780319  1
  F  F115  1  0.942502  -0.001379  0.719681  1
  F  F116  1  0.943956  0.099966  0.384650  1
  F  F117  1  0.056044  0.099966  0.884650  1
  F  F118  1  0.057498  -0.001379  0.219681  1
  F  F119  1  0.056044  0.599966  0.615350  1
