# generated using pymatgen
data_AlGe2P(H3C)8
_symmetry_space_group_name_H-M   'P 1'
_cell_length_a   9.43313058
_cell_length_b   9.92817419
_cell_length_c   10.04550638
_cell_angle_alpha   76.81827427
_cell_angle_beta   80.49689637
_cell_angle_gamma   63.92935912
_symmetry_Int_Tables_number   1
_chemical_formula_structural   AlGe2P(H3C)8
_chemical_formula_sum   'Al2 Ge4 P2 H48 C16'
_cell_volume   820.54220139
_cell_formula_units_Z   2
loop_
 _symmetry_equiv_pos_site_id
 _symmetry_equiv_pos_as_xyz
  1  'x, y, z'
loop_
 _atom_site_type_symbol
 _atom_site_label
 _atom_site_symmetry_multiplicity
 _atom_site_fract_x
 _atom_site_fract_y
 _atom_site_fract_z
 _atom_site_occupancy
  Al  Al0  1  0.019860  0.634346  0.075403  1
  Al  Al1  1  0.980140  0.365654  0.924597  1
  Ge  Ge2  1  0.722225  0.808580  0.770158  1
  Ge  Ge3  1  0.836200  0.343081  0.323796  1
  Ge  Ge4  1  0.277775  0.191420  0.229842  1
  Ge  Ge5  1  0.163800  0.656919  0.676204  1
  P  P6  1  0.029979  0.375626  0.155615  1
  P  P7  1  0.970021  0.624374  0.844385  1
  H  H8  1  0.810077  0.020603  0.648126  1
  H  H9  1  0.396491  0.902554  0.301751  1
  H  H10  1  0.328249  0.346537  0.374605  1
  H  H11  1  0.446740  0.308303  0.061807  1
  H  H12  1  0.168747  0.092080  0.890411  1
  H  H13  1  0.423311  0.170939  0.990457  1
  H  H14  1  0.803167  0.305822  0.584647  1
  H  H15  1  0.360769  0.376309  0.691454  1
  H  H16  1  0.740806  0.381953  0.817304  1
  H  H17  1  0.724797  0.792830  0.161258  1
  H  H18  1  0.779524  0.168218  0.208262  1
  H  H19  1  0.456650  0.500434  0.625038  1
  H  H20  1  0.189923  0.979397  0.351874  1
  H  H21  1  0.761065  0.769457  0.518216  1
  H  H22  1  0.443153  0.147215  0.424835  1
  H  H23  1  0.553260  0.691697  0.938193  1
  H  H24  1  0.259194  0.618047  0.182696  1
  H  H25  1  0.671751  0.653463  0.625395  1
  H  H26  1  0.992251  0.777559  0.469321  1
  H  H27  1  0.721984  0.144807  0.387313  1
  H  H28  1  0.925497  0.056834  0.328002  1
  H  H29  1  0.328739  0.546361  0.026981  1
  H  H30  1  0.576689  0.829061  0.009543  1
  H  H31  1  0.074503  0.943166  0.671998  1
  H  H32  1  0.543350  0.499566  0.374962  1
  H  H33  1  0.743286  0.040783  0.822376  1
  H  H34  1  0.603509  0.097446  0.698249  1
  H  H35  1  0.558070  0.110068  0.119781  1
  H  H36  1  0.093611  0.576125  0.478925  1
  H  H37  1  0.770695  0.254919  0.975609  1
  H  H38  1  0.196833  0.694178  0.415353  1
  H  H39  1  0.238935  0.230543  0.481784  1
  H  H40  1  0.139890  0.216160  0.730069  1
  H  H41  1  0.441930  0.889932  0.880219  1
  H  H42  1  0.275203  0.207170  0.838742  1
  H  H43  1  0.860110  0.783840  0.269931  1
  H  H44  1  0.278016  0.855193  0.612687  1
  H  H45  1  0.007749  0.222441  0.530679  1
  H  H46  1  0.591079  0.537387  0.195281  1
  H  H47  1  0.831253  0.907920  0.109589  1
  H  H48  1  0.556847  0.852785  0.575165  1
  H  H49  1  0.220476  0.831782  0.791738  1
  H  H50  1  0.906389  0.423875  0.521075  1
  H  H51  1  0.408921  0.462613  0.804719  1
  H  H52  1  0.229305  0.745081  0.024391  1
  H  H53  1  0.671261  0.453639  0.973019  1
  H  H54  1  0.639231  0.623691  0.308546  1
  H  H55  1  0.256714  0.959217  0.177624  1
  C  C56  1  0.556787  0.803491  0.915613  1
  C  C57  1  0.895496  0.321809  0.509038  1
  C  C58  1  0.104504  0.678191  0.490962  1
  C  C59  1  0.368723  0.479785  0.703358  1
  C  C60  1  0.159715  0.205583  0.837734  1
  C  C61  1  0.279428  0.986998  0.269343  1
  C  C62  1  0.325791  0.234155  0.395508  1
  C  C63  1  0.230214  0.634338  0.076634  1
  C  C64  1  0.769786  0.365662  0.923366  1
  C  C65  1  0.631277  0.520215  0.296642  1
  C  C66  1  0.840285  0.794417  0.162266  1
  C  C67  1  0.443213  0.196509  0.084387  1
  C  C68  1  0.674209  0.765845  0.604492  1
  C  C69  1  0.185861  0.841508  0.689851  1
  C  C70  1  0.720572  0.013002  0.730657  1
  C  C71  1  0.814139  0.158492  0.310149  1
