# generated using pymatgen
data_Ti5Re24
_symmetry_space_group_name_H-M   'P 1'
_cell_length_a   8.37174188
_cell_length_b   8.37174188
_cell_length_c   8.37174188
_cell_angle_alpha   109.47122066
_cell_angle_beta   109.47122065
_cell_angle_gamma   109.47122062
_symmetry_Int_Tables_number   1
_chemical_formula_structural   Ti5Re24
_chemical_formula_sum   'Ti5 Re24'
_cell_volume   451.67452654
_cell_formula_units_Z   1
loop_
 _symmetry_equiv_pos_site_id
 _symmetry_equiv_pos_as_xyz
  1  'x, y, z'
loop_
 _atom_site_type_symbol
 _atom_site_label
 _atom_site_symmetry_multiplicity
 _atom_site_fract_x
 _atom_site_fract_y
 _atom_site_fract_z
 _atom_site_occupancy
  Ti  Ti0  1  0.000000  0.000000  0.000000  1
  Ti  Ti1  1  0.632822  0.632822  0.632822  1
  Ti  Ti2  1  0.367178  0.000000  0.000000  1
  Ti  Ti3  1  0.000000  0.367178  0.000000  1
  Ti  Ti4  1  0.000000  0.000000  0.367178  1
  Re  Re5  1  0.400747  0.400747  0.718348  1
  Re  Re6  1  0.599253  0.317601  0.000000  1
  Re  Re7  1  0.317601  0.599253  0.000000  1
  Re  Re8  1  0.000000  0.317601  0.599253  1
  Re  Re9  1  0.281651  0.682399  0.682399  1
  Re  Re10  1  0.682399  0.281651  0.682399  1
  Re  Re11  1  0.317601  0.000000  0.599253  1
  Re  Re12  1  0.599253  0.000000  0.317601  1
  Re  Re13  1  0.000000  0.599253  0.317601  1
  Re  Re14  1  0.718348  0.400747  0.400747  1
  Re  Re15  1  0.400747  0.718348  0.400747  1
  Re  Re16  1  0.682399  0.682399  0.281651  1
  Re  Re17  1  0.375555  0.375555  0.182752  1
  Re  Re18  1  0.624445  0.807197  0.000000  1
  Re  Re19  1  0.807197  0.624445  0.000000  1
  Re  Re20  1  0.000000  0.807197  0.624445  1
  Re  Re21  1  0.817248  0.192803  0.192803  1
  Re  Re22  1  0.192803  0.817248  0.192803  1
  Re  Re23  1  0.807197  0.000000  0.624445  1
  Re  Re24  1  0.624445  0.000000  0.807197  1
  Re  Re25  1  0.000000  0.624445  0.807197  1
  Re  Re26  1  0.182752  0.375555  0.375555  1
  Re  Re27  1  0.375555  0.182752  0.375555  1
  Re  Re28  1  0.192803  0.192803  0.817248  1
