# generated using pymatgen
data_AlAs3(SeCl)4
_symmetry_space_group_name_H-M   'P 1'
_cell_length_a   12.51978894
_cell_length_b   12.51978895
_cell_length_c   13.47260562
_cell_angle_alpha   97.84591572
_cell_angle_beta   112.36029238
_cell_angle_gamma   116.34143328
_symmetry_Int_Tables_number   1
_chemical_formula_structural   AlAs3(SeCl)4
_chemical_formula_sum   'Al4 As12 Se16 Cl16'
_cell_volume   1627.10776866
_cell_formula_units_Z   4
loop_
 _symmetry_equiv_pos_site_id
 _symmetry_equiv_pos_as_xyz
  1  'x, y, z'
loop_
 _atom_site_type_symbol
 _atom_site_label
 _atom_site_symmetry_multiplicity
 _atom_site_fract_x
 _atom_site_fract_y
 _atom_site_fract_z
 _atom_site_occupancy
  Al  Al0  1  0.651473  0.688258  0.419948  1
  Al  Al1  1  0.231690  0.768474  0.919948  1
  Al  Al2  1  0.348527  0.311742  0.580052  1
  Al  Al3  1  0.768310  0.231526  0.080052  1
  As  As4  1  0.315204  0.928468  0.614136  1
  As  As5  1  0.814332  0.701069  0.885864  1
  As  As6  1  0.927697  0.204168  0.551106  1
  As  As7  1  0.684796  0.071532  0.385864  1
  As  As8  1  0.846938  0.623409  0.051106  1
  As  As9  1  0.153062  0.376591  0.948894  1
  As  As10  1  0.736631  0.359106  0.576443  1
  As  As11  1  0.717338  0.839812  0.076443  1
  As  As12  1  0.072303  0.795832  0.448894  1
  As  As13  1  0.263369  0.640894  0.423557  1
  As  As14  1  0.185668  0.298931  0.114136  1
  As  As15  1  0.282662  0.160188  0.923557  1
  Se  Se16  1  0.733440  0.062116  0.585813  1
  Se  Se17  1  0.033850  0.018333  0.833049  1
  Se  Se18  1  0.685285  0.200801  0.666951  1
  Se  Se19  1  0.602843  0.207337  0.380997  1
  Se  Se20  1  0.966150  0.981667  0.166951  1
  Se  Se21  1  0.717412  0.660442  0.122311  1
  Se  Se22  1  0.314715  0.799199  0.333049  1
  Se  Se23  1  0.326340  0.221847  0.119003  1
  Se  Se24  1  0.673660  0.778153  0.880997  1
  Se  Se25  1  0.266560  0.937884  0.414187  1
  Se  Se26  1  0.038131  0.595101  0.377689  1
  Se  Se27  1  0.397157  0.792663  0.619003  1
  Se  Se28  1  0.976303  0.147628  0.914187  1
  Se  Se29  1  0.023697  0.852372  0.085813  1
  Se  Se30  1  0.282588  0.339558  0.877689  1
  Se  Se31  1  0.961869  0.404899  0.622311  1
  Cl  Cl32  1  0.377093  0.298616  0.432229  1
  Cl  Cl33  1  0.722888  0.563512  0.399780  1
  Cl  Cl34  1  0.537980  0.374555  0.734535  1
  Cl  Cl35  1  0.140019  0.803445  0.765465  1
  Cl  Cl36  1  0.934882  0.361968  0.055491  1
  Cl  Cl37  1  0.663732  0.323107  0.100220  1
  Cl  Cl38  1  0.193523  0.120609  0.555491  1
  Cl  Cl39  1  0.366387  0.944864  0.067771  1
  Cl  Cl40  1  0.065118  0.638032  0.944509  1
  Cl  Cl41  1  0.622907  0.701384  0.567771  1
  Cl  Cl42  1  0.633613  0.055136  0.932229  1
  Cl  Cl43  1  0.859981  0.196555  0.234535  1
  Cl  Cl44  1  0.336268  0.676893  0.899780  1
  Cl  Cl45  1  0.277112  0.436488  0.600220  1
  Cl  Cl46  1  0.806477  0.879391  0.444509  1
  Cl  Cl47  1  0.462020  0.625445  0.265465  1
