# generated using pymatgen
data_Dy3Al2
_symmetry_space_group_name_H-M   'P 1'
_cell_length_a   7.61133272
_cell_length_b   8.23744181
_cell_length_c   8.23744181
_cell_angle_alpha   90.00000000
_cell_angle_beta   90.00000000
_cell_angle_gamma   90.00000000
_symmetry_Int_Tables_number   1
_chemical_formula_structural   Dy3Al2
_chemical_formula_sum   'Dy12 Al8'
_cell_volume   516.47038834
_cell_formula_units_Z   4
loop_
 _symmetry_equiv_pos_site_id
 _symmetry_equiv_pos_as_xyz
  1  'x, y, z'
loop_
 _atom_site_type_symbol
 _atom_site_label
 _atom_site_symmetry_multiplicity
 _atom_site_fract_x
 _atom_site_fract_y
 _atom_site_fract_z
 _atom_site_occupancy
  Dy  Dy0  1  0.250000  -0.000000  0.500000  1
  Dy  Dy1  1  0.750000  0.500000  -0.000000  1
  Dy  Dy2  1  0.750000  0.000000  0.500000  1
  Dy  Dy3  1  0.250000  0.500000  -0.000000  1
  Dy  Dy4  1  0.500000  0.151137  0.848863  1
  Dy  Dy5  1  0.500000  0.848863  0.151137  1
  Dy  Dy6  1  0.000000  0.348863  0.348863  1
  Dy  Dy7  1  -0.000000  0.651137  0.651137  1
  Dy  Dy8  1  0.500000  0.700115  0.700115  1
  Dy  Dy9  1  0.500000  0.299885  0.299885  1
  Dy  Dy10  1  -0.000000  0.799885  0.200115  1
  Dy  Dy11  1  -0.000000  0.200115  0.799885  1
  Al  Al12  1  0.302445  0.380725  0.619275  1
  Al  Al13  1  0.302445  0.619275  0.380725  1
  Al  Al14  1  0.802445  0.119275  0.119275  1
  Al  Al15  1  0.802445  0.880725  0.880725  1
  Al  Al16  1  0.697555  0.619275  0.380725  1
  Al  Al17  1  0.697555  0.380725  0.619275  1
  Al  Al18  1  0.197555  0.880725  0.880725  1
  Al  Al19  1  0.197555  0.119275  0.119275  1
