# generated using pymatgen
data_Cs2CuH12(SO7)2
_symmetry_space_group_name_H-M   'P 1'
_cell_length_a   9.49173190
_cell_length_b   12.68830614
_cell_length_c   6.48057453
_cell_angle_alpha   90.00000000
_cell_angle_beta   104.97348526
_cell_angle_gamma   90.00000000
_symmetry_Int_Tables_number   1
_chemical_formula_structural   Cs2CuH12(SO7)2
_chemical_formula_sum   'Cs4 Cu2 H24 S4 O28'
_cell_volume   753.98065096
_cell_formula_units_Z   2
loop_
 _symmetry_equiv_pos_site_id
 _symmetry_equiv_pos_as_xyz
  1  'x, y, z'
loop_
 _atom_site_type_symbol
 _atom_site_label
 _atom_site_symmetry_multiplicity
 _atom_site_fract_x
 _atom_site_fract_y
 _atom_site_fract_z
 _atom_site_occupancy
  Cs  Cs0  1  0.610726  0.151692  0.346782  1
  Cs  Cs1  1  0.889274  0.651692  0.653218  1
  Cs  Cs2  1  0.389274  0.848308  0.653218  1
  Cs  Cs3  1  0.110726  0.348308  0.346782  1
  Cu  Cu4  1  0.500000  0.500000  0.000000  1
  Cu  Cu5  1  0.000000  0.000000  0.000000  1
  H  H6  1  0.696440  0.408228  0.275353  1
  H  H7  1  0.803560  0.908228  0.724647  1
  H  H8  1  0.303560  0.591772  0.724647  1
  H  H9  1  0.196440  0.091772  0.275353  1
  H  H10  1  0.711294  0.375514  0.040061  1
  H  H11  1  0.788706  0.875514  0.959939  1
  H  H12  1  0.288706  0.624486  0.959939  1
  H  H13  1  0.211294  0.124486  0.040061  1
  H  H14  1  0.200488  0.400507  0.925061  1
  H  H15  1  0.299512  0.900507  0.074939  1
  H  H16  1  0.799512  0.599493  0.074939  1
  H  H17  1  0.700488  0.099493  0.925061  1
  H  H18  1  0.318943  0.310961  0.979349  1
  H  H19  1  0.181057  0.810961  0.020651  1
  H  H20  1  0.681057  0.689039  0.020651  1
  H  H21  1  0.818943  0.189039  0.979349  1
  H  H22  1  0.414190  0.556524  0.333606  1
  H  H23  1  0.085810  0.056524  0.666394  1
  H  H24  1  0.585810  0.443476  0.666394  1
  H  H25  1  0.914190  0.943476  0.333606  1
  H  H26  1  0.540044  0.634285  0.309025  1
  H  H27  1  0.959956  0.134285  0.690975  1
  H  H28  1  0.459956  0.365715  0.690975  1
  H  H29  1  0.040044  0.865715  0.309025  1
  S  S30  1  0.879317  0.355469  0.729956  1
  S  S31  1  0.620683  0.855469  0.270044  1
  S  S32  1  0.120683  0.644531  0.270044  1
  S  S33  1  0.379317  0.144531  0.729956  1
  O  O34  1  0.901757  0.259262  0.608475  1
  O  O35  1  0.598243  0.759262  0.391525  1
  O  O36  1  0.098243  0.740738  0.391525  1
  O  O37  1  0.401757  0.240738  0.608475  1
  O  O38  1  0.013230  0.421487  0.778962  1
  O  O39  1  0.486770  0.921487  0.221038  1
  O  O40  1  0.986770  0.578513  0.221038  1
  O  O41  1  0.513230  0.078513  0.778962  1
  O  O42  1  0.753797  0.417721  0.596387  1
  O  O43  1  0.746203  0.917721  0.403613  1
  O  O44  1  0.246203  0.582279  0.403613  1
  O  O45  1  0.253797  0.082279  0.596387  1
  O  O46  1  0.843560  0.322461  0.933643  1
  O  O47  1  0.656440  0.822461  0.066357  1
  O  O48  1  0.156440  0.677539  0.066357  1
  O  O49  1  0.343560  0.177539  0.933643  1
  O  O50  1  0.641153  0.387686  0.129433  1
  O  O51  1  0.858847  0.887686  0.870567  1
  O  O52  1  0.358847  0.612314  0.870567  1
  O  O53  1  0.141153  0.112314  0.129433  1
  O  O54  1  0.299589  0.385629  0.012417  1
  O  O55  1  0.200411  0.885629  0.987583  1
  O  O56  1  0.700411  0.614371  0.987583  1
  O  O57  1  0.799589  0.114371  0.012417  1
  O  O58  1  0.507528  0.558770  0.291187  1
  O  O59  1  0.992472  0.058770  0.708813  1
  O  O60  1  0.492472  0.441230  0.708813  1
  O  O61  1  0.007528  0.941230  0.291187  1
