# generated using pymatgen
data_Er4InRh
_symmetry_space_group_name_H-M   'P 1'
_cell_length_a   9.57467423
_cell_length_b   9.57467399
_cell_length_c   9.57467480
_cell_angle_alpha   60.00000072
_cell_angle_beta   60.00000157
_cell_angle_gamma   59.99999820
_symmetry_Int_Tables_number   1
_chemical_formula_structural   Er4InRh
_chemical_formula_sum   'Er16 In4 Rh4'
_cell_volume   620.66468884
_cell_formula_units_Z   4
loop_
 _symmetry_equiv_pos_site_id
 _symmetry_equiv_pos_as_xyz
  1  'x, y, z'
loop_
 _atom_site_type_symbol
 _atom_site_label
 _atom_site_symmetry_multiplicity
 _atom_site_fract_x
 _atom_site_fract_y
 _atom_site_fract_z
 _atom_site_occupancy
  Er  Er0  1  0.189171  0.810829  0.189171  1
  Er  Er1  1  0.061977  0.061977  0.438023  1
  Er  Er2  1  0.061977  0.438023  0.438023  1
  Er  Er3  1  0.438023  0.061977  0.061977  1
  Er  Er4  1  0.049679  0.650107  0.650107  1
  Er  Er5  1  0.810829  0.810829  0.189171  1
  Er  Er6  1  0.061977  0.438023  0.061977  1
  Er  Er7  1  0.189171  0.189171  0.810829  1
  Er  Er8  1  0.810829  0.189171  0.810829  1
  Er  Er9  1  0.650107  0.049679  0.650107  1
  Er  Er10  1  0.650107  0.650107  0.650107  1
  Er  Er11  1  0.438023  0.438023  0.061977  1
  Er  Er12  1  0.650107  0.650107  0.049679  1
  Er  Er13  1  0.189171  0.810829  0.810829  1
  Er  Er14  1  0.438023  0.061977  0.438023  1
  Er  Er15  1  0.810829  0.189171  0.189171  1
  In  In16  1  0.748640  0.417120  0.417120  1
  In  In17  1  0.417120  0.748640  0.417120  1
  In  In18  1  0.417120  0.417120  0.748640  1
  In  In19  1  0.417120  0.417120  0.417120  1
  Rh  Rh20  1  0.428151  0.857283  0.857283  1
  Rh  Rh21  1  0.857283  0.428151  0.857283  1
  Rh  Rh22  1  0.857283  0.857283  0.428151  1
  Rh  Rh23  1  0.857283  0.857283  0.857283  1
