# generated using pymatgen
data_LaCo2
_symmetry_space_group_name_H-M   'P 1'
_cell_length_a   5.16336429
_cell_length_b   5.16336447
_cell_length_c   5.16336423
_cell_angle_alpha   60.00000158
_cell_angle_beta   60.00000048
_cell_angle_gamma   59.99999797
_symmetry_Int_Tables_number   1
_chemical_formula_structural   LaCo2
_chemical_formula_sum   'La2 Co4'
_cell_volume   97.33820046
_cell_formula_units_Z   2
loop_
 _symmetry_equiv_pos_site_id
 _symmetry_equiv_pos_as_xyz
  1  'x, y, z'
loop_
 _atom_site_type_symbol
 _atom_site_label
 _atom_site_symmetry_multiplicity
 _atom_site_fract_x
 _atom_site_fract_y
 _atom_site_fract_z
 _atom_site_occupancy
  La  La0  1  0.875000  0.875000  0.875000  1
  La  La1  1  0.125000  0.125000  0.125000  1
  Co  Co2  1  0.500000  0.000000  0.500000  1
  Co  Co3  1  0.000000  0.500000  0.500000  1
  Co  Co4  1  0.500000  0.500000  0.500000  1
  Co  Co5  1  0.500000  0.500000  0.000000  1
