# generated using pymatgen
data_MnAs2F12
_symmetry_space_group_name_H-M   'P 1'
_cell_length_a   7.68811013
_cell_length_b   7.68811012
_cell_length_c   9.50635856
_cell_angle_alpha   113.85144884
_cell_angle_beta   113.85144884
_cell_angle_gamma   90.00000002
_symmetry_Int_Tables_number   1
_chemical_formula_structural   MnAs2F12
_chemical_formula_sum   'Mn2 As4 F24'
_cell_volume   460.94900520
_cell_formula_units_Z   2
loop_
 _symmetry_equiv_pos_site_id
 _symmetry_equiv_pos_as_xyz
  1  'x, y, z'
loop_
 _atom_site_type_symbol
 _atom_site_label
 _atom_site_symmetry_multiplicity
 _atom_site_fract_x
 _atom_site_fract_y
 _atom_site_fract_z
 _atom_site_occupancy
  F  F0  1  0.741492  0.865988  0.408903  1
  F  F1  1  0.667412  0.542916  0.408903  1
  F  F2  1  0.792916  0.417412  0.908903  1
  F  F3  1  0.134012  0.332588  0.591097  1
  F  F4  1  0.457084  0.258508  0.591097  1
  F  F5  1  0.508508  0.207084  0.091096  1
  F  F6  1  0.266668  0.648893  0.229983  1
  F  F7  1  0.418910  0.733332  0.770017  1
  F  F8  1  0.351107  0.036685  0.770017  1
  F  F9  1  0.286685  0.101107  0.270017  1
  F  F10  1  0.983332  0.168910  0.270017  1
  F  F11  1  0.963315  0.581090  0.229983  1
  F  F12  1  0.831090  0.713315  0.729983  1
  F  F13  1  0.898893  0.016668  0.729983  1
  F  F14  1  0.085442  0.301438  0.063737  1
  F  F15  1  0.237702  0.914558  0.936263  1
  F  F16  1  0.698562  0.021705  0.936263  1
  F  F17  1  0.271705  0.448562  0.436263  1
  F  F18  1  0.164558  0.987702  0.436263  1
  F  F19  1  0.978295  0.762298  0.063737  1
  F  F20  1  0.012298  0.728295  0.563737  1
  F  F21  1  0.551438  0.835442  0.563737  1
  F  F22  1  0.115988  0.491492  0.908903  1
  F  F23  1  0.582588  0.884012  0.091096  1
  Mn  Mn24  1  0.250000  0.750000  0.500000  1
  Mn  Mn25  1  0.000000  0.000000  0.000000  1
  As  As26  1  0.779250  0.779250  0.558500  1
  As  As27  1  0.220750  0.220750  0.441500  1
  As  As28  1  0.470750  0.970750  0.941500  1
  As  As29  1  0.029250  0.529250  0.058500  1
