# generated using pymatgen
data_H18PbC6S4N2O9
_symmetry_space_group_name_H-M   'P 1'
_cell_length_a   9.30028543
_cell_length_b   10.29152680
_cell_length_c   10.99882871
_cell_angle_alpha   87.94332453
_cell_angle_beta   73.46825178
_cell_angle_gamma   64.00226879
_symmetry_Int_Tables_number   1
_chemical_formula_structural   H18PbC6S4N2O9
_chemical_formula_sum   'H36 Pb2 C12 S8 N4 O18'
_cell_volume   902.26903901
_cell_formula_units_Z   2
loop_
 _symmetry_equiv_pos_site_id
 _symmetry_equiv_pos_as_xyz
  1  'x, y, z'
loop_
 _atom_site_type_symbol
 _atom_site_label
 _atom_site_symmetry_multiplicity
 _atom_site_fract_x
 _atom_site_fract_y
 _atom_site_fract_z
 _atom_site_occupancy
  H  H0  1  0.426279  0.457701  0.205158  1
  H  H1  1  0.069664  0.199937  0.853349  1
  H  H2  1  0.971025  0.013926  0.273482  1
  H  H3  1  0.193096  0.767648  0.978351  1
  H  H4  1  0.609480  0.999898  0.850126  1
  H  H5  1  0.884062  0.554246  0.170335  1
  H  H6  1  0.329627  0.784585  0.643148  1
  H  H7  1  0.766405  0.276720  0.872019  1
  H  H8  1  0.636168  0.622650  0.902423  1
  H  H9  1  0.363832  0.377350  0.097577  1
  H  H10  1  0.381810  0.092872  0.896605  1
  H  H11  1  0.470449  0.319313  0.473377  1
  H  H12  1  0.618190  0.907128  0.103395  1
  H  H13  1  0.529551  0.680687  0.526623  1
  H  H14  1  0.911643  0.969182  0.090980  1
  H  H15  1  0.773518  0.481711  0.291660  1
  H  H16  1  0.233595  0.723280  0.127981  1
  H  H17  1  0.115938  0.445754  0.829665  1
  H  H18  1  0.214667  0.892768  0.070478  1
  H  H19  1  0.670373  0.215415  0.356852  1
  H  H20  1  0.536208  0.730840  0.790542  1
  H  H21  1  0.930336  0.800063  0.146651  1
  H  H22  1  0.806904  0.232352  0.021649  1
  H  H23  1  0.785333  0.107232  0.929522  1
  H  H24  1  0.500308  0.804764  0.146887  1
  H  H25  1  0.800514  0.441667  0.125899  1
  H  H26  1  0.199486  0.558333  0.874101  1
  H  H27  1  0.616430  0.395643  0.420849  1
  H  H28  1  0.226482  0.518289  0.708340  1
  H  H29  1  0.028975  0.986074  0.726518  1
  H  H30  1  0.573721  0.542299  0.794842  1
  H  H31  1  0.383570  0.604357  0.579151  1
  H  H32  1  0.463792  0.269160  0.209458  1
  H  H33  1  0.390520  0.000102  0.149874  1
  H  H34  1  0.499692  0.195236  0.853113  1
  H  H35  1  0.088357  0.030818  0.909020  1
  Pb  Pb36  1  0.865335  0.803326  0.471075  1
  Pb  Pb37  1  0.134665  0.196674  0.528925  1
  C  C38  1  0.602954  0.295827  0.440670  1
  C  C39  1  0.501254  0.908537  0.163944  1
  C  C40  1  0.397046  0.704173  0.559330  1
  C  C41  1  0.498746  0.091463  0.836056  1
  C  C42  1  0.618533  0.621663  0.808179  1
  C  C43  1  0.020858  0.119734  0.857662  1
  C  C44  1  0.979142  0.880266  0.142338  1
  C  C45  1  0.166824  0.811493  0.076206  1
  C  C46  1  0.143653  0.538091  0.805976  1
  C  C47  1  0.381467  0.378337  0.191821  1
  C  C48  1  0.856347  0.461909  0.194024  1
  C  C49  1  0.833176  0.188507  0.923794  1
  S  S50  1  0.493783  0.929593  0.325447  1
  S  S51  1  0.182375  0.434563  0.308676  1
  S  S52  1  0.952181  0.696972  0.820041  1
  S  S53  1  0.305762  0.777730  0.436346  1
  S  S54  1  0.047819  0.303028  0.179959  1
  S  S55  1  0.817625  0.565437  0.691324  1
  S  S56  1  0.506217  0.070407  0.674553  1
  S  S57  1  0.694238  0.222270  0.563654  1
  N  N58  1  0.322155  0.927951  0.412241  1
  N  N59  1  0.677845  0.072049  0.587759  1
  N  N60  1  0.112927  0.318663  0.298572  1
  N  N61  1  0.887073  0.681337  0.701428  1
  O  O62  1  0.925303  0.418453  0.715951  1
  O  O63  1  0.074697  0.581547  0.284049  1
  O  O64  1  0.063761  0.063488  0.726693  1
  O  O65  1  0.990475  0.820483  0.799390  1
  O  O66  1  0.604824  0.327812  0.675861  1
  O  O67  1  0.835307  0.702675  0.942972  1
  O  O68  1  0.791096  0.576513  0.565390  1
  O  O69  1  0.531054  0.922806  0.646976  1
  O  O70  1  0.646218  0.810874  0.342217  1
  O  O71  1  0.468946  0.077194  0.353024  1
  O  O72  1  0.009525  0.179517  0.200610  1
  O  O73  1  0.125519  0.823339  0.490547  1
  O  O74  1  0.395176  0.672188  0.324139  1
  O  O75  1  0.353782  0.189126  0.657783  1
  O  O76  1  0.936239  0.936512  0.273307  1
  O  O77  1  0.164693  0.297325  0.057028  1
  O  O78  1  0.874481  0.176661  0.509453  1
  O  O79  1  0.208904  0.423487  0.434610  1
