# generated using pymatgen
data_Dy(Zn10Ru)2
_symmetry_space_group_name_H-M   'P 1'
_cell_length_a   10.08582521
_cell_length_b   10.08582528
_cell_length_c   10.08582592
_cell_angle_alpha   59.99999790
_cell_angle_beta   59.99999766
_cell_angle_gamma   60.00000056
_symmetry_Int_Tables_number   1
_chemical_formula_structural   Dy(Zn10Ru)2
_chemical_formula_sum   'Dy2 Zn40 Ru4'
_cell_volume   725.46979488
_cell_formula_units_Z   2
loop_
 _symmetry_equiv_pos_site_id
 _symmetry_equiv_pos_as_xyz
  1  'x, y, z'
loop_
 _atom_site_type_symbol
 _atom_site_label
 _atom_site_symmetry_multiplicity
 _atom_site_fract_x
 _atom_site_fract_y
 _atom_site_fract_z
 _atom_site_occupancy
  Dy  Dy0  1  0.875000  0.875000  0.875000  1
  Dy  Dy1  1  0.125000  0.125000  0.125000  1
  Zn  Zn2  1  0.238530  0.511470  0.511470  1
  Zn  Zn3  1  0.761470  0.488530  0.761470  1
  Zn  Zn4  1  0.943681  0.674925  0.674925  1
  Zn  Zn5  1  0.206469  0.943681  0.674925  1
  Zn  Zn6  1  0.511470  0.511470  0.238530  1
  Zn  Zn7  1  0.325075  0.793531  0.056319  1
  Zn  Zn8  1  0.056319  0.793531  0.325075  1
  Zn  Zn9  1  0.500000  0.000000  0.000000  1
  Zn  Zn10  1  0.793531  0.056319  0.325075  1
  Zn  Zn11  1  0.943681  0.674925  0.206469  1
  Zn  Zn12  1  0.325075  0.325075  0.056319  1
  Zn  Zn13  1  0.056319  0.325075  0.325075  1
  Zn  Zn14  1  0.674925  0.943681  0.206469  1
  Zn  Zn15  1  0.793531  0.325075  0.056319  1
  Zn  Zn16  1  0.325075  0.793531  0.325075  1
  Zn  Zn17  1  0.325075  0.056319  0.793531  1
  Zn  Zn18  1  0.674925  0.674925  0.943681  1
  Zn  Zn19  1  0.761470  0.488530  0.488530  1
  Zn  Zn20  1  0.674925  0.206469  0.943681  1
  Zn  Zn21  1  0.943681  0.206469  0.674925  1
  Zn  Zn22  1  0.206469  0.674925  0.674925  1
  Zn  Zn23  1  0.674925  0.943681  0.674925  1
  Zn  Zn24  1  0.238530  0.511470  0.238530  1
  Zn  Zn25  1  0.325075  0.056319  0.325075  1
  Zn  Zn26  1  0.238530  0.238530  0.511470  1
  Zn  Zn27  1  0.674925  0.206469  0.674925  1
  Zn  Zn28  1  0.511470  0.238530  0.511470  1
  Zn  Zn29  1  0.325075  0.325075  0.793531  1
  Zn  Zn30  1  0.793531  0.325075  0.325075  1
  Zn  Zn31  1  0.056319  0.325075  0.793531  1
  Zn  Zn32  1  0.000000  0.000000  0.500000  1
  Zn  Zn33  1  0.761470  0.761470  0.488530  1
  Zn  Zn34  1  0.000000  0.000000  0.000000  1
  Zn  Zn35  1  0.511470  0.238530  0.238530  1
  Zn  Zn36  1  0.488530  0.761470  0.761470  1
  Zn  Zn37  1  0.488530  0.761470  0.488530  1
  Zn  Zn38  1  0.674925  0.674925  0.206469  1
  Zn  Zn39  1  0.000000  0.500000  0.000000  1
  Zn  Zn40  1  0.488530  0.488530  0.761470  1
  Zn  Zn41  1  0.206469  0.674925  0.943681  1
  Ru  Ru42  1  0.500000  0.500000  0.000000  1
  Ru  Ru43  1  0.000000  0.500000  0.500000  1
  Ru  Ru44  1  0.500000  0.500000  0.500000  1
  Ru  Ru45  1  0.500000  0.000000  0.500000  1
