# generated using pymatgen
data_NiH8(IO5)2
_symmetry_space_group_name_H-M   'P 1'
_cell_length_a   6.51061183
_cell_length_b   8.36956341
_cell_length_c   8.50259163
_cell_angle_alpha   99.11056317
_cell_angle_beta   90.00000000
_cell_angle_gamma   90.00000000
_symmetry_Int_Tables_number   1
_chemical_formula_structural   NiH8(IO5)2
_chemical_formula_sum   'Ni2 H16 I4 O20'
_cell_volume   457.46965452
_cell_formula_units_Z   2
loop_
 _symmetry_equiv_pos_site_id
 _symmetry_equiv_pos_as_xyz
  1  'x, y, z'
loop_
 _atom_site_type_symbol
 _atom_site_label
 _atom_site_symmetry_multiplicity
 _atom_site_fract_x
 _atom_site_fract_y
 _atom_site_fract_z
 _atom_site_occupancy
  Ni  Ni0  1  0.000000  0.000000  0.000000  1
  Ni  Ni1  1  0.500000  0.000000  0.500000  1
  H  H2  1  0.995948  0.153177  0.763373  1
  H  H3  1  0.495948  0.846823  0.736627  1
  H  H4  1  0.004052  0.846823  0.236627  1
  H  H5  1  0.504052  0.153177  0.263373  1
  H  H6  1  0.875845  0.989439  0.698417  1
  H  H7  1  0.375845  0.010561  0.801583  1
  H  H8  1  0.124155  0.010561  0.301583  1
  H  H9  1  0.624155  0.989439  0.198417  1
  H  H10  1  0.216823  0.725165  0.946724  1
  H  H11  1  0.716823  0.274835  0.553276  1
  H  H12  1  0.783177  0.274835  0.053276  1
  H  H13  1  0.283177  0.725165  0.446724  1
  H  H14  1  0.109507  0.733703  0.777132  1
  H  H15  1  0.609507  0.266297  0.722868  1
  H  H16  1  0.890493  0.266297  0.222868  1
  H  H17  1  0.390493  0.733703  0.277132  1
  I  I18  1  0.682266  0.669435  0.972868  1
  I  I19  1  0.182266  0.330565  0.527132  1
  I  I20  1  0.317734  0.330565  0.027132  1
  I  I21  1  0.817734  0.669435  0.472868  1
  O  O22  1  0.718832  0.889077  0.030064  1
  O  O23  1  0.218832  0.110923  0.469936  1
  O  O24  1  0.281168  0.110923  0.969936  1
  O  O25  1  0.781168  0.889077  0.530064  1
  O  O26  1  0.619873  0.667385  0.762918  1
  O  O27  1  0.119873  0.332615  0.737082  1
  O  O28  1  0.380127  0.332615  0.237082  1
  O  O29  1  0.880127  0.667385  0.262918  1
  O  O30  1  0.077562  0.662494  0.558496  1
  O  O31  1  0.577562  0.337506  0.941504  1
  O  O32  1  0.922438  0.337506  0.441504  1
  O  O33  1  0.422438  0.662494  0.058496  1
  O  O34  1  0.904526  0.069350  0.795773  1
  O  O35  1  0.404526  0.930650  0.704227  1
  O  O36  1  0.095474  0.930650  0.204227  1
  O  O37  1  0.595474  0.069350  0.295773  1
  O  O38  1  0.090975  0.759813  0.894196  1
  O  O39  1  0.590975  0.240187  0.605804  1
  O  O40  1  0.909025  0.240187  0.105804  1
  O  O41  1  0.409025  0.759813  0.394196  1
