# generated using pymatgen
data_GdAgSe2
_symmetry_space_group_name_H-M   'P 1'
_cell_length_a   6.11386517
_cell_length_b   6.11386552
_cell_length_c   7.90414182
_cell_angle_alpha   112.75247783
_cell_angle_beta   112.75247839
_cell_angle_gamma   89.99998624
_symmetry_Int_Tables_number   1
_chemical_formula_structural   GdAgSe2
_chemical_formula_sum   'Gd2 Ag2 Se4'
_cell_volume   247.34222846
_cell_formula_units_Z   2
loop_
 _symmetry_equiv_pos_site_id
 _symmetry_equiv_pos_as_xyz
  1  'x, y, z'
loop_
 _atom_site_type_symbol
 _atom_site_label
 _atom_site_symmetry_multiplicity
 _atom_site_fract_x
 _atom_site_fract_y
 _atom_site_fract_z
 _atom_site_occupancy
  Gd  Gd0  1  0.255140  0.755140  0.510280  1
  Gd  Gd1  1  0.005140  0.005140  0.010280  1
  Ag  Ag2  1  0.485028  0.485028  -0.029945  1
  Ag  Ag3  1  0.735028  0.235028  0.470055  1
  Se  Se4  1  0.268736  0.268736  0.537472  1
  Se  Se5  1  0.781096  0.781096  0.562193  1
  Se  Se6  1  0.031096  0.531096  0.062193  1
  Se  Se7  1  0.518736  1.018736  1.037472  1
