# generated using pymatgen
data_K2FeH12(SO7)2
_symmetry_space_group_name_H-M   'P 1'
_cell_length_a   6.22017399
_cell_length_b   9.05011280
_cell_length_c   12.34922118
_cell_angle_alpha   90.00000000
_cell_angle_beta   90.00000000
_cell_angle_gamma   104.46038896
_symmetry_Int_Tables_number   1
_chemical_formula_structural   K2FeH12(SO7)2
_chemical_formula_sum   'K4 Fe2 H24 S4 O28'
_cell_volume   673.15522952
_cell_formula_units_Z   2
loop_
 _symmetry_equiv_pos_site_id
 _symmetry_equiv_pos_as_xyz
  1  'x, y, z'
loop_
 _atom_site_type_symbol
 _atom_site_label
 _atom_site_symmetry_multiplicity
 _atom_site_fract_x
 _atom_site_fract_y
 _atom_site_fract_z
 _atom_site_occupancy
  Fe  Fe0  1  0.000000  0.000000  0.000000  1
  Fe  Fe1  1  0.000000  0.500000  0.500000  1
  S  S2  1  0.725532  0.409073  0.137381  1
  S  S3  1  0.274468  0.090927  0.637381  1
  S  S4  1  0.274468  0.590927  0.862619  1
  S  S5  1  0.725532  0.909073  0.362619  1
  O  O6  1  0.579609  0.406402  0.234094  1
  O  O7  1  0.420391  0.093598  0.734094  1
  O  O8  1  0.420391  0.593598  0.765906  1
  O  O9  1  0.579609  0.906402  0.265906  1
  O  O10  1  0.753624  0.555820  0.078432  1
  O  O11  1  0.246376  0.944180  0.578432  1
  O  O12  1  0.246376  0.444180  0.921568  1
  O  O13  1  0.753624  0.055820  0.421568  1
  O  O14  1  0.613995  0.281602  0.063395  1
  O  O15  1  0.386005  0.218398  0.563395  1
  O  O16  1  0.386005  0.718398  0.936605  1
  O  O17  1  0.613995  0.781602  0.436605  1
  O  O18  1  0.947118  0.388253  0.172810  1
  O  O19  1  0.052882  0.111747  0.672810  1
  O  O20  1  0.052882  0.611747  0.827190  1
  O  O21  1  0.947118  0.888253  0.327190  1
  O  O22  1  0.166542  0.167459  0.112671  1
  O  O23  1  0.833458  0.332541  0.612671  1
  O  O24  1  0.833458  0.832541  0.887329  1
  O  O25  1  0.166542  0.667459  0.387329  1
  O  O26  1  0.031624  0.829361  0.114376  1
  O  O27  1  0.968376  0.670639  0.614376  1
  O  O28  1  0.968376  0.170639  0.885624  1
  O  O29  1  0.031624  0.329361  0.385624  1
  O  O30  1  0.298179  0.996700  0.932805  1
  O  O31  1  0.701821  0.503300  0.432805  1
  O  O32  1  0.701821  0.003300  0.067195  1
  O  O33  1  0.298179  0.496700  0.567195  1
  K  K34  1  0.344216  0.133791  0.345713  1
  K  K35  1  0.655784  0.366209  0.845713  1
  K  K36  1  0.655784  0.866209  0.654287  1
  K  K37  1  0.344216  0.633791  0.154287  1
  H  H38  1  0.320386  0.217103  0.088939  1
  H  H39  1  0.679614  0.282897  0.588939  1
  H  H40  1  0.679614  0.782897  0.911061  1
  H  H41  1  0.320386  0.717103  0.411061  1
  H  H42  1  0.088607  0.249063  0.125650  1
  H  H43  1  0.911393  0.250937  0.625650  1
  H  H44  1  0.911393  0.750937  0.874350  1
  H  H45  1  0.088607  0.749063  0.374350  1
  H  H46  1  0.925895  0.728017  0.100662  1
  H  H47  1  0.074105  0.771983  0.600662  1
  H  H48  1  0.074105  0.271983  0.899338  1
  H  H49  1  0.925895  0.228017  0.399338  1
  H  H50  1  0.997798  0.857716  0.189123  1
  H  H51  1  0.002202  0.642284  0.689123  1
  H  H52  1  0.002202  0.142284  0.810877  1
  H  H53  1  0.997798  0.357716  0.310877  1
  H  H54  1  0.338272  0.897597  0.940127  1
  H  H55  1  0.661728  0.602403  0.440127  1
  H  H56  1  0.661728  0.102403  0.059873  1
  H  H57  1  0.338272  0.397597  0.559873  1
  H  H58  1  0.327784  0.028271  0.855734  1
  H  H59  1  0.672216  0.471729  0.355734  1
  H  H60  1  0.672216  0.971729  0.144266  1
  H  H61  1  0.327784  0.528271  0.644266  1
