# generated using pymatgen
data_Cd4GeS6
_symmetry_space_group_name_H-M   'P 1'
_cell_length_a   7.25948472
_cell_length_b   7.27927468
_cell_length_c   12.58314591
_cell_angle_alpha   73.87171838
_cell_angle_beta   73.23418064
_cell_angle_gamma   60.08989234
_symmetry_Int_Tables_number   1
_chemical_formula_structural   Cd4GeS6
_chemical_formula_sum   'Cd8 Ge2 S12'
_cell_volume   544.64093875
_cell_formula_units_Z   2
loop_
 _symmetry_equiv_pos_site_id
 _symmetry_equiv_pos_as_xyz
  1  'x, y, z'
loop_
 _atom_site_type_symbol
 _atom_site_label
 _atom_site_symmetry_multiplicity
 _atom_site_fract_x
 _atom_site_fract_y
 _atom_site_fract_z
 _atom_site_occupancy
  S  S0  1  0.709120  0.840147  0.204770  1
  S  S1  1  0.245963  0.340147  0.704770  1
  S  S2  1  0.560782  0.670310  0.758752  1
  S  S3  1  0.010156  0.170310  0.258752  1
  S  S4  1  0.997638  0.607370  0.440834  1
  S  S5  1  0.954158  0.107370  0.940834  1
  S  S6  1  0.954233  0.617923  0.947045  1
  S  S7  1  0.480799  0.117923  0.447045  1
  S  S8  1  0.430536  0.129249  0.965890  1
  S  S9  1  0.474324  0.629249  0.465890  1
  S  S10  1  0.403901  0.545134  0.137402  1
  S  S11  1  0.913564  0.045134  0.637402  1
  Ge  Ge12  1  0.131518  0.301311  0.890048  1
  Ge  Ge13  1  0.677122  0.801311  0.390048  1
  Cd  Cd14  1  0.268750  0.760127  0.299825  1
  Cd  Cd15  1  0.671299  0.260127  0.799825  1
  Cd  Cd16  1  0.756858  0.185954  0.144438  1
  Cd  Cd17  1  0.912750  0.685954  0.644438  1
  Cd  Cd18  1  0.544051  0.737400  0.952531  1
  Cd  Cd19  1  0.766018  0.237400  0.452531  1
  Cd  Cd20  1  0.072689  0.498676  0.142664  1
  Cd  Cd21  1  0.285970  0.998676  0.642664  1
