# generated using pymatgen
data_BaCO3
_symmetry_space_group_name_H-M   'P 1'
_cell_length_a   5.51293823
_cell_length_b   5.51293815
_cell_length_c   5.69080157
_cell_angle_alpha   90.00000000
_cell_angle_beta   90.00000000
_cell_angle_gamma   119.99994181
_symmetry_Int_Tables_number   1
_chemical_formula_structural   BaCO3
_chemical_formula_sum   'Ba2 C2 O6'
_cell_volume   149.78577673
_cell_formula_units_Z   2
loop_
 _symmetry_equiv_pos_site_id
 _symmetry_equiv_pos_as_xyz
  1  'x, y, z'
loop_
 _atom_site_type_symbol
 _atom_site_label
 _atom_site_symmetry_multiplicity
 _atom_site_fract_x
 _atom_site_fract_y
 _atom_site_fract_z
 _atom_site_occupancy
  O  O0  1  0.726371  0.863185  0.250000  1
  O  O1  1  0.136815  0.863185  0.250000  1
  O  O2  1  0.863185  0.136815  0.750000  1
  C  C3  1  0.000000  1.000000  0.250000  1
  Ba  Ba4  1  0.666667  0.333333  0.250000  1
  O  O5  1  0.863185  0.726371  0.750000  1
  O  O6  1  0.273629  0.136815  0.750000  1
  Ba  Ba7  1  0.333333  0.666667  0.750000  1
  C  C8  1  1.000000  0.000000  0.750000  1
  O  O9  1  0.136815  0.273629  0.250000  1
