# generated using pymatgen
data_Sr3MoN4
_symmetry_space_group_name_H-M   'P 1'
_cell_length_a   9.97244832
_cell_length_b   10.37763950
_cell_length_c   10.37764024
_cell_angle_alpha   59.96158924
_cell_angle_beta   83.13050761
_cell_angle_gamma   83.13050874
_symmetry_Int_Tables_number   1
_chemical_formula_structural   Sr3MoN4
_chemical_formula_sum   'Sr18 Mo6 N24'
_cell_volume   920.83319045
_cell_formula_units_Z   6
loop_
 _symmetry_equiv_pos_site_id
 _symmetry_equiv_pos_as_xyz
  1  'x, y, z'
loop_
 _atom_site_type_symbol
 _atom_site_label
 _atom_site_symmetry_multiplicity
 _atom_site_fract_x
 _atom_site_fract_y
 _atom_site_fract_z
 _atom_site_occupancy
  Sr  Sr0  1  0.298337  0.350705  0.279506  1
  Sr  Sr1  1  0.087039  0.638964  0.316959  1
  Sr  Sr2  1  0.099280  0.079938  0.611500  1
  Sr  Sr3  1  0.701663  0.649295  0.720494  1
  Sr  Sr4  1  0.201663  0.720494  0.649295  1
  Sr  Sr5  1  0.412961  0.683041  0.361036  1
  Sr  Sr6  1  0.798337  0.279506  0.350705  1
  Sr  Sr7  1  0.900720  0.920062  0.388500  1
  Sr  Sr8  1  0.045534  0.305041  0.050061  1
  Sr  Sr9  1  0.750000  0.985463  0.014537  1
  Sr  Sr10  1  0.912961  0.361036  0.683041  1
  Sr  Sr11  1  0.250000  0.014537  0.985463  1
  Sr  Sr12  1  0.545534  0.050061  0.305041  1
  Sr  Sr13  1  0.587039  0.316959  0.638964  1
  Sr  Sr14  1  0.954466  0.694959  0.949939  1
  Sr  Sr15  1  0.599280  0.611500  0.079938  1
  Sr  Sr16  1  0.400720  0.388500  0.920062  1
  Sr  Sr17  1  0.454466  0.949939  0.694959  1
  Mo  Mo18  1  0.287846  0.676231  0.972641  1
  Mo  Mo19  1  0.787846  0.972641  0.676231  1
  Mo  Mo20  1  0.750000  0.665715  0.334285  1
  Mo  Mo21  1  0.250000  0.334285  0.665715  1
  Mo  Mo22  1  0.712154  0.323769  0.027359  1
  Mo  Mo23  1  0.212154  0.027359  0.323769  1
  N  N24  1  0.663305  0.351386  0.843338  1
  N  N25  1  0.816539  0.483088  0.985590  1
  N  N26  1  0.122288  0.272435  0.829393  1
  N  N27  1  0.556644  0.334324  0.145083  1
  N  N28  1  0.877712  0.727565  0.170607  1
  N  N29  1  0.183461  0.516912  0.014410  1
  N  N30  1  0.309009  0.137050  0.141373  1
  N  N31  1  0.343967  0.498748  0.631539  1
  N  N32  1  0.316539  0.985590  0.483088  1
  N  N33  1  0.843967  0.631539  0.498748  1
  N  N34  1  0.836695  0.156662  0.648614  1
  N  N35  1  0.377712  0.170607  0.727565  1
  N  N36  1  0.156033  0.368461  0.501252  1
  N  N37  1  0.443356  0.665676  0.854917  1
  N  N38  1  0.163305  0.843338  0.351386  1
  N  N39  1  0.690991  0.862950  0.858627  1
  N  N40  1  0.056644  0.145083  0.334324  1
  N  N41  1  0.656033  0.501252  0.368461  1
  N  N42  1  0.809009  0.141373  0.137050  1
  N  N43  1  0.683461  0.014410  0.516912  1
  N  N44  1  0.190991  0.858627  0.862950  1
  N  N45  1  0.943356  0.854917  0.665676  1
  N  N46  1  0.336695  0.648614  0.156662  1
  N  N47  1  0.622288  0.829393  0.272435  1
