# generated using pymatgen
data_CdI2
_symmetry_space_group_name_H-M   'P 1'
_cell_length_a   4.33390193
_cell_length_b   4.33390219
_cell_length_c   59.31700246
_cell_angle_alpha   90.00000000
_cell_angle_beta   90.00000000
_cell_angle_gamma   119.99999795
_symmetry_Int_Tables_number   1
_chemical_formula_structural   CdI2
_chemical_formula_sum   'Cd8 I16'
_cell_volume   964.86826388
_cell_formula_units_Z   8
loop_
 _symmetry_equiv_pos_site_id
 _symmetry_equiv_pos_as_xyz
  1  'x, y, z'
loop_
 _atom_site_type_symbol
 _atom_site_label
 _atom_site_symmetry_multiplicity
 _atom_site_fract_x
 _atom_site_fract_y
 _atom_site_fract_z
 _atom_site_occupancy
  Cd  Cd0  1  0.000000  0.000000  0.781251  1
  Cd  Cd1  1  0.000000  0.000000  0.406218  1
  Cd  Cd2  1  0.000000  0.000000  0.906220  1
  Cd  Cd3  1  0.666667  0.333333  0.531286  1
  Cd  Cd4  1  0.666667  0.333333  0.281281  1
  Cd  Cd5  1  0.000000  0.000000  0.156222  1
  Cd  Cd6  1  0.666667  0.333333  0.031283  1
  Cd  Cd7  1  0.666667  0.333333  0.656221  1
  I  I8  1  0.333333  0.666667  0.810310  1
  I  I9  1  0.333333  0.666667  0.560338  1
  I  I10  1  0.666667  0.333333  0.127164  1
  I  I11  1  0.000000  0.000000  0.252242  1
  I  I12  1  0.333333  0.666667  0.060334  1
  I  I13  1  0.333333  0.666667  0.435277  1
  I  I14  1  0.666667  0.333333  0.752196  1
  I  I15  1  0.333333  0.666667  0.185279  1
  I  I16  1  0.666667  0.333333  0.877163  1
  I  I17  1  0.333333  0.666667  0.310332  1
  I  I18  1  0.333333  0.666667  0.935277  1
  I  I19  1  0.000000  0.000000  0.502247  1
  I  I20  1  0.666667  0.333333  0.377161  1
  I  I21  1  0.000000  0.000000  0.627178  1
  I  I22  1  0.333333  0.666667  0.685274  1
  I  I23  1  0.000000  0.000000  0.002247  1
