# generated using pymatgen
data_NaScAs2O7
_symmetry_space_group_name_H-M   'P 1'
_cell_length_a   4.89163995
_cell_length_b   5.67464454
_cell_length_c   5.67466052
_cell_angle_alpha   102.88497561
_cell_angle_beta   97.45590317
_cell_angle_gamma   97.45567988
_symmetry_Int_Tables_number   1
_chemical_formula_structural   NaScAs2O7
_chemical_formula_sum   'Na1 Sc1 As2 O7'
_cell_volume   150.18826150
_cell_formula_units_Z   1
loop_
 _symmetry_equiv_pos_site_id
 _symmetry_equiv_pos_as_xyz
  1  'x, y, z'
loop_
 _atom_site_type_symbol
 _atom_site_label
 _atom_site_symmetry_multiplicity
 _atom_site_fract_x
 _atom_site_fract_y
 _atom_site_fract_z
 _atom_site_occupancy
  O  O0  1  0.246115  0.626297  0.040190  1
  O  O1  1  0.778240  0.574619  0.671095  1
  As  As2  1  0.086049  0.748565  0.823565  1
  Sc  Sc3  1  0.500001  0.631661  0.368347  1
  O  O4  1  0.305539  0.837626  0.638141  1
  O  O5  1  0.753883  0.959810  0.373703  1
  O  O6  1  0.999999  0.041585  0.958415  1
  O  O7  1  0.694458  0.361858  0.162373  1
  As  As8  1  0.913948  0.176440  0.251431  1
  Na  Na9  1  0.500008  0.245859  0.754135  1
  O  O10  1  0.221758  0.328905  0.425382  1
