# generated using pymatgen
data_Xe2NO2F13
_symmetry_space_group_name_H-M   'P 1'
_cell_length_a   7.88961356
_cell_length_b   9.02838070
_cell_length_c   9.13948032
_cell_angle_alpha   94.08063668
_cell_angle_beta   115.57057767
_cell_angle_gamma   90.00000384
_symmetry_Int_Tables_number   1
_chemical_formula_structural   Xe2NO2F13
_chemical_formula_sum   'Xe4 N2 O4 F26'
_cell_volume   585.41548897
_cell_formula_units_Z   2
loop_
 _symmetry_equiv_pos_site_id
 _symmetry_equiv_pos_as_xyz
  1  'x, y, z'
loop_
 _atom_site_type_symbol
 _atom_site_label
 _atom_site_symmetry_multiplicity
 _atom_site_fract_x
 _atom_site_fract_y
 _atom_site_fract_z
 _atom_site_occupancy
  Xe  Xe0  1  0.154662  0.285237  0.309323  1
  Xe  Xe1  1  0.602568  0.773964  0.205135  1
  Xe  Xe2  1  0.397432  0.226036  0.794865  1
  Xe  Xe3  1  0.845338  0.714763  0.690677  1
  N  N4  1  0.196768  0.779646  0.393537  1
  N  N5  1  0.803232  0.220354  0.606463  1
  O  O6  1  0.265606  0.803923  0.531211  1
  O  O7  1  0.127841  0.756058  0.255683  1
  O  O8  1  0.872158  0.243942  0.744317  1
  O  O9  1  0.734394  0.196077  0.468789  1
  F  F10  1  0.546914  0.730306  0.419038  1
  F  F11  1  0.266806  0.374179  0.884059  1
  F  F12  1  0.733194  0.625821  0.115941  1
  F  F13  1  0.949656  0.845624  0.899313  1
  F  F14  1  0.127875  0.269694  0.580962  1
  F  F15  1  0.215182  0.059387  0.779570  1
  F  F16  1  0.617253  0.374179  0.884059  1
  F  F17  1  0.382747  0.625821  0.115941  1
  F  F18  1  0.883577  0.290007  0.272358  1
  F  F19  1  0.069157  0.431162  0.138314  1
  F  F20  1  0.611219  0.709993  0.727642  1
  F  F21  1  0.872125  0.730306  0.419038  1
  F  F22  1  0.219797  0.493098  0.439594  1
  F  F23  1  0.809227  0.933828  0.618453  1
  F  F24  1  0.930843  0.568838  0.861686  1
  F  F25  1  0.453086  0.269694  0.580962  1
  F  F26  1  0.190773  0.066172  0.381547  1
  F  F27  1  0.050344  0.154376  0.100687  1
  F  F28  1  0.780203  0.506902  0.560406  1
  F  F29  1  0.116423  0.709993  0.727642  1
  F  F30  1  0.435612  0.940613  0.220430  1
  F  F31  1  0.564388  0.059387  0.779570  1
  F  F32  1  0.388781  0.290007  0.272358  1
  F  F33  1  0.784818  0.940613  0.220430  1
  F  F34  1  0.486547  0.822691  0.973094  1
  F  F35  1  0.513453  0.177309  0.026906  1
