# generated using pymatgen
data_CoH3(CN)6
_symmetry_space_group_name_H-M   'P 1'
_cell_length_a   6.48615031
_cell_length_b   6.48614998
_cell_length_c   5.59148743
_cell_angle_alpha   90.00000000
_cell_angle_beta   90.00000000
_cell_angle_gamma   120.00000172
_symmetry_Int_Tables_number   1
_chemical_formula_structural   CoH3(CN)6
_chemical_formula_sum   'Co1 H3 C6 N6'
_cell_volume   203.71920501
_cell_formula_units_Z   1
loop_
 _symmetry_equiv_pos_site_id
 _symmetry_equiv_pos_as_xyz
  1  'x, y, z'
loop_
 _atom_site_type_symbol
 _atom_site_label
 _atom_site_symmetry_multiplicity
 _atom_site_fract_x
 _atom_site_fract_y
 _atom_site_fract_z
 _atom_site_occupancy
  Co  Co0  1  0.000000  0.000000  0.000000  1
  H  H1  1  0.000000  0.500000  0.500000  1
  H  H2  1  0.500000  0.000000  0.500000  1
  H  H3  1  0.500000  0.500000  0.500000  1
  C  C4  1  0.235112  0.235112  0.804886  1
  C  C5  1  0.235112  0.000000  0.195114  1
  C  C6  1  1.000000  0.764888  0.804886  1
  C  C7  1  0.000000  0.235112  0.195114  1
  C  C8  1  0.764888  0.764888  0.195114  1
  C  C9  1  0.764888  0.000000  0.804886  1
  N  N10  1  0.000000  0.622950  0.676994  1
  N  N11  1  1.000000  0.377050  0.323006  1
  N  N12  1  0.377050  0.000000  0.323006  1
  N  N13  1  0.622950  0.000000  0.676994  1
  N  N14  1  0.622950  0.622950  0.323006  1
  N  N15  1  0.377050  0.377050  0.676994  1
