# generated using pymatgen
data_Ce3CCl5
_symmetry_space_group_name_H-M   'P 1'
_cell_length_a   8.26551402
_cell_length_b   8.26551451
_cell_length_c   15.87241362
_cell_angle_alpha   83.55228626
_cell_angle_beta   83.55228586
_cell_angle_gamma   63.77978040
_symmetry_Int_Tables_number   1
_chemical_formula_structural   Ce3CCl5
_chemical_formula_sum   'Ce12 C4 Cl20'
_cell_volume   964.25689377
_cell_formula_units_Z   4
loop_
 _symmetry_equiv_pos_site_id
 _symmetry_equiv_pos_as_xyz
  1  'x, y, z'
loop_
 _atom_site_type_symbol
 _atom_site_label
 _atom_site_symmetry_multiplicity
 _atom_site_fract_x
 _atom_site_fract_y
 _atom_site_fract_z
 _atom_site_occupancy
  Ce  Ce0  1  0.291053  0.997394  0.045152  1
  Ce  Ce1  1  0.708947  0.002606  0.954848  1
  Ce  Ce2  1  0.654779  0.910274  0.201589  1
  Ce  Ce3  1  0.714205  0.542498  0.061113  1
  Ce  Ce4  1  0.997394  0.291053  0.545152  1
  Ce  Ce5  1  0.345221  0.089726  0.798411  1
  Ce  Ce6  1  0.285795  0.457502  0.938887  1
  Ce  Ce7  1  0.002606  0.708947  0.454848  1
  Ce  Ce8  1  0.457502  0.285795  0.438887  1
  Ce  Ce9  1  0.089726  0.345221  0.298411  1
  Ce  Ce10  1  0.542498  0.714205  0.561113  1
  Ce  Ce11  1  0.910274  0.654779  0.701589  1
  C  C12  1  0.392476  0.148807  0.930941  1
  C  C13  1  0.148807  0.392476  0.430941  1
  C  C14  1  0.851193  0.607524  0.569059  1
  C  C15  1  0.607524  0.851193  0.069059  1
  Cl  Cl16  1  0.848314  0.096400  0.097917  1
  Cl  Cl17  1  0.375683  0.099445  0.593910  1
  Cl  Cl18  1  0.096400  0.848314  0.597917  1
  Cl  Cl19  1  0.719835  0.013221  0.766572  1
  Cl  Cl20  1  0.280165  0.986779  0.233428  1
  Cl  Cl21  1  0.654782  0.378336  0.919199  1
  Cl  Cl22  1  0.345218  0.621664  0.080801  1
  Cl  Cl23  1  0.281866  0.462647  0.758559  1
  Cl  Cl24  1  0.986779  0.280165  0.733428  1
  Cl  Cl25  1  0.099445  0.375683  0.093910  1
  Cl  Cl26  1  0.621664  0.345218  0.580801  1
  Cl  Cl27  1  0.013221  0.719835  0.266572  1
  Cl  Cl28  1  0.378336  0.654782  0.419199  1
  Cl  Cl29  1  0.537353  0.718134  0.741441  1
  Cl  Cl30  1  0.718134  0.537353  0.241441  1
  Cl  Cl31  1  0.900555  0.624317  0.906090  1
  Cl  Cl32  1  0.151686  0.903600  0.902083  1
  Cl  Cl33  1  0.624317  0.900555  0.406090  1
  Cl  Cl34  1  0.462647  0.281866  0.258559  1
  Cl  Cl35  1  0.903600  0.151686  0.402083  1
