# generated using pymatgen
data_AgAs(XeF5)2
_symmetry_space_group_name_H-M   'P 1'
_cell_length_a   8.76777490
_cell_length_b   8.76777523
_cell_length_c   8.93097650
_cell_angle_alpha   119.39733477
_cell_angle_beta   119.39733582
_cell_angle_gamma   89.99999375
_symmetry_Int_Tables_number   1
_chemical_formula_structural   AgAs(XeF5)2
_chemical_formula_sum   'Ag2 As2 Xe4 F20'
_cell_volume   494.18244946
_cell_formula_units_Z   2
loop_
 _symmetry_equiv_pos_site_id
 _symmetry_equiv_pos_as_xyz
  1  'x, y, z'
loop_
 _atom_site_type_symbol
 _atom_site_label
 _atom_site_symmetry_multiplicity
 _atom_site_fract_x
 _atom_site_fract_y
 _atom_site_fract_z
 _atom_site_occupancy
  Ag  Ag0  1  0.250000  0.250000  0.500000  1
  Ag  Ag1  1  0.750000  0.750000  0.500000  1
  As  As2  1  0.750000  0.250000  0.500000  1
  As  As3  1  0.250000  0.750000  0.500000  1
  Xe  Xe4  1  0.747630  0.247630  1.000000  1
  Xe  Xe5  1  0.247630  0.252370  1.000000  1
  Xe  Xe6  1  0.252370  0.752370  0.000000  1
  Xe  Xe7  1  0.752370  0.747630  0.000000  1
  F  F8  1  0.061551  0.825437  0.499949  1
  F  F9  1  0.887857  0.387857  0.775715  1
  F  F10  1  0.387857  0.887857  0.775715  1
  F  F11  1  0.438399  0.674512  0.499949  1
  F  F12  1  0.217465  0.222216  0.205790  1
  F  F13  1  0.777784  0.011675  0.794210  1
  F  F14  1  0.561550  0.174512  0.499949  1
  F  F15  1  0.325488  0.938450  0.500051  1
  F  F16  1  0.277784  0.282535  0.794210  1
  F  F17  1  0.612143  0.112143  0.224285  1
  F  F18  1  0.988325  0.983574  0.205790  1
  F  F19  1  0.825488  0.061601  0.500051  1
  F  F20  1  0.938399  0.325437  0.499949  1
  F  F21  1  0.488325  0.722216  0.205790  1
  F  F22  1  0.174563  0.561601  0.500051  1
  F  F23  1  0.516426  0.511675  0.794210  1
  F  F24  1  0.112143  0.612143  0.224285  1
  F  F25  1  0.016426  0.782535  0.794210  1
  F  F26  1  0.717465  0.483574  0.205790  1
  F  F27  1  0.674563  0.438449  0.500051  1
