# generated using pymatgen
data_Ag2HgSI2
_symmetry_space_group_name_H-M   'P 1'
_cell_length_a   7.31767908
_cell_length_b   7.68244062
_cell_length_c   8.03896427
_cell_angle_alpha   118.54346440
_cell_angle_beta   90.00000000
_cell_angle_gamma   90.00000000
_symmetry_Int_Tables_number   1
_chemical_formula_structural   Ag2HgSI2
_chemical_formula_sum   'Ag4 Hg2 S2 I4'
_cell_volume   397.00148794
_cell_formula_units_Z   2
loop_
 _symmetry_equiv_pos_site_id
 _symmetry_equiv_pos_as_xyz
  1  'x, y, z'
loop_
 _atom_site_type_symbol
 _atom_site_label
 _atom_site_symmetry_multiplicity
 _atom_site_fract_x
 _atom_site_fract_y
 _atom_site_fract_z
 _atom_site_occupancy
  Ag  Ag0  1  0.770218  0.182497  0.676703  1
  Ag  Ag1  1  0.770218  0.505795  0.323297  1
  Ag  Ag2  1  0.270218  0.494205  0.676703  1
  Ag  Ag3  1  0.270218  0.817503  0.323297  1
  Hg  Hg4  1  0.414194  0.024437  1.000000  1
  Hg  Hg5  1  0.914194  0.975563  0.000000  1
  S  S6  1  0.685127  0.202932  1.000000  1
  S  S7  1  0.185127  0.797068  0.000000  1
  I  I8  1  0.167222  0.138012  0.681563  1
  I  I9  1  0.167222  0.456450  0.318437  1
  I  I10  1  0.667222  0.861988  0.318437  1
  I  I11  1  0.667222  0.543550  0.681563  1
