# generated using pymatgen
data_P3IrO9
_symmetry_space_group_name_H-M   'P 1'
_cell_length_a   9.52493627
_cell_length_b   10.69216116
_cell_length_c   11.78159394
_cell_angle_alpha   113.46229478
_cell_angle_beta   109.98619123
_cell_angle_gamma   97.90870759
_symmetry_Int_Tables_number   1
_chemical_formula_structural   P3IrO9
_chemical_formula_sum   'P18 Ir6 O54'
_cell_volume   980.86571759
_cell_formula_units_Z   6
loop_
 _symmetry_equiv_pos_site_id
 _symmetry_equiv_pos_as_xyz
  1  'x, y, z'
loop_
 _atom_site_type_symbol
 _atom_site_label
 _atom_site_symmetry_multiplicity
 _atom_site_fract_x
 _atom_site_fract_y
 _atom_site_fract_z
 _atom_site_occupancy
  P  P0  1  0.176658  0.783962  0.393010  1
  P  P1  1  0.909428  0.163170  0.606318  1
  P  P2  1  0.614325  0.721140  0.274618  1
  P  P3  1  0.239305  0.498296  0.270873  1
  P  P4  1  0.094326  0.798159  0.626762  1
  P  P5  1  0.468432  0.227423  0.729127  1
  P  P6  1  0.565090  0.853713  0.948173  1
  P  P7  1  0.441341  0.105689  0.290531  1
  P  P8  1  0.935839  0.069452  0.935658  1
  P  P9  1  0.967564  0.171397  0.373238  1
  P  P10  1  0.839707  0.446522  0.725382  1
  P  P11  1  0.803110  0.556852  0.393682  1
  P  P12  1  0.758752  0.480408  0.962068  1
  P  P13  1  0.650810  0.815158  0.709469  1
  P  P14  1  0.296684  0.518340  0.037932  1
  P  P15  1  0.283649  0.390952  0.606990  1
  P  P16  1  0.116917  0.905540  0.051827  1
  P  P17  1  0.500182  0.133794  0.064342  1
  Ir  Ir18  1  0.539326  0.460279  0.489035  1
  Ir  Ir19  1  0.871089  0.825319  0.175487  1
  Ir  Ir20  1  0.204113  0.154428  0.839063  1
  Ir  Ir21  1  0.550292  0.971245  0.510965  1
  Ir  Ir22  1  0.195603  0.649833  0.824513  1
  Ir  Ir23  1  0.865050  0.315365  0.160937  1
  O  O24  1  0.849452  0.414467  0.040594  1
  O  O25  1  0.197437  0.586631  0.966185  1
  O  O26  1  0.515432  0.993270  0.955691  1
  O  O27  1  0.334603  0.140124  0.010247  1
  O  O28  1  0.790478  0.035190  0.581569  1
  O  O29  1  0.435410  0.744521  0.935942  1
  O  O30  1  0.308858  0.373873  0.959406  1
  O  O31  1  0.824356  0.129878  0.989753  1
  O  O32  1  0.731252  0.620446  0.033815  1
  O  O33  1  0.909261  0.709115  0.527883  1
  O  O34  1  0.106436  0.368601  0.225082  1
  O  O35  1  0.059741  0.037579  0.044309  1
  O  O36  1  0.271749  0.986714  0.194831  1
  O  O37  1  0.017856  0.743045  0.278289  1
  O  O38  1  0.095078  0.936463  0.730936  1
  O  O39  1  0.023764  0.162148  0.897152  1
  O  O40  1  0.569616  0.160447  0.665717  1
  O  O41  1  0.684941  0.599913  0.293525  1
  O  O42  1  0.864142  0.205527  0.269064  1
  O  O43  1  0.891416  0.306388  0.706475  1
  O  O44  1  0.181893  0.706998  0.673453  1
  O  O45  1  0.999468  0.808579  0.064058  1
  O  O46  1  0.912903  0.500037  0.334863  1
  O  O47  1  0.542869  0.777324  0.372841  1
  O  O48  1  0.542971  0.053953  0.379235  1
  O  O49  1  0.381354  0.143519  0.774918  1
  O  O50  1  0.348580  0.266921  0.625281  1
  O  O51  1  0.849985  0.500125  0.875737  1
  O  O52  1  0.955314  0.555076  0.722475  1
  O  O53  1  0.580821  0.381550  0.855007  1
  O  O54  1  0.225814  0.526543  0.144993  1
  O  O55  1  0.732839  0.832601  0.277525  1
  O  O56  1  0.078040  0.165173  0.665137  1
  O  O57  1  0.832892  0.911257  0.810080  1
  O  O58  1  0.008440  0.033545  0.326547  1
  O  O59  1  0.474248  0.624388  0.124263  1
  O  O60  1  0.626612  0.264997  0.102848  1
  O  O61  1  0.239567  0.464756  0.721711  1
  O  O62  1  0.576918  0.791883  0.805169  1
  O  O63  1  0.663737  0.674718  0.620765  1
  O  O64  1  0.163858  0.833874  0.534803  1
  O  O65  1  0.670028  0.404483  0.627159  1
  O  O66  1  0.411776  0.246682  0.353301  1
  O  O67  1  0.129055  0.299071  0.465197  1
  O  O68  1  0.389952  0.484506  0.582321  1
  O  O69  1  0.724031  0.901862  0.065608  1
  O  O70  1  0.307631  0.902185  0.417679  1
  O  O71  1  0.522812  0.101176  0.189920  1
  O  O72  1  0.708909  0.453621  0.418431  1
  O  O73  1  0.403899  0.494729  0.334283  1
  O  O74  1  0.158423  0.836255  0.934392  1
  O  O75  1  0.558475  0.893381  0.646699  1
  O  O76  1  0.881377  0.181231  0.472117  1
  O  O77  1  0.223298  0.641640  0.374719  1
