# generated using pymatgen
data_TeC4(ClF3)2
_symmetry_space_group_name_H-M   'P 1'
_cell_length_a   7.47355528
_cell_length_b   7.47355590
_cell_length_c   9.24650053
_cell_angle_alpha   100.56094630
_cell_angle_beta   100.56094725
_cell_angle_gamma   97.52943876
_symmetry_Int_Tables_number   1
_chemical_formula_structural   TeC4(ClF3)2
_chemical_formula_sum   'Te2 C8 Cl4 F12'
_cell_volume   491.81046893
_cell_formula_units_Z   2
loop_
 _symmetry_equiv_pos_site_id
 _symmetry_equiv_pos_as_xyz
  1  'x, y, z'
loop_
 _atom_site_type_symbol
 _atom_site_label
 _atom_site_symmetry_multiplicity
 _atom_site_fract_x
 _atom_site_fract_y
 _atom_site_fract_z
 _atom_site_occupancy
  Te  Te0  1  0.423385  0.576615  0.750000  1
  Te  Te1  1  0.576615  0.423385  0.250000  1
  C  C2  1  0.568659  0.962936  0.705622  1
  C  C3  1  0.163334  0.583100  0.814100  1
  C  C4  1  0.416900  0.836666  0.685900  1
  C  C5  1  0.962936  0.568659  0.205622  1
  C  C6  1  0.431341  0.037064  0.294378  1
  C  C7  1  0.836666  0.416900  0.185900  1
  C  C8  1  0.037064  0.431341  0.794378  1
  C  C9  1  0.583100  0.163334  0.314100  1
  Cl  Cl10  1  0.572358  0.748339  0.015472  1
  Cl  Cl11  1  0.427642  0.251661  0.984528  1
  Cl  Cl12  1  0.748339  0.572358  0.515472  1
  Cl  Cl13  1  0.251661  0.427642  0.484528  1
  F  F14  1  0.735994  0.945212  0.772202  1
  F  F15  1  0.264006  0.054788  0.227798  1
  F  F16  1  0.054788  0.264006  0.727798  1
  F  F17  1  0.945212  0.735994  0.272202  1
  F  F18  1  0.867300  0.252421  0.115453  1
  F  F19  1  0.431995  0.878505  0.340255  1
  F  F20  1  0.568005  0.121495  0.659745  1
  F  F21  1  0.252421  0.867300  0.615453  1
  F  F22  1  0.747579  0.132700  0.384547  1
  F  F23  1  0.878505  0.431995  0.840255  1
  F  F24  1  0.121495  0.568005  0.159745  1
  F  F25  1  0.132700  0.747579  0.884547  1
