# generated using pymatgen
data_K3Fe5F15
_symmetry_space_group_name_H-M   'P 1'
_cell_length_a   4.05592534
_cell_length_b   12.87270227
_cell_length_c   12.92316501
_cell_angle_alpha   90.00000000
_cell_angle_beta   90.00000000
_cell_angle_gamma   90.00000000
_symmetry_Int_Tables_number   1
_chemical_formula_structural   K3Fe5F15
_chemical_formula_sum   'K6 Fe10 F30'
_cell_volume   674.72774121
_cell_formula_units_Z   2
loop_
 _symmetry_equiv_pos_site_id
 _symmetry_equiv_pos_as_xyz
  1  'x, y, z'
loop_
 _atom_site_type_symbol
 _atom_site_label
 _atom_site_symmetry_multiplicity
 _atom_site_fract_x
 _atom_site_fract_y
 _atom_site_fract_z
 _atom_site_occupancy
  K  K0  1  0.960224  0.824865  0.675349  1
  K  K1  1  0.960224  0.175135  0.324651  1
  K  K2  1  0.960224  0.675135  0.175349  1
  K  K3  1  0.960224  0.324865  0.824651  1
  K  K4  1  0.961070  0.500000  0.500000  1
  K  K5  1  0.961070  0.000000  0.000000  1
  Fe  Fe6  1  0.460828  0.423546  0.287134  1
  Fe  Fe7  1  0.460828  0.576454  0.712866  1
  Fe  Fe8  1  0.460828  0.076454  0.787134  1
  Fe  Fe9  1  0.460828  0.923546  0.212866  1
  Fe  Fe10  1  0.460980  0.286991  0.576407  1
  Fe  Fe11  1  0.460980  0.713009  0.423593  1
  Fe  Fe12  1  0.460980  0.213009  0.076407  1
  Fe  Fe13  1  0.460980  0.786991  0.923593  1
  Fe  Fe14  1  0.458533  0.000000  0.500000  1
  Fe  Fe15  1  0.458533  0.500000  0.000000  1
  F  F16  1  0.462574  0.358835  0.430013  1
  F  F17  1  0.462574  0.641165  0.569987  1
  F  F18  1  0.462574  0.141165  0.930013  1
  F  F19  1  0.462574  0.858835  0.069987  1
  F  F20  1  0.462462  0.431044  0.641378  1
  F  F21  1  0.462462  0.568956  0.358622  1
  F  F22  1  0.462462  0.068956  0.141378  1
  F  F23  1  0.462462  0.931044  0.858622  1
  F  F24  1  0.458497  0.152701  0.492687  1
  F  F25  1  0.458497  0.847299  0.507313  1
  F  F26  1  0.458497  0.347299  0.992687  1
  F  F27  1  0.458497  0.652701  0.007313  1
  F  F28  1  0.458200  0.493525  0.846205  1
  F  F29  1  0.458200  0.506475  0.153795  1
  F  F30  1  0.458200  0.006475  0.346205  1
  F  F31  1  0.458200  0.993525  0.653795  1
  F  F32  1  0.958492  0.500000  0.000000  1
  F  F33  1  0.958492  0.000000  0.500000  1
  F  F34  1  0.961044  0.791087  0.923751  1
  F  F35  1  0.961044  0.208913  0.076249  1
  F  F36  1  0.961044  0.708913  0.423751  1
  F  F37  1  0.961044  0.291087  0.576249  1
  F  F38  1  0.460770  0.223327  0.723770  1
  F  F39  1  0.460770  0.776673  0.276230  1
  F  F40  1  0.460770  0.276673  0.223770  1
  F  F41  1  0.460770  0.723327  0.776230  1
  F  F42  1  0.960873  0.923420  0.208641  1
  F  F43  1  0.960873  0.076580  0.791359  1
  F  F44  1  0.960873  0.576580  0.708641  1
  F  F45  1  0.960873  0.423420  0.291359  1
