# generated using pymatgen
data_Dy(IO3)3
_symmetry_space_group_name_H-M   'P 1'
_cell_length_a   6.13014183
_cell_length_b   8.80772515
_cell_length_c   15.30764169
_cell_angle_alpha   96.73979663
_cell_angle_beta   90.00000000
_cell_angle_gamma   90.00000000
_symmetry_Int_Tables_number   1
_chemical_formula_structural   Dy(IO3)3
_chemical_formula_sum   'Dy4 I12 O36'
_cell_volume   820.78781171
_cell_formula_units_Z   4
loop_
 _symmetry_equiv_pos_site_id
 _symmetry_equiv_pos_as_xyz
  1  'x, y, z'
loop_
 _atom_site_type_symbol
 _atom_site_label
 _atom_site_symmetry_multiplicity
 _atom_site_fract_x
 _atom_site_fract_y
 _atom_site_fract_z
 _atom_site_occupancy
  Dy  Dy0  1  0.213376  0.042691  0.895373  1
  Dy  Dy1  1  0.286624  0.542691  0.395373  1
  Dy  Dy2  1  0.713376  0.457309  0.604627  1
  Dy  Dy3  1  0.786624  0.957309  0.104627  1
  I  I4  1  0.188039  0.714702  0.641864  1
  I  I5  1  0.905726  0.116126  0.697867  1
  I  I6  1  0.405726  0.383874  0.802133  1
  I  I7  1  0.311961  0.214702  0.141864  1
  I  I8  1  0.855580  0.334702  0.980109  1
  I  I9  1  0.688039  0.785298  0.858136  1
  I  I10  1  0.644420  0.834702  0.480109  1
  I  I11  1  0.094274  0.883874  0.302133  1
  I  I12  1  0.144420  0.665298  0.019891  1
  I  I13  1  0.355580  0.165298  0.519891  1
  I  I14  1  0.594274  0.616126  0.197867  1
  I  I15  1  0.811961  0.285298  0.358136  1
  O  O16  1  0.472311  0.773929  0.383363  1
  O  O17  1  0.624221  0.640338  0.514732  1
  O  O18  1  0.946028  0.627200  0.686873  1
  O  O19  1  0.322811  0.588852  0.244491  1
  O  O20  1  0.571468  0.087375  0.441138  1
  O  O21  1  0.011133  0.728205  0.365701  1
  O  O22  1  0.928532  0.587375  0.941138  1
  O  O23  1  0.105410  0.074355  0.170034  1
  O  O24  1  0.822811  0.911148  0.255509  1
  O  O25  1  0.177189  0.088852  0.744491  1
  O  O26  1  0.428532  0.912625  0.558862  1
  O  O27  1  0.916891  0.952030  0.611886  1
  O  O28  1  0.628284  0.856902  0.972106  1
  O  O29  1  0.488867  0.228205  0.865701  1
  O  O30  1  0.875779  0.140338  0.014732  1
  O  O31  1  0.871716  0.356902  0.472106  1
  O  O32  1  0.988867  0.271795  0.634299  1
  O  O33  1  0.371716  0.143098  0.027894  1
  O  O34  1  0.446028  0.872800  0.813127  1
  O  O35  1  0.394590  0.574355  0.670034  1
  O  O36  1  0.375779  0.359662  0.485268  1
  O  O37  1  0.416891  0.547970  0.888114  1
  O  O38  1  0.124221  0.859662  0.985268  1
  O  O39  1  0.083109  0.047970  0.388114  1
  O  O40  1  0.071468  0.412625  0.058862  1
  O  O41  1  0.972311  0.726071  0.116637  1
  O  O42  1  0.605410  0.425645  0.329966  1
  O  O43  1  0.583109  0.452030  0.111886  1
  O  O44  1  0.894590  0.925645  0.829966  1
  O  O45  1  0.677189  0.411148  0.755509  1
  O  O46  1  0.053972  0.372800  0.313127  1
  O  O47  1  0.527689  0.226071  0.616637  1
  O  O48  1  0.128284  0.643098  0.527894  1
  O  O49  1  0.553972  0.127200  0.186873  1
  O  O50  1  0.511133  0.771795  0.134299  1
  O  O51  1  0.027689  0.273929  0.883363  1
