# generated using pymatgen
data_Nd6Fe13Si
_symmetry_space_group_name_H-M   'P 1'
_cell_length_a   8.02818354
_cell_length_b   8.02818354
_cell_length_c   12.81224371
_cell_angle_alpha   108.25829128
_cell_angle_beta   108.25829131
_cell_angle_gamma   89.99999999
_symmetry_Int_Tables_number   1
_chemical_formula_structural   Nd6Fe13Si
_chemical_formula_sum   'Nd12 Fe26 Si2'
_cell_volume   740.29125579
_cell_formula_units_Z   2
loop_
 _symmetry_equiv_pos_site_id
 _symmetry_equiv_pos_as_xyz
  1  'x, y, z'
loop_
 _atom_site_type_symbol
 _atom_site_label
 _atom_site_symmetry_multiplicity
 _atom_site_fract_x
 _atom_site_fract_y
 _atom_site_fract_z
 _atom_site_occupancy
  Si  Si0  1  0.750000  0.750000  0.500000  1
  Si  Si1  1  0.250000  0.250000  0.500000  1
  Fe  Fe2  1  0.000000  0.500000  0.000000  1
  Fe  Fe3  1  0.500000  0.000000  0.000000  1
  Fe  Fe4  1  0.982389  0.708748  0.191137  1
  Fe  Fe5  1  0.017611  0.291252  0.808863  1
  Fe  Fe6  1  0.791252  0.517611  0.808863  1
  Fe  Fe7  1  0.291252  0.791252  0.808863  1
  Fe  Fe8  1  0.517611  0.017611  0.808863  1
  Fe  Fe9  1  0.482389  0.982389  0.191137  1
  Fe  Fe10  1  0.708748  0.208748  0.191137  1
  Fe  Fe11  1  0.208748  0.482389  0.191137  1
  Fe  Fe12  1  0.791260  0.066027  0.000000  1
  Fe  Fe13  1  0.933973  0.791260  0.000000  1
  Fe  Fe14  1  0.066027  0.208740  0.000000  1
  Fe  Fe15  1  0.291260  0.433973  0.000000  1
  Fe  Fe16  1  0.708740  0.566027  0.000000  1
  Fe  Fe17  1  0.566027  0.291260  0.000000  1
  Fe  Fe18  1  0.433973  0.708740  0.000000  1
  Fe  Fe19  1  0.208740  0.933973  0.000000  1
  Fe  Fe20  1  0.381055  0.238926  0.119981  1
  Fe  Fe21  1  0.881055  0.381055  0.119981  1
  Fe  Fe22  1  0.238926  0.738926  0.119981  1
  Fe  Fe23  1  0.761074  0.261074  0.880019  1
  Fe  Fe24  1  0.118945  0.618945  0.880019  1
  Fe  Fe25  1  0.618945  0.761074  0.880019  1
  Fe  Fe26  1  0.261074  0.118945  0.880019  1
  Fe  Fe27  1  0.738926  0.881055  0.119981  1
  Nd  Nd28  1  0.855598  0.022406  0.378004  1
  Nd  Nd29  1  0.144402  0.977594  0.621996  1
  Nd  Nd30  1  0.477594  0.644402  0.621996  1
  Nd  Nd31  1  0.977594  0.477594  0.621996  1
  Nd  Nd32  1  0.644402  0.144402  0.621996  1
  Nd  Nd33  1  0.355598  0.855598  0.378004  1
  Nd  Nd34  1  0.022406  0.522406  0.378004  1
  Nd  Nd35  1  0.522406  0.355598  0.378004  1
  Nd  Nd36  1  0.608916  0.608916  0.217832  1
  Nd  Nd37  1  0.891084  0.891084  0.782168  1
  Nd  Nd38  1  0.391084  0.391084  0.782168  1
  Nd  Nd39  1  0.108916  0.108916  0.217832  1
