# generated using pymatgen
data_SiH8C2NClO
_symmetry_space_group_name_H-M   'P 1'
_cell_length_a   5.92538314
_cell_length_b   6.73017966
_cell_length_c   9.03572168
_cell_angle_alpha   100.93486958
_cell_angle_beta   101.46509627
_cell_angle_gamma   96.25128912
_symmetry_Int_Tables_number   1
_chemical_formula_structural   SiH8C2NClO
_chemical_formula_sum   'Si2 H16 C4 N2 Cl2 O2'
_cell_volume   342.68526382
_cell_formula_units_Z   2
loop_
 _symmetry_equiv_pos_site_id
 _symmetry_equiv_pos_as_xyz
  1  'x, y, z'
loop_
 _atom_site_type_symbol
 _atom_site_label
 _atom_site_symmetry_multiplicity
 _atom_site_fract_x
 _atom_site_fract_y
 _atom_site_fract_z
 _atom_site_occupancy
  Si  Si0  1  0.940418  0.296716  0.679747  1
  Si  Si1  1  0.059582  0.703284  0.320253  1
  H  H2  1  0.489495  0.898872  0.746085  1
  H  H3  1  0.843561  0.488483  0.719886  1
  H  H4  1  0.754113  0.848897  0.859680  1
  H  H5  1  0.827202  0.155858  0.529780  1
  H  H6  1  0.512071  0.220989  0.933367  1
  H  H7  1  0.245887  0.151103  0.140320  1
  H  H8  1  0.217884  0.817125  0.951008  1
  H  H9  1  0.487929  0.779011  0.066633  1
  H  H10  1  0.236422  0.589483  0.027038  1
  H  H11  1  0.782116  0.182875  0.048992  1
  H  H12  1  0.270184  0.143592  0.340955  1
  H  H13  1  0.156439  0.511517  0.280114  1
  H  H14  1  0.729816  0.856408  0.659045  1
  H  H15  1  0.510505  0.101128  0.253915  1
  H  H16  1  0.763578  0.410517  0.972962  1
  H  H17  1  0.172798  0.844142  0.470220  1
  C  C18  1  0.319513  0.076840  0.233782  1
  C  C19  1  0.680487  0.923160  0.766218  1
  C  C20  1  0.702629  0.245609  0.950284  1
  C  C21  1  0.297371  0.754391  0.049716  1
  N  N22  1  0.240034  0.856122  0.192346  1
  N  N23  1  0.759966  0.143878  0.807654  1
  Cl  Cl24  1  0.270580  0.407106  0.643177  1
  Cl  Cl25  1  0.729420  0.592894  0.356823  1
  O  O26  1  0.020195  0.180589  0.828534  1
  O  O27  1  0.979805  0.819411  0.171466  1
