# generated using pymatgen
data_PH10C2NO4
_symmetry_space_group_name_H-M   'P 1'
_cell_length_a   6.85902617
_cell_length_b   9.49445144
_cell_length_c   9.65962906
_cell_angle_alpha   90.00000000
_cell_angle_beta   92.94278743
_cell_angle_gamma   90.00000000
_symmetry_Int_Tables_number   1
_chemical_formula_structural   PH10C2NO4
_chemical_formula_sum   'P4 H40 C8 N4 O16'
_cell_volume   628.23149205
_cell_formula_units_Z   4
loop_
 _symmetry_equiv_pos_site_id
 _symmetry_equiv_pos_as_xyz
  1  'x, y, z'
loop_
 _atom_site_type_symbol
 _atom_site_label
 _atom_site_symmetry_multiplicity
 _atom_site_fract_x
 _atom_site_fract_y
 _atom_site_fract_z
 _atom_site_occupancy
  P  P0  1  0.255214  0.324639  0.520735  1
  P  P1  1  0.255214  0.175361  0.020735  1
  P  P2  1  0.744786  0.824639  0.979265  1
  P  P3  1  0.744786  0.675361  0.479265  1
  H  H4  1  0.927025  0.293917  0.688112  1
  H  H5  1  0.120333  0.657413  0.071963  1
  H  H6  1  0.879667  0.157413  0.428037  1
  H  H7  1  0.196278  0.899915  0.178840  1
  H  H8  1  0.691883  0.344375  0.644536  1
  H  H9  1  0.000000  0.000000  0.000000  1
  H  H10  1  0.241588  0.212504  0.315782  1
  H  H11  1  0.803722  0.399915  0.321160  1
  H  H12  1  0.927025  0.206083  0.188112  1
  H  H13  1  0.072975  0.706083  0.311888  1
  H  H14  1  0.629081  0.387244  0.883856  1
  H  H15  1  0.072975  0.793917  0.811888  1
  H  H16  1  0.823273  0.494184  0.823139  1
  H  H17  1  0.120333  0.842587  0.571963  1
  H  H18  1  0.803722  0.100085  0.821160  1
  H  H19  1  0.560192  0.342638  0.273743  1
  H  H20  1  0.308117  0.655625  0.355464  1
  H  H21  1  0.439808  0.657362  0.726257  1
  H  H22  1  0.370919  0.887244  0.616144  1
  H  H23  1  0.241588  0.287496  0.815782  1
  H  H24  1  0.176727  -0.005816  0.676861  1
  H  H25  1  0.308117  0.844375  0.855464  1
  H  H26  1  0.691883  0.155625  0.144536  1
  H  H27  1  0.823273  1.005816  0.323139  1
  H  H28  1  0.439808  0.842638  0.226257  1
  H  H29  1  0.500000  0.000000  0.000000  1
  H  H30  1  0.370919  0.612756  0.116144  1
  H  H31  1  0.284479  0.594143  0.856074  1
  H  H32  1  0.000000  0.500000  0.500000  1
  H  H33  1  0.629081  0.112756  0.383856  1
  H  H34  1  0.879667  0.342587  0.928037  1
  H  H35  1  0.560192  0.157362  0.773743  1
  H  H36  1  0.758412  0.787496  0.684218  1
  H  H37  1  0.284479  0.905857  0.356074  1
  H  H38  1  0.758412  0.712504  0.184218  1
  H  H39  1  0.176727  0.505816  0.176861  1
  H  H40  1  0.715521  0.405857  0.143926  1
  H  H41  1  0.715521  0.094143  0.643926  1
  H  H42  1  0.196278  0.600085  0.678840  1
  H  H43  1  0.500000  0.500000  0.500000  1
  C  C44  1  0.221715  0.613098  0.151708  1
  C  C45  1  0.710587  0.152192  0.741586  1
  C  C46  1  0.778285  0.386902  0.848292  1
  C  C47  1  0.778285  0.113098  0.348292  1
  C  C48  1  0.289413  0.847808  0.258414  1
  C  C49  1  0.710587  0.347808  0.241586  1
  C  C50  1  0.289413  0.652192  0.758414  1
  C  C51  1  0.221715  0.886902  0.651708  1
  N  N52  1  0.782902  0.298020  0.721488  1
  N  N53  1  0.217098  0.798020  0.778512  1
  N  N54  1  0.217098  0.701980  0.278512  1
  N  N55  1  0.782902  0.201980  0.221488  1
  O  O56  1  0.270889  0.306594  0.918560  1
  O  O57  1  0.172253  0.229161  0.154537  1
  O  O58  1  0.125606  0.436573  0.443724  1
  O  O59  1  0.729111  0.806594  0.581440  1
  O  O60  1  0.827747  0.770839  0.845463  1
  O  O61  1  0.874394  0.936573  0.056276  1
  O  O62  1  0.729111  0.693406  0.081440  1
  O  O63  1  0.270889  0.193406  0.418560  1
  O  O64  1  0.534729  0.614316  0.452182  1
  O  O65  1  0.534729  0.885684  0.952182  1
  O  O66  1  0.827747  0.729161  0.345463  1
  O  O67  1  0.125606  0.063427  0.943724  1
  O  O68  1  0.172253  0.270839  0.654537  1
  O  O69  1  0.465271  0.114316  0.047818  1
  O  O70  1  0.465271  0.385684  0.547818  1
  O  O71  1  0.874394  0.563427  0.556276  1
