# generated using pymatgen
data_Ca3CoRhO6
_symmetry_space_group_name_H-M   'P 1'
_cell_length_a   6.42842807
_cell_length_b   6.45441856
_cell_length_c   6.50108125
_cell_angle_alpha   91.72433344
_cell_angle_beta   91.89300298
_cell_angle_gamma   92.05721425
_symmetry_Int_Tables_number   1
_chemical_formula_structural   Ca3CoRhO6
_chemical_formula_sum   'Ca6 Co2 Rh2 O12'
_cell_volume   269.28824638
_cell_formula_units_Z   2
loop_
 _symmetry_equiv_pos_site_id
 _symmetry_equiv_pos_as_xyz
  1  'x, y, z'
loop_
 _atom_site_type_symbol
 _atom_site_label
 _atom_site_symmetry_multiplicity
 _atom_site_fract_x
 _atom_site_fract_y
 _atom_site_fract_z
 _atom_site_occupancy
  Ca  Ca0  1  0.752313  0.385124  0.113485  1
  Ca  Ca1  1  0.884543  0.253148  0.613762  1
  Ca  Ca2  1  0.115453  0.746854  0.386218  1
  Ca  Ca3  1  0.247798  0.614877  0.886480  1
  Ca  Ca4  1  0.382929  0.116655  0.751013  1
  Ca  Ca5  1  0.617140  0.883341  0.248865  1
  Co  Co6  1  0.744398  0.758040  0.747756  1
  Co  Co7  1  0.255880  0.241974  0.251963  1
  Rh  Rh8  1  0.999904  0.000045  0.999930  1
  Rh  Rh9  1  0.499991  0.500074  0.500105  1
  O  O10  1  0.298628  0.955942  0.089816  1
  O  O11  1  0.796426  0.586325  0.450175  1
  O  O12  1  0.037383  0.905645  0.702084  1
  O  O13  1  0.087513  0.296033  0.952151  1
  O  O14  1  0.460401  0.799060  0.592372  1
  O  O15  1  0.407031  0.539747  0.203243  1
  O  O16  1  0.912313  0.704061  0.047786  1
  O  O17  1  0.203577  0.413583  0.549800  1
  O  O18  1  0.701337  0.044213  0.910422  1
  O  O19  1  0.962549  0.094326  0.297951  1
  O  O20  1  0.592802  0.460108  0.796799  1
  O  O21  1  0.539689  0.200825  0.407821  1
