# generated using pymatgen
data_SiO2
_symmetry_space_group_name_H-M   'P 1'
_cell_length_a   5.19219973
_cell_length_b   11.59578972
_cell_length_c   11.59118219
_cell_angle_alpha   90.00000000
_cell_angle_beta   90.00000000
_cell_angle_gamma   90.00000000
_symmetry_Int_Tables_number   1
_chemical_formula_structural   SiO2
_chemical_formula_sum   'Si16 O32'
_cell_volume   697.87791287
_cell_formula_units_Z   16
loop_
 _symmetry_equiv_pos_site_id
 _symmetry_equiv_pos_as_xyz
  1  'x, y, z'
loop_
 _atom_site_type_symbol
 _atom_site_label
 _atom_site_symmetry_multiplicity
 _atom_site_fract_x
 _atom_site_fract_y
 _atom_site_fract_z
 _atom_site_occupancy
  Si  Si0  1  0.761536  0.575803  0.844275  1
  Si  Si1  1  0.027730  0.699763  0.402465  1
  Si  Si2  1  0.238464  0.924197  0.344275  1
  Si  Si3  1  0.259873  0.155509  0.424128  1
  Si  Si4  1  0.527920  0.597449  0.300223  1
  Si  Si5  1  0.740127  0.655509  0.075872  1
  Si  Si6  1  0.238464  0.075803  0.655725  1
  Si  Si7  1  0.027730  0.300237  0.597535  1
  Si  Si8  1  0.972270  0.199763  0.097535  1
  Si  Si9  1  0.472080  0.097449  0.199777  1
  Si  Si10  1  0.527920  0.402551  0.699777  1
  Si  Si11  1  0.972270  0.800237  0.902465  1
  Si  Si12  1  0.472080  0.902551  0.800223  1
  Si  Si13  1  0.259873  0.844491  0.575872  1
  Si  Si14  1  0.761536  0.424197  0.155725  1
  Si  Si15  1  0.740127  0.344491  0.924128  1
  O  O16  1  0.958344  0.316664  0.179828  1
  O  O17  1  0.542443  0.320459  0.816833  1
  O  O18  1  0.752060  0.108384  0.139623  1
  O  O19  1  0.747842  0.639565  0.391716  1
  O  O20  1  0.084829  0.043904  0.380958  1
  O  O21  1  0.421209  0.038358  0.764507  1
  O  O22  1  0.578791  0.538358  0.735493  1
  O  O23  1  0.915171  0.456096  0.880958  1
  O  O24  1  0.413135  0.118627  0.543879  1
  O  O25  1  0.077887  0.264447  0.461647  1
  O  O26  1  0.084829  0.956096  0.619042  1
  O  O27  1  0.586865  0.381373  0.043879  1
  O  O28  1  0.421209  0.961642  0.235493  1
  O  O29  1  0.958344  0.683336  0.820172  1
  O  O30  1  0.542443  0.679541  0.183167  1
  O  O31  1  0.077887  0.735553  0.538353  1
  O  O32  1  0.252158  0.860435  0.891716  1
  O  O33  1  0.252158  0.139565  0.108284  1
  O  O34  1  0.457557  0.820459  0.683167  1
  O  O35  1  0.922113  0.235553  0.961647  1
  O  O36  1  0.457557  0.179541  0.316833  1
  O  O37  1  0.586865  0.618627  0.956121  1
  O  O38  1  0.247940  0.608384  0.360377  1
  O  O39  1  0.247940  0.391616  0.639623  1
  O  O40  1  0.922113  0.764447  0.038353  1
  O  O41  1  0.578791  0.461642  0.264507  1
  O  O42  1  0.915171  0.543904  0.119042  1
  O  O43  1  0.041656  0.183336  0.679828  1
  O  O44  1  0.041656  0.816664  0.320172  1
  O  O45  1  0.413135  0.881373  0.456121  1
  O  O46  1  0.747842  0.360435  0.608284  1
  O  O47  1  0.752060  0.891616  0.860377  1
