# generated using pymatgen
data_Na10U8W5O44
_symmetry_space_group_name_H-M   'P 1'
_cell_length_a   6.83892538
_cell_length_b   17.29750271
_cell_length_c   17.29750387
_cell_angle_alpha   87.28333205
_cell_angle_beta   86.59817885
_cell_angle_gamma   86.59817987
_symmetry_Int_Tables_number   1
_chemical_formula_structural   Na10U8W5O44
_chemical_formula_sum   'Na20 U16 W10 O88'
_cell_volume   2037.04890610
_cell_formula_units_Z   2
loop_
 _symmetry_equiv_pos_site_id
 _symmetry_equiv_pos_as_xyz
  1  'x, y, z'
loop_
 _atom_site_type_symbol
 _atom_site_label
 _atom_site_symmetry_multiplicity
 _atom_site_fract_x
 _atom_site_fract_y
 _atom_site_fract_z
 _atom_site_occupancy
  Na  Na0  1  0.683026  0.127879  0.372534  1
  Na  Na1  1  0.206010  0.042294  0.453178  1
  Na  Na2  1  0.750000  0.047144  0.952856  1
  Na  Na3  1  0.316974  0.872121  0.627466  1
  Na  Na4  1  0.172662  0.211004  0.295105  1
  Na  Na5  1  0.183026  0.372534  0.127879  1
  Na  Na6  1  0.750000  0.607389  0.392611  1
  Na  Na7  1  0.706010  0.453178  0.042294  1
  Na  Na8  1  0.250000  0.106204  0.893796  1
  Na  Na9  1  0.672662  0.295105  0.211004  1
  Na  Na10  1  0.750000  0.893796  0.106204  1
  Na  Na11  1  0.793990  0.957706  0.546822  1
  Na  Na12  1  0.816974  0.627466  0.872121  1
  Na  Na13  1  0.750000  0.452584  0.547416  1
  Na  Na14  1  0.827338  0.788996  0.704895  1
  Na  Na15  1  0.250000  0.952856  0.047144  1
  Na  Na16  1  0.293990  0.546822  0.957706  1
  Na  Na17  1  0.250000  0.392611  0.607389  1
  Na  Na18  1  0.250000  0.547416  0.452584  1
  Na  Na19  1  0.327338  0.704895  0.788996  1
  U  U20  1  0.515815  0.497863  0.749321  1
  U  U21  1  0.954745  0.407482  0.338846  1
  U  U22  1  0.095042  0.749313  0.001722  1
  U  U23  1  0.404958  0.998278  0.250687  1
  U  U24  1  0.595042  0.001722  0.749313  1
  U  U25  1  0.904958  0.250687  0.998278  1
  U  U26  1  0.373665  0.161410  0.093679  1
  U  U27  1  0.454745  0.338846  0.407482  1
  U  U28  1  0.045255  0.592518  0.661154  1
  U  U29  1  0.984185  0.250679  0.502137  1
  U  U30  1  0.873665  0.093679  0.161410  1
  U  U31  1  0.484185  0.502137  0.250679  1
  U  U32  1  0.126335  0.906321  0.838590  1
  U  U33  1  0.626335  0.838590  0.906321  1
  U  U34  1  0.545255  0.661154  0.592518  1
  U  U35  1  0.015815  0.749321  0.497863  1
  W  W36  1  0.377864  0.337589  0.932627  1
  W  W37  1  0.036181  0.430459  0.831012  1
  W  W38  1  0.122136  0.067373  0.662411  1
  W  W39  1  0.963819  0.569541  0.168988  1
  W  W40  1  0.622136  0.662411  0.067373  1
  W  W41  1  0.536181  0.831012  0.430459  1
  W  W42  1  0.463819  0.168988  0.569541  1
  W  W43  1  0.750000  0.753616  0.246384  1
  W  W44  1  0.877864  0.932627  0.337589  1
  W  W45  1  0.250000  0.246384  0.753616  1
  O  O46  1  0.085621  0.332422  0.749357  1
  O  O47  1  0.276718  0.257366  0.999836  1
  O  O48  1  0.874126  0.329113  0.069709  1
  O  O49  1  0.223282  0.000164  0.742634  1
  O  O50  1  0.719549  0.194257  0.568844  1
  O  O51  1  0.067070  0.345350  0.909789  1
  O  O52  1  0.852736  0.840961  0.407749  1
  O  O53  1  0.557054  0.071878  0.827818  1
  O  O54  1  0.634840  0.406475  0.319705  1
  O  O55  1  0.890746  0.018319  0.084992  1
  O  O56  1  0.679971  0.185794  0.064478  1
  O  O57  1  0.625874  0.930291  0.670887  1
  O  O58  1  0.449497  0.913743  0.826659  1
  O  O59  1  0.524428  0.429990  0.668805  1
  O  O60  1  0.820029  0.935522  0.814206  1
  O  O61  1  0.874881  0.843524  0.245939  1
  O  O62  1  0.414379  0.250643  0.667578  1
  O  O63  1  0.640390  0.310105  0.934214  1
  O  O64  1  0.374881  0.245939  0.843524  1
  O  O65  1  0.647264  0.592251  0.159039  1
  O  O66  1  0.625119  0.754061  0.156476  1
  O  O67  1  0.365160  0.593525  0.680295  1
  O  O68  1  0.486030  0.102288  0.492971  1
  O  O69  1  0.144901  0.488133  0.743660  1
  O  O70  1  0.578934  0.581215  0.521520  1
  O  O71  1  0.013970  0.507029  0.897712  1
  O  O72  1  0.859610  0.065786  0.689895  1
  O  O73  1  0.741009  0.561450  0.682704  1
  O  O74  1  0.352736  0.407749  0.840961  1
  O  O75  1  0.758991  0.317296  0.438550  1
  O  O76  1  0.050503  0.173341  0.086257  1
  O  O77  1  0.241009  0.682704  0.561450  1
  O  O78  1  0.353869  0.239923  0.166810  1
  O  O79  1  0.513970  0.897712  0.507029  1
  O  O80  1  0.442946  0.928122  0.172182  1
  O  O81  1  0.057054  0.827818  0.071878  1
  O  O82  1  0.567070  0.909789  0.345350  1
  O  O83  1  -0.000221  0.169526  0.433166  1
  O  O84  1  0.024428  0.668805  0.429990  1
  O  O85  1  0.487525  0.255782  0.339803  1
  O  O86  1  0.646131  0.760077  0.833190  1
  O  O87  1  0.147264  0.159039  0.592251  1
  O  O88  1  0.125119  0.156476  0.754061  1
  O  O89  1  0.179971  0.064478  0.185794  1
  O  O90  1  0.359610  0.689895  0.065786  1
  O  O91  1  0.219549  0.568844  0.194257  1
  O  O92  1  0.942946  0.172182  0.928122  1
  O  O93  1  0.374126  0.069709  0.329113  1
  O  O94  1  0.975572  0.331195  0.570010  1
  O  O95  1  0.078934  0.521520  0.581215  1
  O  O96  1  0.432930  0.090211  0.654650  1
  O  O97  1  0.776718  0.999836  0.257366  1
  O  O98  1  0.609254  0.915008  0.981681  1
  O  O99  1  0.140390  0.934214  0.310105  1
  O  O100  1  0.723282  0.742634  0.000164  1
  O  O101  1  0.855099  0.511867  0.256340  1
  O  O102  1  0.125874  0.670887  0.930291  1
  O  O103  1  0.644901  0.743660  0.488133  1
  O  O104  1  0.320029  0.814206  0.935522  1
  O  O105  1  0.368044  0.413585  0.000951  1
  O  O106  1  0.258991  0.438550  0.317296  1
  O  O107  1  0.012475  0.660197  0.744218  1
  O  O108  1  0.109254  0.981681  0.915008  1
  O  O109  1  0.131956  0.999049  0.586415  1
  O  O110  1  0.868044  0.000951  0.413585  1
  O  O111  1  0.280452  0.805743  0.431156  1
  O  O112  1  0.921066  0.478480  0.418785  1
  O  O113  1  0.500221  0.566834  0.830474  1
  O  O114  1  0.146131  0.833190  0.760077  1
  O  O115  1  0.355099  0.256340  0.511867  1
  O  O116  1  0.421066  0.418785  0.478480  1
  O  O117  1  1.000221  0.830474  0.566834  1
  O  O118  1  0.550503  0.086257  0.173341  1
  O  O119  1  0.475572  0.570010  0.331195  1
  O  O120  1  0.134840  0.319705  0.406475  1
  O  O121  1  0.390746  0.084992  0.018319  1
  O  O122  1  0.914379  0.667578  0.250643  1
  O  O123  1  0.780451  0.431156  0.805743  1
  O  O124  1  0.512475  0.744218  0.660197  1
  O  O125  1  0.499779  0.433166  0.169526  1
  O  O126  1  0.853869  0.166810  0.239923  1
  O  O127  1  0.631956  0.586415  0.999049  1
  O  O128  1  0.865160  0.680295  0.593525  1
  O  O129  1  0.585621  0.749357  0.332422  1
  O  O130  1  0.949497  0.826659  0.913743  1
  O  O131  1  0.986030  0.492971  0.102288  1
  O  O132  1  0.932930  0.654650  0.090211  1
  O  O133  1  0.987525  0.339803  0.255782  1
