# generated using pymatgen
data_Nb2Hg3S(O2F5)2
_symmetry_space_group_name_H-M   'P 1'
_cell_length_a   9.31479724
_cell_length_b   9.31479700
_cell_length_c   10.48363128
_cell_angle_alpha   103.33603381
_cell_angle_beta   103.33603343
_cell_angle_gamma   118.73694630
_symmetry_Int_Tables_number   1
_chemical_formula_structural   Nb2Hg3S(O2F5)2
_chemical_formula_sum   'Nb4 Hg6 S2 O8 F20'
_cell_volume   711.17367036
_cell_formula_units_Z   2
loop_
 _symmetry_equiv_pos_site_id
 _symmetry_equiv_pos_as_xyz
  1  'x, y, z'
loop_
 _atom_site_type_symbol
 _atom_site_label
 _atom_site_symmetry_multiplicity
 _atom_site_fract_x
 _atom_site_fract_y
 _atom_site_fract_z
 _atom_site_occupancy
  Hg  Hg0  1  0.998512  0.998512  0.000000  1
  Hg  Hg1  1  0.748512  0.248512  0.500000  1
  Hg  Hg2  1  0.020180  0.250741  0.199269  1
  Hg  Hg3  1  0.051473  0.820912  0.800731  1
  Hg  Hg4  1  1.000741  0.270180  0.699269  1
  Hg  Hg5  1  0.570912  0.301473  0.300731  1
  Nb  Nb6  1  0.009985  0.889825  0.385893  1
  Nb  Nb7  1  0.503932  0.624092  0.614107  1
  Nb  Nb8  1  0.639825  0.259985  0.885893  1
  Nb  Nb9  1  0.374092  0.753932  0.114107  1
  S  S10  1  0.145106  0.645106  0.500000  1
  S  S11  1  0.395106  0.395106  1.000000  1
  F  F12  1  0.893574  0.009804  0.362437  1
  F  F13  1  0.647368  0.531137  0.637563  1
  F  F14  1  0.759804  0.143574  0.862437  1
  F  F15  1  0.281137  0.897368  0.137563  1
  F  F16  1  0.227797  0.078957  0.392063  1
  F  F17  1  0.686893  0.835734  0.607937  1
  F  F18  1  0.828957  0.477797  0.892063  1
  F  F19  1  0.585734  0.936893  0.107937  1
  F  F20  1  0.802878  0.678170  0.374647  1
  F  F21  1  0.303522  0.428231  0.625353  1
  F  F22  1  0.428170  0.052878  0.874647  1
  F  F23  1  0.178231  0.553522  0.125353  1
  F  F24  1  0.931960  0.777558  0.182402  1
  F  F25  1  0.595157  0.749558  0.817598  1
  F  F26  1  0.527558  0.181960  0.682402  1
  F  F27  1  0.499558  0.845157  0.317598  1
  F  F28  1  0.081290  0.997630  0.591342  1
  F  F29  1  0.406288  0.489948  0.408658  1
  F  F30  1  0.747630  0.331290  0.091342  1
  F  F31  1  0.239948  0.656288  0.908658  1
  O  O32  1  0.145141  0.768800  0.429248  1
  O  O33  1  0.339552  0.715893  0.570752  1
  O  O34  1  0.518800  0.395141  0.929248  1
  O  O35  1  0.465893  0.589552  0.070752  1
  O  O36  1  0.042514  0.460999  0.392421  1
  O  O37  1  0.068578  0.650094  0.607579  1
  O  O38  1  0.210999  0.292514  0.892421  1
  O  O39  1  0.400094  0.318578  0.107579  1
