# generated using pymatgen
data_Al2VCl8
_symmetry_space_group_name_H-M   'P 1'
_cell_length_a   8.15183859
_cell_length_b   9.76886977
_cell_length_c   10.13695294
_cell_angle_alpha   71.95705041
_cell_angle_beta   66.29140000
_cell_angle_gamma   65.33982764
_symmetry_Int_Tables_number   1
_chemical_formula_structural   Al2VCl8
_chemical_formula_sum   'Al4 V2 Cl16'
_cell_volume   661.86150749
_cell_formula_units_Z   2
loop_
 _symmetry_equiv_pos_site_id
 _symmetry_equiv_pos_as_xyz
  1  'x, y, z'
loop_
 _atom_site_type_symbol
 _atom_site_label
 _atom_site_symmetry_multiplicity
 _atom_site_fract_x
 _atom_site_fract_y
 _atom_site_fract_z
 _atom_site_occupancy
  Al  Al0  1  0.158377  0.638233  0.530261  1
  Al  Al1  1  0.326871  0.861767  0.969739  1
  Al  Al2  1  0.841623  0.361767  0.469739  1
  Al  Al3  1  0.673129  0.138233  0.030261  1
  V  V4  1  1.002102  0.750000  0.250000  1
  V  V5  1  -0.002102  0.250000  0.750000  1
  Cl  Cl6  1  0.307626  0.757541  0.550757  1
  Cl  Cl7  1  0.692374  0.242459  0.449243  1
  Cl  Cl8  1  0.170647  0.716601  0.988384  1
  Cl  Cl9  1  0.157389  0.946309  0.177517  1
  Cl  Cl10  1  0.829353  0.283399  0.011616  1
  Cl  Cl11  1  0.281216  0.553691  0.322483  1
  Cl  Cl12  1  0.384076  0.257541  0.050757  1
  Cl  Cl13  1  0.842611  0.053691  0.822483  1
  Cl  Cl14  1  0.304586  0.052226  0.786285  1
  Cl  Cl15  1  0.124368  0.216601  0.488384  1
  Cl  Cl16  1  0.695414  0.947774  0.213715  1
  Cl  Cl17  1  0.718784  0.446309  0.677517  1
  Cl  Cl18  1  0.875632  0.783399  0.511616  1
  Cl  Cl19  1  0.143096  0.447774  0.713715  1
  Cl  Cl20  1  0.615924  0.742459  0.949243  1
  Cl  Cl21  1  0.856904  0.552226  0.286285  1
