# generated using pymatgen
data_CsC3(SeN)3
_symmetry_space_group_name_H-M   'P 1'
_cell_length_a   5.78517174
_cell_length_b   8.49760105
_cell_length_c   11.63145048
_cell_angle_alpha   68.55162173
_cell_angle_beta   86.68063955
_cell_angle_gamma   80.88841675
_symmetry_Int_Tables_number   1
_chemical_formula_structural   CsC3(SeN)3
_chemical_formula_sum   'Cs2 C6 Se6 N6'
_cell_volume   525.48875022
_cell_formula_units_Z   2
loop_
 _symmetry_equiv_pos_site_id
 _symmetry_equiv_pos_as_xyz
  1  'x, y, z'
loop_
 _atom_site_type_symbol
 _atom_site_label
 _atom_site_symmetry_multiplicity
 _atom_site_fract_x
 _atom_site_fract_y
 _atom_site_fract_z
 _atom_site_occupancy
  Cs  Cs0  1  0.249944  0.224062  0.551699  1
  Cs  Cs1  1  0.750051  0.775939  0.448297  1
  C  C2  1  0.250054  0.642614  0.714547  1
  C  C3  1  0.682035  0.341012  0.761067  1
  Se  Se4  1  0.250164  0.557443  0.884212  1
  Se  Se5  1  0.467995  0.253705  0.879872  1
  C  C6  1  0.749943  0.357394  0.285449  1
  Se  Se7  1  0.532007  0.746303  0.120122  1
  Se  Se8  1  0.031645  0.865566  0.880127  1
  Se  Se9  1  0.749828  0.442559  0.115798  1
  Se  Se10  1  0.968372  0.134433  0.119873  1
  C  C11  1  0.317956  0.658993  0.238932  1
  C  C12  1  0.818115  0.897587  0.761007  1
  C  C13  1  0.181866  0.102410  0.238974  1
  N  N14  1  0.313603  0.077894  0.319355  1
  N  N15  1  0.686422  0.922095  0.680652  1
  N  N16  1  0.250011  0.697016  0.606095  1
  N  N17  1  0.813955  0.397127  0.680868  1
  N  N18  1  0.749982  0.302968  0.393931  1
  N  N19  1  0.186054  0.602881  0.319122  1
