# generated using pymatgen
data_V16O3
_symmetry_space_group_name_H-M   'P 1'
_cell_length_a   7.94190470
_cell_length_b   9.60903669
_cell_length_c   9.60903600
_cell_angle_alpha   80.16699418
_cell_angle_beta   65.59072133
_cell_angle_gamma   65.59071981
_symmetry_Int_Tables_number   1
_chemical_formula_structural   V16O3
_chemical_formula_sum   'V32 O6'
_cell_volume   608.07284105
_cell_formula_units_Z   2
loop_
 _symmetry_equiv_pos_site_id
 _symmetry_equiv_pos_as_xyz
  1  'x, y, z'
loop_
 _atom_site_type_symbol
 _atom_site_label
 _atom_site_symmetry_multiplicity
 _atom_site_fract_x
 _atom_site_fract_y
 _atom_site_fract_z
 _atom_site_occupancy
  O  O0  1  0.877458  1.000000  0.245085  1
  O  O1  1  0.122541  0.754915  0.000000  1
  O  O2  1  0.877458  0.245085  1.000000  1
  O  O3  1  0.122542  0.000000  0.754915  1
  O  O4  1  0.750000  0.500001  0.500000  1
  O  O5  1  0.250000  0.500001  0.500000  1
  V  V6  1  0.126559  0.500001  0.746880  1
  V  V7  1  0.753130  0.000000  0.493740  1
  V  V8  1  0.250523  0.749477  0.749477  1
  V  V9  1  0.999999  0.250523  0.749477  1
  V  V10  1  1.000000  0.749477  0.250523  1
  V  V11  1  0.749477  0.250523  0.250523  1
  V  V12  1  0.247643  0.252357  0.252357  1
  V  V13  1  0.499999  0.747643  0.252357  1
  V  V14  1  0.500000  0.252357  0.747643  1
  V  V15  1  0.752357  0.747643  0.747643  1
  V  V16  1  0.373440  0.500001  0.253119  1
  V  V17  1  0.626559  0.746883  0.500000  1
  V  V18  1  0.873442  0.253117  0.500000  1
  V  V19  1  0.246868  0.506262  1.000000  1
  V  V20  1  0.626558  0.500001  0.746881  1
  V  V21  1  0.373441  0.253117  0.500000  1
  V  V22  1  0.126559  0.746883  0.500000  1
  V  V23  1  0.873441  0.500001  0.253119  1
  V  V24  1  0.403335  1.000000  0.750918  1
  V  V25  1  0.154252  0.249082  1.000000  1
  V  V26  1  0.403336  0.750918  0.000000  1
  V  V27  1  0.154254  1.000000  0.249081  1
  V  V28  1  0.596664  0.000000  0.249082  1
  V  V29  1  0.845748  0.000000  0.750918  1
  V  V30  1  0.596665  0.249082  1.000000  1
  V  V31  1  0.845747  0.750918  0.000000  1
  V  V32  1  0.753131  0.493738  0.000000  1
  V  V33  1  0.246870  1.000000  0.506261  1
  V  V34  1  0.499999  0.500001  0.500000  1
  V  V35  1  0.000000  0.500001  0.500000  1
  V  V36  1  0.499999  0.000000  0.000000  1
  V  V37  1  0.000000  0.000000  0.000000  1
