# generated using pymatgen
data_Na2Th(PO4)2
_symmetry_space_group_name_H-M   'P 1'
_cell_length_a   7.11375403
_cell_length_b   9.26446970
_cell_length_c   22.01863877
_cell_angle_alpha   90.00000000
_cell_angle_beta   90.00000000
_cell_angle_gamma   111.50913648
_symmetry_Int_Tables_number   1
_chemical_formula_structural   Na2Th(PO4)2
_chemical_formula_sum   'Na16 Th8 P16 O64'
_cell_volume   1350.08307465
_cell_formula_units_Z   8
loop_
 _symmetry_equiv_pos_site_id
 _symmetry_equiv_pos_as_xyz
  1  'x, y, z'
loop_
 _atom_site_type_symbol
 _atom_site_label
 _atom_site_symmetry_multiplicity
 _atom_site_fract_x
 _atom_site_fract_y
 _atom_site_fract_z
 _atom_site_occupancy
  Na  Na0  1  0.852131  0.460760  0.939083  1
  Na  Na1  1  0.147869  0.539240  0.060917  1
  Na  Na2  1  0.643034  0.542270  0.560011  1
  Na  Na3  1  0.147869  0.039240  0.439083  1
  Na  Na4  1  0.370710  0.504512  0.687018  1
  Na  Na5  1  0.880342  0.987218  0.312908  1
  Na  Na6  1  0.119658  0.012782  0.687092  1
  Na  Na7  1  0.629290  0.495488  0.312982  1
  Na  Na8  1  0.629290  -0.004511  0.187018  1
  Na  Na9  1  0.852131  0.960760  0.560917  1
  Na  Na10  1  0.643034  0.042270  0.939989  1
  Na  Na11  1  0.880342  0.487218  0.187092  1
  Na  Na12  1  0.119658  0.512782  0.812908  1
  Na  Na13  1  0.370710  1.004512  0.812982  1
  Na  Na14  1  0.356966  0.957730  0.060011  1
  Na  Na15  1  0.356966  0.457730  0.439989  1
  Th  Th16  1  0.757437  0.752851  0.046492  1
  Th  Th17  1  0.255233  0.743938  0.321309  1
  Th  Th18  1  0.242563  0.747149  0.546492  1
  Th  Th19  1  0.255233  0.243938  0.178691  1
  Th  Th20  1  0.744767  0.256062  0.678691  1
  Th  Th21  1  0.744767  0.756062  0.821309  1
  Th  Th22  1  0.757437  0.252851  0.453508  1
  Th  Th23  1  0.242563  0.247149  0.953508  1
  P  P24  1  0.073407  0.872913  0.183293  1
  P  P25  1  0.442110  0.114485  0.315418  1
  P  P26  1  0.565741  0.850908  0.441301  1
  P  P27  1  0.926593  0.627087  0.683293  1
  P  P28  1  0.434259  0.149092  0.558699  1
  P  P29  1  0.557890  0.385515  0.815418  1
  P  P30  1  0.442110  0.614485  0.184582  1
  P  P31  1  0.565741  0.350908  0.058699  1
  P  P32  1  0.930347  0.144577  0.062471  1
  P  P33  1  0.926593  0.127087  0.816707  1
  P  P34  1  0.434259  0.649092  0.941301  1
  P  P35  1  0.069653  0.855423  0.937529  1
  P  P36  1  0.073407  0.372913  0.316707  1
  P  P37  1  0.557890  0.885515  0.684582  1
  P  P38  1  0.930347  0.644577  0.437529  1
  P  P39  1  0.069653  0.355423  0.562471  1
  O  O40  1  0.778201  0.490995  0.831748  1
  O  O41  1  0.104977  0.580668  0.444807  1
  O  O42  1  0.540256  0.219132  0.370898  1
  O  O43  1  0.539771  0.753021  0.383105  1
  O  O44  1  0.104977  0.080668  0.055193  1
  O  O45  1  0.451898  1.000767  0.700139  1
  O  O46  1  0.539771  0.253021  0.116895  1
  O  O47  1  0.460229  0.746979  0.883105  1
  O  O48  1  0.293247  0.481210  0.332288  1
  O  O49  1  0.274442  0.995141  0.937344  1
  O  O50  1  0.725558  0.504859  0.437344  1
  O  O51  1  0.052223  0.250325  0.505721  1
  O  O52  1  0.448855  0.749903  0.999285  1
  O  O53  1  0.448855  0.249903  0.500715  1
  O  O54  1  0.548102  0.499233  0.200139  1
  O  O55  1  0.232587  0.506476  0.940130  1
  O  O56  1  0.947777  0.249675  0.005721  1
  O  O57  1  0.459744  0.280868  0.870898  1
  O  O58  1  0.961147  0.239158  0.121622  1
  O  O59  1  0.551145  0.750097  0.499285  1
  O  O60  1  0.963656  0.485776  0.301146  1
  O  O61  1  0.052223  0.750325  0.994279  1
  O  O62  1  0.540256  0.719132  0.129102  1
  O  O63  1  0.947777  0.749675  0.494279  1
  O  O64  1  0.274442  0.495141  0.562656  1
  O  O65  1  0.460229  0.246979  0.616895  1
  O  O66  1  0.221799  0.009005  0.331748  1
  O  O67  1  0.961147  0.739158  0.378378  1
  O  O68  1  0.767413  0.493524  0.059870  1
  O  O69  1  0.293247  0.981210  0.167712  1
  O  O70  1  0.895023  0.919332  0.944807  1
  O  O71  1  0.778201  0.990995  0.668252  1
  O  O72  1  0.061319  0.263414  0.262596  1
  O  O73  1  0.221799  0.509005  0.168252  1
  O  O74  1  0.617032  0.094327  0.552851  1
  O  O75  1  0.061319  0.763414  0.237404  1
  O  O76  1  0.382968  0.905673  0.447149  1
  O  O77  1  0.551145  0.250097  0.000715  1
  O  O78  1  0.382968  0.405673  0.052851  1
  O  O79  1  0.548102  -0.000767  0.299861  1
  O  O80  1  0.725558  0.004859  0.062656  1
  O  O81  1  0.767413  0.993524  0.440130  1
  O  O82  1  0.980461  0.269149  0.372927  1
  O  O83  1  0.454585  0.223388  0.261078  1
  O  O84  1  0.038853  0.760842  0.878378  1
  O  O85  1  0.451898  0.500767  0.799861  1
  O  O86  1  0.895023  0.419332  0.555193  1
  O  O87  1  0.706753  0.518790  0.667712  1
  O  O88  1  0.036344  0.014224  0.801146  1
  O  O89  1  0.019539  0.230851  0.872927  1
  O  O90  1  0.617032  0.594327  0.947149  1
  O  O91  1  0.036344  0.514224  0.698854  1
  O  O92  1  0.706753  0.018790  0.832288  1
  O  O93  1  0.938681  0.236586  0.762596  1
  O  O94  1  0.963656  0.985776  0.198854  1
  O  O95  1  0.459744  0.780868  0.629102  1
  O  O96  1  0.545415  0.776612  0.738922  1
  O  O97  1  0.938681  0.736586  0.737404  1
  O  O98  1  0.545415  0.276612  0.761078  1
  O  O99  1  0.038853  0.260842  0.621622  1
  O  O100  1  0.232587  0.006476  0.559870  1
  O  O101  1  0.019539  0.730851  0.627073  1
  O  O102  1  0.980461  0.769149  0.127073  1
  O  O103  1  0.454585  0.723388  0.238922  1
