# generated using pymatgen
data_SrV6O11
_symmetry_space_group_name_H-M   'P 1'
_cell_length_a   6.12184602
_cell_length_b   6.12184579
_cell_length_c   13.29469450
_cell_angle_alpha   90.00000000
_cell_angle_beta   90.00000000
_cell_angle_gamma   120.00000122
_symmetry_Int_Tables_number   1
_chemical_formula_structural   SrV6O11
_chemical_formula_sum   'Sr2 V12 O22'
_cell_volume   431.49302115
_cell_formula_units_Z   2
loop_
 _symmetry_equiv_pos_site_id
 _symmetry_equiv_pos_as_xyz
  1  'x, y, z'
loop_
 _atom_site_type_symbol
 _atom_site_label
 _atom_site_symmetry_multiplicity
 _atom_site_fract_x
 _atom_site_fract_y
 _atom_site_fract_z
 _atom_site_occupancy
  Sr  Sr0  1  0.666667  0.333333  0.750000  1
  Sr  Sr1  1  0.333333  0.666667  0.250000  1
  V  V2  1  0.000000  0.000000  0.855374  1
  V  V3  1  0.500000  0.000000  0.000000  1
  V  V4  1  0.000000  0.000000  0.144626  1
  V  V5  1  0.500000  0.500000  0.000000  1
  V  V6  1  0.500000  0.500000  0.500000  1
  V  V7  1  0.333333  0.666667  0.750000  1
  V  V8  1  0.000000  0.500000  0.000000  1
  V  V9  1  0.666667  0.333333  0.250000  1
  V  V10  1  0.000000  0.000000  0.644626  1
  V  V11  1  0.000000  0.000000  0.355374  1
  V  V12  1  0.000000  0.500000  0.500000  1
  V  V13  1  0.500000  0.000000  0.500000  1
  O  O14  1  0.753469  0.876735  0.250000  1
  O  O15  1  0.169794  0.830206  0.073047  1
  O  O16  1  0.333333  0.666667  0.900757  1
  O  O17  1  0.339587  0.169794  0.573047  1
  O  O18  1  0.246531  0.123265  0.750000  1
  O  O19  1  0.123265  0.246531  0.250000  1
  O  O20  1  0.666667  0.333333  0.400757  1
  O  O21  1  0.660413  0.830206  0.073047  1
  O  O22  1  0.123265  0.876735  0.250000  1
  O  O23  1  0.830206  0.660413  0.926953  1
  O  O24  1  0.830206  0.169794  0.926953  1
  O  O25  1  0.830206  0.169794  0.573047  1
  O  O26  1  0.876735  0.753469  0.750000  1
  O  O27  1  0.169794  0.339587  0.073047  1
  O  O28  1  0.876735  0.123265  0.750000  1
  O  O29  1  0.169794  0.830206  0.426953  1
  O  O30  1  0.830206  0.660413  0.573047  1
  O  O31  1  0.339587  0.169794  0.926953  1
  O  O32  1  0.333333  0.666667  0.599243  1
  O  O33  1  0.169794  0.339587  0.426953  1
  O  O34  1  0.666667  0.333333  0.099243  1
  O  O35  1  0.660413  0.830206  0.426953  1
