# generated using pymatgen
data_RbCeH2S2O9
_symmetry_space_group_name_H-M   'P 1'
_cell_length_a   8.90895942
_cell_length_b   10.28832153
_cell_length_c   10.62586469
_cell_angle_alpha   118.51128634
_cell_angle_beta   90.00000000
_cell_angle_gamma   90.00000000
_symmetry_Int_Tables_number   1
_chemical_formula_structural   RbCeH2S2O9
_chemical_formula_sum   'Rb4 Ce4 H8 S8 O36'
_cell_volume   855.83064925
_cell_formula_units_Z   4
loop_
 _symmetry_equiv_pos_site_id
 _symmetry_equiv_pos_as_xyz
  1  'x, y, z'
loop_
 _atom_site_type_symbol
 _atom_site_label
 _atom_site_symmetry_multiplicity
 _atom_site_fract_x
 _atom_site_fract_y
 _atom_site_fract_z
 _atom_site_occupancy
  Rb  Rb0  1  0.186520  0.781459  0.306839  1
  Rb  Rb1  1  0.686520  0.218541  0.193161  1
  Rb  Rb2  1  0.813480  0.218541  0.693161  1
  Rb  Rb3  1  0.313480  0.781459  0.806839  1
  Ce  Ce4  1  0.847012  0.736485  0.970523  1
  Ce  Ce5  1  0.347012  0.263515  0.529477  1
  Ce  Ce6  1  0.152988  0.263515  0.029477  1
  Ce  Ce7  1  0.652988  0.736485  0.470523  1
  H  H8  1  0.519315  0.728674  0.064976  1
  H  H9  1  0.019315  0.271326  0.435024  1
  H  H10  1  0.480685  0.271326  0.935024  1
  H  H11  1  0.980685  0.728674  0.564976  1
  H  H12  1  0.534252  0.581751  0.920564  1
  H  H13  1  0.034252  0.418249  0.579436  1
  H  H14  1  0.465748  0.418249  0.079436  1
  H  H15  1  0.965748  0.581751  0.420564  1
  S  S16  1  0.817571  0.522595  0.114560  1
  S  S17  1  0.317571  0.477405  0.385440  1
  S  S18  1  0.182429  0.477405  0.885440  1
  S  S19  1  0.682429  0.522595  0.614560  1
  S  S20  1  0.869079  0.946486  0.823757  1
  S  S21  1  0.369079  0.053514  0.676243  1
  S  S22  1  0.130921  0.053514  0.176243  1
  S  S23  1  0.630921  0.946486  0.323757  1
  O  O24  1  0.895238  0.668076  0.163472  1
  O  O25  1  0.395238  0.331924  0.336528  1
  O  O26  1  0.104762  0.331924  0.836528  1
  O  O27  1  0.604762  0.668076  0.663472  1
  O  O28  1  0.754687  0.479646  0.970379  1
  O  O29  1  0.254687  0.520354  0.529621  1
  O  O30  1  0.245313  0.520354  0.029621  1
  O  O31  1  0.745313  0.479646  0.470379  1
  O  O32  1  0.923898  0.408490  0.109456  1
  O  O33  1  0.423898  0.591510  0.390544  1
  O  O34  1  0.076102  0.591510  0.890544  1
  O  O35  1  0.576102  0.408490  0.609456  1
  O  O36  1  0.696620  0.538520  0.218136  1
  O  O37  1  0.196620  0.461480  0.281864  1
  O  O38  1  0.303380  0.461480  0.781864  1
  O  O39  1  0.803380  0.538520  0.718136  1
  O  O40  1  0.974776  0.820303  0.787787  1
  O  O41  1  0.474776  0.179697  0.712213  1
  O  O42  1  0.025224  0.179697  0.212213  1
  O  O43  1  0.525224  0.820303  0.287787  1
  O  O44  1  0.760002  0.944874  0.930922  1
  O  O45  1  0.260002  0.055126  0.569078  1
  O  O46  1  0.239998  0.055126  0.069078  1
  O  O47  1  0.739998  0.944874  0.430922  1
  O  O48  1  0.949104  0.090975  0.887669  1
  O  O49  1  0.449104  0.909025  0.612331  1
  O  O50  1  0.050896  0.909025  0.112331  1
  O  O51  1  0.550896  0.090975  0.387669  1
  O  O52  1  0.790008  0.928572  0.693353  1
  O  O53  1  0.290008  0.071428  0.806647  1
  O  O54  1  0.209992  0.071428  0.306647  1
  O  O55  1  0.709992  0.928572  0.193353  1
  O  O56  1  0.552322  0.688562  0.964769  1
  O  O57  1  0.052322  0.311438  0.535231  1
  O  O58  1  0.447678  0.311438  0.035231  1
  O  O59  1  0.947678  0.688562  0.464769  1
