# generated using pymatgen
data_CuMo3Cl7
_symmetry_space_group_name_H-M   'P 1'
_cell_length_a   13.09423052
_cell_length_b   13.09423052
_cell_length_c   13.09423052
_cell_angle_alpha   90.00000000
_cell_angle_beta   90.00000000
_cell_angle_gamma   90.00000000
_symmetry_Int_Tables_number   1
_chemical_formula_structural   CuMo3Cl7
_chemical_formula_sum   'Cu8 Mo24 Cl56'
_cell_volume   2245.12200659
_cell_formula_units_Z   8
loop_
 _symmetry_equiv_pos_site_id
 _symmetry_equiv_pos_as_xyz
  1  'x, y, z'
loop_
 _atom_site_type_symbol
 _atom_site_label
 _atom_site_symmetry_multiplicity
 _atom_site_fract_x
 _atom_site_fract_y
 _atom_site_fract_z
 _atom_site_occupancy
  Cu  Cu0  1  0.438094  0.438094  0.438094  1
  Cu  Cu1  1  0.561906  0.938094  0.938094  1
  Cu  Cu2  1  0.938094  0.561906  0.938094  1
  Cu  Cu3  1  0.438094  0.061906  0.061906  1
  Cu  Cu4  1  0.561906  0.561906  0.561906  1
  Cu  Cu5  1  0.938094  0.938094  0.561906  1
  Cu  Cu6  1  0.061906  0.061906  0.438094  1
  Cu  Cu7  1  0.061906  0.438094  0.061906  1
  Mo  Mo8  1  0.864010  0.025259  0.968400  1
  Mo  Mo9  1  0.635990  0.474741  0.968400  1
  Mo  Mo10  1  0.968400  0.864010  0.025259  1
  Mo  Mo11  1  0.031600  0.364010  0.525259  1
  Mo  Mo12  1  0.135990  0.525259  0.468400  1
  Mo  Mo13  1  0.974741  0.031600  0.135990  1
  Mo  Mo14  1  0.474741  0.968400  0.635990  1
  Mo  Mo15  1  0.968400  0.635990  0.474741  1
  Mo  Mo16  1  0.974741  0.468400  0.364010  1
  Mo  Mo17  1  0.468400  0.135990  0.525259  1
  Mo  Mo18  1  0.025259  0.531600  0.635990  1
  Mo  Mo19  1  0.364010  0.974741  0.468400  1
  Mo  Mo20  1  0.525259  0.468400  0.135990  1
  Mo  Mo21  1  0.531600  0.635990  0.025259  1
  Mo  Mo22  1  0.468400  0.364010  0.974741  1
  Mo  Mo23  1  0.135990  0.974741  0.031600  1
  Mo  Mo24  1  0.525259  0.031600  0.364010  1
  Mo  Mo25  1  0.364010  0.525259  0.031600  1
  Mo  Mo26  1  0.031600  0.135990  0.974741  1
  Mo  Mo27  1  0.474741  0.531600  0.864010  1
  Mo  Mo28  1  0.531600  0.864010  0.474741  1
  Mo  Mo29  1  0.025259  0.968400  0.864010  1
  Mo  Mo30  1  0.635990  0.025259  0.531600  1
  Mo  Mo31  1  0.864010  0.474741  0.531600  1
  Cl  Cl32  1  0.682120  0.926143  0.376246  1
  Cl  Cl33  1  0.426143  0.623754  0.182120  1
  Cl  Cl34  1  0.134955  0.365045  0.365045  1
  Cl  Cl35  1  0.573857  0.123754  0.682120  1
  Cl  Cl36  1  0.123754  0.682120  0.573857  1
  Cl  Cl37  1  0.365045  0.134955  0.365045  1
  Cl  Cl38  1  0.316737  0.559270  0.421098  1
  Cl  Cl39  1  0.683263  0.440730  0.578902  1
  Cl  Cl40  1  0.182120  0.073857  0.876246  1
  Cl  Cl41  1  0.559270  0.078902  0.183263  1
  Cl  Cl42  1  0.559270  0.421098  0.316737  1
  Cl  Cl43  1  0.365045  0.365045  0.134955  1
  Cl  Cl44  1  0.926143  0.123754  0.817880  1
  Cl  Cl45  1  0.183263  0.940730  0.421098  1
  Cl  Cl46  1  0.865045  0.865045  0.865045  1
  Cl  Cl47  1  0.376246  0.817880  0.573857  1
  Cl  Cl48  1  0.316737  0.940730  0.078902  1
  Cl  Cl49  1  0.123754  0.817880  0.926143  1
  Cl  Cl50  1  0.817880  0.573857  0.376246  1
  Cl  Cl51  1  0.578902  0.683263  0.440730  1
  Cl  Cl52  1  0.073857  0.623754  0.317880  1
  Cl  Cl53  1  0.426143  0.876246  0.317880  1
  Cl  Cl54  1  0.623754  0.182120  0.426143  1
  Cl  Cl55  1  0.634955  0.634955  0.865045  1
  Cl  Cl56  1  0.376246  0.682120  0.926143  1
  Cl  Cl57  1  0.059270  0.921098  0.683263  1
  Cl  Cl58  1  0.683263  0.059270  0.921098  1
  Cl  Cl59  1  0.634955  0.865045  0.634955  1
  Cl  Cl60  1  0.816737  0.440730  0.921098  1
  Cl  Cl61  1  0.182120  0.426143  0.623754  1
  Cl  Cl62  1  0.682120  0.573857  0.123754  1
  Cl  Cl63  1  0.623754  0.317880  0.073857  1
  Cl  Cl64  1  0.876246  0.182120  0.073857  1
  Cl  Cl65  1  0.421098  0.316737  0.559270  1
  Cl  Cl66  1  0.816737  0.059270  0.578902  1
  Cl  Cl67  1  0.073857  0.876246  0.182120  1
  Cl  Cl68  1  0.183263  0.559270  0.078902  1
  Cl  Cl69  1  0.940730  0.421098  0.183263  1
  Cl  Cl70  1  0.317880  0.073857  0.623754  1
  Cl  Cl71  1  0.573857  0.376246  0.817880  1
  Cl  Cl72  1  0.926143  0.376246  0.682120  1
  Cl  Cl73  1  0.865045  0.634955  0.634955  1
  Cl  Cl74  1  0.134955  0.134955  0.134955  1
  Cl  Cl75  1  0.059270  0.578902  0.816737  1
  Cl  Cl76  1  0.421098  0.183263  0.940730  1
  Cl  Cl77  1  0.440730  0.921098  0.816737  1
  Cl  Cl78  1  0.921098  0.683263  0.059270  1
  Cl  Cl79  1  0.578902  0.816737  0.059270  1
  Cl  Cl80  1  0.921098  0.816737  0.440730  1
  Cl  Cl81  1  0.078902  0.183263  0.559270  1
  Cl  Cl82  1  0.440730  0.578902  0.683263  1
  Cl  Cl83  1  0.940730  0.078902  0.316737  1
  Cl  Cl84  1  0.317880  0.426143  0.876246  1
  Cl  Cl85  1  0.078902  0.316737  0.940730  1
  Cl  Cl86  1  0.876246  0.317880  0.426143  1
  Cl  Cl87  1  0.817880  0.926143  0.123754  1
