# generated using pymatgen
data_Na2VOF4
_symmetry_space_group_name_H-M   'P 1'
_cell_length_a   6.85193549
_cell_length_b   8.29575552
_cell_length_c   8.29575592
_cell_angle_alpha   78.15765293
_cell_angle_beta   77.08836762
_cell_angle_gamma   77.08836112
_symmetry_Int_Tables_number   1
_chemical_formula_structural   Na2VOF4
_chemical_formula_sum   'Na8 V4 O4 F16'
_cell_volume   441.97828362
_cell_formula_units_Z   4
loop_
 _symmetry_equiv_pos_site_id
 _symmetry_equiv_pos_as_xyz
  1  'x, y, z'
loop_
 _atom_site_type_symbol
 _atom_site_label
 _atom_site_symmetry_multiplicity
 _atom_site_fract_x
 _atom_site_fract_y
 _atom_site_fract_z
 _atom_site_occupancy
  Na  Na0  1  0.625144  0.000249  0.793962  1
  Na  Na1  1  0.966775  0.568646  0.762073  1
  Na  Na2  1  0.466775  0.762073  0.568646  1
  Na  Na3  1  0.033225  0.431354  0.237927  1
  Na  Na4  1  0.533225  0.237927  0.431354  1
  Na  Na5  1  0.125144  0.793962  0.000249  1
  Na  Na6  1  0.374856  0.999751  0.206038  1
  Na  Na7  1  0.874856  0.206038  0.999751  1
  V  V8  1  0.582810  0.600789  0.128514  1
  V  V9  1  0.917190  0.871486  0.399211  1
  V  V10  1  0.082810  0.128514  0.600789  1
  V  V11  1  0.417190  0.399211  0.871486  1
  O  O12  1  0.011836  0.315921  0.655053  1
  O  O13  1  0.511836  0.655053  0.315921  1
  O  O14  1  0.488164  0.344947  0.684079  1
  O  O15  1  0.988164  0.684079  0.344947  1
  F  F16  1  0.272568  0.627609  0.796289  1
  F  F17  1  0.650780  0.963813  0.342645  1
  F  F18  1  0.849220  0.657355  0.036187  1
  F  F19  1  0.962058  0.003026  0.815140  1
  F  F20  1  0.150780  0.342645  0.963813  1
  F  F21  1  0.155719  0.888208  0.491497  1
  F  F22  1  0.349220  0.036187  0.657355  1
  F  F23  1  0.844281  0.111792  0.508503  1
  F  F24  1  0.227432  0.203711  0.372391  1
  F  F25  1  0.037942  0.996974  0.184860  1
  F  F26  1  0.727432  0.372391  0.203711  1
  F  F27  1  0.462058  0.815140  0.003026  1
  F  F28  1  0.655719  0.491497  0.888208  1
  F  F29  1  0.772568  0.796289  0.627609  1
  F  F30  1  0.537942  0.184860  0.996974  1
  F  F31  1  0.344281  0.508503  0.111792  1
