# generated using pymatgen
data_TmMnO3
_symmetry_space_group_name_H-M   'P 1'
_cell_length_a   5.26969106
_cell_length_b   5.81190500
_cell_length_c   7.44877957
_cell_angle_alpha   90.00000000
_cell_angle_beta   90.00000000
_cell_angle_gamma   90.00000000
_symmetry_Int_Tables_number   1
_chemical_formula_structural   TmMnO3
_chemical_formula_sum   'Tm4 Mn4 O12'
_cell_volume   228.13335342
_cell_formula_units_Z   4
loop_
 _symmetry_equiv_pos_site_id
 _symmetry_equiv_pos_as_xyz
  1  'x, y, z'
loop_
 _atom_site_type_symbol
 _atom_site_label
 _atom_site_symmetry_multiplicity
 _atom_site_fract_x
 _atom_site_fract_y
 _atom_site_fract_z
 _atom_site_occupancy
  Tm  Tm0  1  0.480017  0.416332  0.750000  1
  Tm  Tm1  1  0.519983  0.583668  0.250000  1
  Tm  Tm2  1  0.019983  0.916332  0.750000  1
  Tm  Tm3  1  0.980017  0.083668  0.250000  1
  Mn  Mn4  1  0.500000  0.000000  0.500000  1
  Mn  Mn5  1  0.500000  0.000000  0.000000  1
  Mn  Mn6  1  0.000000  0.500000  0.500000  1
  Mn  Mn7  1  0.000000  0.500000  0.000000  1
  O  O8  1  0.697732  0.327065  0.440096  1
  O  O9  1  0.873736  0.546923  0.750000  1
  O  O10  1  0.802268  0.827065  0.059904  1
  O  O11  1  0.126264  0.453077  0.250000  1
  O  O12  1  0.197732  0.172935  0.559904  1
  O  O13  1  0.626264  0.046923  0.750000  1
  O  O14  1  0.697732  0.327065  0.059904  1
  O  O15  1  0.302268  0.672935  0.559904  1
  O  O16  1  0.373736  0.953077  0.250000  1
  O  O17  1  0.802268  0.827065  0.440096  1
  O  O18  1  0.197732  0.172935  0.940096  1
  O  O19  1  0.302268  0.672935  0.940096  1
