# generated using pymatgen
data_K3Mn2O8
_symmetry_space_group_name_H-M   'P 1'
_cell_length_a   5.88343478
_cell_length_b   7.96596427
_cell_length_c   9.94439461
_cell_angle_alpha   111.53040213
_cell_angle_beta   90.00000000
_cell_angle_gamma   90.00000000
_symmetry_Int_Tables_number   1
_chemical_formula_structural   K3Mn2O8
_chemical_formula_sum   'K6 Mn4 O16'
_cell_volume   433.54552098
_cell_formula_units_Z   2
loop_
 _symmetry_equiv_pos_site_id
 _symmetry_equiv_pos_as_xyz
  1  'x, y, z'
loop_
 _atom_site_type_symbol
 _atom_site_label
 _atom_site_symmetry_multiplicity
 _atom_site_fract_x
 _atom_site_fract_y
 _atom_site_fract_z
 _atom_site_occupancy
  O  O0  1  0.750000  0.731113  0.031048  1
  O  O1  1  0.022443  0.040512  0.740584  1
  O  O2  1  0.250000  0.586834  0.582628  1
  O  O3  1  0.750000  0.413166  0.417371  1
  O  O4  1  0.250000  0.233473  0.530716  1
  O  O5  1  0.750000  0.766527  0.469283  1
  O  O6  1  0.477456  0.460403  0.759663  1
  O  O7  1  0.977456  0.539597  0.240337  1
  O  O8  1  0.522543  0.539597  0.240337  1
  O  O9  1  0.022544  0.460403  0.759663  1
  O  O10  1  0.522443  0.959487  0.259415  1
  O  O11  1  0.977557  0.959487  0.259415  1
  O  O12  1  0.250000  0.268887  0.968953  1
  O  O13  1  0.477557  0.040512  0.740584  1
  O  O14  1  0.250000  0.916260  0.919215  1
  O  O15  1  0.750000  0.083739  0.080784  1
  K  K16  1  0.250000  0.658872  0.045631  1
  K  K17  1  0.750000  0.341129  0.954369  1
  K  K18  1  0.250000  0.841264  0.454572  1
  K  K19  1  0.750000  0.751155  0.751038  1
  K  K20  1  0.750000  0.158736  0.545428  1
  K  K21  1  0.250000  0.248844  0.248963  1
  Mn  Mn22  1  0.750000  0.934417  0.157630  1
  Mn  Mn23  1  0.250000  0.065583  0.842371  1
  Mn  Mn24  1  0.750000  0.564014  0.341970  1
  Mn  Mn25  1  0.250000  0.435985  0.658030  1
