# generated using pymatgen
data_Gd2SiO5
_symmetry_space_group_name_H-M   'P 1'
_cell_length_a   6.78847120
_cell_length_b   7.12305814
_cell_length_c   9.21381422
_cell_angle_alpha   90.00000000
_cell_angle_beta   107.50491001
_cell_angle_gamma   90.00000000
_symmetry_Int_Tables_number   1
_chemical_formula_structural   Gd2SiO5
_chemical_formula_sum   'Gd8 Si4 O20'
_cell_volume   424.89897699
_cell_formula_units_Z   4
loop_
 _symmetry_equiv_pos_site_id
 _symmetry_equiv_pos_as_xyz
  1  'x, y, z'
loop_
 _atom_site_type_symbol
 _atom_site_label
 _atom_site_symmetry_multiplicity
 _atom_site_fract_x
 _atom_site_fract_y
 _atom_site_fract_z
 _atom_site_occupancy
  Gd  Gd0  1  0.417045  0.147386  0.114674  1
  Gd  Gd1  1  0.766455  0.375480  0.474547  1
  Gd  Gd2  1  0.266455  0.124520  0.474547  1
  Gd  Gd3  1  0.082955  0.647386  0.885326  1
  Gd  Gd4  1  0.733545  0.875480  0.525453  1
  Gd  Gd5  1  0.233545  0.624520  0.525453  1
  Gd  Gd6  1  0.582955  0.852614  0.885326  1
  Gd  Gd7  1  0.917045  0.352614  0.114674  1
  Si  Si8  1  0.960863  0.913418  0.201734  1
  Si  Si9  1  0.039137  0.086582  0.798266  1
  Si  Si10  1  0.539137  0.413418  0.798266  1
  Si  Si11  1  0.460863  0.586582  0.201734  1
  O  O12  1  0.355839  0.570548  0.794485  1
  O  O13  1  0.746609  0.542510  0.867298  1
  O  O14  1  0.549330  0.232366  0.905120  1
  O  O15  1  0.008048  0.862960  0.384702  1
  O  O16  1  0.447825  0.879057  0.615562  1
  O  O17  1  0.753391  0.042510  0.132702  1
  O  O18  1  0.991952  0.137040  0.615298  1
  O  O19  1  0.253391  0.457490  0.132702  1
  O  O20  1  0.947825  0.620943  0.615562  1
  O  O21  1  0.491952  0.362960  0.615298  1
  O  O22  1  0.144161  0.070548  0.205515  1
  O  O23  1  0.450670  0.767634  0.094880  1
  O  O24  1  0.246609  0.957490  0.867298  1
  O  O25  1  0.052175  0.379057  0.384438  1
  O  O26  1  0.950670  0.732366  0.094880  1
  O  O27  1  0.049330  0.267634  0.905120  1
  O  O28  1  0.644161  0.429452  0.205515  1
  O  O29  1  0.508048  0.637040  0.384702  1
  O  O30  1  0.552175  0.120943  0.384438  1
  O  O31  1  0.855839  0.929452  0.794485  1
