# generated using pymatgen
data_Ca14MnAs11
_symmetry_space_group_name_H-M   'P 1'
_cell_length_a   15.32145202
_cell_length_b   15.32164387
_cell_length_c   15.32146317
_cell_angle_alpha   93.32055829
_cell_angle_beta   118.09756153
_cell_angle_gamma   118.10580664
_symmetry_Int_Tables_number   1
_chemical_formula_structural   Ca14MnAs11
_chemical_formula_sum   'Ca56 Mn4 As44'
_cell_volume   2611.49099689
_cell_formula_units_Z   4
loop_
 _symmetry_equiv_pos_site_id
 _symmetry_equiv_pos_as_xyz
  1  'x, y, z'
loop_
 _atom_site_type_symbol
 _atom_site_label
 _atom_site_symmetry_multiplicity
 _atom_site_fract_x
 _atom_site_fract_y
 _atom_site_fract_z
 _atom_site_occupancy
  As  As0  1  0.118923  0.925979  0.815150  1
  As  As1  1  0.155522  0.582644  0.979819  1
  As  As2  1  0.249998  0.739882  0.759774  1
  As  As3  1  0.250018  0.881291  0.618741  1
  As  As4  1  0.103683  0.427651  0.582559  1
  As  As5  1  0.109540  0.184180  0.802243  1
  As  As6  1  0.119025  0.693155  0.302667  1
  As  As7  1  0.016126  0.757942  0.007917  1
  As  As8  1  0.345103  0.521127  0.917441  1
  As  As9  1  0.110831  0.425993  0.307064  1
  As  As10  1  0.102820  0.175696  0.520173  1
  As  As11  1  0.396165  0.979616  0.323531  1
  As  As12  1  0.381941  0.684189  0.574653  1
  As  As13  1  0.609523  0.807284  0.925339  1
  As  As14  1  0.480107  0.490223  0.740219  1
  As  As15  1  0.381822  0.198841  0.807064  1
  As  As16  1  0.391776  0.698842  0.317019  1
  As  As17  1  0.395200  0.916644  0.072130  1
  As  As18  1  0.344509  0.323068  0.427864  1
  As  As19  1  0.250014  0.008201  0.492074  1
  As  As20  1  0.845105  0.927659  0.823981  1
  As  As21  1  0.262548  0.381296  0.131275  1
  As  As22  1  0.156081  0.072633  0.176462  1
  As  As23  1  0.749996  0.990219  0.510109  1
  As  As24  1  0.762546  0.631271  0.881247  1
  As  As25  1  0.655525  0.675705  0.572877  1
  As  As26  1  0.602830  0.082647  0.927120  1
  As  As27  1  0.610793  0.303744  0.684859  1
  As  As28  1  0.618890  0.803752  0.192947  1
  As  As29  1  0.516124  0.508208  0.258182  1
  As  As30  1  0.390497  0.193161  0.074145  1
  As  As31  1  0.619031  0.316357  0.425888  1
  As  As32  1  0.603682  0.021116  0.676014  1
  As  As33  1  0.895198  0.823062  0.478553  1
  As  As34  1  0.891780  0.574761  0.692941  1
  As  As35  1  0.656079  0.479619  0.083447  1
  As  As36  1  0.980108  0.239876  0.989888  1
  As  As37  1  0.881938  0.307287  0.697759  1
  As  As38  1  0.890470  0.816354  0.197323  1
  As  As39  1  0.896174  0.572629  0.416555  1
  As  As40  1  0.750021  0.131271  0.368723  1
  As  As41  1  0.750026  0.257942  0.241816  1
  As  As42  1  0.844509  0.416640  0.021444  1
  As  As43  1  0.881828  0.074774  0.182984  1
  Ca  Ca44  1  0.148222  0.749150  0.896496  1
  Ca  Ca45  1  0.032608  0.746655  0.628062  1
  Ca  Ca46  1  0.027415  0.783559  0.399446  1
  Ca  Ca47  1  0.086915  0.522093  0.750106  1
  Ca  Ca48  1  0.353230  0.970557  0.871244  1
  Ca  Ca49  1  0.118496  0.371513  0.904162  1
  Ca  Ca50  1  0.099228  0.128905  0.981795  1
  Ca  Ca51  1  0.147103  0.628901  0.529683  1
  Ca  Ca52  1  0.415028  0.751163  0.976687  1
  Ca  Ca53  1  0.147904  0.897906  0.249994  1
  Ca  Ca54  1  0.467358  0.871518  0.753016  1
  Ca  Ca55  1  0.354988  0.882868  0.480620  1
  Ca  Ca56  1  0.352370  0.602366  0.749999  1
  Ca  Ca57  1  0.224830  0.977200  0.059966  1
  Ca  Ca58  1  0.271989  0.336808  0.749894  1
  Ca  Ca59  1  0.227378  0.748975  0.164198  1
  Ca  Ca60  1  0.274470  0.438328  0.523307  1
  Ca  Ca61  1  0.099312  0.470549  0.117330  1
  Ca  Ca62  1  0.599232  0.617432  0.970313  1
  Ca  Ca63  1  0.145337  0.019515  0.617217  1
  Ca  Ca64  1  0.084755  0.063159  0.335784  1
  Ca  Ca65  1  0.118595  0.246652  0.214055  1
  Ca  Ca66  1  0.586899  0.836802  0.564799  1
  Ca  Ca67  1  0.618502  0.714338  0.746977  1
  Ca  Ca68  1  0.352642  0.251713  0.603494  1
  Ca  Ca69  1  0.532599  0.904543  0.285946  1
  Ca  Ca70  1  0.402297  0.519519  0.374177  1
  Ca  Ca71  1  0.618591  0.404543  0.871938  1
  Ca  Ca72  1  0.384221  0.600938  0.128445  1
  Ca  Ca73  1  0.599308  0.481979  0.628753  1
  Ca  Ca74  1  0.472484  0.100930  0.716708  1
  Ca  Ca75  1  0.648214  0.751717  0.399062  1
  Ca  Ca76  1  0.384116  0.283570  0.256142  1
  Ca  Ca77  1  0.417220  0.164852  0.440020  1
  Ca  Ca78  1  0.884235  0.755783  0.783290  1
  Ca  Ca79  1  0.915012  0.938323  0.663851  1
  Ca  Ca80  1  0.853218  0.981977  0.382664  1
  Ca  Ca81  1  0.402246  0.382875  0.027876  1
  Ca  Ca82  1  0.902311  0.528125  0.882794  1
  Ca  Ca83  1  0.727387  0.563185  0.478403  1
  Ca  Ca84  1  0.774463  0.251148  0.836147  1
  Ca  Ca85  1  0.724816  0.664866  0.247616  1
  Ca  Ca86  1  0.771998  0.022088  0.935198  1
  Ca  Ca87  1  0.647917  0.397913  0.250003  1
  Ca  Ca88  1  0.647103  0.117422  0.518194  1
  Ca  Ca89  1  0.527428  0.127974  0.243860  1
  Ca  Ca90  1  0.852364  0.102359  0.750000  1
  Ca  Ca91  1  0.584783  0.248981  0.021591  1
  Ca  Ca92  1  0.854985  0.374361  0.472135  1
  Ca  Ca93  1  0.902235  0.874362  0.019375  1
  Ca  Ca94  1  0.884106  0.627971  0.100543  1
  Ca  Ca95  1  0.645334  0.028127  0.125821  1
  Ca  Ca96  1  0.917240  0.477200  0.252374  1
  Ca  Ca97  1  0.967348  0.214328  0.595833  1
  Ca  Ca98  1  0.972492  0.255777  0.371551  1
  Ca  Ca99  1  0.852655  0.249147  0.100937  1
  Mn  Mn100  1  0.250820  0.625544  0.375349  1
  Mn  Mn101  1  0.250240  0.125531  0.874743  1
  Mn  Mn102  1  0.750841  0.375483  0.625365  1
  Mn  Mn103  1  0.750141  0.875508  0.124668  1
