# generated using pymatgen
data_KSn
_symmetry_space_group_name_H-M   'P 1'
_cell_length_a   11.51869344
_cell_length_b   11.51869361
_cell_length_c   12.47770280
_cell_angle_alpha   117.48853200
_cell_angle_beta   117.48853254
_cell_angle_gamma   90.00000258
_symmetry_Int_Tables_number   1
_chemical_formula_structural   KSn
_chemical_formula_sum   'K16 Sn16'
_cell_volume   1254.18272448
_cell_formula_units_Z   16
loop_
 _symmetry_equiv_pos_site_id
 _symmetry_equiv_pos_as_xyz
  1  'x, y, z'
loop_
 _atom_site_type_symbol
 _atom_site_label
 _atom_site_symmetry_multiplicity
 _atom_site_fract_x
 _atom_site_fract_y
 _atom_site_fract_z
 _atom_site_occupancy
  K  K0  1  0.250000  0.888307  0.000000  1
  K  K1  1  0.611693  0.250000  0.500000  1
  K  K2  1  0.888307  0.750000  0.500000  1
  K  K3  1  0.750000  0.611693  1.000000  1
  K  K4  1  0.750000  0.111693  1.000000  1
  K  K5  1  0.388307  0.750000  0.500000  1
  K  K6  1  0.111693  0.250000  0.500000  1
  K  K7  1  0.250000  0.388307  0.000000  1
  K  K8  1  0.747231  0.997231  0.250000  1
  K  K9  1  0.752769  0.747231  0.750000  1
  K  K10  1  0.997231  0.502769  0.750000  1
  K  K11  1  0.502769  0.752769  0.250000  1
  K  K12  1  0.252769  0.002769  0.750000  1
  K  K13  1  0.247231  0.252769  0.250000  1
  K  K14  1  0.002769  0.497231  0.250000  1
  K  K15  1  0.497231  0.247231  0.750000  1
  Sn  Sn16  1  0.932006  0.132529  0.637092  1
  Sn  Sn17  1  0.004563  0.932006  0.137092  1
  Sn  Sn18  1  0.132529  0.705085  0.137092  1
  Sn  Sn19  1  0.794915  0.367471  0.362908  1
  Sn  Sn20  1  0.567994  0.495437  0.362908  1
  Sn  Sn21  1  0.495437  0.794915  0.862908  1
  Sn  Sn22  1  0.367471  0.567994  0.862908  1
  Sn  Sn23  1  0.705085  0.004563  0.637092  1
  Sn  Sn24  1  0.067994  0.867471  0.362908  1
  Sn  Sn25  1  0.995437  0.067994  0.862908  1
  Sn  Sn26  1  0.867471  0.294915  0.862908  1
  Sn  Sn27  1  0.205085  0.632529  0.637092  1
  Sn  Sn28  1  0.432006  0.504563  0.637092  1
  Sn  Sn29  1  0.504563  0.205085  0.137092  1
  Sn  Sn30  1  0.632529  0.432006  0.137092  1
  Sn  Sn31  1  0.294915  0.995437  0.362908  1
