# generated using pymatgen
data_K2HgCl4
_symmetry_space_group_name_H-M   'P 1'
_cell_length_a   8.10076955
_cell_length_b   9.17058556
_cell_length_c   13.58633289
_cell_angle_alpha   90.00000000
_cell_angle_beta   90.00000000
_cell_angle_gamma   90.00000000
_symmetry_Int_Tables_number   1
_chemical_formula_structural   K2HgCl4
_chemical_formula_sum   'K8 Hg4 Cl16'
_cell_volume   1009.31237033
_cell_formula_units_Z   4
loop_
 _symmetry_equiv_pos_site_id
 _symmetry_equiv_pos_as_xyz
  1  'x, y, z'
loop_
 _atom_site_type_symbol
 _atom_site_label
 _atom_site_symmetry_multiplicity
 _atom_site_fract_x
 _atom_site_fract_y
 _atom_site_fract_z
 _atom_site_occupancy
  K  K0  1  0.000000  0.500000  0.500000  1
  K  K1  1  0.000000  0.000000  0.000000  1
  K  K2  1  0.500000  0.500000  0.000000  1
  K  K3  1  0.000000  0.500000  0.000000  1
  K  K4  1  0.500000  0.000000  0.500000  1
  K  K5  1  0.000000  0.000000  0.500000  1
  K  K6  1  0.500000  0.500000  0.500000  1
  K  K7  1  0.500000  0.000000  0.000000  1
  Hg  Hg8  1  0.276365  0.250000  0.232455  1
  Hg  Hg9  1  0.723635  0.750000  0.767545  1
  Hg  Hg10  1  0.776365  0.750000  0.267545  1
  Hg  Hg11  1  0.223635  0.250000  0.732455  1
  Cl  Cl12  1  0.774504  0.498762  0.303744  1
  Cl  Cl13  1  0.748744  0.250000  0.046926  1
  Cl  Cl14  1  0.725496  1.001238  0.803744  1
  Cl  Cl15  1  0.755474  0.750000  0.067697  1
  Cl  Cl16  1  0.251256  0.750000  0.953074  1
  Cl  Cl17  1  0.225496  0.501238  0.696256  1
  Cl  Cl18  1  0.274504  0.501238  0.196256  1
  Cl  Cl19  1  0.244526  0.250000  0.932303  1
  Cl  Cl20  1  0.774504  1.001238  0.303744  1
  Cl  Cl21  1  0.225496  -0.001238  0.696256  1
  Cl  Cl22  1  0.744526  0.750000  0.567697  1
  Cl  Cl23  1  0.751256  0.250000  0.546926  1
  Cl  Cl24  1  0.274504  -0.001238  0.196256  1
  Cl  Cl25  1  0.248744  0.750000  0.453074  1
  Cl  Cl26  1  0.725496  0.498762  0.803744  1
  Cl  Cl27  1  0.255474  0.250000  0.432303  1
