# generated using pymatgen
data_NaAlSiO4
_symmetry_space_group_name_H-M   'P 1'
_cell_length_a   5.22057180
_cell_length_b   10.39842149
_cell_length_c   14.17657247
_cell_angle_alpha   90.00000000
_cell_angle_beta   90.00000000
_cell_angle_gamma   90.00000000
_symmetry_Int_Tables_number   1
_chemical_formula_structural   NaAlSiO4
_chemical_formula_sum   'Na8 Al8 Si8 O32'
_cell_volume   769.58524513
_cell_formula_units_Z   8
loop_
 _symmetry_equiv_pos_site_id
 _symmetry_equiv_pos_as_xyz
  1  'x, y, z'
loop_
 _atom_site_type_symbol
 _atom_site_label
 _atom_site_symmetry_multiplicity
 _atom_site_fract_x
 _atom_site_fract_y
 _atom_site_fract_z
 _atom_site_occupancy
  Na  Na0  1  0.947296  0.474776  0.747141  1
  Na  Na1  1  0.947296  0.025224  0.247141  1
  Na  Na2  1  0.447382  0.285550  0.499373  1
  Na  Na3  1  0.052704  0.974776  0.747141  1
  Na  Na4  1  0.552618  0.785550  0.499373  1
  Na  Na5  1  0.052704  0.525224  0.247141  1
  Na  Na6  1  0.447382  0.214450  0.999373  1
  Na  Na7  1  0.552618  0.714450  0.999373  1
  Al  Al8  1  0.547278  0.721524  0.249707  1
  Al  Al9  1  0.937198  0.528069  0.497541  1
  Al  Al10  1  0.937198  0.971931  0.997541  1
  Al  Al11  1  0.452722  0.278476  0.749707  1
  Al  Al12  1  0.062802  0.471931  0.997541  1
  Al  Al13  1  0.452722  0.221524  0.249707  1
  Al  Al14  1  0.062802  0.028069  0.497541  1
  Al  Al15  1  0.547278  0.778476  0.749707  1
  Si  Si16  1  0.561707  0.030628  0.624064  1
  Si  Si17  1  0.561707  0.469372  0.124064  1
  Si  Si18  1  0.953689  0.277663  0.372698  1
  Si  Si19  1  0.046311  0.777663  0.372698  1
  Si  Si20  1  0.953689  0.222337  0.872698  1
  Si  Si21  1  0.438293  0.530628  0.624064  1
  Si  Si22  1  0.046311  0.722337  0.872698  1
  Si  Si23  1  0.438293  0.969372  0.124064  1
  O  O24  1  0.126483  0.239097  0.280446  1
  O  O25  1  0.482962  0.818123  0.150341  1
  O  O26  1  0.126483  0.260903  0.780446  1
  O  O27  1  0.621167  0.006408  0.034026  1
  O  O28  1  0.507775  0.059776  0.215612  1
  O  O29  1  0.650365  0.253485  0.348310  1
  O  O30  1  0.993039  0.929032  0.399208  1
  O  O31  1  0.873517  0.760903  0.780446  1
  O  O32  1  0.960584  0.690644  0.463586  1
  O  O33  1  0.507775  0.440224  0.715612  1
  O  O34  1  0.960584  0.809356  0.963586  1
  O  O35  1  0.349635  0.746515  0.848310  1
  O  O36  1  0.859249  -0.000328  0.594947  1
  O  O37  1  0.492225  0.940224  0.715612  1
  O  O38  1  0.650365  0.246515  0.848310  1
  O  O39  1  0.492225  0.559776  0.215612  1
  O  O40  1  0.517038  0.181877  0.650341  1
  O  O41  1  0.378833  0.506408  0.034026  1
  O  O42  1  0.873517  0.739097  0.280446  1
  O  O43  1  0.482962  0.681877  0.650341  1
  O  O44  1  0.378833  0.993592  0.534026  1
  O  O45  1  0.140751  0.499672  0.594947  1
  O  O46  1  0.140751  1.000328  0.094948  1
  O  O47  1  0.517038  0.318123  0.150341  1
  O  O48  1  0.621167  0.493592  0.534026  1
  O  O49  1  0.859249  0.500328  0.094948  1
  O  O50  1  0.006961  0.070968  0.899208  1
  O  O51  1  0.039416  0.309356  0.963586  1
  O  O52  1  0.349635  0.753485  0.348310  1
  O  O53  1  0.039416  0.190644  0.463586  1
  O  O54  1  0.993039  0.570968  0.899208  1
  O  O55  1  0.006961  0.429032  0.399208  1
