# generated using pymatgen
data_GeClO2F5
_symmetry_space_group_name_H-M   'P 1'
_cell_length_a   7.59144484
_cell_length_b   8.53146387
_cell_length_c   9.04218782
_cell_angle_alpha   90.00000000
_cell_angle_beta   90.00000000
_cell_angle_gamma   116.41749697
_symmetry_Int_Tables_number   1
_chemical_formula_structural   GeClO2F5
_chemical_formula_sum   'Ge4 Cl4 O8 F20'
_cell_volume   524.47396671
_cell_formula_units_Z   4
loop_
 _symmetry_equiv_pos_site_id
 _symmetry_equiv_pos_as_xyz
  1  'x, y, z'
loop_
 _atom_site_type_symbol
 _atom_site_label
 _atom_site_symmetry_multiplicity
 _atom_site_fract_x
 _atom_site_fract_y
 _atom_site_fract_z
 _atom_site_occupancy
  Ge  Ge0  1  0.768684  0.772628  0.182761  1
  Ge  Ge1  1  0.231316  0.227372  0.682761  1
  Ge  Ge2  1  -0.003943  0.227372  0.317239  1
  Ge  Ge3  1  1.003943  0.772628  0.817239  1
  Cl  Cl4  1  0.612753  0.225506  0.000000  1
  Cl  Cl5  1  0.725673  0.451346  0.500000  1
  Cl  Cl6  1  0.387247  0.774494  0.500000  1
  Cl  Cl7  1  0.274327  0.548654  0.000000  1
  O  O8  1  0.525506  0.868171  0.612317  1
  O  O9  1  0.474494  0.131829  0.112317  1
  O  O10  1  0.611096  0.357335  0.376615  1
  O  O11  1  0.342665  0.868171  0.387683  1
  O  O12  1  0.746238  0.357335  0.623385  1
  O  O13  1  0.253762  0.642665  0.123385  1
  O  O14  1  0.388904  0.642665  0.876615  1
  O  O15  1  0.657335  0.131829  0.887683  1
  F  F16  1  0.239738  0.313154  0.250975  1
  F  F17  1  0.966876  0.565696  0.900138  1
  F  F18  1  0.032353  0.000000  0.750000  1
  F  F19  1  0.760262  0.686846  0.750975  1
  F  F20  1  0.246729  0.881506  0.884955  1
  F  F21  1  0.401180  0.434304  0.599862  1
  F  F22  1  0.033124  0.434304  0.400138  1
  F  F23  1  0.753271  0.118494  0.384955  1
  F  F24  1  0.638617  0.724827  0.361649  1
  F  F25  1  0.598820  0.565696  0.099862  1
  F  F26  1  0.967647  0.000000  0.250000  1
  F  F27  1  0.919624  0.839247  0.000000  1
  F  F28  1  0.365222  0.118494  0.615045  1
  F  F29  1  0.634778  0.881506  0.115045  1
  F  F30  1  0.073416  0.313154  0.749025  1
  F  F31  1  0.913790  0.275173  0.138351  1
  F  F32  1  0.361383  0.275173  0.861649  1
  F  F33  1  0.086210  0.724827  0.638351  1
  F  F34  1  0.926584  0.686846  0.249025  1
  F  F35  1  0.080376  0.160753  0.500000  1
