# generated using pymatgen
data_BaEu2ZnO5
_symmetry_space_group_name_H-M   'P 1'
_cell_length_a   5.84281098
_cell_length_b   7.30411495
_cell_length_c   12.68675542
_cell_angle_alpha   90.00000000
_cell_angle_beta   90.00000000
_cell_angle_gamma   90.00000000
_symmetry_Int_Tables_number   1
_chemical_formula_structural   BaEu2ZnO5
_chemical_formula_sum   'Ba4 Eu8 Zn4 O20'
_cell_volume   541.42711732
_cell_formula_units_Z   4
loop_
 _symmetry_equiv_pos_site_id
 _symmetry_equiv_pos_as_xyz
  1  'x, y, z'
loop_
 _atom_site_type_symbol
 _atom_site_label
 _atom_site_symmetry_multiplicity
 _atom_site_fract_x
 _atom_site_fract_y
 _atom_site_fract_z
 _atom_site_occupancy
  Eu  Eu0  1  0.250000  0.117714  0.289864  1
  Eu  Eu1  1  0.750000  0.882286  0.710136  1
  Eu  Eu2  1  0.750000  0.617714  0.210136  1
  Eu  Eu3  1  0.250000  0.382286  0.789864  1
  Eu  Eu4  1  0.250000  0.394533  0.072282  1
  Eu  Eu5  1  0.750000  0.605467  0.927718  1
  Eu  Eu6  1  0.750000  0.894533  0.427718  1
  Eu  Eu7  1  0.250000  0.105467  0.572282  1
  Ba  Ba8  1  0.250000  0.923704  0.900630  1
  Ba  Ba9  1  0.750000  0.076296  0.099370  1
  Ba  Ba10  1  0.750000  0.423704  0.599370  1
  Ba  Ba11  1  0.250000  0.576296  0.400630  1
  Zn  Zn12  1  0.250000  0.694370  0.650046  1
  Zn  Zn13  1  0.750000  0.305630  0.349953  1
  Zn  Zn14  1  0.750000  0.194370  0.849954  1
  Zn  Zn15  1  0.250000  0.805630  0.150046  1
  O  O16  1  0.992307  0.171685  0.435965  1
  O  O17  1  0.492307  0.828315  0.564035  1
  O  O18  1  0.007693  0.671685  0.064035  1
  O  O19  1  0.507693  0.328315  0.935965  1
  O  O20  1  0.007693  0.828315  0.564035  1
  O  O21  1  0.507693  0.171685  0.435965  1
  O  O22  1  0.992307  0.328315  0.935965  1
  O  O23  1  0.492307  0.671685  0.064035  1
  O  O24  1  0.505229  0.353204  0.226152  1
  O  O25  1  0.005229  0.646796  0.773848  1
  O  O26  1  0.494771  0.853204  0.273848  1
  O  O27  1  0.994771  0.146796  0.726152  1
  O  O28  1  0.494771  0.646796  0.773848  1
  O  O29  1  0.994771  0.353204  0.226152  1
  O  O30  1  0.505229  0.146796  0.726152  1
  O  O31  1  0.005229  0.853204  0.273848  1
  O  O32  1  0.250000  0.066378  0.098526  1
  O  O33  1  0.750000  0.933622  0.901474  1
  O  O34  1  0.750000  0.566378  0.401474  1
  O  O35  1  0.250000  0.433622  0.598526  1
