# generated using pymatgen
data_Ga4Fe3
_symmetry_space_group_name_H-M   'P 1'
_cell_length_a   6.31397217
_cell_length_b   6.31397238
_cell_length_c   7.86485319
_cell_angle_alpha   77.34464950
_cell_angle_beta   77.34464912
_cell_angle_gamma   74.68710291
_symmetry_Int_Tables_number   1
_chemical_formula_structural   Ga4Fe3
_chemical_formula_sum   'Ga12 Fe9'
_cell_volume   290.70128635
_cell_formula_units_Z   3
loop_
 _symmetry_equiv_pos_site_id
 _symmetry_equiv_pos_as_xyz
  1  'x, y, z'
loop_
 _atom_site_type_symbol
 _atom_site_label
 _atom_site_symmetry_multiplicity
 _atom_site_fract_x
 _atom_site_fract_y
 _atom_site_fract_z
 _atom_site_occupancy
  Fe  Fe0  1  0.000000  0.000000  0.000000  1
  Fe  Fe1  1  0.494593  0.494593  0.689651  1
  Fe  Fe2  1  0.505407  0.505407  0.310349  1
  Fe  Fe3  1  0.224294  0.224294  0.360845  1
  Fe  Fe4  1  0.775706  0.775706  0.639155  1
  Fe  Fe5  1  0.336790  0.934546  0.152303  1
  Fe  Fe6  1  0.065454  0.663210  0.847697  1
  Fe  Fe7  1  0.663210  0.065454  0.847697  1
  Fe  Fe8  1  0.934546  0.336790  0.152303  1
  Ga  Ga9  1  0.269453  0.269453  0.916177  1
  Ga  Ga10  1  0.730547  0.730547  0.083823  1
  Ga  Ga11  1  0.041094  0.041094  0.652927  1
  Ga  Ga12  1  0.958906  0.958906  0.347073  1
  Ga  Ga13  1  0.811078  0.405420  0.848889  1
  Ga  Ga14  1  0.594580  0.188922  0.151111  1
  Ga  Ga15  1  0.188922  0.594580  0.151111  1
  Ga  Ga16  1  0.405420  0.811078  0.848889  1
  Ga  Ga17  1  0.538484  0.166232  0.550676  1
  Ga  Ga18  1  0.833768  0.461516  0.449324  1
  Ga  Ga19  1  0.461516  0.833768  0.449324  1
  Ga  Ga20  1  0.166232  0.538484  0.550676  1
