# generated using pymatgen
data_Rb2(TcSe2)3
_symmetry_space_group_name_H-M   'P 1'
_cell_length_a   10.28166653
_cell_length_b   10.33360772
_cell_length_c   12.70026014
_cell_angle_alpha   91.21632872
_cell_angle_beta   90.00000000
_cell_angle_gamma   119.83386572
_symmetry_Int_Tables_number   1
_chemical_formula_structural   Rb2(TcSe2)3
_chemical_formula_sum   'Rb8 Tc12 Se24'
_cell_volume   1170.18163773
_cell_formula_units_Z   4
loop_
 _symmetry_equiv_pos_site_id
 _symmetry_equiv_pos_as_xyz
  1  'x, y, z'
loop_
 _atom_site_type_symbol
 _atom_site_label
 _atom_site_symmetry_multiplicity
 _atom_site_fract_x
 _atom_site_fract_y
 _atom_site_fract_z
 _atom_site_occupancy
  Rb  Rb0  1  0.619286  0.000000  0.250000  1
  Rb  Rb1  1  0.380714  0.000000  0.750000  1
  Rb  Rb2  1  0.219518  0.000000  0.250000  1
  Rb  Rb3  1  0.780482  0.000000  0.750000  1
  Rb  Rb4  1  0.137228  0.774546  0.981195  1
  Rb  Rb5  1  0.362683  0.225454  0.518805  1
  Rb  Rb6  1  0.862772  0.225454  0.018805  1
  Rb  Rb7  1  0.637317  0.774546  0.481195  1
  Tc  Tc8  1  0.003278  0.321958  0.476795  1
  Tc  Tc9  1  0.681320  0.678042  0.023205  1
  Tc  Tc10  1  0.996722  0.678042  0.523205  1
  Tc  Tc11  1  0.318680  0.321958  0.976795  1
  Tc  Tc12  1  0.114451  0.579428  0.377516  1
  Tc  Tc13  1  0.535024  0.420572  0.122484  1
  Tc  Tc14  1  0.885549  0.420572  0.622484  1
  Tc  Tc15  1  0.464976  0.579428  0.877516  1
  Tc  Tc16  1  0.822843  0.422900  0.417799  1
  Tc  Tc17  1  0.399943  0.577100  0.082201  1
  Tc  Tc18  1  0.177157  0.577100  0.582201  1
  Tc  Tc19  1  0.600057  0.422900  0.917799  1
  Se  Se20  1  0.067688  0.330674  0.668899  1
  Se  Se21  1  0.737014  0.669326  0.831101  1
  Se  Se22  1  0.932312  0.669326  0.331101  1
  Se  Se23  1  0.262986  0.330674  0.168899  1
  Se  Se24  1  0.798925  0.519388  0.063271  1
  Se  Se25  1  0.279537  0.480612  0.436729  1
  Se  Se26  1  0.201075  0.480612  0.936729  1
  Se  Se27  1  0.720463  0.519388  0.563271  1
  Se  Se28  1  0.051790  0.664834  0.715011  1
  Se  Se29  1  0.386957  0.335166  0.784989  1
  Se  Se30  1  0.948210  0.335166  0.284989  1
  Se  Se31  1  0.613043  0.664834  0.215011  1
  Se  Se32  1  0.277085  0.820082  0.482738  1
  Se  Se33  1  0.457003  0.179918  0.017262  1
  Se  Se34  1  0.722915  0.179918  0.517262  1
  Se  Se35  1  0.542997  0.820082  0.982738  1
  Se  Se36  1  0.072063  0.068566  0.922630  1
  Se  Se37  1  0.003497  0.931434  0.577370  1
  Se  Se38  1  0.927937  0.931434  0.077370  1
  Se  Se39  1  0.996503  0.068566  0.422630  1
  Se  Se40  1  0.269439  0.696461  0.201637  1
  Se  Se41  1  0.572978  0.303539  0.298363  1
  Se  Se42  1  0.730561  0.303539  0.798363  1
  Se  Se43  1  0.427022  0.696461  0.701637  1
