# generated using pymatgen
data_Sr2I2O
_symmetry_space_group_name_H-M   'P 1'
_cell_length_a   6.55072672
_cell_length_b   7.67619317
_cell_length_c   8.27341004
_cell_angle_alpha   117.63944156
_cell_angle_beta   113.32054360
_cell_angle_gamma   90.00775113
_symmetry_Int_Tables_number   1
_chemical_formula_structural   Sr2I2O
_chemical_formula_sum   'Sr4 I4 O2'
_cell_volume   329.69190632
_cell_formula_units_Z   2
loop_
 _symmetry_equiv_pos_site_id
 _symmetry_equiv_pos_as_xyz
  1  'x, y, z'
loop_
 _atom_site_type_symbol
 _atom_site_label
 _atom_site_symmetry_multiplicity
 _atom_site_fract_x
 _atom_site_fract_y
 _atom_site_fract_z
 _atom_site_occupancy
  Sr  Sr0  1  0.911574  0.582075  0.823124  1
  Sr  Sr1  1  0.088427  0.417926  0.176877  1
  Sr  Sr2  1  0.588458  0.758978  0.176878  1
  I  I3  1  0.349392  0.701625  0.698814  1
  O  O4  1  0.250006  0.499996  0.999997  1
  Sr  Sr5  1  0.411542  0.241021  0.823122  1
  I  I6  1  0.849469  0.997155  0.698903  1
  I  I7  1  0.650608  0.298375  0.301186  1
  I  I8  1  0.150531  0.002846  0.301098  1
  O  O9  1  0.749994  0.500004  0.000003  1
