# generated using pymatgen
data_PH9AuC3ClO3
_symmetry_space_group_name_H-M   'P 1'
_cell_length_a   6.54865050
_cell_length_b   14.91569067
_cell_length_c   17.85706113
_cell_angle_alpha   90.00000000
_cell_angle_beta   90.00000000
_cell_angle_gamma   90.00000000
_symmetry_Int_Tables_number   1
_chemical_formula_structural   PH9AuC3ClO3
_chemical_formula_sum   'P8 H72 Au8 C24 Cl8 O24'
_cell_volume   1744.23568073
_cell_formula_units_Z   8
loop_
 _symmetry_equiv_pos_site_id
 _symmetry_equiv_pos_as_xyz
  1  'x, y, z'
loop_
 _atom_site_type_symbol
 _atom_site_label
 _atom_site_symmetry_multiplicity
 _atom_site_fract_x
 _atom_site_fract_y
 _atom_site_fract_z
 _atom_site_occupancy
  P  P0  1  0.691771  0.127275  0.363791  1
  P  P1  1  0.191771  0.127275  0.136209  1
  P  P2  1  0.808229  0.627275  0.363791  1
  P  P3  1  0.308229  0.627275  0.136209  1
  P  P4  1  0.191771  0.372725  0.636209  1
  P  P5  1  0.691771  0.372725  0.863791  1
  P  P6  1  0.308229  0.872725  0.636209  1
  P  P7  1  0.808229  0.872725  0.863791  1
  H  H8  1  0.242755  0.478868  0.985417  1
  H  H9  1  0.443875  0.173124  0.685208  1
  H  H10  1  0.317935  0.250974  0.746471  1
  H  H11  1  0.742755  0.478868  0.514583  1
  H  H12  1  0.463419  0.215759  0.934080  1
  H  H13  1  0.368848  0.952358  0.075033  1
  H  H14  1  0.554044  0.814192  0.508101  1
  H  H15  1  0.670110  0.181507  0.815496  1
  H  H16  1  0.443875  0.326876  0.185208  1
  H  H17  1  0.595644  0.963638  0.433867  1
  H  H18  1  0.257245  0.978868  0.985417  1
  H  H19  1  0.817935  0.250974  0.753529  1
  H  H20  1  0.036581  0.715759  0.934080  1
  H  H21  1  0.767774  0.720150  0.064509  1
  H  H22  1  0.257245  0.521132  0.485417  1
  H  H23  1  0.170110  0.181507  0.684504  1
  H  H24  1  0.095644  0.963638  0.066133  1
  H  H25  1  0.368848  0.547642  0.575033  1
  H  H26  1  0.056125  0.826876  0.185208  1
  H  H27  1  0.757245  0.521132  0.014583  1
  H  H28  1  0.904356  0.036362  0.933867  1
  H  H29  1  0.829890  0.818493  0.315496  1
  H  H30  1  0.945956  0.185808  0.008101  1
  H  H31  1  0.732226  0.279850  0.564509  1
  H  H32  1  0.742755  0.021132  0.014583  1
  H  H33  1  0.829890  0.681507  0.815496  1
  H  H34  1  0.732226  0.220150  0.064509  1
  H  H35  1  0.131152  0.047642  0.575033  1
  H  H36  1  0.757245  0.978868  0.514583  1
  H  H37  1  0.963419  0.215759  0.565920  1
  H  H38  1  0.904356  0.463638  0.433867  1
  H  H39  1  0.670110  0.318493  0.315496  1
  H  H40  1  0.868848  0.547642  0.924967  1
  H  H41  1  0.963419  0.284241  0.065920  1
  H  H42  1  0.182065  0.749026  0.246471  1
  H  H43  1  0.329890  0.818493  0.184504  1
  H  H44  1  0.536581  0.715759  0.565920  1
  H  H45  1  0.317935  0.249026  0.246471  1
  H  H46  1  0.054044  0.685808  0.491899  1
  H  H47  1  0.131152  0.452358  0.075033  1
  H  H48  1  0.556125  0.673124  0.814792  1
  H  H49  1  0.267774  0.720150  0.435491  1
  H  H50  1  0.267774  0.779850  0.935491  1
  H  H51  1  0.682065  0.749026  0.253529  1
  H  H52  1  0.943875  0.326876  0.314792  1
  H  H53  1  0.445956  0.185808  0.491899  1
  H  H54  1  0.556125  0.826876  0.314792  1
  H  H55  1  0.817935  0.249026  0.253529  1
  H  H56  1  0.631152  0.047642  0.924967  1
  H  H57  1  0.170110  0.318493  0.184504  1
  H  H58  1  0.036581  0.784241  0.434080  1
  H  H59  1  0.329890  0.681507  0.684504  1
  H  H60  1  0.182065  0.750974  0.746471  1
  H  H61  1  0.767774  0.779850  0.564509  1
  H  H62  1  0.554044  0.685808  0.008101  1
  H  H63  1  0.054044  0.814192  0.991899  1
  H  H64  1  0.404356  0.036362  0.566133  1
  H  H65  1  0.232226  0.279850  0.935491  1
  H  H66  1  0.868848  0.952358  0.424967  1
  H  H67  1  0.242755  0.021132  0.485417  1
  H  H68  1  0.056125  0.673124  0.685208  1
  H  H69  1  0.536581  0.784241  0.065920  1
  H  H70  1  0.232226  0.220150  0.435491  1
  H  H71  1  0.095644  0.536362  0.566133  1
  H  H72  1  0.943875  0.173124  0.814792  1
  H  H73  1  0.631152  0.452358  0.424967  1
  H  H74  1  0.445956  0.314192  0.991899  1
  H  H75  1  0.463419  0.284241  0.434080  1
  H  H76  1  0.595644  0.536362  0.933867  1
  H  H77  1  0.682065  0.750974  0.753529  1
  H  H78  1  0.945956  0.314192  0.508101  1
  H  H79  1  0.404356  0.463638  0.066133  1
  Au  Au80  1  0.204118  0.040077  0.238340  1
  Au  Au81  1  0.204118  0.459923  0.738340  1
  Au  Au82  1  0.295882  0.540077  0.238340  1
  Au  Au83  1  0.704118  0.040077  0.261660  1
  Au  Au84  1  0.795882  0.959923  0.761660  1
  Au  Au85  1  0.295882  0.959923  0.738340  1
  Au  Au86  1  0.795882  0.540077  0.261660  1
  Au  Au87  1  0.704118  0.459923  0.761660  1
  C  C88  1  0.101007  0.783401  0.938822  1
  C  C89  1  0.244603  0.512310  0.546166  1
  C  C90  1  0.601007  0.716599  0.061178  1
  C  C91  1  0.898993  0.283401  0.561178  1
  C  C92  1  0.255397  0.487690  0.046166  1
  C  C93  1  0.601007  0.783401  0.561178  1
  C  C94  1  0.255397  0.012310  0.546166  1
  C  C95  1  0.186226  0.718670  0.691181  1
  C  C96  1  0.101007  0.716599  0.438822  1
  C  C97  1  0.313774  0.218670  0.691181  1
  C  C98  1  0.186226  0.781330  0.191181  1
  C  C99  1  0.813774  0.218670  0.808819  1
  C  C100  1  0.686226  0.718670  0.808819  1
  C  C101  1  0.813774  0.281330  0.308819  1
  C  C102  1  0.398993  0.283401  0.938822  1
  C  C103  1  0.744603  0.987690  0.453834  1
  C  C104  1  0.755397  0.012310  0.953834  1
  C  C105  1  0.313774  0.281330  0.191181  1
  C  C106  1  0.755397  0.487690  0.453834  1
  C  C107  1  0.398993  0.216599  0.438822  1
  C  C108  1  0.744603  0.512310  0.953834  1
  C  C109  1  0.244603  0.987690  0.046166  1
  C  C110  1  0.686226  0.781330  0.308819  1
  C  C111  1  0.898993  0.216599  0.061178  1
  Cl  Cl112  1  0.783104  0.059311  0.660361  1
  Cl  Cl113  1  0.783104  0.440689  0.160361  1
  Cl  Cl114  1  0.283104  0.440689  0.339639  1
  Cl  Cl115  1  0.216896  0.940689  0.339639  1
  Cl  Cl116  1  0.283104  0.059311  0.839639  1
  Cl  Cl117  1  0.716896  0.559311  0.660361  1
  Cl  Cl118  1  0.216896  0.559311  0.839639  1
  Cl  Cl119  1  0.716896  0.940689  0.160361  1
  O  O120  1  0.961982  0.338577  0.624333  1
  O  O121  1  0.835034  0.285513  0.868001  1
  O  O122  1  0.266307  0.083731  0.059000  1
  O  O123  1  0.164966  0.785513  0.631999  1
  O  O124  1  0.664966  0.714487  0.368001  1
  O  O125  1  0.233693  0.583731  0.059000  1
  O  O126  1  0.766307  0.416269  0.941000  1
  O  O127  1  0.733693  0.916269  0.941000  1
  O  O128  1  0.335034  0.214487  0.131999  1
  O  O129  1  0.335034  0.285513  0.631999  1
  O  O130  1  0.538018  0.838577  0.624333  1
  O  O131  1  0.664966  0.785513  0.868001  1
  O  O132  1  0.233693  0.916269  0.559000  1
  O  O133  1  0.164966  0.714487  0.131999  1
  O  O134  1  0.538018  0.661423  0.124333  1
  O  O135  1  0.461982  0.161423  0.375667  1
  O  O136  1  0.766307  0.083731  0.441000  1
  O  O137  1  0.461982  0.338577  0.875667  1
  O  O138  1  0.038018  0.661423  0.375667  1
  O  O139  1  0.835034  0.214487  0.368001  1
  O  O140  1  0.733693  0.583731  0.441000  1
  O  O141  1  0.038018  0.838577  0.875667  1
  O  O142  1  0.266307  0.416269  0.559000  1
  O  O143  1  0.961982  0.161423  0.124333  1
