# generated using pymatgen
data_Rb2U(N2O7)2
_symmetry_space_group_name_H-M   'P 1'
_cell_length_a   6.63354221
_cell_length_b   8.11597423
_cell_length_c   12.95497002
_cell_angle_alpha   90.00000000
_cell_angle_beta   103.12878836
_cell_angle_gamma   90.00000000
_symmetry_Int_Tables_number   1
_chemical_formula_structural   Rb2U(N2O7)2
_chemical_formula_sum   'Rb4 U2 N8 O28'
_cell_volume   679.23486808
_cell_formula_units_Z   2
loop_
 _symmetry_equiv_pos_site_id
 _symmetry_equiv_pos_as_xyz
  1  'x, y, z'
loop_
 _atom_site_type_symbol
 _atom_site_label
 _atom_site_symmetry_multiplicity
 _atom_site_fract_x
 _atom_site_fract_y
 _atom_site_fract_z
 _atom_site_occupancy
  Rb  Rb0  1  0.663128  0.986141  0.342001  1
  Rb  Rb1  1  0.163128  0.513859  0.842001  1
  Rb  Rb2  1  0.336872  0.013859  0.657999  1
  Rb  Rb3  1  0.836872  0.486141  0.157999  1
  U  U4  1  0.000000  0.000000  0.000000  1
  U  U5  1  0.500000  0.500000  0.500000  1
  N  N6  1  0.195204  0.260511  0.371721  1
  N  N7  1  0.304796  0.760511  0.128279  1
  N  N8  1  0.804796  0.739489  0.628279  1
  N  N9  1  0.873837  0.227235  0.609649  1
  N  N10  1  0.626163  0.727235  0.890351  1
  N  N11  1  0.126163  0.772765  0.390351  1
  N  N12  1  0.373837  0.272765  0.109649  1
  N  N13  1  0.695204  0.239489  0.871721  1
  O  O14  1  0.433051  0.664781  0.178913  1
  O  O15  1  0.356753  0.211817  0.440791  1
  O  O16  1  0.819427  0.772946  0.899804  1
  O  O17  1  0.333887  0.505863  0.592215  1
  O  O18  1  0.009249  0.768816  0.300102  1
  O  O19  1  0.931162  0.178284  0.529715  1
  O  O20  1  0.566949  0.335219  0.821087  1
  O  O21  1  0.180573  0.227054  0.100196  1
  O  O22  1  0.066949  0.164781  0.321087  1
  O  O23  1  0.568838  0.678284  0.970285  1
  O  O24  1  0.666113  0.494137  0.407785  1
  O  O25  1  0.431162  0.321716  0.029715  1
  O  O26  1  0.819492  0.582499  0.640355  1
  O  O27  1  0.856753  0.288183  0.940791  1
  O  O28  1  0.509249  0.731184  0.800102  1
  O  O29  1  0.680573  0.272946  0.600196  1
  O  O30  1  0.068838  0.821716  0.470285  1
  O  O31  1  0.680508  0.082499  0.859645  1
  O  O32  1  0.180508  0.417501  0.359645  1
  O  O33  1  0.166113  0.005863  0.907785  1
  O  O34  1  0.933051  0.835219  0.678913  1
  O  O35  1  0.833887  0.994137  0.092215  1
  O  O36  1  0.319427  0.727054  0.399804  1
  O  O37  1  0.143247  0.711817  0.059209  1
  O  O38  1  0.490751  0.268816  0.199898  1
  O  O39  1  0.319492  0.917501  0.140355  1
  O  O40  1  0.990751  0.231184  0.699898  1
  O  O41  1  0.643247  0.788183  0.559209  1
