# generated using pymatgen
data_K3Bi2(AsO4)3
_symmetry_space_group_name_H-M   'P 1'
_cell_length_a   7.17743716
_cell_length_b   9.99835891
_cell_length_c   9.99835896
_cell_angle_alpha   89.28426300
_cell_angle_beta   72.68308215
_cell_angle_gamma   72.68308492
_symmetry_Int_Tables_number   1
_chemical_formula_structural   K3Bi2(AsO4)3
_chemical_formula_sum   'K6 Bi4 As6 O24'
_cell_volume   651.65321433
_cell_formula_units_Z   2
loop_
 _symmetry_equiv_pos_site_id
 _symmetry_equiv_pos_as_xyz
  1  'x, y, z'
loop_
 _atom_site_type_symbol
 _atom_site_label
 _atom_site_symmetry_multiplicity
 _atom_site_fract_x
 _atom_site_fract_y
 _atom_site_fract_z
 _atom_site_occupancy
  K  K0  1  0.250000  0.013855  0.986145  1
  K  K1  1  0.750000  0.724118  0.275882  1
  K  K2  1  0.250000  0.275882  0.724118  1
  K  K3  1  0.000000  0.500000  0.500000  1
  K  K4  1  0.750000  0.986145  0.013855  1
  K  K5  1  0.500000  0.500000  0.500000  1
  Bi  Bi6  1  0.165671  0.912074  0.615973  1
  Bi  Bi7  1  0.665671  0.615973  0.912074  1
  Bi  Bi8  1  0.334329  0.384027  0.087926  1
  Bi  Bi9  1  0.834329  0.087926  0.384027  1
  As  As10  1  0.139260  0.649797  0.861346  1
  As  As11  1  0.860740  0.350203  0.138654  1
  As  As12  1  0.250000  0.753804  0.246196  1
  As  As13  1  0.360740  0.138654  0.350203  1
  As  As14  1  0.639260  0.861346  0.649797  1
  As  As15  1  0.750000  0.246196  0.753804  1
  O  O16  1  0.360525  0.290547  0.424631  1
  O  O17  1  0.844281  0.916345  0.548229  1
  O  O18  1  0.155719  0.083655  0.451771  1
  O  O19  1  0.327410  0.757647  0.392284  1
  O  O20  1  0.639475  0.709453  0.575369  1
  O  O21  1  0.344281  0.548229  0.916345  1
  O  O22  1  0.409011  0.991866  0.663035  1
  O  O23  1  0.909011  0.663035  0.991866  1
  O  O24  1  0.951988  0.101281  0.764928  1
  O  O25  1  0.837545  0.183888  0.156968  1
  O  O26  1  0.172590  0.607716  0.242353  1
  O  O27  1  0.451988  0.764928  0.101281  1
  O  O28  1  0.162455  0.816112  0.843032  1
  O  O29  1  0.662455  0.843032  0.816112  1
  O  O30  1  0.860525  0.424631  0.290547  1
  O  O31  1  0.090989  0.336965  0.008134  1
  O  O32  1  0.590989  0.008134  0.336965  1
  O  O33  1  0.655719  0.451771  0.083655  1
  O  O34  1  0.827410  0.392284  0.757647  1
  O  O35  1  0.548012  0.235072  0.898719  1
  O  O36  1  0.048012  0.898719  0.235072  1
  O  O37  1  0.672590  0.242353  0.607716  1
  O  O38  1  0.337545  0.156968  0.183888  1
  O  O39  1  0.139475  0.575369  0.709453  1
