# generated using pymatgen
data_CsCeHgSe3
_symmetry_space_group_name_H-M   'P 1'
_cell_length_a   4.46575635
_cell_length_b   8.41172036
_cell_length_c   11.44475632
_cell_angle_alpha   90.00000000
_cell_angle_beta   90.00000000
_cell_angle_gamma   105.39360174
_symmetry_Int_Tables_number   1
_chemical_formula_structural   CsCeHgSe3
_chemical_formula_sum   'Cs2 Ce2 Hg2 Se6'
_cell_volume   414.49545184
_cell_formula_units_Z   2
loop_
 _symmetry_equiv_pos_site_id
 _symmetry_equiv_pos_as_xyz
  1  'x, y, z'
loop_
 _atom_site_type_symbol
 _atom_site_label
 _atom_site_symmetry_multiplicity
 _atom_site_fract_x
 _atom_site_fract_y
 _atom_site_fract_z
 _atom_site_occupancy
  Cs  Cs0  1  0.256535  0.513070  0.250000  1
  Cs  Cs1  1  0.743465  0.486930  0.750000  1
  Ce  Ce2  1  0.000000  0.000000  0.000000  1
  Ce  Ce3  1  0.000000  0.000000  0.500000  1
  Hg  Hg4  1  0.542712  0.085423  0.250000  1
  Hg  Hg5  1  0.457288  0.914577  0.750000  1
  Se  Se6  1  0.061154  0.122309  0.750000  1
  Se  Se7  1  0.621129  0.242258  0.452510  1
  Se  Se8  1  0.621129  0.242258  0.047490  1
  Se  Se9  1  0.938846  0.877691  0.250000  1
  Se  Se10  1  0.378871  0.757742  0.952510  1
  Se  Se11  1  0.378871  0.757742  0.547490  1
