# generated using pymatgen
data_CuH8C6(N3O)2
_symmetry_space_group_name_H-M   'P 1'
_cell_length_a   6.58581620
_cell_length_b   7.27132101
_cell_length_c   7.28331793
_cell_angle_alpha   60.79389823
_cell_angle_beta   63.66007567
_cell_angle_gamma   63.71202312
_symmetry_Int_Tables_number   1
_chemical_formula_structural   CuH8C6(N3O)2
_chemical_formula_sum   'Cu1 H8 C6 N6 O2'
_cell_volume   261.15753321
_cell_formula_units_Z   1
loop_
 _symmetry_equiv_pos_site_id
 _symmetry_equiv_pos_as_xyz
  1  'x, y, z'
loop_
 _atom_site_type_symbol
 _atom_site_label
 _atom_site_symmetry_multiplicity
 _atom_site_fract_x
 _atom_site_fract_y
 _atom_site_fract_z
 _atom_site_occupancy
  Cu  Cu0  1  0.000000  0.000000  0.000000  1
  H  H1  1  0.765943  0.695538  0.938545  1
  H  H2  1  0.211953  0.752174  0.747981  1
  H  H3  1  0.234057  0.304462  0.061455  1
  H  H4  1  0.234658  0.061106  0.303671  1
  H  H5  1  0.028081  0.319761  0.320421  1
  H  H6  1  0.788047  0.247826  0.252019  1
  H  H7  1  0.971919  0.680239  0.679579  1
  H  H8  1  0.765342  0.938894  0.696329  1
  C  C9  1  0.645858  0.741412  0.433982  1
  C  C10  1  0.354142  0.258588  0.566018  1
  C  C11  1  0.354997  0.565030  0.258873  1
  C  C12  1  0.122500  0.218165  0.218322  1
  C  C13  1  0.645003  0.434970  0.741127  1
  C  C14  1  0.877500  0.781835  0.781678  1
  N  N15  1  0.261512  0.738458  0.147564  1
  N  N16  1  0.260546  0.147848  0.739141  1
  N  N17  1  0.739454  0.852152  0.260859  1
  N  N18  1  0.527939  0.625853  0.625043  1
  N  N19  1  0.472061  0.374147  0.374957  1
  N  N20  1  0.738488  0.261542  0.852436  1
  O  O21  1  0.047204  0.820494  0.820608  1
  O  O22  1  0.952796  0.179506  0.179392  1
