# generated using pymatgen
data_Ba2Cd3Bi4
_symmetry_space_group_name_H-M   'P 1'
_cell_length_a   7.11212225
_cell_length_b   9.43250154
_cell_length_c   9.57007115
_cell_angle_alpha   90.00000000
_cell_angle_beta   111.81318489
_cell_angle_gamma   90.00000000
_symmetry_Int_Tables_number   1
_chemical_formula_structural   Ba2Cd3Bi4
_chemical_formula_sum   'Ba4 Cd6 Bi8'
_cell_volume   596.04157993
_cell_formula_units_Z   2
loop_
 _symmetry_equiv_pos_site_id
 _symmetry_equiv_pos_as_xyz
  1  'x, y, z'
loop_
 _atom_site_type_symbol
 _atom_site_label
 _atom_site_symmetry_multiplicity
 _atom_site_fract_x
 _atom_site_fract_y
 _atom_site_fract_z
 _atom_site_occupancy
  Ba  Ba0  1  0.883603  0.577482  0.767205  1
  Ba  Ba1  1  0.383603  0.922518  0.767205  1
  Ba  Ba2  1  0.616397  0.077482  0.232795  1
  Ba  Ba3  1  0.116397  0.422518  0.232795  1
  Cd  Cd4  1  0.471597  0.750000  0.443193  1
  Cd  Cd5  1  0.528403  0.250000  0.556807  1
  Cd  Cd6  1  0.028403  0.250000  0.556807  1
  Cd  Cd7  1  0.971597  0.750000  0.443193  1
  Cd  Cd8  1  0.500000  0.500000  0.000000  1
  Cd  Cd9  1  0.000000  0.000000  0.000000  1
  Bi  Bi10  1  0.814680  0.948722  0.629361  1
  Bi  Bi11  1  0.685320  0.448722  0.370639  1
  Bi  Bi12  1  0.185320  0.051278  0.370639  1
  Bi  Bi13  1  0.697420  0.250000  0.894840  1
  Bi  Bi14  1  0.802580  0.750000  0.105160  1
  Bi  Bi15  1  0.197420  0.250000  0.894840  1
  Bi  Bi16  1  0.302580  0.750000  0.105160  1
  Bi  Bi17  1  0.314680  0.551278  0.629361  1
