# generated using pymatgen
data_Ba3NaRu2O9
_symmetry_space_group_name_H-M   'P 1'
_cell_length_a   5.94960291
_cell_length_b   5.94960328
_cell_length_c   14.72319856
_cell_angle_alpha   90.00000000
_cell_angle_beta   90.00000000
_cell_angle_gamma   119.99999798
_symmetry_Int_Tables_number   1
_chemical_formula_structural   Ba3NaRu2O9
_chemical_formula_sum   'Ba6 Na2 Ru4 O18'
_cell_volume   451.34516932
_cell_formula_units_Z   2
loop_
 _symmetry_equiv_pos_site_id
 _symmetry_equiv_pos_as_xyz
  1  'x, y, z'
loop_
 _atom_site_type_symbol
 _atom_site_label
 _atom_site_symmetry_multiplicity
 _atom_site_fract_x
 _atom_site_fract_y
 _atom_site_fract_z
 _atom_site_occupancy
  Ba  Ba0  1  0.666667  0.333333  0.092250  1
  Ba  Ba1  1  0.333333  0.666667  0.592250  1
  Ba  Ba2  1  0.333333  0.666667  0.907750  1
  Ba  Ba3  1  0.666667  0.333333  0.407750  1
  Ba  Ba4  1  0.000000  0.000000  0.250000  1
  Ba  Ba5  1  0.000000  0.000000  0.750000  1
  Na  Na6  1  0.000000  0.000000  0.000000  1
  Na  Na7  1  0.000000  0.000000  0.500000  1
  Ru  Ru8  1  0.333333  0.666667  0.155116  1
  Ru  Ru9  1  0.666667  0.333333  0.655116  1
  Ru  Ru10  1  0.666667  0.333333  0.844884  1
  Ru  Ru11  1  0.333333  0.666667  0.344884  1
  O  O12  1  0.177224  0.354449  0.090068  1
  O  O13  1  0.822776  0.177224  0.590068  1
  O  O14  1  0.354449  0.177224  0.590068  1
  O  O15  1  0.645551  0.822776  0.090068  1
  O  O16  1  0.177224  0.822776  0.090068  1
  O  O17  1  0.822776  0.645551  0.909932  1
  O  O18  1  0.822776  0.177224  0.909932  1
  O  O19  1  0.822776  0.645551  0.590068  1
  O  O20  1  0.354449  0.177224  0.909932  1
  O  O21  1  0.645551  0.822776  0.409932  1
  O  O22  1  0.177224  0.354449  0.409932  1
  O  O23  1  0.177224  0.822776  0.409932  1
  O  O24  1  0.034315  0.517158  0.250000  1
  O  O25  1  0.517158  0.034315  0.750000  1
  O  O26  1  0.517158  0.482842  0.750000  1
  O  O27  1  0.482842  0.517158  0.250000  1
  O  O28  1  0.482842  0.965685  0.250000  1
  O  O29  1  0.965685  0.482842  0.750000  1
