# generated using pymatgen
data_AgCl
_symmetry_space_group_name_H-M   'P 1'
_cell_length_a   3.77586969
_cell_length_b   3.94434485
_cell_length_c   6.07432010
_cell_angle_alpha   90.00000000
_cell_angle_beta   108.10780089
_cell_angle_gamma   90.00000000
_symmetry_Int_Tables_number   1
_chemical_formula_structural   AgCl
_chemical_formula_sum   'Ag2 Cl2'
_cell_volume   85.98635277
_cell_formula_units_Z   2
loop_
 _symmetry_equiv_pos_site_id
 _symmetry_equiv_pos_as_xyz
  1  'x, y, z'
loop_
 _atom_site_type_symbol
 _atom_site_label
 _atom_site_symmetry_multiplicity
 _atom_site_fract_x
 _atom_site_fract_y
 _atom_site_fract_z
 _atom_site_occupancy
  Ag  Ag0  1  0.606648  0.250000  0.213295  1
  Ag  Ag1  1  0.393352  0.750000  0.786705  1
  Cl  Cl2  1  0.131747  0.750000  0.263495  1
  Cl  Cl3  1  0.868253  0.250000  0.736505  1
