# generated using pymatgen
data_LiNb3InCl9
_symmetry_space_group_name_H-M   'P 1'
_cell_length_a   9.40361070
_cell_length_b   9.46056379
_cell_length_c   9.47128899
_cell_angle_alpha   119.24997777
_cell_angle_beta   104.87970544
_cell_angle_gamma   96.80534041
_symmetry_Int_Tables_number   1
_chemical_formula_structural   LiNb3InCl9
_chemical_formula_sum   'Li2 Nb6 In2 Cl18'
_cell_volume   680.12406961
_cell_formula_units_Z   2
loop_
 _symmetry_equiv_pos_site_id
 _symmetry_equiv_pos_as_xyz
  1  'x, y, z'
loop_
 _atom_site_type_symbol
 _atom_site_label
 _atom_site_symmetry_multiplicity
 _atom_site_fract_x
 _atom_site_fract_y
 _atom_site_fract_z
 _atom_site_occupancy
  Li  Li0  1  0.617971  0.048023  0.188707  1
  Li  Li1  1  0.382029  0.951977  0.811293  1
  Nb  Nb2  1  0.139468  0.571377  0.246663  1
  Nb  Nb3  1  0.860532  0.428623  0.753337  1
  Nb  Nb4  1  0.132251  0.345257  0.892413  1
  Nb  Nb5  1  0.857814  0.299535  0.978797  1
  Nb  Nb6  1  0.867749  0.654743  0.107587  1
  Nb  Nb7  1  0.142186  0.700465  0.021203  1
  In  In8  1  0.343021  0.268031  0.484317  1
  In  In9  1  0.656979  0.731969  0.515683  1
  Cl  Cl10  1  0.002741  0.652117  0.734319  1
  Cl  Cl11  1  0.679891  0.598171  0.834092  1
  Cl  Cl12  1  0.332586  0.962557  0.057087  1
  Cl  Cl13  1  0.987794  0.081750  0.849461  1
  Cl  Cl14  1  0.008175  0.762989  0.416082  1
  Cl  Cl15  1  0.670032  0.336701  0.439177  1
  Cl  Cl16  1  0.322236  0.555376  0.900323  1
  Cl  Cl17  1  0.320109  0.401829  0.165908  1
  Cl  Cl18  1  0.299891  0.154532  0.752115  1
  Cl  Cl19  1  0.997259  0.347883  0.265681  1
  Cl  Cl20  1  0.677764  0.444624  0.099677  1
  Cl  Cl21  1  0.669210  0.176547  0.681695  1
  Cl  Cl22  1  0.700109  0.845468  0.247885  1
  Cl  Cl23  1  0.012206  0.918250  0.150539  1
  Cl  Cl24  1  0.991825  0.237011  0.583918  1
  Cl  Cl25  1  0.329968  0.663299  0.560823  1
  Cl  Cl26  1  0.667414  0.037443  0.942913  1
  Cl  Cl27  1  0.330790  0.823453  0.318305  1
