# generated using pymatgen
data_PuAl3
_symmetry_space_group_name_H-M   'P 1'
_cell_length_a   7.98779694
_cell_length_b   7.98779745
_cell_length_c   7.98779782
_cell_angle_alpha   45.04936005
_cell_angle_beta   45.04935659
_cell_angle_gamma   45.04935576
_symmetry_Int_Tables_number   1
_chemical_formula_structural   PuAl3
_chemical_formula_sum   'Pu3 Al9'
_cell_volume   232.36531078
_cell_formula_units_Z   3
loop_
 _symmetry_equiv_pos_site_id
 _symmetry_equiv_pos_as_xyz
  1  'x, y, z'
loop_
 _atom_site_type_symbol
 _atom_site_label
 _atom_site_symmetry_multiplicity
 _atom_site_fract_x
 _atom_site_fract_y
 _atom_site_fract_z
 _atom_site_occupancy
  Al  Al0  1  0.500000  0.500000  0.000000  1
  Al  Al1  1  0.000000  0.500000  0.500000  1
  Al  Al2  1  0.500000  0.000000  0.500000  1
  Al  Al3  1  0.289423  0.753310  0.289423  1
  Al  Al4  1  0.289423  0.289423  0.753310  1
  Al  Al5  1  0.753310  0.289423  0.289423  1
  Al  Al6  1  0.246690  0.710577  0.710577  1
  Al  Al7  1  0.710577  0.246690  0.710577  1
  Al  Al8  1  0.710577  0.710577  0.246690  1
  Pu  Pu9  1  0.000000  0.000000  0.000000  1
  Pu  Pu10  1  0.219099  0.219099  0.219099  1
  Pu  Pu11  1  0.780901  0.780901  0.780901  1
