# generated using pymatgen
data_K2CS2(O3F)2
_symmetry_space_group_name_H-M   'P 1'
_cell_length_a   6.15339779
_cell_length_b   10.09605026
_cell_length_c   14.80187320
_cell_angle_alpha   110.01110664
_cell_angle_beta   90.00000000
_cell_angle_gamma   90.00000000
_symmetry_Int_Tables_number   1
_chemical_formula_structural   K2CS2(O3F)2
_chemical_formula_sum   'K8 C4 S8 O24 F8'
_cell_volume   864.04893747
_cell_formula_units_Z   4
loop_
 _symmetry_equiv_pos_site_id
 _symmetry_equiv_pos_as_xyz
  1  'x, y, z'
loop_
 _atom_site_type_symbol
 _atom_site_label
 _atom_site_symmetry_multiplicity
 _atom_site_fract_x
 _atom_site_fract_y
 _atom_site_fract_z
 _atom_site_occupancy
  K  K0  1  0.275592  0.959566  0.665034  1
  K  K1  1  0.268892  0.722470  0.345787  1
  K  K2  1  0.731108  0.277530  0.654213  1
  K  K3  1  0.768892  0.277530  0.154213  1
  K  K4  1  0.224408  0.959566  0.165034  1
  K  K5  1  0.231108  0.722470  0.845787  1
  K  K6  1  0.724408  0.040434  0.334966  1
  K  K7  1  0.775592  0.040434  0.834966  1
  C  C8  1  0.300476  0.308345  0.448238  1
  C  C9  1  0.699524  0.691655  0.551762  1
  C  C10  1  0.199524  0.308345  0.948238  1
  C  C11  1  0.800476  0.691655  0.051762  1
  S  S12  1  0.212495  0.145684  0.472940  1
  S  S13  1  0.741338  0.698606  0.679297  1
  S  S14  1  0.258662  0.301394  0.320703  1
  S  S15  1  0.241338  0.301394  0.820703  1
  S  S16  1  0.787505  0.854316  0.527060  1
  S  S17  1  0.758662  0.698606  0.179297  1
  S  S18  1  0.287505  0.145684  0.972940  1
  S  S19  1  0.712495  0.854316  0.027060  1
  O  O20  1  0.954352  0.766242  0.706656  1
  O  O21  1  0.159684  0.150369  0.057221  1
  O  O22  1  0.940661  0.786983  0.231062  1
  O  O23  1  0.978461  0.164162  0.490459  1
  O  O24  1  0.769355  0.970520  0.115497  1
  O  O25  1  0.045648  0.233758  0.293344  1
  O  O26  1  0.840316  0.849631  0.942779  1
  O  O27  1  0.340316  0.150369  0.557221  1
  O  O28  1  0.454352  0.233758  0.793344  1
  O  O29  1  0.659684  0.849631  0.442779  1
  O  O30  1  0.730645  0.970520  0.615497  1
  O  O31  1  0.230647  0.447065  0.824524  1
  O  O32  1  0.545648  0.766242  0.206656  1
  O  O33  1  0.521539  0.164162  0.990459  1
  O  O34  1  0.478461  0.835838  0.009541  1
  O  O35  1  0.269353  0.447065  0.324524  1
  O  O36  1  0.769353  0.552935  0.175476  1
  O  O37  1  0.730647  0.552935  0.675476  1
  O  O38  1  0.059339  0.213017  0.768938  1
  O  O39  1  0.230645  0.029480  0.884503  1
  O  O40  1  0.269355  0.029480  0.384503  1
  O  O41  1  0.559339  0.786983  0.731062  1
  O  O42  1  0.440661  0.213017  0.268939  1
  O  O43  1  0.021539  0.835838  0.509541  1
  F  F44  1  0.979582  0.325625  0.967286  1
  F  F45  1  0.520418  0.325625  0.467286  1
  F  F46  1  0.803833  0.578282  0.489806  1
  F  F47  1  0.020418  0.674375  0.032714  1
  F  F48  1  0.196167  0.421718  0.510194  1
  F  F49  1  0.303833  0.421718  0.010194  1
  F  F50  1  0.696167  0.578282  0.989806  1
  F  F51  1  0.479582  0.674375  0.532714  1
