# generated using pymatgen
data_KC2N3
_symmetry_space_group_name_H-M   'P 1'
_cell_length_a   6.63263514
_cell_length_b   7.43165501
_cell_length_c   8.44381423
_cell_angle_alpha   90.00000000
_cell_angle_beta   90.00000000
_cell_angle_gamma   90.00000000
_symmetry_Int_Tables_number   1
_chemical_formula_structural   KC2N3
_chemical_formula_sum   'K4 C8 N12'
_cell_volume   416.20789901
_cell_formula_units_Z   4
loop_
 _symmetry_equiv_pos_site_id
 _symmetry_equiv_pos_as_xyz
  1  'x, y, z'
loop_
 _atom_site_type_symbol
 _atom_site_label
 _atom_site_symmetry_multiplicity
 _atom_site_fract_x
 _atom_site_fract_y
 _atom_site_fract_z
 _atom_site_occupancy
  K  K0  1  0.750000  0.500000  0.317884  1
  K  K1  1  0.750000  0.000000  0.317884  1
  K  K2  1  0.250000  0.500000  0.682116  1
  K  K3  1  0.250000  0.000000  0.682116  1
  C  C4  1  0.143278  0.250000  0.063222  1
  C  C5  1  0.764640  0.250000  0.680614  1
  C  C6  1  0.356722  0.750000  0.063222  1
  C  C7  1  0.235360  0.750000  0.319386  1
  C  C8  1  0.264640  0.250000  0.319386  1
  C  C9  1  0.856723  0.750000  0.936778  1
  C  C10  1  0.735360  0.750000  0.680614  1
  C  C11  1  0.643277  0.250000  0.936778  1
  N  N12  1  0.382510  0.250000  0.425098  1
  N  N13  1  0.854787  0.750000  0.076522  1
  N  N14  1  0.380735  0.750000  0.216610  1
  N  N15  1  0.117490  0.750000  0.425098  1
  N  N16  1  0.880735  0.750000  0.783390  1
  N  N17  1  0.145213  0.250000  0.923478  1
  N  N18  1  0.617490  0.750000  0.574902  1
  N  N19  1  0.354787  0.750000  0.923478  1
  N  N20  1  0.882510  0.250000  0.574902  1
  N  N21  1  0.119265  0.250000  0.216610  1
  N  N22  1  0.619265  0.250000  0.783390  1
  N  N23  1  0.645213  0.250000  0.076522  1
