# generated using pymatgen
data_YbNbO4
_symmetry_space_group_name_H-M   'P 1'
_cell_length_a   5.19098317
_cell_length_b   5.43279955
_cell_length_c   6.54365271
_cell_angle_alpha   113.25099498
_cell_angle_beta   112.03793513
_cell_angle_gamma   92.95677720
_symmetry_Int_Tables_number   1
_chemical_formula_structural   YbNbO4
_chemical_formula_sum   'Yb2 Nb2 O8'
_cell_volume   152.78330793
_cell_formula_units_Z   2
loop_
 _symmetry_equiv_pos_site_id
 _symmetry_equiv_pos_as_xyz
  1  'x, y, z'
loop_
 _atom_site_type_symbol
 _atom_site_label
 _atom_site_symmetry_multiplicity
 _atom_site_fract_x
 _atom_site_fract_y
 _atom_site_fract_z
 _atom_site_occupancy
  O  O0  1  0.770923  0.957292  0.565494  1
  O  O1  1  0.294550  0.608093  0.565409  1
  O  O2  1  0.229078  0.042703  0.434504  1
  O  O3  1  0.705453  0.391904  0.434593  1
  O  O4  1  0.069446  0.265534  0.056813  1
  O  O5  1  0.487394  0.791371  0.056831  1
  O  O6  1  0.512608  0.208631  0.943170  1
  O  O7  1  0.930555  0.734467  0.943186  1
  Nb  Nb8  1  0.639362  0.889329  0.778715  1
  Nb  Nb9  1  0.360626  0.110684  0.221285  1
  Yb  Yb10  1  0.123112  0.373085  0.746195  1
  Yb  Yb11  1  0.876895  0.626907  0.253805  1
