# generated using pymatgen
data_NaMg4V3O12
_symmetry_space_group_name_H-M   'P 1'
_cell_length_a   6.97067868
_cell_length_b   6.97067857
_cell_length_c   10.92372305
_cell_angle_alpha   108.60617756
_cell_angle_beta   108.60617723
_cell_angle_gamma   90.00000173
_symmetry_Int_Tables_number   1
_chemical_formula_structural   NaMg4V3O12
_chemical_formula_sum   'Na2 Mg8 V6 O24'
_cell_volume   473.68136341
_cell_formula_units_Z   2
loop_
 _symmetry_equiv_pos_site_id
 _symmetry_equiv_pos_as_xyz
  1  'x, y, z'
loop_
 _atom_site_type_symbol
 _atom_site_label
 _atom_site_symmetry_multiplicity
 _atom_site_fract_x
 _atom_site_fract_y
 _atom_site_fract_z
 _atom_site_occupancy
  V  V0  1  0.000000  0.000000  0.000000  1
  V  V1  1  0.750000  0.250000  0.500000  1
  V  V2  1  0.375000  0.473329  0.250000  1
  V  V3  1  0.223329  0.625000  0.750000  1
  V  V4  1  0.526671  0.125000  0.750000  1
  V  V5  1  0.875000  0.776671  0.250000  1
  Mg  Mg6  1  0.225719  0.225719  0.451438  1
  Mg  Mg7  1  0.774281  0.774281  0.548562  1
  Mg  Mg8  1  0.524281  0.024281  0.048562  1
  Mg  Mg9  1  0.975719  0.475719  0.951438  1
  Mg  Mg10  1  0.875000  0.366279  0.250000  1
  Mg  Mg11  1  0.116279  0.125000  0.750000  1
  Mg  Mg12  1  0.633721  0.625000  0.750000  1
  Mg  Mg13  1  0.375000  0.883721  0.250000  1
  Na  Na14  1  0.500000  0.500000  0.000000  1
  Na  Na15  1  0.250000  0.750000  0.500000  1
  O  O16  1  0.837580  0.100715  0.091433  1
  O  O17  1  0.009282  0.162420  0.908567  1
  O  O18  1  0.899285  0.746147  0.908567  1
  O  O19  1  0.496147  0.149285  0.408567  1
  O  O20  1  0.912420  0.259282  0.408567  1
  O  O21  1  0.253853  0.990718  0.091433  1
  O  O22  1  0.740718  0.503853  0.591433  1
  O  O23  1  0.850715  0.087580  0.591433  1
  O  O24  1  0.556466  0.326252  0.195905  1
  O  O25  1  0.130347  0.443534  0.804095  1
  O  O26  1  0.673748  0.360561  0.804095  1
  O  O27  1  0.110561  0.923748  0.304095  1
  O  O28  1  0.193534  0.380347  0.304095  1
  O  O29  1  0.639439  0.869653  0.195905  1
  O  O30  1  0.619653  0.889439  0.695905  1
  O  O31  1  0.076252  0.806466  0.695905  1
  O  O32  1  0.859839  0.549456  0.117637  1
  O  O33  1  0.431819  0.140161  0.882363  1
  O  O34  1  0.450544  0.742202  0.882363  1
  O  O35  1  0.492202  0.700544  0.382363  1
  O  O36  1  0.890161  0.681819  0.382363  1
  O  O37  1  0.257798  0.568181  0.117637  1
  O  O38  1  0.318181  0.507798  0.617637  1
  O  O39  1  0.299456  0.109839  0.617637  1
