# generated using pymatgen
data_Cs3MnCl5
_symmetry_space_group_name_H-M   'P 1'
_cell_length_a   9.42863327
_cell_length_b   9.42863378
_cell_length_c   10.02835895
_cell_angle_alpha   118.04069269
_cell_angle_beta   118.04069420
_cell_angle_gamma   89.99999821
_symmetry_Int_Tables_number   1
_chemical_formula_structural   Cs3MnCl5
_chemical_formula_sum   'Cs6 Mn2 Cl10'
_cell_volume   665.96317335
_cell_formula_units_Z   2
loop_
 _symmetry_equiv_pos_site_id
 _symmetry_equiv_pos_as_xyz
  1  'x, y, z'
loop_
 _atom_site_type_symbol
 _atom_site_label
 _atom_site_symmetry_multiplicity
 _atom_site_fract_x
 _atom_site_fract_y
 _atom_site_fract_z
 _atom_site_occupancy
  Cs  Cs0  1  0.665182  0.834818  1.000000  1
  Cs  Cs1  1  0.165182  0.665182  0.000000  1
  Cs  Cs2  1  0.334818  0.165182  0.000000  1
  Cs  Cs3  1  0.250000  0.250000  0.500000  1
  Cs  Cs4  1  0.834818  0.334818  0.000000  1
  Cs  Cs5  1  0.750000  0.750000  0.500000  1
  Mn  Mn6  1  0.750000  0.250000  0.500000  1
  Mn  Mn7  1  0.250000  0.750000  0.500000  1
  Cl  Cl8  1  0.500000  0.500000  0.000000  1
  Cl  Cl9  1  0.015213  0.796985  0.312198  1
  Cl  Cl10  1  0.796985  0.296985  0.312198  1
  Cl  Cl11  1  0.203015  0.703015  0.687802  1
  Cl  Cl12  1  0.484787  0.984787  0.687802  1
  Cl  Cl13  1  0.296985  0.515213  0.312198  1
  Cl  Cl14  1  0.703015  0.484787  0.687802  1
  Cl  Cl15  1  0.984787  0.203015  0.687802  1
  Cl  Cl16  1  0.515213  0.015213  0.312198  1
  Cl  Cl17  1  0.000000  0.000000  0.000000  1
