# generated using pymatgen
data_Cs3Sm(PS4)2
_symmetry_space_group_name_H-M   'P 1'
_cell_length_a   7.02327450
_cell_length_b   15.65281155
_cell_length_c   15.82096853
_cell_angle_alpha   99.80489527
_cell_angle_beta   90.00000000
_cell_angle_gamma   90.00000000
_symmetry_Int_Tables_number   1
_chemical_formula_structural   Cs3Sm(PS4)2
_chemical_formula_sum   'Cs12 Sm4 P8 S32'
_cell_volume   1713.85744106
_cell_formula_units_Z   4
loop_
 _symmetry_equiv_pos_site_id
 _symmetry_equiv_pos_as_xyz
  1  'x, y, z'
loop_
 _atom_site_type_symbol
 _atom_site_label
 _atom_site_symmetry_multiplicity
 _atom_site_fract_x
 _atom_site_fract_y
 _atom_site_fract_z
 _atom_site_occupancy
  Cs  Cs0  1  0.258375  0.722964  0.878306  1
  Cs  Cs1  1  0.253631  0.546919  0.610417  1
  Cs  Cs2  1  0.753631  0.953081  0.889583  1
  Cs  Cs3  1  0.758375  0.777036  0.621694  1
  Cs  Cs4  1  0.755560  0.607795  0.024891  1
  Cs  Cs5  1  0.746369  0.453081  0.389583  1
  Cs  Cs6  1  0.244440  0.392205  0.975109  1
  Cs  Cs7  1  0.241625  0.222964  0.378306  1
  Cs  Cs8  1  0.255560  0.892205  0.475109  1
  Cs  Cs9  1  0.744440  0.107795  0.524891  1
  Cs  Cs10  1  0.246369  0.046919  0.110417  1
  Cs  Cs11  1  0.741625  0.277036  0.121694  1
  Sm  Sm12  1  0.231606  0.123566  0.770120  1
  Sm  Sm13  1  0.731606  0.376434  0.729880  1
  Sm  Sm14  1  0.268394  0.623566  0.270120  1
  Sm  Sm15  1  0.768394  0.876434  0.229880  1
  P  P16  1  0.255084  0.918315  0.725086  1
  P  P17  1  0.725541  0.717608  0.368659  1
  P  P18  1  0.244916  0.418315  0.225086  1
  P  P19  1  0.274459  0.282392  0.631341  1
  P  P20  1  0.755084  0.581685  0.774914  1
  P  P21  1  0.225541  0.782392  0.131341  1
  P  P22  1  0.744916  0.081685  0.274914  1
  P  P23  1  0.774459  0.217608  0.868659  1
  S  S24  1  0.013804  0.484191  0.187770  1
  S  S25  1  0.751024  0.849485  0.405529  1
  S  S26  1  0.494020  0.669527  0.425316  1
  S  S27  1  0.660565  0.698438  0.239408  1
  S  S28  1  0.513804  0.015809  0.312230  1
  S  S29  1  0.738726  0.209383  0.325097  1
  S  S30  1  0.505980  0.330473  0.574684  1
  S  S31  1  0.985970  0.022226  0.313841  1
  S  S32  1  0.748570  0.049220  0.143332  1
  S  S33  1  0.532494  0.157286  0.901268  1
  S  S34  1  0.994020  0.830473  0.074684  1
  S  S35  1  0.514030  0.522226  0.813841  1
  S  S36  1  0.486196  0.984191  0.687770  1
  S  S37  1  0.467506  0.842714  0.098732  1
  S  S38  1  0.261274  0.790617  0.674903  1
  S  S39  1  0.339435  0.301562  0.760592  1
  S  S40  1  0.014030  0.977774  0.686159  1
  S  S41  1  0.485970  0.477774  0.186159  1
  S  S42  1  0.160565  0.801562  0.260592  1
  S  S43  1  0.967506  0.657286  0.401268  1
  S  S44  1  0.032494  0.342714  0.598732  1
  S  S45  1  0.839435  0.198438  0.739408  1
  S  S46  1  0.251024  0.650515  0.094471  1
  S  S47  1  0.238726  0.290617  0.174903  1
  S  S48  1  0.748976  0.349485  0.905529  1
  S  S49  1  0.751430  0.549220  0.643332  1
  S  S50  1  0.986196  0.515809  0.812230  1
  S  S51  1  0.248570  0.450780  0.356668  1
  S  S52  1  0.005980  0.169527  0.925316  1
  S  S53  1  0.761274  0.709383  0.825097  1
  S  S54  1  0.251430  0.950780  0.856668  1
  S  S55  1  0.248976  0.150515  0.594471  1
