# generated using pymatgen
data_Fe3B7IO13
_symmetry_space_group_name_H-M   'P 1'
_cell_length_a   8.76254836
_cell_length_b   8.75888910
_cell_length_c   12.38782511
_cell_angle_alpha   90.00000000
_cell_angle_beta   90.00000000
_cell_angle_gamma   90.00000000
_symmetry_Int_Tables_number   1
_chemical_formula_structural   Fe3B7IO13
_chemical_formula_sum   'Fe12 B28 I4 O52'
_cell_volume   950.76792244
_cell_formula_units_Z   4
loop_
 _symmetry_equiv_pos_site_id
 _symmetry_equiv_pos_as_xyz
  1  'x, y, z'
loop_
 _atom_site_type_symbol
 _atom_site_label
 _atom_site_symmetry_multiplicity
 _atom_site_fract_x
 _atom_site_fract_y
 _atom_site_fract_z
 _atom_site_occupancy
  Fe  Fe0  1  0.019800  0.999224  0.989516  1
  Fe  Fe1  1  0.019800  0.500776  0.489516  1
  Fe  Fe2  1  0.482176  0.501754  0.492375  1
  Fe  Fe3  1  0.482176  0.998246  0.992375  1
  Fe  Fe4  1  0.251355  0.757980  0.257848  1
  Fe  Fe5  1  0.517824  0.001754  0.492375  1
  Fe  Fe6  1  0.748645  0.257980  0.257848  1
  Fe  Fe7  1  0.748645  0.242020  0.757848  1
  Fe  Fe8  1  0.980200  0.000776  0.489516  1
  Fe  Fe9  1  0.980200  0.499224  0.989516  1
  Fe  Fe10  1  0.251355  0.742020  0.757848  1
  Fe  Fe11  1  0.517824  0.498246  0.992375  1
  B  B12  1  0.503542  0.998815  0.243989  1
  B  B13  1  0.496458  0.001185  0.743989  1
  B  B14  1  0.248655  0.451410  0.144055  1
  B  B15  1  0.755014  0.756750  0.996031  1
  B  B16  1  0.755014  0.743250  0.496031  1
  B  B17  1  0.503542  0.501185  0.743989  1
  B  B18  1  0.599823  0.756074  0.823482  1
  B  B19  1  0.903662  0.742981  0.322610  1
  B  B20  1  0.751345  0.951410  0.144055  1
  B  B21  1  0.750165  0.906832  0.671168  1
  B  B22  1  0.750165  0.593168  0.171168  1
  B  B23  1  0.002746  0.498698  0.242668  1
  B  B24  1  0.997254  0.998698  0.242668  1
  B  B25  1  0.244986  0.256750  0.996031  1
  B  B26  1  0.496458  0.498815  0.243989  1
  B  B27  1  0.997254  0.501302  0.742668  1
  B  B28  1  0.096338  0.257019  0.822610  1
  B  B29  1  0.400177  0.243926  0.323482  1
  B  B30  1  0.599823  0.743926  0.323482  1
  B  B31  1  0.244986  0.243250  0.496031  1
  B  B32  1  0.751345  0.548590  0.644055  1
  B  B33  1  0.400177  0.256074  0.823482  1
  B  B34  1  0.249835  0.093168  0.171168  1
  B  B35  1  0.002746  0.001302  0.742668  1
  B  B36  1  0.903662  0.757019  0.822610  1
  B  B37  1  0.249835  0.406832  0.671168  1
  B  B38  1  0.248655  0.048590  0.644055  1
  B  B39  1  0.096338  0.242981  0.322610  1
  I  I40  1  0.748903  0.245173  0.489980  1
  I  I41  1  0.251097  0.754827  0.989980  1
  I  I42  1  0.251097  0.745173  0.489980  1
  I  I43  1  0.748903  0.254827  0.989980  1
  O  O44  1  0.359692  0.315640  0.426013  1
  O  O45  1  0.750587  0.773728  0.755431  1
  O  O46  1  0.512392  0.334958  0.264349  1
  O  O47  1  0.323628  0.121153  0.560430  1
  O  O48  1  0.460315  0.412144  0.840577  1
  O  O49  1  0.407559  0.045913  0.151461  1
  O  O50  1  0.124571  0.174245  0.429078  1
  O  O51  1  0.821945  0.859039  0.569404  1
  O  O52  1  0.875429  0.825755  0.929078  1
  O  O53  1  0.667922  0.462285  0.717599  1
  O  O54  1  0.178055  0.359039  0.569404  1
  O  O55  1  0.124571  0.325755  0.929078  1
  O  O56  1  0.943906  0.905087  0.334137  1
  O  O57  1  0.592441  0.954087  0.651461  1
  O  O58  1  0.487608  0.834958  0.264349  1
  O  O59  1  0.023329  0.838649  0.766020  1
  O  O60  1  0.091250  0.460755  0.142773  1
  O  O61  1  0.460315  0.087856  0.340577  1
  O  O62  1  0.249413  0.273728  0.755431  1
  O  O63  1  0.640308  0.684360  0.926013  1
  O  O64  1  0.943906  0.594913  0.834137  1
  O  O65  1  0.676372  0.878847  0.060430  1
  O  O66  1  0.676372  0.621153  0.560430  1
  O  O67  1  0.160523  0.967025  0.219405  1
  O  O68  1  0.091250  0.039245  0.642773  1
  O  O69  1  0.821945  0.640961  0.069404  1
  O  O70  1  0.407559  0.454087  0.651461  1
  O  O71  1  0.539685  0.912144  0.840577  1
  O  O72  1  0.976671  0.161351  0.266020  1
  O  O73  1  0.592441  0.545913  0.151461  1
  O  O74  1  0.323628  0.378847  0.060430  1
  O  O75  1  0.750587  0.726272  0.255431  1
  O  O76  1  0.667922  0.037715  0.217599  1
  O  O77  1  0.056094  0.405087  0.334137  1
  O  O78  1  0.178055  0.140961  0.069404  1
  O  O79  1  0.487608  0.665042  0.764349  1
  O  O80  1  0.908750  0.539245  0.642773  1
  O  O81  1  0.640308  0.815640  0.426013  1
  O  O82  1  0.839477  0.032975  0.719405  1
  O  O83  1  0.359692  0.184360  0.926013  1
  O  O84  1  0.539685  0.587856  0.340577  1
  O  O85  1  0.023329  0.661351  0.266020  1
  O  O86  1  0.332078  0.537715  0.217599  1
  O  O87  1  0.056094  0.094913  0.834137  1
  O  O88  1  0.908750  0.960755  0.142773  1
  O  O89  1  0.839477  0.467025  0.219405  1
  O  O90  1  0.512392  0.165042  0.764349  1
  O  O91  1  0.875429  0.674245  0.429078  1
  O  O92  1  0.332078  0.962285  0.717599  1
  O  O93  1  0.976671  0.338649  0.766020  1
  O  O94  1  0.160523  0.532975  0.719405  1
  O  O95  1  0.249413  0.226272  0.255431  1
