# generated using pymatgen
data_Ce4Al23Ni6
_symmetry_space_group_name_H-M   'P 1'
_cell_length_a   4.11502397
_cell_length_b   8.25992860
_cell_length_c   16.96657429
_cell_angle_alpha   85.73841184
_cell_angle_beta   83.03712077
_cell_angle_gamma   75.57072149
_symmetry_Int_Tables_number   1
_chemical_formula_structural   Ce4Al23Ni6
_chemical_formula_sum   'Ce4 Al23 Ni6'
_cell_volume   553.79667940
_cell_formula_units_Z   1
loop_
 _symmetry_equiv_pos_site_id
 _symmetry_equiv_pos_as_xyz
  1  'x, y, z'
loop_
 _atom_site_type_symbol
 _atom_site_label
 _atom_site_symmetry_multiplicity
 _atom_site_fract_x
 _atom_site_fract_y
 _atom_site_fract_z
 _atom_site_occupancy
  Ce  Ce0  1  0.734801  0.812577  0.717749  1
  Ce  Ce1  1  0.570200  0.766905  0.092698  1
  Ce  Ce2  1  0.429800  0.233095  0.907302  1
  Ce  Ce3  1  0.265199  0.187423  0.282251  1
  Al  Al4  1  0.857349  0.927933  0.357572  1
  Al  Al5  1  0.431528  0.697651  0.439377  1
  Al  Al6  1  0.917930  0.977573  0.186799  1
  Al  Al7  1  0.468161  0.782984  0.280826  1
  Al  Al8  1  0.744042  0.965698  0.546081  1
  Al  Al9  1  0.202742  0.615838  0.978445  1
  Al  Al10  1  0.910967  0.399835  0.778251  1
  Al  Al11  1  0.082070  0.022427  0.813201  1
  Al  Al12  1  0.376867  0.150415  0.095941  1
  Al  Al13  1  0.391693  0.555985  0.660754  1
  Al  Al14  1  0.568472  0.302349  0.560623  1
  Al  Al15  1  0.723111  0.376202  0.177413  1
  Al  Al16  1  0.255958  0.034302  0.453919  1
  Al  Al17  1  0.531839  0.217016  0.719174  1
  Al  Al18  1  0.000000  0.000000  0.000000  1
  Al  Al19  1  0.089034  0.600165  0.221749  1
  Al  Al20  1  0.623133  0.849585  0.904059  1
  Al  Al21  1  0.276889  0.623798  0.822587  1
  Al  Al22  1  0.797258  0.384162  0.021555  1
  Al  Al23  1  0.089995  0.367462  0.452307  1
  Al  Al24  1  0.910005  0.632538  0.547693  1
  Al  Al25  1  0.142651  0.072067  0.642428  1
  Al  Al26  1  0.608307  0.444015  0.339246  1
  Ni  Ni27  1  0.992373  0.382002  0.633329  1
  Ni  Ni28  1  0.225986  0.445560  0.102494  1
  Ni  Ni29  1  0.690461  0.186824  0.432339  1
  Ni  Ni30  1  0.774014  0.554440  0.897506  1
  Ni  Ni31  1  0.309539  0.813176  0.567661  1
  Ni  Ni32  1  0.007627  0.617998  0.366671  1
