# generated using pymatgen
data_FeS4N4Cl3
_symmetry_space_group_name_H-M   'P 1'
_cell_length_a   6.62154735
_cell_length_b   13.23968709
_cell_length_c   13.61238289
_cell_angle_alpha   90.00000000
_cell_angle_beta   90.00000000
_cell_angle_gamma   99.69514851
_symmetry_Int_Tables_number   1
_chemical_formula_structural   FeS4N4Cl3
_chemical_formula_sum   'Fe4 S16 N16 Cl12'
_cell_volume   1176.31581474
_cell_formula_units_Z   4
loop_
 _symmetry_equiv_pos_site_id
 _symmetry_equiv_pos_as_xyz
  1  'x, y, z'
loop_
 _atom_site_type_symbol
 _atom_site_label
 _atom_site_symmetry_multiplicity
 _atom_site_fract_x
 _atom_site_fract_y
 _atom_site_fract_z
 _atom_site_occupancy
  Fe  Fe0  1  0.222562  0.189050  0.010602  1
  Fe  Fe1  1  0.777438  0.810950  0.989398  1
  Fe  Fe2  1  0.777438  0.310950  0.510602  1
  Fe  Fe3  1  0.222562  0.689050  0.489398  1
  S  S4  1  0.878498  0.822184  0.409616  1
  S  S5  1  0.878498  0.322184  0.090384  1
  S  S6  1  0.766214  0.530025  0.837230  1
  S  S7  1  0.038505  0.826734  0.783913  1
  S  S8  1  0.038505  0.326734  0.716087  1
  S  S9  1  0.961495  0.673266  0.283913  1
  S  S10  1  0.961495  0.173266  0.216087  1
  S  S11  1  0.121502  0.677816  0.909616  1
  S  S12  1  0.233786  0.969975  0.337230  1
  S  S13  1  0.766214  0.030025  0.662770  1
  S  S14  1  0.121502  0.177816  0.590384  1
  S  S15  1  0.669904  0.193399  0.795661  1
  S  S16  1  0.330096  0.306601  0.295661  1
  S  S17  1  0.330096  0.806601  0.204339  1
  S  S18  1  0.233786  0.469975  0.162770  1
  S  S19  1  0.669904  0.693399  0.704339  1
  N  N20  1  0.017769  0.928621  0.381870  1
  N  N21  1  0.008942  0.724898  0.395595  1
  N  N22  1  0.991058  0.775102  0.895595  1
  N  N23  1  0.991058  0.275102  0.604405  1
  N  N24  1  0.861613  0.780665  0.709047  1
  N  N25  1  0.363534  0.892629  0.287465  1
  N  N26  1  0.982231  0.071379  0.618130  1
  N  N27  1  0.861613  0.280665  0.790953  1
  N  N28  1  0.138387  0.719335  0.209047  1
  N  N29  1  0.008942  0.224898  0.104405  1
  N  N30  1  0.363534  0.392629  0.212535  1
  N  N31  1  0.138387  0.219335  0.290953  1
  N  N32  1  0.636466  0.107371  0.712535  1
  N  N33  1  0.636466  0.607371  0.787465  1
  N  N34  1  0.982231  0.571379  0.881870  1
  N  N35  1  0.017769  0.428621  0.118130  1
  Cl  Cl36  1  0.097317  0.086048  0.891234  1
  Cl  Cl37  1  0.636919  0.661872  0.050623  1
  Cl  Cl38  1  0.363081  0.338128  0.949377  1
  Cl  Cl39  1  0.902683  0.913952  0.108766  1
  Cl  Cl40  1  0.902683  0.413952  0.391234  1
  Cl  Cl41  1  0.438431  0.120332  0.100074  1
  Cl  Cl42  1  0.636919  0.161872  0.449377  1
  Cl  Cl43  1  0.363081  0.838128  0.550623  1
  Cl  Cl44  1  0.561569  0.879668  0.899926  1
  Cl  Cl45  1  0.438431  0.620332  0.399926  1
  Cl  Cl46  1  0.097317  0.586048  0.608766  1
  Cl  Cl47  1  0.561569  0.379668  0.600074  1
