# generated using pymatgen
data_SeS4N3Cl5
_symmetry_space_group_name_H-M   'P 1'
_cell_length_a   7.69486261
_cell_length_b   10.15885995
_cell_length_c   17.11220170
_cell_angle_alpha   90.00000000
_cell_angle_beta   90.00000000
_cell_angle_gamma   90.00000000
_symmetry_Int_Tables_number   1
_chemical_formula_structural   SeS4N3Cl5
_chemical_formula_sum   'Se4 S16 N12 Cl20'
_cell_volume   1337.67845966
_cell_formula_units_Z   4
loop_
 _symmetry_equiv_pos_site_id
 _symmetry_equiv_pos_as_xyz
  1  'x, y, z'
loop_
 _atom_site_type_symbol
 _atom_site_label
 _atom_site_symmetry_multiplicity
 _atom_site_fract_x
 _atom_site_fract_y
 _atom_site_fract_z
 _atom_site_occupancy
  Se  Se0  1  0.883749  0.930958  0.012735  1
  Se  Se1  1  0.383749  0.569042  0.987265  1
  Se  Se2  1  0.616251  0.069042  0.512735  1
  Se  Se3  1  0.116251  0.430958  0.487265  1
  S  S4  1  0.752293  0.670685  0.256397  1
  S  S5  1  0.887384  0.590664  0.813085  1
  S  S6  1  0.301815  0.186839  0.825496  1
  S  S7  1  0.247707  0.170685  0.243603  1
  S  S8  1  0.607835  0.398691  0.657407  1
  S  S9  1  0.112616  0.090664  0.686915  1
  S  S10  1  0.747707  0.329315  0.756397  1
  S  S11  1  0.612616  0.409336  0.313085  1
  S  S12  1  0.387384  0.909336  0.186915  1
  S  S13  1  0.698185  0.686839  0.674504  1
  S  S14  1  0.892165  0.601309  0.157407  1
  S  S15  1  0.801815  0.313161  0.174504  1
  S  S16  1  0.107835  0.101309  0.342593  1
  S  S17  1  0.392165  0.898691  0.842593  1
  S  S18  1  0.252293  0.829315  0.743603  1
  S  S19  1  0.198185  0.813161  0.325496  1
  N  N20  1  0.181508  0.191101  0.750415  1
  N  N21  1  0.160304  0.943497  0.697750  1
  N  N22  1  0.376619  0.051361  0.850070  1
  N  N23  1  0.660304  0.556503  0.302250  1
  N  N24  1  0.318492  0.808899  0.250415  1
  N  N25  1  0.681508  0.308899  0.249585  1
  N  N26  1  0.839696  0.443497  0.802250  1
  N  N27  1  0.818492  0.691101  0.749585  1
  N  N28  1  0.876619  0.448639  0.149930  1
  N  N29  1  0.339696  0.056503  0.197750  1
  N  N30  1  0.123381  0.948639  0.350070  1
  N  N31  1  0.623381  0.551361  0.649930  1
  Cl  Cl32  1  0.106585  0.396657  0.338415  1
  Cl  Cl33  1  0.568420  0.392832  0.972114  1
  Cl  Cl34  1  0.112484  0.456479  0.622227  1
  Cl  Cl35  1  0.612484  0.043521  0.377773  1
  Cl  Cl36  1  0.931580  0.607168  0.472114  1
  Cl  Cl37  1  0.606585  0.103343  0.661585  1
  Cl  Cl38  1  0.646142  0.054931  0.026266  1
  Cl  Cl39  1  0.353858  0.554931  0.473734  1
  Cl  Cl40  1  0.431580  0.892832  0.527886  1
  Cl  Cl41  1  0.893415  0.896657  0.161585  1
  Cl  Cl42  1  0.393415  0.603343  0.838415  1
  Cl  Cl43  1  0.306113  0.223071  0.504273  1
  Cl  Cl44  1  0.068420  0.107168  0.027886  1
  Cl  Cl45  1  0.387516  0.543521  0.122227  1
  Cl  Cl46  1  0.146142  0.445069  0.973734  1
  Cl  Cl47  1  0.806113  0.276929  0.495727  1
  Cl  Cl48  1  0.887516  0.956479  0.877773  1
  Cl  Cl49  1  0.193887  0.776929  0.004273  1
  Cl  Cl50  1  0.693887  0.723071  0.995727  1
  Cl  Cl51  1  0.853858  0.945069  0.526266  1
