# generated using pymatgen
data_Bi6Rh12O29
_symmetry_space_group_name_H-M   'P 1'
_cell_length_a   9.63526128
_cell_length_b   11.86016702
_cell_length_c   11.86016781
_cell_angle_alpha   63.54672902
_cell_angle_beta   84.10383195
_cell_angle_gamma   84.10383020
_symmetry_Int_Tables_number   1
_chemical_formula_structural   Bi6Rh12O29
_chemical_formula_sum   'Bi12 Rh24 O58'
_cell_volume   1204.53325449
_cell_formula_units_Z   2
loop_
 _symmetry_equiv_pos_site_id
 _symmetry_equiv_pos_as_xyz
  1  'x, y, z'
loop_
 _atom_site_type_symbol
 _atom_site_label
 _atom_site_symmetry_multiplicity
 _atom_site_fract_x
 _atom_site_fract_y
 _atom_site_fract_z
 _atom_site_occupancy
  Bi  Bi0  1  0.671014  0.428870  0.428870  1
  Bi  Bi1  1  0.314772  0.891487  0.891487  1
  Bi  Bi2  1  0.642794  0.753024  0.420403  1
  Bi  Bi3  1  0.642794  0.420403  0.753024  1
  Bi  Bi4  1  0.657233  0.098961  0.768998  1
  Bi  Bi5  1  0.685228  0.108513  0.108513  1
  Bi  Bi6  1  0.342767  0.901039  0.231002  1
  Bi  Bi7  1  0.657233  0.768998  0.098961  1
  Bi  Bi8  1  0.328986  0.571130  0.571130  1
  Bi  Bi9  1  0.357206  0.579597  0.246976  1
  Bi  Bi10  1  0.357206  0.246976  0.579597  1
  Bi  Bi11  1  0.342767  0.231002  0.901039  1
  Rh  Rh12  1  0.005312  0.114296  0.617299  1
  Rh  Rh13  1  0.987662  0.633890  0.633890  1
  Rh  Rh14  1  0.000000  0.121861  0.878139  1
  Rh  Rh15  1  0.994688  0.382701  0.885704  1
  Rh  Rh16  1  0.005556  0.134301  0.134301  1
  Rh  Rh17  1  0.005312  0.617299  0.114296  1
  Rh  Rh18  1  0.994688  0.885704  0.382701  1
  Rh  Rh19  1  0.499402  0.256022  0.256022  1
  Rh  Rh20  1  0.776041  0.393058  0.140910  1
  Rh  Rh21  1  0.000000  0.628232  0.371768  1
  Rh  Rh22  1  0.223959  0.859090  0.606942  1
  Rh  Rh23  1  0.776041  0.140910  0.393058  1
  Rh  Rh24  1  0.227548  0.111977  0.361740  1
  Rh  Rh25  1  0.223959  0.606942  0.859090  1
  Rh  Rh26  1  0.227548  0.361740  0.111977  1
  Rh  Rh27  1  1.000000  0.371768  0.628232  1
  Rh  Rh28  1  1.000000  0.878139  0.121861  1
  Rh  Rh29  1  0.500000  0.000000  0.500000  1
  Rh  Rh30  1  0.772452  0.888023  0.638260  1
  Rh  Rh31  1  0.500000  0.500000  0.000000  1
  Rh  Rh32  1  0.500598  0.743978  0.743978  1
  Rh  Rh33  1  0.772452  0.638260  0.888023  1
  Rh  Rh34  1  0.012338  0.366110  0.366110  1
  Rh  Rh35  1  0.994444  0.865699  0.865699  1
  O  O36  1  0.901214  0.461306  0.461306  1
  O  O37  1  0.891993  0.715901  0.205453  1
  O  O38  1  0.880613  0.967770  0.714459  1
  O  O39  1  0.343310  0.943557  0.433838  1
  O  O40  1  0.128779  0.281463  0.281463  1
  O  O41  1  0.386851  0.173632  0.431032  1
  O  O42  1  0.108007  0.284099  0.794547  1
  O  O43  1  0.872142  0.468206  0.969725  1
  O  O44  1  0.407840  0.729105  0.383389  1
  O  O45  1  0.409459  0.814210  0.086097  1
  O  O46  1  0.338756  0.685644  0.685644  1
  O  O47  1  0.656690  0.056443  0.566162  1
  O  O48  1  0.613149  0.568968  0.826368  1
  O  O49  1  0.890876  0.218541  0.467094  1
  O  O50  1  0.404482  0.442666  0.442666  1
  O  O51  1  0.880613  0.714459  0.967770  1
  O  O52  1  0.115712  0.278505  0.534837  1
  O  O53  1  0.614339  0.086250  0.328286  1
  O  O54  1  0.119387  0.032230  0.285541  1
  O  O55  1  0.127858  0.531794  0.030275  1
  O  O56  1  0.884288  0.721495  0.465163  1
  O  O57  1  0.871221  0.718537  0.718537  1
  O  O58  1  0.385661  0.913750  0.671714  1
  O  O59  1  0.409459  0.086097  0.814210  1
  O  O60  1  0.872142  0.969725  0.468206  1
  O  O61  1  0.348025  0.192418  0.192418  1
  O  O62  1  0.651975  0.807582  0.807582  1
  O  O63  1  0.098786  0.538694  0.538694  1
  O  O64  1  0.891017  0.961797  0.961797  1
  O  O65  1  0.343310  0.433838  0.943557  1
  O  O66  1  0.119387  0.285541  0.032230  1
  O  O67  1  0.590541  0.913903  0.185790  1
  O  O68  1  0.656690  0.566162  0.056443  1
  O  O69  1  0.592160  0.270895  0.616611  1
  O  O70  1  0.128362  0.781744  0.781744  1
  O  O71  1  0.595518  0.557334  0.557334  1
  O  O72  1  0.115712  0.534837  0.278505  1
  O  O73  1  0.386851  0.431032  0.173632  1
  O  O74  1  0.109124  0.781459  0.532906  1
  O  O75  1  0.108007  0.794547  0.284099  1
  O  O76  1  0.884288  0.465163  0.721495  1
  O  O77  1  0.590541  0.185790  0.913903  1
  O  O78  1  0.385661  0.671714  0.913750  1
  O  O79  1  0.108983  0.038203  0.038203  1
  O  O80  1  0.127858  0.030275  0.531794  1
  O  O81  1  0.109426  0.024205  0.786852  1
  O  O82  1  0.890876  0.467094  0.218541  1
  O  O83  1  0.871638  0.218256  0.218256  1
  O  O84  1  0.109124  0.532906  0.781459  1
  O  O85  1  0.890574  0.213148  0.975795  1
  O  O86  1  0.614339  0.328286  0.086250  1
  O  O87  1  0.613149  0.826368  0.568968  1
  O  O88  1  0.407840  0.383389  0.729105  1
  O  O89  1  0.661244  0.314356  0.314356  1
  O  O90  1  0.891993  0.205453  0.715901  1
  O  O91  1  0.109426  0.786852  0.024205  1
  O  O92  1  0.890574  0.975795  0.213148  1
  O  O93  1  0.592160  0.616611  0.270895  1
