# generated using pymatgen
data_NaV2Bi3O10
_symmetry_space_group_name_H-M   'P 1'
_cell_length_a   5.66659854
_cell_length_b   7.22332330
_cell_length_c   7.11509910
_cell_angle_alpha   111.17295169
_cell_angle_beta   111.33984254
_cell_angle_gamma   85.45152308
_symmetry_Int_Tables_number   1
_chemical_formula_structural   NaV2Bi3O10
_chemical_formula_sum   'Na1 V2 Bi3 O10'
_cell_volume   252.49753055
_cell_formula_units_Z   1
loop_
 _symmetry_equiv_pos_site_id
 _symmetry_equiv_pos_as_xyz
  1  'x, y, z'
loop_
 _atom_site_type_symbol
 _atom_site_label
 _atom_site_symmetry_multiplicity
 _atom_site_fract_x
 _atom_site_fract_y
 _atom_site_fract_z
 _atom_site_occupancy
  Na  Na0  1  0.911301  0.524173  0.044216  1
  V  V1  1  0.257537  0.618044  0.684218  1
  V  V2  1  0.673584  0.927772  0.395022  1
  Bi  Bi3  1  0.023557  0.024152  0.029860  1
  Bi  Bi4  1  0.564788  0.405152  0.338247  1
  Bi  Bi5  1  0.388734  0.156745  0.765050  1
  O  O6  1  0.411942  0.075209  0.332278  1
  O  O7  1  0.224644  0.582040  0.419433  1
  O  O8  1  0.915304  0.013803  0.354624  1
  O  O9  1  0.723067  0.246003  0.063858  1
  O  O10  1  0.984907  0.549205  0.698794  1
  O  O11  1  0.746577  0.984821  0.675150  1
  O  O12  1  0.332076  0.874925  0.847263  1
  O  O13  1  0.609368  0.672087  0.252476  1
  O  O14  1  0.498397  0.462196  0.762282  1
  O  O15  1  0.217617  0.276773  0.028828  1
