# generated using pymatgen
data_RbNaTiO3
_symmetry_space_group_name_H-M   'P 1'
_cell_length_a   5.58627164
_cell_length_b   5.95244063
_cell_length_c   6.33650377
_cell_angle_alpha   61.98553984
_cell_angle_beta   88.74028268
_cell_angle_gamma   87.31723217
_symmetry_Int_Tables_number   1
_chemical_formula_structural   RbNaTiO3
_chemical_formula_sum   'Rb2 Na2 Ti2 O6'
_cell_volume   185.80919482
_cell_formula_units_Z   2
loop_
 _symmetry_equiv_pos_site_id
 _symmetry_equiv_pos_as_xyz
  1  'x, y, z'
loop_
 _atom_site_type_symbol
 _atom_site_label
 _atom_site_symmetry_multiplicity
 _atom_site_fract_x
 _atom_site_fract_y
 _atom_site_fract_z
 _atom_site_occupancy
  Rb  Rb0  1  0.250000  0.267457  0.465085  1
  Rb  Rb1  1  0.750000  0.732543  0.534915  1
  Na  Na2  1  0.250000  0.575486  0.849028  1
  Na  Na3  1  0.750000  0.424514  0.150972  1
  Ti  Ti4  1  0.750000  0.051649  0.896703  1
  Ti  Ti5  1  0.250000  0.948351  0.103297  1
  O  O6  1  0.002114  0.222617  0.982223  1
  O  O7  1  0.497886  0.795160  0.982223  1
  O  O8  1  0.750000  0.210365  0.579271  1
  O  O9  1  0.997886  0.777383  0.017777  1
  O  O10  1  0.502114  0.204840  0.017777  1
  O  O11  1  0.250000  0.789635  0.420729  1
