# generated using pymatgen
data_Fe2Cu(P2O7)2
_symmetry_space_group_name_H-M   'P 1'
_cell_length_a   5.25675684
_cell_length_b   6.70243160
_cell_length_c   15.88052706
_cell_angle_alpha   92.16624229
_cell_angle_beta   90.00000000
_cell_angle_gamma   90.00000000
_symmetry_Int_Tables_number   1
_chemical_formula_structural   Fe2Cu(P2O7)2
_chemical_formula_sum   'Fe4 Cu2 P8 O28'
_cell_volume   559.11959967
_cell_formula_units_Z   2
loop_
 _symmetry_equiv_pos_site_id
 _symmetry_equiv_pos_as_xyz
  1  'x, y, z'
loop_
 _atom_site_type_symbol
 _atom_site_label
 _atom_site_symmetry_multiplicity
 _atom_site_fract_x
 _atom_site_fract_y
 _atom_site_fract_z
 _atom_site_occupancy
  O  O0  1  0.037669  0.060454  0.588472  1
  O  O1  1  0.537669  0.439546  0.911528  1
  O  O2  1  0.962331  0.939546  0.411528  1
  O  O3  1  0.462331  0.560454  0.088472  1
  O  O4  1  0.567475  0.997591  0.617474  1
  O  O5  1  0.067475  0.502409  0.882526  1
  O  O6  1  0.432525  0.002409  0.382526  1
  O  O7  1  0.932525  0.497591  0.117474  1
  O  O8  1  0.722572  0.627680  0.758040  1
  O  O9  1  0.222572  0.872320  0.741960  1
  O  O10  1  0.277428  0.372320  0.241960  1
  O  O11  1  0.777428  0.127680  0.258040  1
  O  O12  1  0.976663  0.633546  0.619617  1
  O  O13  1  0.476663  0.866454  0.880383  1
  O  O14  1  0.796146  0.755788  0.011923  1
  O  O15  1  0.296146  0.744212  0.488077  1
  O  O16  1  0.203854  0.244212  0.988077  1
  O  O17  1  0.703854  0.255788  0.511923  1
  O  O18  1  0.722332  0.814257  0.169577  1
  O  O19  1  0.222332  0.685743  0.330423  1
  O  O20  1  0.277668  0.185743  0.830423  1
  O  O21  1  0.777668  0.314257  0.669577  1
  O  O22  1  0.001404  0.085823  0.118227  1
  O  O23  1  0.501404  0.414177  0.381773  1
  O  O24  1  0.998596  0.914177  0.881773  1
  O  O25  1  0.498596  0.585823  0.618227  1
  O  O26  1  0.523337  0.133546  0.119617  1
  O  O27  1  0.023337  0.366454  0.380383  1
  P  P28  1  0.752808  0.553748  0.668054  1
  P  P29  1  0.252808  0.946252  0.831946  1
  P  P30  1  0.247192  0.446252  0.331946  1
  P  P31  1  0.747192  0.053748  0.168054  1
  P  P32  1  0.769969  0.145182  0.594326  1
  P  P33  1  0.269969  0.354818  0.905674  1
  P  P34  1  0.230031  0.854818  0.405674  1
  P  P35  1  0.730031  0.645182  0.094326  1
  Fe  Fe36  1  0.748065  0.163102  0.380138  1
  Fe  Fe37  1  0.248065  0.336898  0.119862  1
  Fe  Fe38  1  0.251935  0.836898  0.619862  1
  Fe  Fe39  1  0.751935  0.663102  0.880138  1
  Cu  Cu40  1  0.500000  0.500000  0.500000  1
  Cu  Cu41  1  0.000000  0.000000  0.000000  1
