# generated using pymatgen
data_TiS4(NCl)4
_symmetry_space_group_name_H-M   'P 1'
_cell_length_a   8.73813362
_cell_length_b   11.39658812
_cell_length_c   12.20717707
_cell_angle_alpha   100.52452837
_cell_angle_beta   90.00000000
_cell_angle_gamma   90.00000000
_symmetry_Int_Tables_number   1
_chemical_formula_structural   TiS4(NCl)4
_chemical_formula_sum   'Ti4 S16 N16 Cl16'
_cell_volume   1195.19949693
_cell_formula_units_Z   4
loop_
 _symmetry_equiv_pos_site_id
 _symmetry_equiv_pos_as_xyz
  1  'x, y, z'
loop_
 _atom_site_type_symbol
 _atom_site_label
 _atom_site_symmetry_multiplicity
 _atom_site_fract_x
 _atom_site_fract_y
 _atom_site_fract_z
 _atom_site_occupancy
  Ti  Ti0  1  0.728175  0.906161  0.148901  1
  Ti  Ti1  1  0.228175  0.593839  0.351099  1
  Ti  Ti2  1  0.271825  0.093839  0.851099  1
  Ti  Ti3  1  0.771825  0.406161  0.648901  1
  S  S4  1  0.488391  0.301111  0.026124  1
  S  S5  1  0.300788  0.194304  0.481548  1
  S  S6  1  0.355602  0.792578  0.826309  1
  S  S7  1  0.341875  0.903051  0.047989  1
  S  S8  1  0.841875  0.596949  0.452011  1
  S  S9  1  0.658125  0.096949  0.952011  1
  S  S10  1  0.855602  0.707422  0.673691  1
  S  S11  1  0.800788  0.305696  0.018452  1
  S  S12  1  0.199212  0.694304  0.981548  1
  S  S13  1  0.644398  0.207422  0.173691  1
  S  S14  1  0.144398  0.292578  0.326309  1
  S  S15  1  0.511609  0.698889  0.973876  1
  S  S16  1  0.158125  0.403051  0.547989  1
  S  S17  1  0.011609  0.801111  0.526124  1
  S  S18  1  0.699212  0.805696  0.518452  1
  S  S19  1  0.988391  0.198889  0.473876  1
  N  N20  1  0.345283  0.920765  0.916546  1
  N  N21  1  0.000054  0.329831  0.559671  1
  N  N22  1  0.360224  0.629128  0.999478  1
  N  N23  1  0.654717  0.079235  0.083454  1
  N  N24  1  0.293241  0.220026  0.355364  1
  N  N25  1  0.706759  0.779974  0.644636  1
  N  N26  1  0.139776  0.129128  0.499478  1
  N  N27  1  0.206759  0.720026  0.855364  1
  N  N28  1  0.499946  0.829831  0.059671  1
  N  N29  1  0.500054  0.170169  0.940329  1
  N  N30  1  0.154717  0.420765  0.416546  1
  N  N31  1  0.793241  0.279974  0.144636  1
  N  N32  1  0.860224  0.870872  0.500522  1
  N  N33  1  0.639776  0.370872  0.000522  1
  N  N34  1  0.999946  0.670169  0.440329  1
  N  N35  1  0.845283  0.579235  0.583454  1
  Cl  Cl36  1  0.260034  0.772244  0.303434  1
  Cl  Cl37  1  0.427011  0.015556  0.705756  1
  Cl  Cl38  1  0.572989  0.984444  0.294244  1
  Cl  Cl39  1  0.445070  0.507741  0.279280  1
  Cl  Cl40  1  0.239966  0.272244  0.803434  1
  Cl  Cl41  1  0.945070  0.992259  0.220720  1
  Cl  Cl42  1  0.325431  0.649398  0.529821  1
  Cl  Cl43  1  0.760034  0.727756  0.196566  1
  Cl  Cl44  1  0.072989  0.515556  0.205756  1
  Cl  Cl45  1  0.927011  0.484444  0.794244  1
  Cl  Cl46  1  0.674569  0.350602  0.470179  1
  Cl  Cl47  1  0.739966  0.227756  0.696566  1
  Cl  Cl48  1  0.174569  0.149398  0.029821  1
  Cl  Cl49  1  0.554930  0.492259  0.720720  1
  Cl  Cl50  1  0.054930  0.007741  0.779280  1
  Cl  Cl51  1  0.825431  0.850602  0.970179  1
