# generated using pymatgen
data_Yb3Ga5O12
_symmetry_space_group_name_H-M   'P 1'
_cell_length_a   10.73512601
_cell_length_b   10.73512609
_cell_length_c   10.73512638
_cell_angle_alpha   109.47121919
_cell_angle_beta   109.47121929
_cell_angle_gamma   109.47122182
_symmetry_Int_Tables_number   1
_chemical_formula_structural   Yb3Ga5O12
_chemical_formula_sum   'Yb12 Ga20 O48'
_cell_volume   952.35655604
_cell_formula_units_Z   4
loop_
 _symmetry_equiv_pos_site_id
 _symmetry_equiv_pos_as_xyz
  1  'x, y, z'
loop_
 _atom_site_type_symbol
 _atom_site_label
 _atom_site_symmetry_multiplicity
 _atom_site_fract_x
 _atom_site_fract_y
 _atom_site_fract_z
 _atom_site_occupancy
  Yb  Yb0  1  0.375000  0.750000  0.125000  1
  Yb  Yb1  1  0.875000  0.625000  0.250000  1
  Yb  Yb2  1  0.375000  0.125000  0.250000  1
  Yb  Yb3  1  0.625000  0.250000  0.875000  1
  Yb  Yb4  1  0.125000  0.375000  0.750000  1
  Yb  Yb5  1  0.250000  0.875000  0.625000  1
  Yb  Yb6  1  0.875000  0.750000  0.625000  1
  Yb  Yb7  1  0.125000  0.250000  0.375000  1
  Yb  Yb8  1  0.250000  0.375000  0.125000  1
  Yb  Yb9  1  0.625000  0.875000  0.750000  1
  Yb  Yb10  1  0.750000  0.125000  0.375000  1
  Yb  Yb11  1  0.750000  0.625000  0.875000  1
  Ga  Ga12  1  0.000000  0.000000  0.500000  1
  Ga  Ga13  1  0.125000  0.750000  0.875000  1
  Ga  Ga14  1  0.875000  0.125000  0.750000  1
  Ga  Ga15  1  0.500000  0.000000  0.500000  1
  Ga  Ga16  1  0.500000  0.000000  0.000000  1
  Ga  Ga17  1  0.625000  0.750000  0.375000  1
  Ga  Ga18  1  0.000000  0.000000  0.000000  1
  Ga  Ga19  1  0.000000  0.500000  0.000000  1
  Ga  Ga20  1  0.250000  0.625000  0.375000  1
  Ga  Ga21  1  0.000000  0.500000  0.500000  1
  Ga  Ga22  1  0.250000  0.125000  0.875000  1
  Ga  Ga23  1  0.375000  0.250000  0.625000  1
  Ga  Ga24  1  0.875000  0.250000  0.125000  1
  Ga  Ga25  1  0.750000  0.375000  0.625000  1
  Ga  Ga26  1  0.375000  0.625000  0.750000  1
  Ga  Ga27  1  0.500000  0.500000  0.500000  1
  Ga  Ga28  1  0.625000  0.375000  0.250000  1
  Ga  Ga29  1  0.750000  0.875000  0.125000  1
  Ga  Ga30  1  0.500000  0.500000  0.000000  1
  Ga  Ga31  1  0.125000  0.875000  0.250000  1
  O  O32  1  0.414914  0.821800  0.795593  1
  O  O33  1  0.178200  0.204407  0.585086  1
  O  O34  1  0.295593  0.473793  0.380680  1
  O  O35  1  0.795593  0.880680  0.973793  1
  O  O36  1  0.526207  0.619320  0.704407  1
  O  O37  1  0.704407  0.678200  0.085086  1
  O  O38  1  0.178200  0.473793  0.593113  1
  O  O39  1  0.093113  0.973793  0.678200  1
  O  O40  1  0.593113  0.178200  0.473793  1
  O  O41  1  0.795593  0.414914  0.821800  1
  O  O42  1  0.585086  0.906887  0.380680  1
  O  O43  1  0.619320  0.704407  0.526207  1
  O  O44  1  0.678200  0.093113  0.973793  1
  O  O45  1  0.204407  0.119320  0.026207  1
  O  O46  1  0.619320  0.414914  0.093113  1
  O  O47  1  0.119320  0.593113  0.914914  1
  O  O48  1  0.678200  0.085086  0.704407  1
  O  O49  1  0.406887  0.085086  0.880680  1
  O  O50  1  0.906887  0.380680  0.585086  1
  O  O51  1  0.821800  0.526207  0.406887  1
  O  O52  1  0.473793  0.380680  0.295593  1
  O  O53  1  0.880680  0.406887  0.085086  1
  O  O54  1  0.914914  0.295593  0.321800  1
  O  O55  1  0.585086  0.178200  0.204407  1
  O  O56  1  0.093113  0.619320  0.414914  1
  O  O57  1  0.119320  0.026207  0.204407  1
  O  O58  1  0.321800  0.914914  0.295593  1
  O  O59  1  0.026207  0.321800  0.906887  1
  O  O60  1  0.414914  0.093113  0.619320  1
  O  O61  1  0.380680  0.585086  0.906887  1
  O  O62  1  0.380680  0.295593  0.473793  1
  O  O63  1  0.906887  0.026207  0.321800  1
  O  O64  1  0.973793  0.678200  0.093113  1
  O  O65  1  0.321800  0.906887  0.026207  1
  O  O66  1  0.085086  0.704407  0.678200  1
  O  O67  1  0.085086  0.880680  0.406887  1
  O  O68  1  0.973793  0.795593  0.880680  1
  O  O69  1  0.593113  0.914914  0.119320  1
  O  O70  1  0.914914  0.119320  0.593113  1
  O  O71  1  0.880680  0.973793  0.795593  1
  O  O72  1  0.204407  0.585086  0.178200  1
  O  O73  1  0.295593  0.321800  0.914914  1
  O  O74  1  0.526207  0.406887  0.821800  1
  O  O75  1  0.406887  0.821800  0.526207  1
  O  O76  1  0.473793  0.593113  0.178200  1
  O  O77  1  0.704407  0.526207  0.619320  1
  O  O78  1  0.026207  0.204407  0.119320  1
  O  O79  1  0.821800  0.795593  0.414914  1
