# generated using pymatgen
data_KY(CO)8
_symmetry_space_group_name_H-M   'P 1'
_cell_length_a   6.28401060
_cell_length_b   6.28401060
_cell_length_c   11.73025352
_cell_angle_alpha   90.00000000
_cell_angle_beta   90.00000000
_cell_angle_gamma   90.00000000
_symmetry_Int_Tables_number   1
_chemical_formula_structural   KY(CO)8
_chemical_formula_sum   'K2 Y2 C16 O16'
_cell_volume   463.21350876
_cell_formula_units_Z   2
loop_
 _symmetry_equiv_pos_site_id
 _symmetry_equiv_pos_as_xyz
  1  'x, y, z'
loop_
 _atom_site_type_symbol
 _atom_site_label
 _atom_site_symmetry_multiplicity
 _atom_site_fract_x
 _atom_site_fract_y
 _atom_site_fract_z
 _atom_site_occupancy
  K  K0  1  0.000000  0.000000  0.250000  1
  K  K1  1  0.000000  0.000000  0.750000  1
  Y  Y2  1  0.500000  0.500000  0.250000  1
  Y  Y3  1  0.500000  0.500000  0.750000  1
  C  C4  1  0.564015  0.097955  0.062855  1
  C  C5  1  0.902045  0.435985  0.437145  1
  C  C6  1  0.564015  0.902045  0.437145  1
  C  C7  1  0.435985  0.097955  0.562855  1
  C  C8  1  0.435985  0.902045  0.062855  1
  C  C9  1  0.435985  0.097955  0.437145  1
  C  C10  1  0.902045  0.435985  0.562855  1
  C  C11  1  0.564015  0.902045  0.562855  1
  C  C12  1  0.097955  0.564015  0.562855  1
  C  C13  1  0.097955  0.435985  0.937145  1
  C  C14  1  0.435985  0.902045  0.937145  1
  C  C15  1  0.902045  0.564015  0.062855  1
  C  C16  1  0.902045  0.564015  0.937145  1
  C  C17  1  0.564015  0.097955  0.937145  1
  C  C18  1  0.097955  0.435985  0.062855  1
  C  C19  1  0.097955  0.564015  0.437145  1
  O  O20  1  0.355139  0.784815  0.138934  1
  O  O21  1  0.355139  0.215185  0.361066  1
  O  O22  1  0.784815  0.644861  0.138934  1
  O  O23  1  0.355139  0.215185  0.638934  1
  O  O24  1  0.355139  0.784815  0.861066  1
  O  O25  1  0.215185  0.644861  0.638934  1
  O  O26  1  0.784815  0.355139  0.638934  1
  O  O27  1  0.644861  0.784815  0.638934  1
  O  O28  1  0.644861  0.215185  0.861066  1
  O  O29  1  0.784815  0.644861  0.861066  1
  O  O30  1  0.784815  0.355139  0.361066  1
  O  O31  1  0.215185  0.644861  0.361066  1
  O  O32  1  0.644861  0.784815  0.361066  1
  O  O33  1  0.215185  0.355139  0.138934  1
  O  O34  1  0.644861  0.215185  0.138934  1
  O  O35  1  0.215185  0.355139  0.861066  1
