# generated using pymatgen
data_Ag2Hg7(P4Br3)2
_symmetry_space_group_name_H-M   'P 1'
_cell_length_a   8.27716763
_cell_length_b   8.59608146
_cell_length_c   8.59608105
_cell_angle_alpha   80.52406308
_cell_angle_beta   81.26864601
_cell_angle_gamma   81.26864422
_symmetry_Int_Tables_number   1
_chemical_formula_structural   Ag2Hg7(P4Br3)2
_chemical_formula_sum   'Ag2 Hg7 P8 Br6'
_cell_volume   591.21878908
_cell_formula_units_Z   1
loop_
 _symmetry_equiv_pos_site_id
 _symmetry_equiv_pos_as_xyz
  1  'x, y, z'
loop_
 _atom_site_type_symbol
 _atom_site_label
 _atom_site_symmetry_multiplicity
 _atom_site_fract_x
 _atom_site_fract_y
 _atom_site_fract_z
 _atom_site_occupancy
  Ag  Ag0  1  0.500000  0.000000  0.500000  1
  Ag  Ag1  1  0.500000  0.500000  0.000000  1
  Hg  Hg2  1  0.235348  0.732828  0.367021  1
  Hg  Hg3  1  0.133293  0.273598  0.273598  1
  Hg  Hg4  1  0.235348  0.367021  0.732828  1
  Hg  Hg5  1  0.764652  0.267172  0.632979  1
  Hg  Hg6  1  0.000000  0.000000  0.000000  1
  Hg  Hg7  1  0.866707  0.726402  0.726402  1
  Hg  Hg8  1  0.764652  0.632979  0.267172  1
  P  P9  1  0.575216  0.762602  0.075714  1
  P  P10  1  0.744096  0.913439  0.913439  1
  P  P11  1  0.067792  0.562618  0.562618  1
  P  P12  1  0.424784  0.237398  0.924286  1
  P  P13  1  0.255904  0.086561  0.086561  1
  P  P14  1  0.575216  0.075714  0.762602  1
  P  P15  1  0.424784  0.924286  0.237398  1
  P  P16  1  0.932208  0.437382  0.437382  1
  Br  Br17  1  0.146820  0.638154  0.049860  1
  Br  Br18  1  0.456952  0.354716  0.354716  1
  Br  Br19  1  0.543048  0.645284  0.645284  1
  Br  Br20  1  0.146820  0.049860  0.638154  1
  Br  Br21  1  0.853180  0.950140  0.361846  1
  Br  Br22  1  0.853180  0.361846  0.950140  1
