# generated using pymatgen
data_K6CoMo5O19
_symmetry_space_group_name_H-M   'P 1'
_cell_length_a   8.26714749
_cell_length_b   10.56189820
_cell_length_c   24.68714110
_cell_angle_alpha   90.00000000
_cell_angle_beta   91.11665405
_cell_angle_gamma   90.00000000
_symmetry_Int_Tables_number   1
_chemical_formula_structural   K6CoMo5O19
_chemical_formula_sum   'K24 Co4 Mo20 O76'
_cell_volume   2155.19205668
_cell_formula_units_Z   4
loop_
 _symmetry_equiv_pos_site_id
 _symmetry_equiv_pos_as_xyz
  1  'x, y, z'
loop_
 _atom_site_type_symbol
 _atom_site_label
 _atom_site_symmetry_multiplicity
 _atom_site_fract_x
 _atom_site_fract_y
 _atom_site_fract_z
 _atom_site_occupancy
  K  K0  1  0.863887  0.000233  0.066641  1
  K  K1  1  0.699251  0.436063  0.696111  1
  K  K2  1  0.980897  0.744250  0.194586  1
  K  K3  1  0.300749  0.563937  0.303889  1
  K  K4  1  0.858503  0.353878  0.954157  1
  K  K5  1  0.991971  0.741721  0.687768  1
  K  K6  1  0.636113  0.500233  0.433359  1
  K  K7  1  0.800749  0.936063  0.803889  1
  K  K8  1  0.139060  0.597658  0.840819  1
  K  K9  1  0.519103  0.244250  0.305414  1
  K  K10  1  0.360940  0.097658  0.659181  1
  K  K11  1  0.491971  0.758279  0.187768  1
  K  K12  1  0.358503  0.146122  0.454157  1
  K  K13  1  0.008029  0.258279  0.312232  1
  K  K14  1  0.136113  0.999767  0.933359  1
  K  K15  1  0.639060  0.902342  0.340819  1
  K  K16  1  0.199251  0.063937  0.196111  1
  K  K17  1  0.141497  0.646122  0.045843  1
  K  K18  1  0.508029  0.241721  0.812232  1
  K  K19  1  0.363887  0.499767  0.566641  1
  K  K20  1  0.019103  0.255750  0.805414  1
  K  K21  1  0.480897  0.755750  0.694586  1
  K  K22  1  0.860940  0.402342  0.159181  1
  K  K23  1  0.641497  0.853878  0.545843  1
  Co  Co24  1  0.466241  0.749994  0.941035  1
  Co  Co25  1  0.533759  0.250006  0.058965  1
  Co  Co26  1  0.966241  0.750006  0.441035  1
  Co  Co27  1  0.033759  0.249994  0.558965  1
  Mo  Mo28  1  0.646152  0.241193  0.558460  1
  Mo  Mo29  1  0.795359  0.597075  0.312685  1
  Mo  Mo30  1  0.295359  0.902925  0.812685  1
  Mo  Mo31  1  0.625994  0.069330  0.933425  1
  Mo  Mo32  1  0.704641  0.097075  0.187315  1
  Mo  Mo33  1  0.374006  0.930670  0.066575  1
  Mo  Mo34  1  0.164402  0.917662  0.325048  1
  Mo  Mo35  1  0.874006  0.569330  0.566575  1
  Mo  Mo36  1  0.146152  0.258807  0.058460  1
  Mo  Mo37  1  0.853848  0.741193  0.941540  1
  Mo  Mo38  1  0.204641  0.402925  0.687315  1
  Mo  Mo39  1  0.859753  0.090918  0.439665  1
  Mo  Mo40  1  0.664402  0.582338  0.825048  1
  Mo  Mo41  1  0.640247  0.590918  0.060335  1
  Mo  Mo42  1  0.335598  0.417662  0.174952  1
  Mo  Mo43  1  0.353848  0.758807  0.441540  1
  Mo  Mo44  1  0.140247  0.909082  0.560335  1
  Mo  Mo45  1  0.359753  0.409082  0.939665  1
  Mo  Mo46  1  0.125994  0.430670  0.433425  1
  Mo  Mo47  1  0.835598  0.082338  0.674952  1
  O  O48  1  0.442096  0.695882  0.382044  1
  O  O49  1  0.567313  0.900983  0.095082  1
  O  O50  1  0.726009  0.628000  0.612134  1
  O  O51  1  0.972341  0.528771  0.283608  1
  O  O52  1  0.702459  0.134413  0.392978  1
  O  O53  1  0.346448  0.578813  0.950085  1
  O  O54  1  0.527659  0.028771  0.216392  1
  O  O55  1  0.649229  0.147470  0.998822  1
  O  O56  1  0.475598  0.516654  0.805173  1
  O  O57  1  0.451168  0.625397  0.088578  1
  O  O58  1  0.849505  0.171481  0.609797  1
  O  O59  1  0.781567  0.213807  0.234007  1
  O  O60  1  0.548832  0.374603  0.911422  1
  O  O61  1  0.951168  0.874603  0.588578  1
  O  O62  1  0.950839  0.592722  0.947480  1
  O  O63  1  0.161045  0.319615  0.623607  1
  O  O64  1  0.350771  0.852530  0.001178  1
  O  O65  1  0.338955  0.819615  0.876393  1
  O  O66  1  0.549161  0.092722  0.552520  1
  O  O67  1  0.557904  0.304118  0.617956  1
  O  O68  1  0.057904  0.195882  0.117956  1
  O  O69  1  0.224370  0.813881  0.271157  1
  O  O70  1  0.449968  0.669425  0.494235  1
  O  O71  1  0.657745  0.679939  0.995833  1
  O  O72  1  0.718433  0.713807  0.265993  1
  O  O73  1  0.154020  0.603323  0.439013  1
  O  O74  1  0.724370  0.686119  0.771157  1
  O  O75  1  0.150495  0.828519  0.390203  1
  O  O76  1  0.644066  0.478820  0.323055  1
  O  O77  1  0.855934  0.978820  0.176945  1
  O  O78  1  0.027659  0.471229  0.716392  1
  O  O79  1  0.157745  0.820061  0.495833  1
  O  O80  1  0.144066  0.021180  0.823055  1
  O  O81  1  0.342255  0.320061  0.004167  1
  O  O82  1  0.153552  0.078813  0.549915  1
  O  O83  1  0.049161  0.407278  0.052520  1
  O  O84  1  0.811413  0.459051  0.828628  1
  O  O85  1  0.273991  0.372000  0.387866  1
  O  O86  1  0.202459  0.365587  0.892978  1
  O  O87  1  0.149229  0.352530  0.498822  1
  O  O88  1  0.850771  0.647470  0.501178  1
  O  O89  1  0.275630  0.313881  0.228843  1
  O  O90  1  0.838955  0.680385  0.376393  1
  O  O91  1  0.345980  0.103323  0.060987  1
  O  O92  1  0.311413  0.040949  0.328628  1
  O  O93  1  0.942096  0.804118  0.882044  1
  O  O94  1  0.432687  0.099017  0.904918  1
  O  O95  1  0.472341  0.971229  0.783608  1
  O  O96  1  0.797541  0.634413  0.107022  1
  O  O97  1  0.226009  0.872000  0.112134  1
  O  O98  1  0.355934  0.521180  0.676945  1
  O  O99  1  0.218433  0.786193  0.765993  1
  O  O100  1  0.846448  0.921187  0.450085  1
  O  O101  1  0.775630  0.186119  0.728843  1
  O  O102  1  0.048832  0.125397  0.411422  1
  O  O103  1  0.688587  0.959051  0.671372  1
  O  O104  1  0.654020  0.896677  0.939013  1
  O  O105  1  0.650495  0.671481  0.890203  1
  O  O106  1  0.281567  0.286193  0.734007  1
  O  O107  1  0.932687  0.400983  0.404918  1
  O  O108  1  0.297541  0.865587  0.607022  1
  O  O109  1  0.653552  0.421187  0.049915  1
  O  O110  1  0.524402  0.483346  0.194827  1
  O  O111  1  0.773991  0.128000  0.887866  1
  O  O112  1  0.975598  0.983346  0.305173  1
  O  O113  1  0.949968  0.830575  0.994235  1
  O  O114  1  0.024402  0.016654  0.694827  1
  O  O115  1  0.845980  0.396677  0.560987  1
  O  O116  1  0.050032  0.169425  0.005765  1
  O  O117  1  0.661045  0.180385  0.123607  1
  O  O118  1  0.067313  0.599017  0.595082  1
  O  O119  1  0.450839  0.907278  0.447480  1
  O  O120  1  0.349505  0.328519  0.109797  1
  O  O121  1  0.842255  0.179939  0.504167  1
  O  O122  1  0.550032  0.330575  0.505765  1
  O  O123  1  0.188587  0.540949  0.171372  1
