# generated using pymatgen
data_La23Mg4Rh7
_symmetry_space_group_name_H-M   'P 1'
_cell_length_a   10.23414076
_cell_length_b   10.23414086
_cell_length_c   23.10381854
_cell_angle_alpha   90.00000000
_cell_angle_beta   90.00000000
_cell_angle_gamma   119.99999968
_symmetry_Int_Tables_number   1
_chemical_formula_structural   La23Mg4Rh7
_chemical_formula_sum   'La46 Mg8 Rh14'
_cell_volume   2095.64238778
_cell_formula_units_Z   2
loop_
 _symmetry_equiv_pos_site_id
 _symmetry_equiv_pos_as_xyz
  1  'x, y, z'
loop_
 _atom_site_type_symbol
 _atom_site_label
 _atom_site_symmetry_multiplicity
 _atom_site_fract_x
 _atom_site_fract_y
 _atom_site_fract_z
 _atom_site_occupancy
  La  La0  1  0.415531  0.207766  0.550807  1
  La  La1  1  0.744811  0.872405  0.365595  1
  La  La2  1  0.255189  0.127595  0.865595  1
  La  La3  1  0.420158  0.210079  0.008385  1
  La  La4  1  0.458752  0.917503  0.643288  1
  La  La5  1  0.540106  0.080213  0.413516  1
  La  La6  1  0.794405  0.205595  0.717342  1
  La  La7  1  0.207766  0.415531  0.050807  1
  La  La8  1  0.540106  0.459894  0.413516  1
  La  La9  1  0.459894  0.919787  0.913516  1
  La  La10  1  0.082497  0.541248  0.643288  1
  La  La11  1  0.584938  0.792469  0.779774  1
  La  La12  1  0.917503  0.458752  0.143288  1
  La  La13  1  0.210079  0.420158  0.508385  1
  La  La14  1  0.666667  0.333333  0.853552  1
  La  La15  1  0.458752  0.541248  0.643288  1
  La  La16  1  0.210079  0.789921  0.508385  1
  La  La17  1  0.411190  0.205595  0.717342  1
  La  La18  1  0.789921  0.579842  0.008385  1
  La  La19  1  0.794405  0.588810  0.717342  1
  La  La20  1  0.127595  0.872405  0.365595  1
  La  La21  1  0.207531  0.792469  0.779774  1
  La  La22  1  0.205595  0.794405  0.217342  1
  La  La23  1  0.080213  0.540106  0.913516  1
  La  La24  1  0.207531  0.415062  0.779774  1
  La  La25  1  0.919787  0.459894  0.413516  1
  La  La26  1  0.459894  0.540106  0.913516  1
  La  La27  1  0.792469  0.207531  0.279774  1
  La  La28  1  0.872405  0.744811  0.865595  1
  La  La29  1  0.000000  0.000000  0.000489  1
  La  La30  1  0.789921  0.210079  0.008385  1
  La  La31  1  0.588810  0.794405  0.217342  1
  La  La32  1  0.541248  0.458752  0.143288  1
  La  La33  1  0.000000  0.000000  0.500489  1
  La  La34  1  0.579842  0.789921  0.508385  1
  La  La35  1  0.792234  0.584469  0.550807  1
  La  La36  1  0.584469  0.792234  0.050807  1
  La  La37  1  0.792234  0.207766  0.550807  1
  La  La38  1  0.207766  0.792234  0.050807  1
  La  La39  1  0.205595  0.411190  0.217342  1
  La  La40  1  0.333333  0.666667  0.353552  1
  La  La41  1  0.872405  0.127595  0.865595  1
  La  La42  1  0.127595  0.255189  0.365595  1
  La  La43  1  0.792469  0.584938  0.279774  1
  La  La44  1  0.415062  0.207531  0.279774  1
  La  La45  1  0.541248  0.082497  0.143288  1
  Mg  Mg46  1  0.211751  0.105876  0.136539  1
  Mg  Mg47  1  0.105876  0.894124  0.636539  1
  Mg  Mg48  1  0.000000  0.000000  0.248883  1
  Mg  Mg49  1  0.894124  0.788249  0.136539  1
  Mg  Mg50  1  0.000000  0.000000  0.748883  1
  Mg  Mg51  1  0.105876  0.211751  0.636539  1
  Mg  Mg52  1  0.894124  0.105876  0.136539  1
  Mg  Mg53  1  0.788249  0.894124  0.636539  1
  Rh  Rh54  1  0.479951  0.959903  0.287534  1
  Rh  Rh55  1  0.856551  0.143449  0.436594  1
  Rh  Rh56  1  0.856551  0.713102  0.436594  1
  Rh  Rh57  1  0.666667  0.333333  0.633709  1
  Rh  Rh58  1  0.333333  0.666667  0.133709  1
  Rh  Rh59  1  0.520049  0.479951  0.787534  1
  Rh  Rh60  1  0.143449  0.856551  0.936594  1
  Rh  Rh61  1  0.959903  0.479951  0.787534  1
  Rh  Rh62  1  0.286898  0.143449  0.436594  1
  Rh  Rh63  1  0.520049  0.040097  0.787534  1
  Rh  Rh64  1  0.143449  0.286898  0.936594  1
  Rh  Rh65  1  0.040097  0.520049  0.287534  1
  Rh  Rh66  1  0.479951  0.520049  0.287534  1
  Rh  Rh67  1  0.713102  0.856551  0.936594  1
