# generated using pymatgen
data_Tl2CuAsO4
_symmetry_space_group_name_H-M   'P 1'
_cell_length_a   5.48886786
_cell_length_b   8.82759012
_cell_length_c   12.38145211
_cell_angle_alpha   99.39696116
_cell_angle_beta   90.00000000
_cell_angle_gamma   90.00000000
_symmetry_Int_Tables_number   1
_chemical_formula_structural   Tl2CuAsO4
_chemical_formula_sum   'Tl8 Cu4 As4 O16'
_cell_volume   591.87389750
_cell_formula_units_Z   4
loop_
 _symmetry_equiv_pos_site_id
 _symmetry_equiv_pos_as_xyz
  1  'x, y, z'
loop_
 _atom_site_type_symbol
 _atom_site_label
 _atom_site_symmetry_multiplicity
 _atom_site_fract_x
 _atom_site_fract_y
 _atom_site_fract_z
 _atom_site_occupancy
  Tl  Tl0  1  0.722157  0.687155  0.853161  1
  Tl  Tl1  1  0.222157  0.312845  0.646839  1
  Tl  Tl2  1  0.751506  0.989838  0.115772  1
  Tl  Tl3  1  0.748494  0.989838  0.615772  1
  Tl  Tl4  1  0.248494  0.010162  0.884228  1
  Tl  Tl5  1  0.277843  0.312845  0.146839  1
  Tl  Tl6  1  0.777843  0.687155  0.353161  1
  Tl  Tl7  1  0.251506  0.010162  0.384228  1
  Cu  Cu8  1  0.195563  0.486804  0.423332  1
  Cu  Cu9  1  0.304437  0.486804  0.923332  1
  Cu  Cu10  1  0.804437  0.513196  0.576668  1
  Cu  Cu11  1  0.695563  0.513196  0.076668  1
  As  As12  1  0.749647  0.285590  0.870544  1
  As  As13  1  0.750353  0.285590  0.370544  1
  As  As14  1  0.249647  0.714410  0.629456  1
  As  As15  1  0.250353  0.714410  0.129456  1
  O  O16  1  0.895360  0.415185  0.803180  1
  O  O17  1  0.431286  0.297739  0.853606  1
  O  O18  1  0.184004  0.678203  0.989732  1
  O  O19  1  0.104640  0.584815  0.196820  1
  O  O20  1  0.931286  0.702260  0.646394  1
  O  O21  1  0.330093  0.900828  0.680408  1
  O  O22  1  0.684004  0.321797  0.510268  1
  O  O23  1  0.068714  0.297739  0.353606  1
  O  O24  1  0.830093  0.099172  0.819592  1
  O  O25  1  0.815996  0.321797  0.010268  1
  O  O26  1  0.395360  0.584815  0.696820  1
  O  O27  1  0.169907  0.900828  0.180408  1
  O  O28  1  0.604640  0.415185  0.303180  1
  O  O29  1  0.669907  0.099172  0.319592  1
  O  O30  1  0.315996  0.678203  0.489732  1
  O  O31  1  0.568714  0.702260  0.146394  1
