# generated using pymatgen
data_LaNi5As3
_symmetry_space_group_name_H-M   'P 1'
_cell_length_a   3.91615246
_cell_length_b   11.24035276
_cell_length_c   24.36450569
_cell_angle_alpha   90.00000000
_cell_angle_beta   90.00000000
_cell_angle_gamma   90.00000000
_symmetry_Int_Tables_number   1
_chemical_formula_structural   LaNi5As3
_chemical_formula_sum   'La8 Ni40 As24'
_cell_volume   1072.49959501
_cell_formula_units_Z   8
loop_
 _symmetry_equiv_pos_site_id
 _symmetry_equiv_pos_as_xyz
  1  'x, y, z'
loop_
 _atom_site_type_symbol
 _atom_site_label
 _atom_site_symmetry_multiplicity
 _atom_site_fract_x
 _atom_site_fract_y
 _atom_site_fract_z
 _atom_site_occupancy
  La  La0  1  0.250000  0.587624  0.837667  1
  La  La1  1  0.750000  0.586583  0.603551  1
  La  La2  1  0.750000  0.086583  0.896449  1
  La  La3  1  0.250000  0.413417  0.396449  1
  La  La4  1  0.250000  0.087624  0.662333  1
  La  La5  1  0.750000  0.912376  0.337667  1
  La  La6  1  0.750000  0.412376  0.162333  1
  La  La7  1  0.250000  0.913417  0.103551  1
  Ni  Ni8  1  0.750000  0.979666  0.769713  1
  Ni  Ni9  1  0.750000  0.162010  0.248716  1
  Ni  Ni10  1  0.250000  0.837990  0.751284  1
  Ni  Ni11  1  0.250000  0.617262  0.089287  1
  Ni  Ni12  1  0.250000  0.520334  0.269713  1
  Ni  Ni13  1  0.750000  0.479666  0.730287  1
  Ni  Ni14  1  0.250000  0.707623  0.989499  1
  Ni  Ni15  1  0.250000  0.979306  0.533716  1
  Ni  Ni16  1  0.750000  0.695307  0.733174  1
  Ni  Ni17  1  0.250000  0.089824  0.996014  1
  Ni  Ni18  1  0.250000  0.117262  0.410713  1
  Ni  Ni19  1  0.250000  0.804693  0.233174  1
  Ni  Ni20  1  0.750000  0.102840  0.149832  1
  Ni  Ni21  1  0.250000  0.779080  0.652641  1
  Ni  Ni22  1  0.750000  0.520694  0.033716  1
  Ni  Ni23  1  0.750000  0.792377  0.489499  1
  Ni  Ni24  1  0.750000  0.382738  0.910713  1
  Ni  Ni25  1  0.750000  0.602840  0.350168  1
  Ni  Ni26  1  0.250000  0.897160  0.850168  1
  Ni  Ni27  1  0.750000  0.910176  0.003986  1
  Ni  Ni28  1  0.750000  0.787154  0.913412  1
  Ni  Ni29  1  0.250000  0.337990  0.748716  1
  Ni  Ni30  1  0.250000  0.712846  0.413411  1
  Ni  Ni31  1  0.750000  0.287154  0.586588  1
  Ni  Ni32  1  0.750000  0.410176  0.496014  1
  Ni  Ni33  1  0.250000  0.479306  0.966284  1
  Ni  Ni34  1  0.250000  0.020334  0.230287  1
  Ni  Ni35  1  0.750000  0.020694  0.466284  1
  Ni  Ni36  1  0.250000  0.212846  0.086588  1
  Ni  Ni37  1  0.250000  0.207623  0.510501  1
  Ni  Ni38  1  0.250000  0.589824  0.503986  1
  Ni  Ni39  1  0.750000  0.662010  0.251284  1
  Ni  Ni40  1  0.750000  0.220920  0.347359  1
  Ni  Ni41  1  0.750000  0.882738  0.589287  1
  Ni  Ni42  1  0.250000  0.279080  0.847359  1
  Ni  Ni43  1  0.250000  0.304693  0.266826  1
  Ni  Ni44  1  0.750000  0.292377  0.010501  1
  Ni  Ni45  1  0.750000  0.195307  0.766826  1
  Ni  Ni46  1  0.750000  0.720920  0.152641  1
  Ni  Ni47  1  0.250000  0.397160  0.649832  1
  As  As48  1  0.750000  0.099907  0.052837  1
  As  As49  1  0.750000  0.226881  0.443551  1
  As  As50  1  0.750000  0.911825  0.203380  1
  As  As51  1  0.750000  0.588491  0.940052  1
  As  As52  1  0.250000  0.273119  0.943551  1
  As  As53  1  0.250000  0.588175  0.703380  1
  As  As54  1  0.250000  0.123206  0.314456  1
  As  As55  1  0.250000  0.623206  0.185544  1
  As  As56  1  0.250000  0.201023  0.182640  1
  As  As57  1  0.750000  0.088491  0.559948  1
  As  As58  1  0.250000  0.773119  0.556449  1
  As  As59  1  0.750000  0.298977  0.682640  1
  As  As60  1  0.750000  0.798977  0.817360  1
  As  As61  1  0.750000  0.376794  0.814456  1
  As  As62  1  0.750000  0.726881  0.056449  1
  As  As63  1  0.750000  0.876794  0.685544  1
  As  As64  1  0.250000  0.701023  0.317360  1
  As  As65  1  0.250000  0.900093  0.947163  1
  As  As66  1  0.250000  0.911509  0.440052  1
  As  As67  1  0.250000  0.400093  0.552837  1
  As  As68  1  0.250000  0.088175  0.796620  1
  As  As69  1  0.750000  0.599907  0.447163  1
  As  As70  1  0.250000  0.411509  0.059948  1
  As  As71  1  0.750000  0.411825  0.296620  1
