# generated using pymatgen
data_Li2Mo(PO4)2
_symmetry_space_group_name_H-M   'P 1'
_cell_length_a   8.14273635
_cell_length_b   5.50055892
_cell_length_c   6.52412676
_cell_angle_alpha   90.00000000
_cell_angle_beta   91.81433194
_cell_angle_gamma   90.00000000
_symmetry_Int_Tables_number   1
_chemical_formula_structural   Li2Mo(PO4)2
_chemical_formula_sum   'Li4 Mo2 P4 O16'
_cell_volume   292.06654032
_cell_formula_units_Z   2
loop_
 _symmetry_equiv_pos_site_id
 _symmetry_equiv_pos_as_xyz
  1  'x, y, z'
loop_
 _atom_site_type_symbol
 _atom_site_label
 _atom_site_symmetry_multiplicity
 _atom_site_fract_x
 _atom_site_fract_y
 _atom_site_fract_z
 _atom_site_occupancy
  Li  Li0  1  0.922896  0.250000  0.711084  1
  Li  Li1  1  0.753823  0.750000  0.487417  1
  Li  Li2  1  0.254519  0.250000  0.486026  1
  Li  Li3  1  0.422706  0.750000  0.712426  1
  Mo  Mo4  1  0.753578  0.750000  0.005632  1
  Mo  Mo5  1  0.253473  0.250000  0.005558  1
  P  P6  1  0.898742  0.250000  0.239009  1
  P  P7  1  0.095681  0.750000  0.762676  1
  P  P8  1  0.398657  0.750000  0.239539  1
  P  P9  1  0.595745  0.250000  0.762238  1
  O  O10  1  0.501591  0.750000  0.435518  1
  O  O11  1  0.994999  0.750000  0.963752  1
  O  O12  1  0.486879  0.250000  0.574603  1
  O  O13  1  0.287757  0.517912  0.224498  1
  O  O14  1  0.215218  0.977173  0.774454  1
  O  O15  1  0.787771  0.482014  0.224329  1
  O  O16  1  0.287757  0.982088  0.224498  1
  O  O17  1  0.986561  0.750000  0.575230  1
  O  O18  1  0.002091  0.250000  0.434642  1
  O  O19  1  0.787771  0.017986  0.224329  1
  O  O20  1  0.494848  0.250000  0.963161  1
  O  O21  1  0.715252  0.477244  0.774198  1
  O  O22  1  0.215218  0.522827  0.774454  1
  O  O23  1  0.506854  0.750000  0.040247  1
  O  O24  1  0.715252  0.022756  0.774198  1
  O  O25  1  0.006690  0.250000  0.039525  1
