# generated using pymatgen
data_CsLi3Cl4
_symmetry_space_group_name_H-M   'P 1'
_cell_length_a   4.77937584
_cell_length_b   5.07763320
_cell_length_c   15.66970382
_cell_angle_alpha   90.00000000
_cell_angle_beta   98.77204966
_cell_angle_gamma   90.00000000
_symmetry_Int_Tables_number   1
_chemical_formula_structural   CsLi3Cl4
_chemical_formula_sum   'Cs2 Li6 Cl8'
_cell_volume   375.82300744
_cell_formula_units_Z   2
loop_
 _symmetry_equiv_pos_site_id
 _symmetry_equiv_pos_as_xyz
  1  'x, y, z'
loop_
 _atom_site_type_symbol
 _atom_site_label
 _atom_site_symmetry_multiplicity
 _atom_site_fract_x
 _atom_site_fract_y
 _atom_site_fract_z
 _atom_site_occupancy
  Cs  Cs0  1  0.651601  0.750000  0.303202  1
  Cs  Cs1  1  0.348399  0.250000  0.696798  1
  Li  Li2  1  0.774503  0.750000  0.549006  1
  Li  Li3  1  0.067656  0.250000  0.135313  1
  Li  Li4  1  0.530804  0.750000  0.061608  1
  Li  Li5  1  0.225497  0.250000  0.450994  1
  Li  Li6  1  0.469196  0.250000  0.938392  1
  Li  Li7  1  0.932344  0.750000  0.864687  1
  Cl  Cl8  1  0.851981  0.750000  0.703963  1
  Cl  Cl9  1  0.751923  0.250000  0.503846  1
  Cl  Cl10  1  0.546345  0.250000  0.092690  1
  Cl  Cl11  1  0.453655  0.750000  0.907310  1
  Cl  Cl12  1  0.054640  0.750000  0.109280  1
  Cl  Cl13  1  0.148019  0.250000  0.296037  1
  Cl  Cl14  1  0.248077  0.750000  0.496154  1
  Cl  Cl15  1  0.945360  0.250000  0.890720  1
