# generated using pymatgen
data_Mn2Nb9Ge8
_symmetry_space_group_name_H-M   'P 1'
_cell_length_a   5.33645737
_cell_length_b   14.00256122
_cell_length_c   16.84898690
_cell_angle_alpha   90.00000000
_cell_angle_beta   90.00000000
_cell_angle_gamma   90.00000000
_symmetry_Int_Tables_number   1
_chemical_formula_structural   Mn2Nb9Ge8
_chemical_formula_sum   'Mn8 Nb36 Ge32'
_cell_volume   1259.02489375
_cell_formula_units_Z   4
loop_
 _symmetry_equiv_pos_site_id
 _symmetry_equiv_pos_as_xyz
  1  'x, y, z'
loop_
 _atom_site_type_symbol
 _atom_site_label
 _atom_site_symmetry_multiplicity
 _atom_site_fract_x
 _atom_site_fract_y
 _atom_site_fract_z
 _atom_site_occupancy
  Mn  Mn0  1  0.250000  0.693521  0.749407  1
  Mn  Mn1  1  0.750000  0.306479  0.250593  1
  Mn  Mn2  1  0.750000  0.806479  0.249407  1
  Mn  Mn3  1  0.250000  0.193521  0.750593  1
  Mn  Mn4  1  0.250000  0.363831  0.839357  1
  Mn  Mn5  1  0.750000  0.136169  0.339357  1
  Mn  Mn6  1  0.750000  0.636169  0.160643  1
  Mn  Mn7  1  0.250000  0.863831  0.660643  1
  Nb  Nb8  1  0.250000  0.247090  0.027317  1
  Nb  Nb9  1  0.250000  0.874346  0.997288  1
  Nb  Nb10  1  0.750000  0.066842  0.804602  1
  Nb  Nb11  1  0.496429  0.864449  0.823934  1
  Nb  Nb12  1  0.250000  0.747090  0.472683  1
  Nb  Nb13  1  0.500446  0.558834  0.879821  1
  Nb  Nb14  1  0.750000  0.752910  0.972683  1
  Nb  Nb15  1  0.250000  0.549472  0.594867  1
  Nb  Nb16  1  0.250000  0.374346  0.502712  1
  Nb  Nb17  1  0.999554  0.058834  0.620179  1
  Nb  Nb18  1  0.500446  0.058834  0.620179  1
  Nb  Nb19  1  0.750000  0.870903  0.541738  1
  Nb  Nb20  1  0.750000  0.252910  0.527317  1
  Nb  Nb21  1  0.999554  0.558834  0.879821  1
  Nb  Nb22  1  0.750000  0.625654  0.497288  1
  Nb  Nb23  1  0.250000  0.433158  0.304602  1
  Nb  Nb24  1  0.003571  0.364449  0.676066  1
  Nb  Nb25  1  0.750000  0.950528  0.094867  1
  Nb  Nb26  1  0.250000  0.129097  0.458262  1
  Nb  Nb27  1  0.499554  0.441166  0.120179  1
  Nb  Nb28  1  0.000446  0.941166  0.379821  1
  Nb  Nb29  1  0.250000  0.049472  0.905133  1
  Nb  Nb30  1  0.250000  0.629097  0.041738  1
  Nb  Nb31  1  0.496429  0.364449  0.676066  1
  Nb  Nb32  1  0.996429  0.135551  0.176066  1
  Nb  Nb33  1  0.003571  0.864449  0.823934  1
  Nb  Nb34  1  0.503571  0.635551  0.323934  1
  Nb  Nb35  1  0.996429  0.635551  0.323934  1
  Nb  Nb36  1  0.499554  0.941166  0.379821  1
  Nb  Nb37  1  0.750000  0.450528  0.405133  1
  Nb  Nb38  1  0.250000  0.933158  0.195398  1
  Nb  Nb39  1  0.750000  0.125654  0.002712  1
  Nb  Nb40  1  0.750000  0.370903  0.958262  1
  Nb  Nb41  1  0.000446  0.441166  0.120179  1
  Nb  Nb42  1  0.750000  0.566842  0.695398  1
  Nb  Nb43  1  0.503571  0.135551  0.176066  1
  Ge  Ge44  1  0.750000  0.451395  0.560338  1
  Ge  Ge45  1  0.250000  0.048605  0.060338  1
  Ge  Ge46  1  0.750000  0.061355  0.479750  1
  Ge  Ge47  1  0.250000  0.086914  0.305571  1
  Ge  Ge48  1  0.002557  0.780843  0.119306  1
  Ge  Ge49  1  0.497443  0.280843  0.380694  1
  Ge  Ge50  1  0.250000  0.438645  0.979750  1
  Ge  Ge51  1  0.502557  0.219157  0.880694  1
  Ge  Ge52  1  0.997443  0.219157  0.880694  1
  Ge  Ge53  1  0.250000  0.548605  0.439662  1
  Ge  Ge54  1  0.750000  0.989213  0.247040  1
  Ge  Ge55  1  0.250000  0.938645  0.520250  1
  Ge  Ge56  1  0.250000  0.296770  0.194701  1
  Ge  Ge57  1  0.250000  0.010787  0.752960  1
  Ge  Ge58  1  0.750000  0.913086  0.694429  1
  Ge  Ge59  1  0.250000  0.796770  0.305299  1
  Ge  Ge60  1  0.750000  0.489213  0.252960  1
  Ge  Ge61  1  0.250000  0.224465  0.597374  1
  Ge  Ge62  1  0.497443  0.780843  0.119306  1
  Ge  Ge63  1  0.250000  0.510787  0.747040  1
  Ge  Ge64  1  0.750000  0.951395  0.939662  1
  Ge  Ge65  1  0.750000  0.413086  0.805571  1
  Ge  Ge66  1  0.750000  0.203230  0.694701  1
  Ge  Ge67  1  0.750000  0.703230  0.805299  1
  Ge  Ge68  1  0.750000  0.775535  0.402626  1
  Ge  Ge69  1  0.250000  0.724465  0.902626  1
  Ge  Ge70  1  0.750000  0.561355  0.020250  1
  Ge  Ge71  1  0.002557  0.280843  0.380694  1
  Ge  Ge72  1  0.250000  0.586914  0.194429  1
  Ge  Ge73  1  0.502557  0.719157  0.619306  1
  Ge  Ge74  1  0.997443  0.719157  0.619306  1
  Ge  Ge75  1  0.750000  0.275535  0.097374  1
