# generated using pymatgen
data_Na5B2P3O13
_symmetry_space_group_name_H-M   'P 1'
_cell_length_a   6.79259920
_cell_length_b   7.77690204
_cell_length_c   11.74681144
_cell_angle_alpha   90.00000000
_cell_angle_beta   90.00000000
_cell_angle_gamma   115.09530762
_symmetry_Int_Tables_number   1
_chemical_formula_structural   Na5B2P3O13
_chemical_formula_sum   'Na10 B4 P6 O26'
_cell_volume   561.95394665
_cell_formula_units_Z   2
loop_
 _symmetry_equiv_pos_site_id
 _symmetry_equiv_pos_as_xyz
  1  'x, y, z'
loop_
 _atom_site_type_symbol
 _atom_site_label
 _atom_site_symmetry_multiplicity
 _atom_site_fract_x
 _atom_site_fract_y
 _atom_site_fract_z
 _atom_site_occupancy
  Na  Na0  1  0.380312  0.721832  0.898702  1
  Na  Na1  1  0.475030  0.507744  0.669224  1
  Na  Na2  1  0.352152  0.732711  0.391845  1
  Na  Na3  1  0.901078  0.964675  0.763935  1
  Na  Na4  1  0.098922  0.035325  0.263935  1
  Na  Na5  1  0.951775  0.488031  0.668029  1
  Na  Na6  1  0.619688  0.278168  0.398702  1
  Na  Na7  1  0.048225  0.511969  0.168029  1
  Na  Na8  1  0.647848  0.267289  0.891845  1
  Na  Na9  1  0.524970  0.492256  0.169224  1
  B  B10  1  0.788772  0.001556  0.487100  1
  B  B11  1  0.132521  0.996136  0.535904  1
  B  B12  1  0.211228  0.998444  0.987100  1
  B  B13  1  0.867479  0.003864  0.035904  1
  P  P14  1  0.155985  0.320406  0.436778  1
  P  P15  1  0.841909  0.693350  0.423265  1
  P  P16  1  0.499791  0.011039  0.650827  1
  P  P17  1  0.500209  0.988961  0.150827  1
  P  P18  1  0.844015  0.679594  0.936778  1
  P  P19  1  0.158091  0.306650  0.923265  1
  O  O20  1  0.251525  0.969865  0.632723  1
  O  O21  1  0.737814  0.821177  0.972328  1
  O  O22  1  0.741729  0.559851  0.522598  1
  O  O23  1  0.731614  0.837196  0.404782  1
  O  O24  1  0.262186  0.178823  0.472328  1
  O  O25  1  0.910021  0.161357  0.948258  1
  O  O26  1  0.753863  0.597542  0.820361  1
  O  O27  1  0.070644  0.007554  0.075548  1
  O  O28  1  0.258271  0.440149  0.022598  1
  O  O29  1  0.748475  0.030135  0.132723  1
  O  O30  1  0.807955  0.532917  0.028972  1
  O  O31  1  0.835009  0.594449  0.310668  1
  O  O32  1  0.164991  0.405551  0.810668  1
  O  O33  1  0.489150  0.146651  0.223065  1
  O  O34  1  0.192045  0.467083  0.528972  1
  O  O35  1  0.929356  0.992446  0.575548  1
  O  O36  1  0.510850  0.853349  0.723065  1
  O  O37  1  0.246137  0.402458  0.320361  1
  O  O38  1  0.421564  0.002836  0.023068  1
  O  O39  1  0.904564  0.181905  0.418082  1
  O  O40  1  0.268386  0.162804  0.904782  1
  O  O41  1  0.371908  0.789544  0.196148  1
  O  O42  1  0.628092  0.210456  0.696148  1
  O  O43  1  0.578436  0.997164  0.523068  1
  O  O44  1  0.089979  0.838643  0.448258  1
  O  O45  1  0.095436  0.818095  0.918082  1
