# generated using pymatgen
data_LiUPO6
_symmetry_space_group_name_H-M   'P 1'
_cell_length_a   5.12258280
_cell_length_b   10.07427793
_cell_length_c   11.02068881
_cell_angle_alpha   109.20487219
_cell_angle_beta   104.00287807
_cell_angle_gamma   102.71168359
_symmetry_Int_Tables_number   1
_chemical_formula_structural   LiUPO6
_chemical_formula_sum   'Li4 U4 P4 O24'
_cell_volume   492.47358374
_cell_formula_units_Z   4
loop_
 _symmetry_equiv_pos_site_id
 _symmetry_equiv_pos_as_xyz
  1  'x, y, z'
loop_
 _atom_site_type_symbol
 _atom_site_label
 _atom_site_symmetry_multiplicity
 _atom_site_fract_x
 _atom_site_fract_y
 _atom_site_fract_z
 _atom_site_occupancy
  Li  Li0  1  0.739473  0.907240  0.304679  1
  Li  Li1  1  0.683138  0.383335  0.236176  1
  Li  Li2  1  0.316862  0.616665  0.763824  1
  Li  Li3  1  0.260527  0.092760  0.695321  1
  U  U4  1  0.026756  0.278867  0.516419  1
  U  U5  1  0.973244  0.721133  0.483581  1
  U  U6  1  0.029841  0.793292  0.020674  1
  U  U7  1  0.970159  0.206708  0.979326  1
  P  P8  1  0.658060  0.889369  0.735100  1
  P  P9  1  0.341940  0.110631  0.264900  1
  P  P10  1  0.275172  0.585467  0.221432  1
  P  P11  1  0.724828  0.414533  0.778568  1
  O  O12  1  0.600243  0.039569  0.765882  1
  O  O13  1  0.204053  0.183430  0.878653  1
  O  O14  1  0.433454  0.296654  0.675370  1
  O  O15  1  0.740059  0.233500  0.081839  1
  O  O16  1  0.053381  0.567954  0.295540  1
  O  O17  1  0.155560  0.890541  0.470348  1
  O  O18  1  0.795947  0.816570  0.121347  1
  O  O19  1  0.143745  0.125704  0.351497  1
  O  O20  1  0.566546  0.703346  0.324630  1
  O  O21  1  0.813003  0.898397  0.878912  1
  O  O22  1  0.946619  0.432046  0.704460  1
  O  O23  1  0.170121  0.641775  0.110589  1
  O  O24  1  0.769773  0.554427  0.490440  1
  O  O25  1  0.259941  0.766500  0.918161  1
  O  O26  1  0.186997  0.101603  0.121088  1
  O  O27  1  0.683939  0.567896  0.843644  1
  O  O28  1  0.829879  0.358225  0.889411  1
  O  O29  1  0.316061  0.432104  0.156356  1
  O  O30  1  0.856255  0.874296  0.648503  1
  O  O31  1  0.399757  0.960431  0.234118  1
  O  O32  1  0.230227  0.445573  0.509560  1
  O  O33  1  0.376057  0.756202  0.661426  1
  O  O34  1  0.844440  0.109459  0.529652  1
  O  O35  1  0.623943  0.243798  0.338574  1
