# generated using pymatgen
data_NaSmGeO4
_symmetry_space_group_name_H-M   'P 1'
_cell_length_a   5.38004984
_cell_length_b   6.64449807
_cell_length_c   11.73826303
_cell_angle_alpha   90.00000000
_cell_angle_beta   90.00000000
_cell_angle_gamma   90.00000000
_symmetry_Int_Tables_number   1
_chemical_formula_structural   NaSmGeO4
_chemical_formula_sum   'Na4 Sm4 Ge4 O16'
_cell_volume   419.61626660
_cell_formula_units_Z   4
loop_
 _symmetry_equiv_pos_site_id
 _symmetry_equiv_pos_as_xyz
  1  'x, y, z'
loop_
 _atom_site_type_symbol
 _atom_site_label
 _atom_site_symmetry_multiplicity
 _atom_site_fract_x
 _atom_site_fract_y
 _atom_site_fract_z
 _atom_site_occupancy
  Na  Na0  1  -0.000004  0.749566  0.500620  1
  Na  Na1  1  0.500004  0.749566  0.000620  1
  Na  Na2  1  1.000004  0.249566  0.499380  1
  Na  Na3  1  0.499996  0.249566  0.999380  1
  Sm  Sm4  1  0.998220  0.500387  0.221065  1
  Sm  Sm5  1  0.001780  0.000387  0.778935  1
  Sm  Sm6  1  0.501780  0.500387  0.721065  1
  Sm  Sm7  1  0.498220  0.000387  0.278935  1
  Ge  Ge8  1  0.561906  0.000290  0.595824  1
  Ge  Ge9  1  0.061906  0.500290  0.904176  1
  Ge  Ge10  1  0.438094  0.500290  0.404176  1
  Ge  Ge11  1  0.938094  0.000290  0.095824  1
  O  O12  1  0.786893  0.795419  0.170618  1
  O  O13  1  0.212835  0.705137  0.829320  1
  O  O14  1  0.286893  0.295419  0.329382  1
  O  O15  1  0.738287  0.500046  0.890264  1
  O  O16  1  0.238287  1.000046  0.609736  1
  O  O17  1  0.261713  1.000046  0.109736  1
  O  O18  1  0.819269  0.000155  0.955746  1
  O  O19  1  0.680731  0.000155  0.455746  1
  O  O20  1  0.287165  0.705137  0.329320  1
  O  O21  1  0.713107  0.795419  0.670618  1
  O  O22  1  0.180731  0.500155  0.044254  1
  O  O23  1  0.787165  0.205137  0.170680  1
  O  O24  1  0.319269  0.500155  0.544254  1
  O  O25  1  0.761713  0.500046  0.390264  1
  O  O26  1  0.712835  0.205137  0.670680  1
  O  O27  1  0.213107  0.295419  0.829382  1
