# generated using pymatgen
data_HfSCl6O
_symmetry_space_group_name_H-M   'P 1'
_cell_length_a   7.01628395
_cell_length_b   7.60977750
_cell_length_c   22.25344589
_cell_angle_alpha   90.00000000
_cell_angle_beta   90.00000000
_cell_angle_gamma   115.00776779
_symmetry_Int_Tables_number   1
_chemical_formula_structural   HfSCl6O
_chemical_formula_sum   'Hf4 S4 Cl24 O4'
_cell_volume   1076.77418706
_cell_formula_units_Z   4
loop_
 _symmetry_equiv_pos_site_id
 _symmetry_equiv_pos_as_xyz
  1  'x, y, z'
loop_
 _atom_site_type_symbol
 _atom_site_label
 _atom_site_symmetry_multiplicity
 _atom_site_fract_x
 _atom_site_fract_y
 _atom_site_fract_z
 _atom_site_occupancy
  Hf  Hf0  1  0.501737  0.651316  0.074118  1
  Hf  Hf1  1  0.498263  0.848684  0.574118  1
  Hf  Hf2  1  0.501737  0.151316  0.425882  1
  Hf  Hf3  1  0.498263  0.348684  0.925882  1
  S  S4  1  0.127992  0.679702  0.360443  1
  S  S5  1  0.872008  0.320298  0.639557  1
  S  S6  1  0.127992  0.179702  0.139557  1
  S  S7  1  0.872008  0.820298  0.860443  1
  Cl  Cl8  1  0.318128  0.831140  0.665132  1
  Cl  Cl9  1  0.738076  0.947383  0.033881  1
  Cl  Cl10  1  0.738076  0.447383  0.466119  1
  Cl  Cl11  1  0.261924  0.052617  0.966119  1
  Cl  Cl12  1  0.247368  0.251453  0.391188  1
  Cl  Cl13  1  0.681872  0.168860  0.334868  1
  Cl  Cl14  1  0.094547  0.238107  0.674096  1
  Cl  Cl15  1  0.681872  0.668860  0.165132  1
  Cl  Cl16  1  0.696747  0.962310  0.473931  1
  Cl  Cl17  1  0.261924  0.552617  0.533881  1
  Cl  Cl18  1  0.905453  0.761893  0.325904  1
  Cl  Cl19  1  0.303253  0.537690  0.973931  1
  Cl  Cl20  1  0.303253  0.037690  0.526069  1
  Cl  Cl21  1  0.905453  0.261893  0.174096  1
  Cl  Cl22  1  0.094547  0.738107  0.825904  1
  Cl  Cl23  1  0.286954  0.180843  0.217898  1
  Cl  Cl24  1  0.696747  0.462310  0.026069  1
  Cl  Cl25  1  0.318128  0.331140  0.834868  1
  Cl  Cl26  1  0.752632  0.248547  0.891188  1
  Cl  Cl27  1  0.247368  0.751453  0.108812  1
  Cl  Cl28  1  0.713046  0.819157  0.782102  1
  Cl  Cl29  1  0.752632  0.748547  0.608812  1
  Cl  Cl30  1  0.286954  0.680843  0.282102  1
  Cl  Cl31  1  0.713046  0.319157  0.717898  1
  O  O32  1  0.273147  0.342810  0.102760  1
  O  O33  1  0.726853  0.657190  0.897240  1
  O  O34  1  0.726853  0.157190  0.602760  1
  O  O35  1  0.273147  0.842810  0.397240  1
