# generated using pymatgen
data_SbS8Cl5O
_symmetry_space_group_name_H-M   'P 1'
_cell_length_a   9.47358387
_cell_length_b   11.05111057
_cell_length_c   17.60945547
_cell_angle_alpha   90.00000000
_cell_angle_beta   90.00000000
_cell_angle_gamma   90.00000000
_symmetry_Int_Tables_number   1
_chemical_formula_structural   SbS8Cl5O
_chemical_formula_sum   'Sb4 S32 Cl20 O4'
_cell_volume   1843.59768942
_cell_formula_units_Z   4
loop_
 _symmetry_equiv_pos_site_id
 _symmetry_equiv_pos_as_xyz
  1  'x, y, z'
loop_
 _atom_site_type_symbol
 _atom_site_label
 _atom_site_symmetry_multiplicity
 _atom_site_fract_x
 _atom_site_fract_y
 _atom_site_fract_z
 _atom_site_occupancy
  Sb  Sb0  1  0.750000  0.698708  0.974282  1
  Sb  Sb1  1  0.250000  0.301292  0.025718  1
  Sb  Sb2  1  0.250000  0.198708  0.525718  1
  Sb  Sb3  1  0.750000  0.801292  0.474282  1
  S  S4  1  0.925199  0.272207  0.780974  1
  S  S5  1  0.250000  0.776489  0.787799  1
  S  S6  1  0.750000  0.276489  0.712201  1
  S  S7  1  0.074801  0.772207  0.719026  1
  S  S8  1  0.503411  0.904546  0.217751  1
  S  S9  1  0.996589  0.904546  0.217751  1
  S  S10  1  0.496589  0.404546  0.282249  1
  S  S11  1  0.431412  0.513591  0.622339  1
  S  S12  1  0.074801  0.727793  0.219026  1
  S  S13  1  0.003411  0.404546  0.282249  1
  S  S14  1  0.750000  0.920253  0.830193  1
  S  S15  1  0.574801  0.227793  0.280974  1
  S  S16  1  0.503411  0.595454  0.717751  1
  S  S17  1  0.425199  0.727793  0.219026  1
  S  S18  1  0.003411  0.095454  0.782249  1
  S  S19  1  0.925199  0.227793  0.280974  1
  S  S20  1  0.068588  0.986409  0.122339  1
  S  S21  1  0.431412  0.986409  0.122339  1
  S  S22  1  0.750000  0.223511  0.212201  1
  S  S23  1  0.496589  0.095454  0.782249  1
  S  S24  1  0.750000  0.579747  0.330193  1
  S  S25  1  0.574801  0.272207  0.780974  1
  S  S26  1  0.068588  0.513591  0.622339  1
  S  S27  1  0.568588  0.013591  0.877661  1
  S  S28  1  0.568588  0.486409  0.377661  1
  S  S29  1  0.931412  0.486409  0.377661  1
  S  S30  1  0.425199  0.772207  0.719026  1
  S  S31  1  0.250000  0.723511  0.287799  1
  S  S32  1  0.996589  0.595454  0.717751  1
  S  S33  1  0.931412  0.013591  0.877661  1
  S  S34  1  0.250000  0.079747  0.169807  1
  S  S35  1  0.250000  0.420253  0.669807  1
  Cl  Cl36  1  0.250000  0.104324  0.405299  1
  Cl  Cl37  1  0.750000  0.604324  0.094701  1
  Cl  Cl38  1  0.750000  0.519477  0.900480  1
  Cl  Cl39  1  0.999388  0.208479  0.533257  1
  Cl  Cl40  1  0.250000  0.097142  0.974530  1
  Cl  Cl41  1  0.250000  0.402858  0.474530  1
  Cl  Cl42  1  0.499388  0.708479  0.966743  1
  Cl  Cl43  1  0.750000  0.980523  0.400480  1
  Cl  Cl44  1  0.500612  0.208479  0.533257  1
  Cl  Cl45  1  0.999388  0.291521  0.033257  1
  Cl  Cl46  1  0.250000  0.395676  0.905299  1
  Cl  Cl47  1  0.750000  0.895676  0.594701  1
  Cl  Cl48  1  0.000612  0.708479  0.966743  1
  Cl  Cl49  1  0.750000  0.597142  0.525470  1
  Cl  Cl50  1  0.750000  0.902858  0.025470  1
  Cl  Cl51  1  0.500612  0.291521  0.033257  1
  Cl  Cl52  1  0.499388  0.791521  0.466743  1
  Cl  Cl53  1  0.000612  0.791521  0.466743  1
  Cl  Cl54  1  0.250000  0.480523  0.099520  1
  Cl  Cl55  1  0.250000  0.019477  0.599520  1
  O  O56  1  0.250000  0.289658  0.640343  1
  O  O57  1  0.750000  0.789658  0.859657  1
  O  O58  1  0.250000  0.210342  0.140343  1
  O  O59  1  0.750000  0.710342  0.359658  1
