# generated using pymatgen
data_SbI3
_symmetry_space_group_name_H-M   'P 1'
_cell_length_a   7.91228180
_cell_length_b   8.87491988
_cell_length_c   11.71589501
_cell_angle_alpha   90.00000000
_cell_angle_beta   90.00000000
_cell_angle_gamma   109.36587584
_symmetry_Int_Tables_number   1
_chemical_formula_structural   SbI3
_chemical_formula_sum   'Sb4 I12'
_cell_volume   776.15218459
_cell_formula_units_Z   4
loop_
 _symmetry_equiv_pos_site_id
 _symmetry_equiv_pos_as_xyz
  1  'x, y, z'
loop_
 _atom_site_type_symbol
 _atom_site_label
 _atom_site_symmetry_multiplicity
 _atom_site_fract_x
 _atom_site_fract_y
 _atom_site_fract_z
 _atom_site_occupancy
  Sb  Sb0  1  0.047649  0.676013  0.662116  1
  Sb  Sb1  1  0.047649  0.176013  0.837884  1
  Sb  Sb2  1  0.952351  0.823987  0.162116  1
  Sb  Sb3  1  0.952351  0.323987  0.337884  1
  I  I4  1  0.211790  0.696434  0.446295  1
  I  I5  1  0.317149  0.452850  0.752775  1
  I  I6  1  0.317149  0.952850  0.747225  1
  I  I7  1  0.793322  0.320082  0.898161  1
  I  I8  1  0.206678  0.679918  0.101839  1
  I  I9  1  0.793322  0.820082  0.601839  1
  I  I10  1  0.788210  0.303566  0.553705  1
  I  I11  1  0.211790  0.196434  0.053705  1
  I  I12  1  0.788210  0.803566  0.946295  1
  I  I13  1  0.206678  0.179918  0.398161  1
  I  I14  1  0.682851  0.047150  0.252775  1
  I  I15  1  0.682851  0.547150  0.247225  1
