# generated using pymatgen
data_Na2B8O13
_symmetry_space_group_name_H-M   'P 1'
_cell_length_a   6.62301925
_cell_length_b   8.55123875
_cell_length_c   18.01312364
_cell_angle_alpha   90.00000000
_cell_angle_beta   90.00000000
_cell_angle_gamma   95.03937016
_symmetry_Int_Tables_number   1
_chemical_formula_structural   Na2B8O13
_chemical_formula_sum   'Na8 B32 O52'
_cell_volume   1016.23019262
_cell_formula_units_Z   4
loop_
 _symmetry_equiv_pos_site_id
 _symmetry_equiv_pos_as_xyz
  1  'x, y, z'
loop_
 _atom_site_type_symbol
 _atom_site_label
 _atom_site_symmetry_multiplicity
 _atom_site_fract_x
 _atom_site_fract_y
 _atom_site_fract_z
 _atom_site_occupancy
  Na  Na0  1  0.421705  0.039474  0.638139  1
  Na  Na1  1  0.078295  0.960526  0.138139  1
  Na  Na2  1  0.578295  0.960526  0.361861  1
  Na  Na3  1  0.921705  0.039474  0.861861  1
  Na  Na4  1  0.040294  0.579033  0.599961  1
  Na  Na5  1  0.459706  0.420967  0.099961  1
  Na  Na6  1  0.959706  0.420967  0.400039  1
  Na  Na7  1  0.540294  0.579033  0.900039  1
  O  O8  1  0.272858  0.850399  0.437688  1
  O  O9  1  0.227142  0.149601  0.937688  1
  O  O10  1  0.727142  0.149601  0.562312  1
  O  O11  1  0.772858  0.850399  0.062312  1
  O  O12  1  0.607727  0.817723  0.466978  1
  O  O13  1  0.892273  0.182277  0.966978  1
  O  O14  1  0.392273  0.182277  0.533022  1
  O  O15  1  0.107727  0.817723  0.033022  1
  O  O16  1  0.944390  0.730999  0.478392  1
  O  O17  1  0.555610  0.269001  0.978392  1
  O  O18  1  0.055610  0.269001  0.521608  1
  O  O19  1  0.444390  0.730999  0.021608  1
  O  O20  1  0.705658  0.675009  0.573251  1
  O  O21  1  0.794342  0.324991  0.073251  1
  O  O22  1  0.294342  0.324991  0.426749  1
  O  O23  1  0.205658  0.675009  0.926749  1
  O  O24  1  0.353821  0.741415  0.557882  1
  O  O25  1  0.146179  0.258585  0.057882  1
  O  O26  1  0.646179  0.258585  0.442118  1
  O  O27  1  0.853821  0.741415  0.942118  1
  O  O28  1  0.425588  0.525322  0.632518  1
  O  O29  1  0.074412  0.474678  0.132518  1
  O  O30  1  0.574412  0.474678  0.367482  1
  O  O31  1  0.925588  0.525322  0.867482  1
  O  O32  1  0.508975  0.578983  0.760113  1
  O  O33  1  0.991025  0.421017  0.260113  1
  O  O34  1  0.491025  0.421017  0.239887  1
  O  O35  1  0.008975  0.578983  0.739887  1
  O  O36  1  0.536619  0.830986  0.808406  1
  O  O37  1  0.963381  0.169014  0.308406  1
  O  O38  1  0.463381  0.169014  0.191594  1
  O  O39  1  0.036619  0.830986  0.691594  1
  O  O40  1  0.527770  0.794348  0.674111  1
  O  O41  1  0.972230  0.205652  0.174111  1
  O  O42  1  0.472230  0.205652  0.325889  1
  O  O43  1  0.027770  0.794348  0.825889  1
  O  O44  1  0.406275  0.317578  0.718506  1
  O  O45  1  0.093725  0.682422  0.218506  1
  O  O46  1  0.593725  0.682422  0.281494  1
  O  O47  1  0.906275  0.317578  0.781494  1
  O  O48  1  0.408539  0.072518  0.771078  1
  O  O49  1  0.091461  0.927482  0.271078  1
  O  O50  1  0.591461  0.927482  0.228922  1
  O  O51  1  0.908539  0.072518  0.728922  1
  O  O52  1  0.526666  0.038832  0.895018  1
  O  O53  1  0.973334  0.961168  0.395018  1
  O  O54  1  0.473334  0.961168  0.104982  1
  O  O55  1  0.026666  0.038832  0.604982  1
  O  O56  1  0.444445  0.297906  0.852547  1
  O  O57  1  0.055555  0.702094  0.352547  1
  O  O58  1  0.555555  0.702094  0.147453  1
  O  O59  1  0.944445  0.297906  0.647453  1
  B  B60  1  0.402713  0.799838  0.488846  1
  B  B61  1  0.097287  0.200162  0.988846  1
  B  B62  1  0.597287  0.200162  0.511154  1
  B  B63  1  0.902713  0.799838  0.011154  1
  B  B64  1  0.754635  0.744100  0.505930  1
  B  B65  1  0.745365  0.255900  0.005930  1
  B  B66  1  0.245365  0.255900  0.494070  1
  B  B67  1  0.254635  0.744100  0.994070  1
  B  B68  1  0.506405  0.682804  0.607948  1
  B  B69  1  0.993595  0.317196  0.107948  1
  B  B70  1  0.493595  0.317196  0.392052  1
  B  B71  1  0.006405  0.682804  0.892052  1
  B  B72  1  0.447428  0.474967  0.702796  1
  B  B73  1  0.052572  0.525033  0.202796  1
  B  B74  1  0.552572  0.525033  0.297204  1
  B  B75  1  0.947428  0.474967  0.797204  1
  B  B76  1  0.524278  0.740038  0.744686  1
  B  B77  1  0.975722  0.259962  0.244686  1
  B  B78  1  0.475722  0.259962  0.255314  1
  B  B79  1  0.024278  0.740038  0.755314  1
  B  B80  1  0.419946  0.235557  0.784210  1
  B  B81  1  0.080054  0.764443  0.284210  1
  B  B82  1  0.580054  0.764443  0.215790  1
  B  B83  1  0.919946  0.235557  0.715790  1
  B  B84  1  0.486342  0.979927  0.826447  1
  B  B85  1  0.013658  0.020073  0.326447  1
  B  B86  1  0.513658  0.020073  0.173553  1
  B  B87  1  0.986342  0.979927  0.673553  1
  B  B88  1  0.441767  0.187526  0.918473  1
  B  B89  1  0.058233  0.812474  0.418473  1
  B  B90  1  0.558233  0.812474  0.081527  1
  B  B91  1  0.941767  0.187526  0.581527  1
