# generated using pymatgen
data_Al2CuO4
_symmetry_space_group_name_H-M   'P 1'
_cell_length_a   5.77312839
_cell_length_b   5.74884471
_cell_length_c   28.72456920
_cell_angle_alpha   59.97622930
_cell_angle_beta   60.36909312
_cell_angle_gamma   60.13746938
_symmetry_Int_Tables_number   1
_chemical_formula_structural   Al2CuO4
_chemical_formula_sum   'Al20 Cu10 O40'
_cell_volume   676.55040862
_cell_formula_units_Z   10
loop_
 _symmetry_equiv_pos_site_id
 _symmetry_equiv_pos_as_xyz
  1  'x, y, z'
loop_
 _atom_site_type_symbol
 _atom_site_label
 _atom_site_symmetry_multiplicity
 _atom_site_fract_x
 _atom_site_fract_y
 _atom_site_fract_z
 _atom_site_occupancy
  Al  Al0  1  0.254642  0.246328  0.050553  1
  Al  Al1  1  0.624092  0.120468  0.125393  1
  Al  Al2  1  0.259751  0.247117  0.249205  1
  Al  Al3  1  0.627126  0.627945  0.023402  1
  Al  Al4  1  0.623989  0.628514  0.125385  1
  Al  Al5  1  0.623896  0.119956  0.325556  1
  Al  Al6  1  0.624531  0.628353  0.223762  1
  Al  Al7  1  0.259808  0.247251  0.449130  1
  Al  Al8  1  0.623844  0.628400  0.325547  1
  Al  Al9  1  0.624202  0.120004  0.525453  1
  Al  Al10  1  0.624510  0.628071  0.423866  1
  Al  Al11  1  0.261807  0.248966  0.648037  1
  Al  Al12  1  0.624192  0.628533  0.525440  1
  Al  Al13  1  0.623054  0.120646  0.725720  1
  Al  Al14  1  0.626774  0.626812  0.623922  1
  Al  Al15  1  0.120798  0.626251  0.925336  1
  Al  Al16  1  0.623098  0.627649  0.725737  1
  Al  Al17  1  0.618165  0.624467  0.826610  1
  Al  Al18  1  0.625043  0.122246  0.925191  1
  Al  Al19  1  0.624957  0.626712  0.925202  1
  Cu  Cu20  1  0.002253  0.001367  0.999003  1
  Cu  Cu21  1  0.997941  0.000699  0.200202  1
  Cu  Cu22  1  0.115394  0.629008  0.125312  1
  Cu  Cu23  1  0.997530  0.000751  0.400254  1
  Cu  Cu24  1  0.114413  0.628585  0.325687  1
  Cu  Cu25  1  0.997192  0.999237  0.600915  1
  Cu  Cu26  1  0.115002  0.628976  0.525403  1
  Cu  Cu27  1  0.998315  -0.001133  0.800797  1
  Cu  Cu28  1  0.116358  0.627070  0.725922  1
  Cu  Cu29  1  0.247170  0.252684  0.849508  1
  O  O30  1  0.404760  0.370606  0.073843  1
  O  O31  1  0.404812  0.855479  0.073825  1
  O  O32  1  0.401553  0.371232  0.171188  1
  O  O33  1  0.414031  0.863082  0.171938  1
  O  O34  1  0.402755  0.371661  0.273953  1
  O  O35  1  0.855702  0.379438  0.077087  1
  O  O36  1  0.402984  0.371181  0.370919  1
  O  O37  1  0.402775  0.855845  0.273942  1
  O  O38  1  0.843043  0.414689  0.174210  1
  O  O39  1  0.843912  0.872794  0.082102  1
  O  O40  1  0.413543  0.862753  0.372163  1
  O  O41  1  0.843136  0.871148  0.174204  1
  O  O42  1  0.859123  0.380255  0.276076  1
  O  O43  1  0.402919  0.371845  0.473774  1
  O  O44  1  0.402949  0.856355  0.473766  1
  O  O45  1  0.842729  0.414035  0.374329  1
  O  O46  1  0.841961  0.872059  0.282783  1
  O  O47  1  0.405265  0.372833  0.569796  1
  O  O48  1  0.414602  0.862894  0.571895  1
  O  O49  1  0.406356  0.371259  0.672447  1
  O  O50  1  0.860268  0.380831  0.475609  1
  O  O51  1  0.842765  0.871563  0.374324  1
  O  O52  1  0.406280  0.860073  0.672460  1
  O  O53  1  0.410228  0.386597  0.763308  1
  O  O54  1  0.845121  0.413583  0.573815  1
  O  O55  1  0.842676  0.872026  0.482656  1
  O  O56  1  0.413963  0.862009  0.772404  1
  O  O57  1  0.383471  0.388154  0.880456  1
  O  O58  1  0.868301  0.381148  0.673880  1
  O  O59  1  0.845134  0.872172  0.573816  1
  O  O60  1  0.383449  0.826045  0.880464  1
  O  O61  1  0.839386  0.411207  0.775689  1
  O  O62  1  0.375322  0.378024  0.973714  1
  O  O63  1  0.847532  0.866821  0.683769  1
  O  O64  1  0.419319  0.859059  0.972490  1
  O  O65  1  0.822075  0.387360  0.880640  1
  O  O66  1  0.839249  0.871221  0.775697  1
  O  O67  1  0.856841  0.860680  0.884340  1
  O  O68  1  0.859902  0.419696  0.972395  1
  O  O69  1  0.859960  0.858354  0.972382  1
