# generated using pymatgen
data_KGd(PO3)4
_symmetry_space_group_name_H-M   'P 1'
_cell_length_a   9.07122311
_cell_length_b   10.52117242
_cell_length_c   10.92969946
_cell_angle_alpha   106.16599812
_cell_angle_beta   90.00000000
_cell_angle_gamma   90.00000000
_symmetry_Int_Tables_number   1
_chemical_formula_structural   KGd(PO3)4
_chemical_formula_sum   'K4 Gd4 P16 O48'
_cell_volume   1001.88315402
_cell_formula_units_Z   4
loop_
 _symmetry_equiv_pos_site_id
 _symmetry_equiv_pos_as_xyz
  1  'x, y, z'
loop_
 _atom_site_type_symbol
 _atom_site_label
 _atom_site_symmetry_multiplicity
 _atom_site_fract_x
 _atom_site_fract_y
 _atom_site_fract_z
 _atom_site_occupancy
  K  K0  1  0.571500  0.292345  0.042525  1
  K  K1  1  0.071500  0.207655  0.457475  1
  K  K2  1  0.428500  0.707655  0.957475  1
  K  K3  1  0.928500  0.792345  0.542525  1
  Gd  Gd4  1  0.772343  -0.000128  0.184807  1
  Gd  Gd5  1  0.272343  0.500128  0.315193  1
  Gd  Gd6  1  0.727657  0.499872  0.684807  1
  Gd  Gd7  1  0.227657  1.000128  0.815193  1
  P  P8  1  0.330126  0.460546  0.641470  1
  P  P9  1  0.023234  0.750445  0.230398  1
  P  P10  1  0.393771  0.822310  0.519624  1
  P  P11  1  0.594509  0.853368  0.740129  1
  P  P12  1  0.094509  0.646632  0.759871  1
  P  P13  1  0.523234  0.749555  0.269602  1
  P  P14  1  0.606229  0.177690  0.480376  1
  P  P15  1  0.106229  0.322310  0.019624  1
  P  P16  1  0.905491  0.353368  0.240129  1
  P  P17  1  0.476766  0.250445  0.730398  1
  P  P18  1  0.830126  0.039454  0.858530  1
  P  P19  1  0.976766  0.249555  0.769602  1
  P  P20  1  0.893771  0.677690  0.980376  1
  P  P21  1  0.669874  0.539454  0.358530  1
  P  P22  1  0.169874  0.960546  0.141470  1
  P  P23  1  0.405491  0.146632  0.259871  1
  O  O24  1  0.090655  0.672556  0.311979  1
  O  O25  1  0.463340  0.898616  0.825071  1
  O  O26  1  0.449862  0.169859  0.406714  1
  O  O27  1  0.530318  0.461296  0.322945  1
  O  O28  1  0.909345  0.327444  0.688021  1
  O  O29  1  0.159853  0.182143  0.981708  1
  O  O30  1  0.679827  0.736586  0.754484  1
  O  O31  1  0.791590  0.474995  0.250110  1
  O  O32  1  0.588058  0.354871  0.792108  1
  O  O33  1  0.546375  0.143214  0.606930  1
  O  O34  1  0.030318  0.038704  0.177055  1
  O  O35  1  0.911942  0.854871  0.292108  1
  O  O36  1  0.707859  0.070266  0.408184  1
  O  O37  1  0.237661  0.935579  0.011874  1
  O  O38  1  0.590655  0.827444  0.188021  1
  O  O39  1  0.411942  0.645129  0.207892  1
  O  O40  1  0.340147  0.682143  0.481708  1
  O  O41  1  0.409345  0.172556  0.811979  1
  O  O42  1  0.840147  0.817857  0.018292  1
  O  O43  1  0.654858  0.683190  0.331996  1
  O  O44  1  0.292141  0.929734  0.591816  1
  O  O45  1  0.262339  0.435579  0.511874  1
  O  O46  1  0.953625  0.643214  0.106930  1
  O  O47  1  0.845142  0.183190  0.831996  1
  O  O48  1  0.969682  0.961296  0.822945  1
  O  O49  1  0.762339  0.064421  0.988126  1
  O  O50  1  0.708410  0.974995  0.750110  1
  O  O51  1  0.291590  0.025005  0.249890  1
  O  O52  1  0.949862  0.330141  0.093286  1
  O  O53  1  0.050138  0.669859  0.906714  1
  O  O54  1  0.088058  0.145129  0.707892  1
  O  O55  1  0.320173  0.263414  0.245516  1
  O  O56  1  0.659853  0.317857  0.518292  1
  O  O57  1  0.820173  0.236586  0.254484  1
  O  O58  1  0.536660  0.101384  0.174929  1
  O  O59  1  0.792141  0.570266  0.908184  1
  O  O60  1  0.550138  0.830141  0.593286  1
  O  O61  1  0.208410  0.525005  0.749890  1
  O  O62  1  0.737661  0.564421  0.488126  1
  O  O63  1  0.154858  0.816810  0.168004  1
  O  O64  1  0.469682  0.538704  0.677055  1
  O  O65  1  0.179827  0.763414  0.745516  1
  O  O66  1  0.453625  0.856786  0.393070  1
  O  O67  1  0.036660  0.398616  0.325071  1
  O  O68  1  0.207859  0.429734  0.091816  1
  O  O69  1  0.046375  0.356786  0.893070  1
  O  O70  1  0.345142  0.316810  0.668004  1
  O  O71  1  0.963340  0.601384  0.674929  1
