# generated using pymatgen
data_K3Ta2S11
_symmetry_space_group_name_H-M   'P 1'
_cell_length_a   7.79314285
_cell_length_b   8.97106212
_cell_length_c   25.12129038
_cell_angle_alpha   90.00000000
_cell_angle_beta   99.95048336
_cell_angle_gamma   90.00000000
_symmetry_Int_Tables_number   1
_chemical_formula_structural   K3Ta2S11
_chemical_formula_sum   'K12 Ta8 S44'
_cell_volume   1729.87975922
_cell_formula_units_Z   4
loop_
 _symmetry_equiv_pos_site_id
 _symmetry_equiv_pos_as_xyz
  1  'x, y, z'
loop_
 _atom_site_type_symbol
 _atom_site_label
 _atom_site_symmetry_multiplicity
 _atom_site_fract_x
 _atom_site_fract_y
 _atom_site_fract_z
 _atom_site_occupancy
  K  K0  1  0.697088  0.763881  0.489378  1
  K  K1  1  0.302912  0.263881  0.010622  1
  K  K2  1  0.767037  0.247023  0.670301  1
  K  K3  1  0.302912  0.236119  0.510622  1
  K  K4  1  0.697088  0.736119  0.989378  1
  K  K5  1  0.737287  0.712368  0.185038  1
  K  K6  1  0.737287  0.787632  0.685038  1
  K  K7  1  0.232963  0.747023  0.829699  1
  K  K8  1  0.767037  0.252977  0.170301  1
  K  K9  1  0.262713  0.212368  0.314962  1
  K  K10  1  0.262713  0.287632  0.814962  1
  K  K11  1  0.232963  0.752977  0.329699  1
  Ta  Ta12  1  0.727696  0.326520  0.922011  1
  Ta  Ta13  1  0.272304  0.673480  0.077989  1
  Ta  Ta14  1  0.824035  0.460093  0.331422  1
  Ta  Ta15  1  0.272304  0.826520  0.577989  1
  Ta  Ta16  1  0.824035  0.039907  0.831422  1
  Ta  Ta17  1  0.175965  0.539907  0.668578  1
  Ta  Ta18  1  0.727696  0.173480  0.422011  1
  Ta  Ta19  1  0.175965  0.960093  0.168578  1
  S  S20  1  0.502641  0.517047  0.085895  1
  S  S21  1  0.674906  0.376063  0.483111  1
  S  S22  1  1.004372  0.974040  0.232311  1
  S  S23  1  0.249542  0.680522  0.176948  1
  S  S24  1  0.468975  0.531047  0.724033  1
  S  S25  1  0.502641  0.982953  0.585895  1
  S  S26  1  0.064501  0.948835  0.627041  1
  S  S27  1  0.325094  0.623937  0.516889  1
  S  S28  1  0.935499  0.051165  0.372959  1
  S  S29  1  0.935499  0.448835  0.872959  1
  S  S30  1  0.980026  0.635348  0.589562  1
  S  S31  1  0.674906  0.123937  0.983111  1
  S  S32  1  0.750458  0.319478  0.823052  1
  S  S33  1  0.428375  0.588325  0.598506  1
  S  S34  1  -0.004372  0.474040  0.267689  1
  S  S35  1  -0.004372  0.025960  0.767689  1
  S  S36  1  0.468975  0.968953  0.224033  1
  S  S37  1  1.004372  0.525960  0.732311  1
  S  S38  1  0.022905  0.094824  0.090279  1
  S  S39  1  0.627929  0.825162  0.807262  1
  S  S40  1  0.915154  0.087046  0.507425  1
  S  S41  1  0.428375  0.911675  0.098506  1
  S  S42  1  0.915154  0.412954  0.007425  1
  S  S43  1  0.064501  0.551165  0.127041  1
  S  S44  1  0.084846  0.912954  0.492575  1
  S  S45  1  0.019974  0.364652  0.410438  1
  S  S46  1  0.531025  0.468953  0.275967  1
  S  S47  1  0.325094  0.876063  0.016889  1
  S  S48  1  0.750458  0.180522  0.323052  1
  S  S49  1  0.372071  0.174838  0.192738  1
  S  S50  1  0.249542  0.819478  0.676948  1
  S  S51  1  0.022905  0.405176  0.590279  1
  S  S52  1  0.571625  0.088325  0.901494  1
  S  S53  1  0.627929  0.674838  0.307262  1
  S  S54  1  0.497359  0.017047  0.414105  1
  S  S55  1  0.980026  0.864652  0.089562  1
  S  S56  1  0.372071  0.325162  0.692738  1
  S  S57  1  0.531025  0.031047  0.775967  1
  S  S58  1  0.019974  0.135348  0.910438  1
  S  S59  1  0.084846  0.587046  0.992575  1
  S  S60  1  0.497359  0.482953  0.914105  1
  S  S61  1  0.977095  0.905176  0.909721  1
  S  S62  1  0.571625  0.411675  0.401494  1
  S  S63  1  0.977095  0.594824  0.409720  1
