# generated using pymatgen
data_SiO2
_symmetry_space_group_name_H-M   'P 1'
_cell_length_a   8.32191092
_cell_length_b   8.32509190
_cell_length_c   10.42614289
_cell_angle_alpha   90.00275914
_cell_angle_beta   90.09315146
_cell_angle_gamma   120.00810739
_symmetry_Int_Tables_number   1
_chemical_formula_structural   SiO2
_chemical_formula_sum   'Si18 O36'
_cell_volume   625.50405474
_cell_formula_units_Z   18
loop_
 _symmetry_equiv_pos_site_id
 _symmetry_equiv_pos_as_xyz
  1  'x, y, z'
loop_
 _atom_site_type_symbol
 _atom_site_label
 _atom_site_symmetry_multiplicity
 _atom_site_fract_x
 _atom_site_fract_y
 _atom_site_fract_z
 _atom_site_occupancy
  Si  Si0  1  0.645326  0.959813  0.214191  1
  Si  Si1  1  0.687433  0.667597  0.047903  1
  Si  Si2  1  0.935987  0.293119  0.047687  1
  Si  Si3  1  0.978941  0.376504  0.381181  1
  Si  Si4  1  0.021571  0.710036  0.213970  1
  Si  Si5  1  0.934881  0.666842  0.547620  1
  Si  Si6  1  0.311554  0.292584  0.547750  1
  Si  Si7  1  0.687406  0.043283  0.547534  1
  Si  Si8  1  0.020025  0.333178  0.714995  1
  Si  Si9  1  0.354277  0.001197  0.380910  1
  Si  Si10  1  0.601429  0.625958  0.381474  1
  Si  Si11  1  0.313312  0.043385  0.048105  1
  Si  Si12  1  0.268278  0.959153  0.714430  1
  Si  Si13  1  0.602835  0.000732  0.880670  1
  Si  Si14  1  0.354034  0.376571  0.881335  1
  Si  Si15  1  0.645653  0.709749  0.714657  1
  Si  Si16  1  0.978634  0.626216  0.880818  1
  Si  Si17  1  0.269176  0.334037  0.214454  1
  O  O18  1  0.809528  0.169895  0.923543  1
  O  O19  1  0.474535  0.995771  0.757306  1
  O  O20  1  0.475886  0.501646  0.505202  1
  O  O21  1  0.475874  0.503773  0.757419  1
  O  O22  1  0.145580  0.835943  0.090379  1
  O  O23  1  0.811012  0.169166  0.423710  1
  O  O24  1  0.809523  0.663568  0.923656  1
  O  O25  1  0.646649  0.835950  0.838035  1
  O  O26  1  0.810692  0.169588  0.671681  1
  O  O27  1  0.316710  0.169835  0.424206  1
  O  O28  1  0.642021  0.833207  0.338140  1
  O  O29  1  0.985166  0.503773  0.757544  1
  O  O30  1  0.478602  0.502748  0.005092  1
  O  O31  1  0.811207  0.167982  0.171374  1
  O  O32  1  0.143146  0.332542  0.090761  1
  O  O33  1  0.142204  0.835429  0.838061  1
  O  O34  1  0.813379  0.667708  0.171251  1
  O  O35  1  0.977110  0.501248  0.504542  1
  O  O36  1  0.142156  0.329566  0.590585  1
  O  O37  1  0.983155  0.503472  0.257262  1
  O  O38  1  0.808961  0.663574  0.671780  1
  O  O39  1  0.144605  0.330748  0.838399  1
  O  O40  1  0.650127  0.836484  0.090934  1
  O  O41  1  0.808762  0.665496  0.424059  1
  O  O42  1  0.476690  0.501397  0.257353  1
  O  O43  1  0.978279  0.501065  0.004741  1
  O  O44  1  0.146108  0.835329  0.338021  1
  O  O45  1  0.651411  0.837573  0.590766  1
  O  O46  1  0.478194  0.000579  0.256675  1
  O  O47  1  0.141404  0.835939  0.590487  1
  O  O48  1  0.318506  0.170970  0.924278  1
  O  O49  1  0.144666  0.333780  0.338629  1
  O  O50  1  0.310003  0.167493  0.171427  1
  O  O51  1  0.478378  0.999900  0.005000  1
  O  O52  1  0.312284  0.167738  0.671517  1
  O  O53  1  0.478609  0.999091  0.504599  1
