# generated using pymatgen
data_LaFe5H7
_symmetry_space_group_name_H-M   'P 1'
_cell_length_a   5.63714875
_cell_length_b   5.63714888
_cell_length_c   8.29588289
_cell_angle_alpha   90.00000000
_cell_angle_beta   90.00000000
_cell_angle_gamma   119.99999916
_symmetry_Int_Tables_number   1
_chemical_formula_structural   LaFe5H7
_chemical_formula_sum   'La2 Fe10 H14'
_cell_volume   228.30333108
_cell_formula_units_Z   2
loop_
 _symmetry_equiv_pos_site_id
 _symmetry_equiv_pos_as_xyz
  1  'x, y, z'
loop_
 _atom_site_type_symbol
 _atom_site_label
 _atom_site_symmetry_multiplicity
 _atom_site_fract_x
 _atom_site_fract_y
 _atom_site_fract_z
 _atom_site_occupancy
  La  La0  1  0.000000  0.000000  0.022163  1
  La  La1  1  0.000000  0.000000  0.522163  1
  Fe  Fe2  1  0.976470  0.488235  0.771983  1
  Fe  Fe3  1  0.333333  0.666667  0.513404  1
  Fe  Fe4  1  0.666667  0.333333  0.489323  1
  Fe  Fe5  1  0.511765  0.488235  0.771983  1
  Fe  Fe6  1  0.666667  0.333333  0.013404  1
  Fe  Fe7  1  0.488235  0.976470  0.271983  1
  Fe  Fe8  1  0.023530  0.511765  0.271983  1
  Fe  Fe9  1  0.333333  0.666667  0.989323  1
  Fe  Fe10  1  0.511765  0.023530  0.771983  1
  Fe  Fe11  1  0.488235  0.511765  0.271983  1
  H  H12  1  0.859553  0.719107  0.772947  1
  H  H13  1  0.859553  0.140447  0.772947  1
  H  H14  1  0.140447  0.859553  0.272947  1
  H  H15  1  0.333333  0.666667  0.768885  1
  H  H16  1  0.006119  0.503060  0.062812  1
  H  H17  1  0.719107  0.859553  0.272947  1
  H  H18  1  0.503060  0.006119  0.562812  1
  H  H19  1  0.993881  0.496940  0.562812  1
  H  H20  1  0.140447  0.280893  0.272947  1
  H  H21  1  0.666667  0.333333  0.268885  1
  H  H22  1  0.496940  0.503060  0.062812  1
  H  H23  1  0.496940  0.993881  0.062812  1
  H  H24  1  0.503060  0.496940  0.562812  1
  H  H25  1  0.280893  0.140447  0.772947  1
