# generated using pymatgen
data_Cs4UC3O11
_symmetry_space_group_name_H-M   'P 1'
_cell_length_a   7.64875893
_cell_length_b   7.64875954
_cell_length_c   13.17924529
_cell_angle_alpha   87.62764003
_cell_angle_beta   87.62763979
_cell_angle_gamma   79.41168880
_symmetry_Int_Tables_number   1
_chemical_formula_structural   Cs4UC3O11
_chemical_formula_sum   'Cs8 U2 C6 O22'
_cell_volume   756.80590281
_cell_formula_units_Z   2
loop_
 _symmetry_equiv_pos_site_id
 _symmetry_equiv_pos_as_xyz
  1  'x, y, z'
loop_
 _atom_site_type_symbol
 _atom_site_label
 _atom_site_symmetry_multiplicity
 _atom_site_fract_x
 _atom_site_fract_y
 _atom_site_fract_z
 _atom_site_occupancy
  Cs  Cs0  1  0.434659  0.779876  0.461570  1
  Cs  Cs1  1  0.220124  0.565341  0.038430  1
  Cs  Cs2  1  0.352635  0.017920  0.154135  1
  Cs  Cs3  1  0.647365  0.982080  0.845865  1
  Cs  Cs4  1  0.565341  0.220124  0.538430  1
  Cs  Cs5  1  0.779876  0.434659  0.961570  1
  Cs  Cs6  1  0.017920  0.352635  0.654135  1
  Cs  Cs7  1  0.982080  0.647365  0.345865  1
  U  U8  1  0.184552  0.815448  0.750000  1
  U  U9  1  0.815448  0.184552  0.250000  1
  C  C10  1  0.482841  0.517159  0.750000  1
  C  C11  1  0.077306  0.155762  0.405231  1
  C  C12  1  0.922694  0.844238  0.594769  1
  C  C13  1  0.155762  0.077306  0.905231  1
  C  C14  1  0.517159  0.482841  0.250000  1
  C  C15  1  0.844238  0.922694  0.094769  1
  O  O16  1  0.915480  0.965704  0.663815  1
  O  O17  1  0.958179  0.327119  0.183679  1
  O  O18  1  0.922278  0.265496  0.411596  1
  O  O19  1  0.387393  0.612607  0.250000  1
  O  O20  1  0.327119  0.958179  0.683679  1
  O  O21  1  0.207340  0.169595  0.458465  1
  O  O22  1  0.792660  0.830405  0.541535  1
  O  O23  1  0.041821  0.672881  0.816321  1
  O  O24  1  0.084520  0.034296  0.336185  1
  O  O25  1  0.628603  0.447470  0.324977  1
  O  O26  1  0.734504  0.077722  0.088404  1
  O  O27  1  0.965704  0.915480  0.163815  1
  O  O28  1  0.830405  0.792660  0.041535  1
  O  O29  1  0.552530  0.371397  0.175023  1
  O  O30  1  0.169595  0.207340  0.958465  1
  O  O31  1  0.612607  0.387393  0.750000  1
  O  O32  1  0.077722  0.734504  0.588404  1
  O  O33  1  0.447470  0.628603  0.824977  1
  O  O34  1  0.265496  0.922278  0.911596  1
  O  O35  1  0.672881  0.041821  0.316321  1
  O  O36  1  0.371397  0.552530  0.675023  1
  O  O37  1  0.034296  0.084520  0.836185  1
