# generated using pymatgen
data_Cs2Sn(AuS2)2
_symmetry_space_group_name_H-M   'P 1'
_cell_length_a   6.26178206
_cell_length_b   8.06981900
_cell_length_c   13.21945411
_cell_angle_alpha   84.72777112
_cell_angle_beta   76.29991147
_cell_angle_gamma   67.17142445
_symmetry_Int_Tables_number   1
_chemical_formula_structural   Cs2Sn(AuS2)2
_chemical_formula_sum   'Cs4 Sn2 Au4 S8'
_cell_volume   598.15702223
_cell_formula_units_Z   2
loop_
 _symmetry_equiv_pos_site_id
 _symmetry_equiv_pos_as_xyz
  1  'x, y, z'
loop_
 _atom_site_type_symbol
 _atom_site_label
 _atom_site_symmetry_multiplicity
 _atom_site_fract_x
 _atom_site_fract_y
 _atom_site_fract_z
 _atom_site_occupancy
  Cs  Cs0  1  0.444929  0.750000  0.110142  1
  Cs  Cs1  1  0.555071  0.250000  0.889858  1
  Cs  Cs2  1  0.805071  0.750000  0.389858  1
  Cs  Cs3  1  0.194929  0.250000  0.610142  1
  Sn  Sn4  1  0.375000  0.250000  0.250000  1
  Sn  Sn5  1  0.625000  0.750000  0.750000  1
  Au  Au6  1  0.186326  0.750000  0.627347  1
  Au  Au7  1  0.936326  0.250000  0.127347  1
  Au  Au8  1  0.813674  0.250000  0.372653  1
  Au  Au9  1  0.063674  0.750000  0.872653  1
  S  S10  1  0.571524  0.554823  0.634648  1
  S  S11  1  0.739004  0.054823  0.134648  1
  S  S12  1  0.873653  0.554823  0.865352  1
  S  S13  1  0.126347  0.445177  0.134648  1
  S  S14  1  0.206172  0.054823  0.365352  1
  S  S15  1  0.428476  0.445177  0.365352  1
  S  S16  1  0.260996  0.945177  0.865352  1
  S  S17  1  0.793828  0.945177  0.634648  1
