# generated using pymatgen
data_MnAs2S2(OF3)4
_symmetry_space_group_name_H-M   'P 1'
_cell_length_a   9.09321871
_cell_length_b   9.09321915
_cell_length_c   10.30352620
_cell_angle_alpha   103.88451051
_cell_angle_beta   103.88451121
_cell_angle_gamma   117.14152535
_symmetry_Int_Tables_number   1
_chemical_formula_structural   MnAs2S2(OF3)4
_chemical_formula_sum   'Mn2 As4 S4 O8 F24'
_cell_volume   673.09765684
_cell_formula_units_Z   2
loop_
 _symmetry_equiv_pos_site_id
 _symmetry_equiv_pos_as_xyz
  1  'x, y, z'
loop_
 _atom_site_type_symbol
 _atom_site_label
 _atom_site_symmetry_multiplicity
 _atom_site_fract_x
 _atom_site_fract_y
 _atom_site_fract_z
 _atom_site_occupancy
  Mn  Mn0  1  0.788602  0.288602  0.500000  1
  Mn  Mn1  1  0.538602  0.538602  1.000000  1
  As  As2  1  0.449143  0.134130  0.112616  1
  As  As3  1  0.021514  0.336527  0.887384  1
  As  As4  1  0.384130  0.199143  0.612616  1
  As  As5  1  0.586527  0.771514  0.387384  1
  S  S6  1  0.943788  0.745101  0.690670  1
  S  S7  1  0.054431  0.253117  0.309330  1
  S  S8  1  0.995101  0.693788  0.190670  1
  S  S9  1  0.503117  0.804431  0.809330  1
  O  O10  1  0.914594  0.581248  0.587833  1
  O  O11  1  0.993415  0.326761  0.412167  1
  O  O12  1  0.831248  0.664594  0.087833  1
  O  O13  1  0.576761  0.743415  0.912167  1
  O  O14  1  0.853118  0.721034  0.787906  1
  O  O15  1  0.933128  0.065212  0.212094  1
  O  O16  1  0.971034  0.603118  0.287906  1
  O  O17  1  0.315212  0.683128  0.712094  1
  F  F18  1  0.596447  0.261843  0.308414  1
  F  F19  1  0.953428  0.288033  0.691586  1
  F  F20  1  0.511843  0.346447  0.808414  1
  F  F21  1  0.538033  0.703428  0.191586  1
  F  F22  1  0.522325  0.353356  0.101177  1
  F  F23  1  0.252179  0.421149  0.898823  1
  F  F24  1  0.603356  0.272325  0.601177  1
  F  F25  1  0.671149  0.002179  0.398823  1
  F  F26  1  0.386920  0.930737  0.131171  1
  F  F27  1  0.799566  0.255748  0.868829  1
  F  F28  1  0.180737  0.136920  0.631171  1
  F  F29  1  0.505748  0.549566  0.368829  1
  F  F30  1  0.274266  0.138383  0.151092  1
  F  F31  1  0.987290  0.123173  0.848908  1
  F  F32  1  0.388383  0.024266  0.651092  1
  F  F33  1  0.373173  0.737290  0.348908  1
  F  F34  1  0.638420  0.151456  0.083613  1
  F  F35  1  0.067844  0.554807  0.916387  1
  F  F36  1  0.401456  0.388420  0.583613  1
  F  F37  1  0.804807  0.817844  0.416387  1
  F  F38  1  0.317123  0.024322  0.923313  1
  F  F39  1  0.101009  0.393809  0.076687  1
  F  F40  1  0.274322  0.067123  0.423313  1
  F  F41  1  0.643809  0.851009  0.576687  1
