# generated using pymatgen
data_YCu(MoO4)2
_symmetry_space_group_name_H-M   'P 1'
_cell_length_a   9.88229629
_cell_length_b   10.30563865
_cell_length_c   14.72887313
_cell_angle_alpha   90.00000000
_cell_angle_beta   90.00000000
_cell_angle_gamma   90.00000000
_symmetry_Int_Tables_number   1
_chemical_formula_structural   YCu(MoO4)2
_chemical_formula_sum   'Y8 Cu8 Mo16 O64'
_cell_volume   1500.03814357
_cell_formula_units_Z   8
loop_
 _symmetry_equiv_pos_site_id
 _symmetry_equiv_pos_as_xyz
  1  'x, y, z'
loop_
 _atom_site_type_symbol
 _atom_site_label
 _atom_site_symmetry_multiplicity
 _atom_site_fract_x
 _atom_site_fract_y
 _atom_site_fract_z
 _atom_site_occupancy
  Y  Y0  1  0.278083  0.465730  0.103928  1
  Y  Y1  1  0.221917  0.965730  0.896072  1
  Y  Y2  1  0.778083  0.534270  0.396072  1
  Y  Y3  1  0.778083  0.034270  0.103928  1
  Y  Y4  1  0.278083  0.965730  0.396072  1
  Y  Y5  1  0.721917  0.534270  0.896072  1
  Y  Y6  1  0.221917  0.465730  0.603928  1
  Y  Y7  1  0.721917  0.034270  0.603928  1
  Cu  Cu8  1  0.189061  0.317551  0.803940  1
  Cu  Cu9  1  0.810939  0.182449  0.303940  1
  Cu  Cu10  1  0.189061  0.817551  0.696060  1
  Cu  Cu11  1  0.310939  0.817551  0.196060  1
  Cu  Cu12  1  0.689061  0.182449  0.803940  1
  Cu  Cu13  1  0.689061  0.682449  0.696060  1
  Cu  Cu14  1  0.310939  0.317551  0.303940  1
  Cu  Cu15  1  0.810939  0.682449  0.196060  1
  Mo  Mo16  1  0.999812  0.281030  0.943611  1
  Mo  Mo17  1  0.500188  0.781030  0.056389  1
  Mo  Mo18  1  0.831646  0.396713  0.653244  1
  Mo  Mo19  1  0.000188  0.718970  0.056389  1
  Mo  Mo20  1  0.500188  0.281030  0.443611  1
  Mo  Mo21  1  0.668354  0.896713  0.346756  1
  Mo  Mo22  1  0.000188  0.218970  0.443611  1
  Mo  Mo23  1  0.668354  0.396713  0.153244  1
  Mo  Mo24  1  0.331646  0.603287  0.846756  1
  Mo  Mo25  1  0.499812  0.218970  0.943611  1
  Mo  Mo26  1  0.999812  0.781030  0.556389  1
  Mo  Mo27  1  0.168354  0.603287  0.346756  1
  Mo  Mo28  1  0.331646  0.103287  0.653244  1
  Mo  Mo29  1  0.168354  0.103287  0.153244  1
  Mo  Mo30  1  0.499812  0.718970  0.556389  1
  Mo  Mo31  1  0.831646  0.896713  0.846756  1
  O  O32  1  0.396008  0.612685  0.623841  1
  O  O33  1  0.208131  0.073818  0.037427  1
  O  O34  1  0.708131  0.926182  0.462573  1
  O  O35  1  0.108614  0.329282  0.502126  1
  O  O36  1  0.896008  0.387315  0.876159  1
  O  O37  1  0.242568  0.989387  0.728426  1
  O  O38  1  0.608614  0.670718  0.997874  1
  O  O39  1  0.903482  0.128889  0.523912  1
  O  O40  1  0.109391  0.680040  0.631472  1
  O  O41  1  0.603992  0.887315  0.123841  1
  O  O42  1  0.609391  0.819960  0.631472  1
  O  O43  1  0.276090  0.766634  0.819343  1
  O  O44  1  0.009833  0.912716  0.832113  1
  O  O45  1  0.403482  0.871111  0.976088  1
  O  O46  1  0.103992  0.612685  0.123841  1
  O  O47  1  0.291869  0.573818  0.962573  1
  O  O48  1  0.708131  0.426182  0.037427  1
  O  O49  1  0.390609  0.180040  0.368528  1
  O  O50  1  0.742568  0.010613  0.771574  1
  O  O51  1  0.391386  0.329282  0.002126  1
  O  O52  1  0.390609  0.680040  0.131472  1
  O  O53  1  0.890609  0.819960  0.131472  1
  O  O54  1  0.603992  0.387315  0.376159  1
  O  O55  1  0.257432  0.489387  0.271574  1
  O  O56  1  0.990167  0.087284  0.167887  1
  O  O57  1  0.276090  0.266634  0.680657  1
  O  O58  1  0.723910  0.733366  0.319343  1
  O  O59  1  0.596518  0.128889  0.023912  1
  O  O60  1  0.103992  0.112685  0.376159  1
  O  O61  1  0.096518  0.871111  0.476088  1
  O  O62  1  0.223910  0.266634  0.180657  1
  O  O63  1  0.403482  0.371111  0.523912  1
  O  O64  1  0.608614  0.170718  0.502126  1
  O  O65  1  0.757432  0.010613  0.271574  1
  O  O66  1  0.096518  0.371111  0.023912  1
  O  O67  1  0.108614  0.829282  0.997874  1
  O  O68  1  0.509833  0.087284  0.667887  1
  O  O69  1  0.291869  0.073818  0.537427  1
  O  O70  1  0.890609  0.319960  0.368528  1
  O  O71  1  0.509833  0.587284  0.832113  1
  O  O72  1  0.903482  0.628889  0.976088  1
  O  O73  1  0.490167  0.912716  0.332113  1
  O  O74  1  0.757432  0.510613  0.228426  1
  O  O75  1  0.723910  0.233366  0.180657  1
  O  O76  1  0.009833  0.412716  0.667887  1
  O  O77  1  0.896008  0.887315  0.623841  1
  O  O78  1  0.891386  0.670718  0.497874  1
  O  O79  1  0.990167  0.587284  0.332113  1
  O  O80  1  0.257432  0.989387  0.228426  1
  O  O81  1  0.109391  0.180040  0.868528  1
  O  O82  1  0.791869  0.926182  0.962573  1
  O  O83  1  0.490167  0.412716  0.167887  1
  O  O84  1  0.891386  0.170718  0.002126  1
  O  O85  1  0.396008  0.112685  0.876159  1
  O  O86  1  0.609391  0.319960  0.868528  1
  O  O87  1  0.242568  0.489387  0.771574  1
  O  O88  1  0.776090  0.733366  0.819343  1
  O  O89  1  0.596518  0.628889  0.476088  1
  O  O90  1  0.742568  0.510613  0.728426  1
  O  O91  1  0.391386  0.829282  0.497874  1
  O  O92  1  0.791869  0.426182  0.537427  1
  O  O93  1  0.776090  0.233366  0.680657  1
  O  O94  1  0.208131  0.573818  0.462573  1
  O  O95  1  0.223910  0.766634  0.319343  1
