# generated using pymatgen
data_SrBi2B2O7
_symmetry_space_group_name_H-M   'P 1'
_cell_length_a   9.22214486
_cell_length_b   9.22214522
_cell_length_c   13.24999716
_cell_angle_alpha   90.00000000
_cell_angle_beta   90.00000000
_cell_angle_gamma   119.99999874
_symmetry_Int_Tables_number   1
_chemical_formula_structural   SrBi2B2O7
_chemical_formula_sum   'Sr6 Bi12 B12 O42'
_cell_volume   975.91123759
_cell_formula_units_Z   6
loop_
 _symmetry_equiv_pos_site_id
 _symmetry_equiv_pos_as_xyz
  1  'x, y, z'
loop_
 _atom_site_type_symbol
 _atom_site_label
 _atom_site_symmetry_multiplicity
 _atom_site_fract_x
 _atom_site_fract_y
 _atom_site_fract_z
 _atom_site_occupancy
  Sr  Sr0  1  0.361762  0.045892  0.999086  1
  Sr  Sr1  1  0.315870  0.361762  0.499086  1
  Sr  Sr2  1  0.684130  0.638238  0.999086  1
  Sr  Sr3  1  0.954108  0.315870  0.999086  1
  Sr  Sr4  1  0.638238  0.954108  0.499086  1
  Sr  Sr5  1  0.045892  0.684130  0.499086  1
  Bi  Bi6  1  0.031154  0.674120  0.157541  1
  Bi  Bi7  1  0.357191  0.031001  0.340601  1
  Bi  Bi8  1  0.031001  0.673810  0.840601  1
  Bi  Bi9  1  0.326190  0.357191  0.840601  1
  Bi  Bi10  1  0.642966  0.968846  0.157541  1
  Bi  Bi11  1  0.674120  0.642966  0.657541  1
  Bi  Bi12  1  0.673810  0.642809  0.340601  1
  Bi  Bi13  1  0.968846  0.325880  0.657541  1
  Bi  Bi14  1  0.357034  0.031154  0.657541  1
  Bi  Bi15  1  0.325880  0.357034  0.157541  1
  Bi  Bi16  1  0.968999  0.326190  0.340601  1
  Bi  Bi17  1  0.642809  0.968999  0.840601  1
  B  B18  1  0.666667  0.333333  0.614965  1
  B  B19  1  0.666667  0.333333  0.834047  1
  B  B20  1  0.333333  0.666667  0.664351  1
  B  B21  1  0.000000  0.000000  0.132568  1
  B  B22  1  0.333333  0.666667  0.334047  1
  B  B23  1  0.000000  0.000000  0.632568  1
  B  B24  1  0.000000  0.000000  0.864701  1
  B  B25  1  0.666667  0.333333  0.383690  1
  B  B26  1  0.000000  0.000000  0.364701  1
  B  B27  1  0.333333  0.666667  0.114965  1
  B  B28  1  0.333333  0.666667  0.883690  1
  B  B29  1  0.666667  0.333333  0.164351  1
  O  O30  1  0.169202  0.116790  0.631837  1
  O  O31  1  0.947543  0.830778  0.365463  1
  O  O32  1  0.495301  0.804671  0.663575  1
  O  O33  1  0.947589  0.830798  0.631837  1
  O  O34  1  0.194695  0.508548  0.880907  1
  O  O35  1  0.314683  0.805834  0.117710  1
  O  O36  1  0.313853  0.805305  0.880907  1
  O  O37  1  0.116764  0.947543  0.865463  1
  O  O38  1  0.508850  0.314683  0.617710  1
  O  O39  1  0.615871  0.653752  0.499095  1
  O  O40  1  0.962119  0.615871  0.999095  1
  O  O41  1  0.690630  0.495301  0.163575  1
  O  O42  1  0.195329  0.690630  0.663575  1
  O  O43  1  0.883236  0.052457  0.365463  1
  O  O44  1  0.037881  0.384129  0.499095  1
  O  O45  1  0.310382  0.505100  0.334811  1
  O  O46  1  0.830778  0.883236  0.865463  1
  O  O47  1  0.194166  0.508850  0.117710  1
  O  O48  1  0.830798  0.883210  0.131837  1
  O  O49  1  0.508548  0.313853  0.380907  1
  O  O50  1  0.309370  0.504699  0.663575  1
  O  O51  1  0.491452  0.686147  0.880907  1
  O  O52  1  0.505100  0.194718  0.834811  1
  O  O53  1  0.504699  0.195329  0.163575  1
  O  O54  1  0.685317  0.194166  0.617710  1
  O  O55  1  0.116790  0.947589  0.131837  1
  O  O56  1  0.689618  0.494900  0.834811  1
  O  O57  1  0.346248  0.962119  0.499095  1
  O  O58  1  0.384129  0.346248  0.999095  1
  O  O59  1  0.052457  0.169222  0.865463  1
  O  O60  1  0.491150  0.685317  0.117710  1
  O  O61  1  0.686147  0.194695  0.380907  1
  O  O62  1  0.052411  0.169202  0.131837  1
  O  O63  1  0.883210  0.052411  0.631837  1
  O  O64  1  0.804671  0.309370  0.163575  1
  O  O65  1  0.169222  0.116764  0.365463  1
  O  O66  1  0.805305  0.491452  0.380907  1
  O  O67  1  0.653752  0.037881  0.999095  1
  O  O68  1  0.194718  0.689618  0.334811  1
  O  O69  1  0.805282  0.310382  0.834811  1
  O  O70  1  0.805834  0.491150  0.617710  1
  O  O71  1  0.494900  0.805282  0.334811  1
