# generated using pymatgen
data_LiPr(SO4)2
_symmetry_space_group_name_H-M   'P 1'
_cell_length_a   6.78547943
_cell_length_b   7.10598890
_cell_length_c   13.87694941
_cell_angle_alpha   104.84750531
_cell_angle_beta   90.00000000
_cell_angle_gamma   90.00000000
_symmetry_Int_Tables_number   1
_chemical_formula_structural   LiPr(SO4)2
_chemical_formula_sum   'Li4 Pr4 S8 O32'
_cell_volume   646.77156493
_cell_formula_units_Z   4
loop_
 _symmetry_equiv_pos_site_id
 _symmetry_equiv_pos_as_xyz
  1  'x, y, z'
loop_
 _atom_site_type_symbol
 _atom_site_label
 _atom_site_symmetry_multiplicity
 _atom_site_fract_x
 _atom_site_fract_y
 _atom_site_fract_z
 _atom_site_occupancy
  Li  Li0  1  0.253841  0.510642  0.554096  1
  Li  Li1  1  0.753841  0.989358  0.445904  1
  Li  Li2  1  0.246159  0.010642  0.554096  1
  Li  Li3  1  0.746159  0.489358  0.445904  1
  Pr  Pr4  1  0.388910  0.838437  0.183998  1
  Pr  Pr5  1  0.611090  0.161563  0.816002  1
  Pr  Pr6  1  0.111090  0.338437  0.183998  1
  Pr  Pr7  1  0.888910  0.661563  0.816002  1
  S  S8  1  0.571806  0.298231  0.104792  1
  S  S9  1  0.071806  0.201769  0.895208  1
  S  S10  1  0.596003  0.800858  0.617355  1
  S  S11  1  0.428194  0.701769  0.895208  1
  S  S12  1  0.903997  0.300858  0.617355  1
  S  S13  1  0.928194  0.798231  0.104792  1
  S  S14  1  0.403997  0.199142  0.382645  1
  S  S15  1  0.096003  0.699142  0.382645  1
  O  O16  1  0.245925  0.157883  0.302652  1
  O  O17  1  0.112020  0.240523  0.002129  1
  O  O18  1  0.887980  0.759477  0.997871  1
  O  O19  1  0.053305  0.640910  0.127608  1
  O  O20  1  0.756417  0.320357  0.162334  1
  O  O21  1  0.445220  0.477270  0.138789  1
  O  O22  1  0.745925  0.342117  0.697348  1
  O  O23  1  0.186122  0.719784  0.482049  1
  O  O24  1  0.553305  0.859090  0.872392  1
  O  O25  1  0.987943  0.874654  0.378656  1
  O  O26  1  0.813878  0.280216  0.517951  1
  O  O27  1  0.946695  0.359090  0.872392  1
  O  O28  1  0.468243  0.980803  0.644767  1
  O  O29  1  0.945220  0.022730  0.861211  1
  O  O30  1  0.686122  0.780216  0.517951  1
  O  O31  1  0.387980  0.740523  0.002129  1
  O  O32  1  0.012057  0.125346  0.621344  1
  O  O33  1  0.254075  0.657883  0.302652  1
  O  O34  1  0.446695  0.140910  0.127608  1
  O  O35  1  0.487943  0.625346  0.621344  1
  O  O36  1  0.256417  0.179643  0.837666  1
  O  O37  1  0.031757  0.480803  0.644767  1
  O  O38  1  0.243583  0.679643  0.837666  1
  O  O39  1  0.531757  0.019197  0.355233  1
  O  O40  1  0.313878  0.219784  0.482049  1
  O  O41  1  0.054780  0.977270  0.138789  1
  O  O42  1  0.554780  0.522730  0.861211  1
  O  O43  1  0.612020  0.259477  0.997871  1
  O  O44  1  0.743583  0.820357  0.162334  1
  O  O45  1  0.512057  0.374654  0.378656  1
  O  O46  1  0.754075  0.842117  0.697348  1
  O  O47  1  0.968243  0.519197  0.355233  1
