# generated using pymatgen
data_K3Nd(AsS4)2
_symmetry_space_group_name_H-M   'P 1'
_cell_length_a   9.10152085
_cell_length_b   10.29483887
_cell_length_c   11.04348718
_cell_angle_alpha   107.40659121
_cell_angle_beta   102.89897891
_cell_angle_gamma   113.90071548
_symmetry_Int_Tables_number   1
_chemical_formula_structural   K3Nd(AsS4)2
_chemical_formula_sum   'K6 Nd2 As4 S16'
_cell_volume   829.36842495
_cell_formula_units_Z   2
loop_
 _symmetry_equiv_pos_site_id
 _symmetry_equiv_pos_as_xyz
  1  'x, y, z'
loop_
 _atom_site_type_symbol
 _atom_site_label
 _atom_site_symmetry_multiplicity
 _atom_site_fract_x
 _atom_site_fract_y
 _atom_site_fract_z
 _atom_site_occupancy
  K  K0  1  0.253546  0.003546  0.007091  1
  K  K1  1  0.746454  0.996454  0.992909  1
  K  K2  1  0.508153  0.258153  0.516307  1
  K  K3  1  0.500000  0.500000  0.000000  1
  K  K4  1  0.491847  0.741847  0.483693  1
  K  K5  1  0.000000  0.500000  0.000000  1
  Nd  Nd6  1  0.992719  0.242719  0.485438  1
  Nd  Nd7  1  0.007281  0.757281  0.514562  1
  As  As8  1  0.010127  0.905847  0.248455  1
  As  As9  1  0.989873  0.094153  0.751545  1
  As  As10  1  0.261672  0.657392  0.751545  1
  As  As11  1  0.738328  0.342608  0.248455  1
  S  S12  1  0.863142  0.844206  0.711731  1
  S  S13  1  0.638614  0.267808  0.028443  1
  S  S14  1  0.205910  0.861169  0.355796  1
  S  S15  1  0.350114  0.505373  0.644204  1
  S  S16  1  0.026270  0.470006  0.343877  1
  S  S17  1  0.889829  0.760635  0.028443  1
  S  S18  1  0.794090  0.138831  0.644204  1
  S  S19  1  0.973730  0.529994  0.656123  1
  S  S20  1  0.651411  0.132475  0.288269  1
  S  S21  1  0.817607  0.873871  0.343877  1
  S  S22  1  0.182393  0.126129  0.656123  1
  S  S23  1  0.361386  0.732192  0.971557  1
  S  S24  1  0.649886  0.494627  0.355796  1
  S  S25  1  0.136858  0.155794  0.288269  1
  S  S26  1  0.348589  0.867525  0.711731  1
  S  S27  1  0.110171  0.239365  0.971557  1
