# generated using pymatgen
data_Al3Pb5F19
_symmetry_space_group_name_H-M   'P 1'
_cell_length_a   7.57938148
_cell_length_b   10.84498546
_cell_length_c   10.84498577
_cell_angle_alpha   82.98645704
_cell_angle_beta   69.54165463
_cell_angle_gamma   69.54164938
_symmetry_Int_Tables_number   1
_chemical_formula_structural   Al3Pb5F19
_chemical_formula_sum   'Al6 Pb10 F38'
_cell_volume   782.53324827
_cell_formula_units_Z   2
loop_
 _symmetry_equiv_pos_site_id
 _symmetry_equiv_pos_as_xyz
  1  'x, y, z'
loop_
 _atom_site_type_symbol
 _atom_site_label
 _atom_site_symmetry_multiplicity
 _atom_site_fract_x
 _atom_site_fract_y
 _atom_site_fract_z
 _atom_site_occupancy
  Pb  Pb0  1  0.446894  0.848464  0.298600  1
  Pb  Pb1  1  0.745489  0.701385  0.848466  1
  Pb  Pb2  1  0.295217  0.298624  0.151547  1
  Pb  Pb3  1  0.593915  0.151546  0.701443  1
  Pb  Pb4  1  0.795217  0.151547  0.298624  1
  Pb  Pb5  1  0.245489  0.848466  0.701385  1
  Pb  Pb6  1  0.946894  0.298600  0.848464  1
  Pb  Pb7  1  0.093915  0.701443  0.151546  1
  Pb  Pb8  1  0.138457  0.499969  0.499979  1
  Pb  Pb9  1  0.638457  0.499979  0.499969  1
  Al  Al10  1  0.140507  0.177940  0.499968  1
  Al  Al11  1  0.640507  0.499968  0.177940  1
  Al  Al12  1  0.318491  0.499984  0.822019  1
  Al  Al13  1  0.818491  0.822019  0.499984  1
  Al  Al14  1  0.183208  1.000002  0.000056  1
  Al  Al15  1  0.683208  0.000056  1.000002  1
  F  F16  1  0.939041  0.139499  0.637149  1
  F  F17  1  0.576266  0.362824  0.139412  1
  F  F18  1  0.078524  0.637118  0.860584  1
  F  F19  1  0.715675  0.860515  0.362845  1
  F  F20  1  0.578524  0.860584  0.637118  1
  F  F21  1  0.076266  0.139412  0.362824  1
  F  F22  1  0.439041  0.637149  0.139499  1
  F  F23  1  0.215675  0.362845  0.860515  1
  F  F24  1  0.333775  0.235950  0.374648  1
  F  F25  1  0.708318  0.625367  0.235930  1
  F  F26  1  0.569739  0.374612  0.763972  1
  F  F27  1  0.944345  0.764012  0.625355  1
  F  F28  1  0.069739  0.763972  0.374612  1
  F  F29  1  0.208318  0.235930  0.625367  1
  F  F30  1  0.833775  0.374648  0.235950  1
  F  F31  1  0.444345  0.625355  0.764012  1
  F  F32  1  0.967886  0.345831  0.499902  1
  F  F33  1  0.467886  0.499902  0.345831  1
  F  F34  1  0.313633  0.500011  0.654146  1
  F  F35  1  0.813633  0.654146  0.500011  1
  F  F36  1  0.298983  0.009742  0.500003  1
  F  F37  1  0.798983  0.500003  0.009742  1
  F  F38  1  0.308890  0.499961  0.990196  1
  F  F39  1  0.808890  0.990196  0.499961  1
  F  F40  1  0.428374  0.000032  0.000015  1
  F  F41  1  0.928374  0.000015  0.000032  1
  F  F42  1  0.621808  0.167078  0.939152  1
  F  F43  1  0.560913  0.060946  0.167003  1
  F  F44  1  0.789013  0.939191  0.832986  1
  F  F45  1  0.728046  0.833055  0.060856  1
  F  F46  1  0.289013  0.832986  0.939191  1
  F  F47  1  0.060913  0.167003  0.060946  1
  F  F48  1  0.121808  0.939152  0.167078  1
  F  F49  1  0.228046  0.060856  0.833055  1
  F  F50  1  0.396492  0.730464  0.500026  1
  F  F51  1  0.896492  0.500026  0.730464  1
  F  F52  1  0.127102  0.500061  0.269559  1
  F  F53  1  0.627102  0.269559  0.500061  1
