# generated using pymatgen
data_Ce4MnSe6O
_symmetry_space_group_name_H-M   'P 1'
_cell_length_a   9.66551859
_cell_length_b   9.66551867
_cell_length_c   7.06104546
_cell_angle_alpha   90.00000000
_cell_angle_beta   90.00000000
_cell_angle_gamma   119.99999968
_symmetry_Int_Tables_number   1
_chemical_formula_structural   Ce4MnSe6O
_chemical_formula_sum   'Ce8 Mn2 Se12 O2'
_cell_volume   571.28124347
_cell_formula_units_Z   2
loop_
 _symmetry_equiv_pos_site_id
 _symmetry_equiv_pos_as_xyz
  1  'x, y, z'
loop_
 _atom_site_type_symbol
 _atom_site_label
 _atom_site_symmetry_multiplicity
 _atom_site_fract_x
 _atom_site_fract_y
 _atom_site_fract_z
 _atom_site_occupancy
  Ce  Ce0  1  0.666667  0.333333  0.710088  1
  Ce  Ce1  1  0.596828  0.798414  0.658965  1
  Ce  Ce2  1  0.798414  0.201586  0.158965  1
  Ce  Ce3  1  0.403172  0.201586  0.158965  1
  Ce  Ce4  1  0.798414  0.596828  0.158965  1
  Ce  Ce5  1  0.333333  0.666667  0.210088  1
  Ce  Ce6  1  0.201586  0.403172  0.658965  1
  Ce  Ce7  1  0.201586  0.798414  0.658965  1
  Mn  Mn8  1  0.000000  0.000000  0.995850  1
  Mn  Mn9  1  0.000000  0.000000  0.495850  1
  Se  Se10  1  0.127588  0.872412  0.261773  1
  Se  Se11  1  0.127588  0.255176  0.261773  1
  Se  Se12  1  0.872412  0.127588  0.761773  1
  Se  Se13  1  0.529500  0.470500  0.445349  1
  Se  Se14  1  0.059000  0.529500  0.945349  1
  Se  Se15  1  0.255176  0.127588  0.761773  1
  Se  Se16  1  0.470500  0.529500  0.945349  1
  Se  Se17  1  0.470500  0.941000  0.945349  1
  Se  Se18  1  0.744824  0.872412  0.261773  1
  Se  Se19  1  0.872412  0.744824  0.761773  1
  Se  Se20  1  0.941000  0.470500  0.445349  1
  Se  Se21  1  0.529500  0.059000  0.445349  1
  O  O22  1  0.666667  0.333333  0.048463  1
  O  O23  1  0.333333  0.666667  0.548463  1
