# generated using pymatgen
data_BH9(CO)3
_symmetry_space_group_name_H-M   'P 1'
_cell_length_a   7.13904772
_cell_length_b   7.13904756
_cell_length_c   6.80570541
_cell_angle_alpha   90.00000000
_cell_angle_beta   90.00000000
_cell_angle_gamma   120.00000074
_symmetry_Int_Tables_number   1
_chemical_formula_structural   BH9(CO)3
_chemical_formula_sum   'B2 H18 C6 O6'
_cell_volume   300.38921438
_cell_formula_units_Z   2
loop_
 _symmetry_equiv_pos_site_id
 _symmetry_equiv_pos_as_xyz
  1  'x, y, z'
loop_
 _atom_site_type_symbol
 _atom_site_label
 _atom_site_symmetry_multiplicity
 _atom_site_fract_x
 _atom_site_fract_y
 _atom_site_fract_z
 _atom_site_occupancy
  B  B0  1  0.000000  0.000000  0.250000  1
  B  B1  1  0.000000  0.000000  0.750000  1
  H  H2  1  0.415389  0.271084  0.381999  1
  H  H3  1  0.494891  0.064486  0.750000  1
  H  H4  1  0.569595  0.505109  0.750000  1
  H  H5  1  0.064486  0.569595  0.250000  1
  H  H6  1  0.584611  0.728916  0.881999  1
  H  H7  1  0.584611  0.728916  0.618001  1
  H  H8  1  0.144305  0.415389  0.881999  1
  H  H9  1  0.415389  0.271084  0.118001  1
  H  H10  1  0.271084  0.855695  0.618001  1
  H  H11  1  0.505109  0.935514  0.250000  1
  H  H12  1  0.728916  0.144305  0.118001  1
  H  H13  1  0.855695  0.584611  0.118001  1
  H  H14  1  0.728916  0.144305  0.381999  1
  H  H15  1  0.271084  0.855695  0.881999  1
  H  H16  1  0.144305  0.415389  0.618001  1
  H  H17  1  0.935514  0.430405  0.750000  1
  H  H18  1  0.430405  0.494891  0.250000  1
  H  H19  1  0.855695  0.584611  0.381999  1
  C  C20  1  0.681304  0.041804  0.250000  1
  C  C21  1  0.041804  0.360499  0.750000  1
  C  C22  1  0.360499  0.318696  0.250000  1
  C  C23  1  0.958196  0.639501  0.250000  1
  C  C24  1  0.318696  0.958196  0.750000  1
  C  C25  1  0.639501  0.681304  0.750000  1
  O  O26  1  0.129317  0.221665  0.250000  1
  O  O27  1  0.092348  0.870683  0.250000  1
  O  O28  1  0.221665  0.092348  0.750000  1
  O  O29  1  0.870683  0.778335  0.750000  1
  O  O30  1  0.778335  0.907652  0.250000  1
  O  O31  1  0.907652  0.129317  0.750000  1
