# generated using pymatgen
data_Cs2Ti(PO4)2
_symmetry_space_group_name_H-M   'P 1'
_cell_length_a   7.37921477
_cell_length_b   9.64708436
_cell_length_c   13.82044753
_cell_angle_alpha   90.00000000
_cell_angle_beta   90.00000000
_cell_angle_gamma   90.00000000
_symmetry_Int_Tables_number   1
_chemical_formula_structural   Cs2Ti(PO4)2
_chemical_formula_sum   'Cs8 Ti4 P8 O32'
_cell_volume   983.84873895
_cell_formula_units_Z   4
loop_
 _symmetry_equiv_pos_site_id
 _symmetry_equiv_pos_as_xyz
  1  'x, y, z'
loop_
 _atom_site_type_symbol
 _atom_site_label
 _atom_site_symmetry_multiplicity
 _atom_site_fract_x
 _atom_site_fract_y
 _atom_site_fract_z
 _atom_site_occupancy
  Cs  Cs0  1  0.750000  0.091545  0.602626  1
  Cs  Cs1  1  0.250000  0.127289  0.084232  1
  Cs  Cs2  1  0.750000  0.872711  0.915768  1
  Cs  Cs3  1  0.750000  0.408455  0.102626  1
  Cs  Cs4  1  0.750000  0.627289  0.415768  1
  Cs  Cs5  1  0.250000  0.591545  0.897374  1
  Cs  Cs6  1  0.250000  0.372711  0.584232  1
  Cs  Cs7  1  0.250000  0.908455  0.397374  1
  Ti  Ti8  1  0.750000  0.516951  0.708685  1
  Ti  Ti9  1  0.750000  0.983049  0.208685  1
  Ti  Ti10  1  0.250000  0.483049  0.291315  1
  Ti  Ti11  1  0.250000  0.016951  0.791315  1
  P  P12  1  0.048239  0.725522  0.153731  1
  P  P13  1  0.451761  0.725522  0.153731  1
  P  P14  1  0.548239  0.225522  0.346269  1
  P  P15  1  0.951761  0.274478  0.846269  1
  P  P16  1  0.548239  0.274478  0.846269  1
  P  P17  1  0.451761  0.774478  0.653731  1
  P  P18  1  0.048239  0.774478  0.653731  1
  P  P19  1  0.951761  0.225522  0.346269  1
  O  O20  1  0.066057  0.905330  0.718030  1
  O  O21  1  0.750000  0.448255  0.597653  1
  O  O22  1  0.562153  0.664763  0.709895  1
  O  O23  1  0.485463  0.305130  0.947194  1
  O  O24  1  0.250000  0.948255  0.902347  1
  O  O25  1  0.562153  0.835237  0.209895  1
  O  O26  1  0.750000  0.296955  0.348390  1
  O  O27  1  0.437847  0.335237  0.290105  1
  O  O28  1  0.933943  0.405330  0.781970  1
  O  O29  1  0.514537  0.805130  0.552806  1
  O  O30  1  0.566057  0.405330  0.781970  1
  O  O31  1  0.485463  0.194870  0.447194  1
  O  O32  1  0.250000  0.796955  0.151610  1
  O  O33  1  0.566057  0.094670  0.281970  1
  O  O34  1  0.062153  0.164763  0.790105  1
  O  O35  1  0.937847  0.664763  0.709895  1
  O  O36  1  0.750000  0.051745  0.097653  1
  O  O37  1  0.014537  0.305130  0.947194  1
  O  O38  1  0.062153  0.335237  0.290105  1
  O  O39  1  0.985463  0.694870  0.052806  1
  O  O40  1  0.985463  0.805130  0.552806  1
  O  O41  1  0.514537  0.694870  0.052806  1
  O  O42  1  0.433943  0.594670  0.218030  1
  O  O43  1  0.250000  0.703045  0.651610  1
  O  O44  1  0.437847  0.164763  0.790105  1
  O  O45  1  0.937847  0.835237  0.209895  1
  O  O46  1  0.750000  0.203045  0.848390  1
  O  O47  1  0.933943  0.094670  0.281970  1
  O  O48  1  0.250000  0.551745  0.402347  1
  O  O49  1  0.066057  0.594670  0.218030  1
  O  O50  1  0.014537  0.194870  0.447194  1
  O  O51  1  0.433943  0.905330  0.718030  1
