# generated using pymatgen
data_KZn4(PO4)3
_symmetry_space_group_name_H-M   'P 1'
_cell_length_a   8.26899178
_cell_length_b   9.78868625
_cell_length_c   14.06553769
_cell_angle_alpha   90.00000000
_cell_angle_beta   90.00000000
_cell_angle_gamma   90.00000000
_symmetry_Int_Tables_number   1
_chemical_formula_structural   KZn4(PO4)3
_chemical_formula_sum   'K4 Zn16 P12 O48'
_cell_volume   1138.50071474
_cell_formula_units_Z   4
loop_
 _symmetry_equiv_pos_site_id
 _symmetry_equiv_pos_as_xyz
  1  'x, y, z'
loop_
 _atom_site_type_symbol
 _atom_site_label
 _atom_site_symmetry_multiplicity
 _atom_site_fract_x
 _atom_site_fract_y
 _atom_site_fract_z
 _atom_site_occupancy
  K  K0  1  0.750000  0.806010  0.250000  1
  K  K1  1  0.250000  0.193990  0.750000  1
  K  K2  1  0.250000  0.693990  0.750000  1
  K  K3  1  0.750000  0.306010  0.250000  1
  Zn  Zn4  1  0.605478  0.307894  0.948942  1
  Zn  Zn5  1  0.894522  0.807894  0.948942  1
  Zn  Zn6  1  0.105478  0.192106  0.051058  1
  Zn  Zn7  1  0.412693  0.996659  0.145249  1
  Zn  Zn8  1  0.587307  0.003341  0.854751  1
  Zn  Zn9  1  0.412693  0.496659  0.354751  1
  Zn  Zn10  1  0.394522  0.692106  0.051058  1
  Zn  Zn11  1  0.587307  0.503341  0.645249  1
  Zn  Zn12  1  0.105478  0.692106  0.448942  1
  Zn  Zn13  1  0.894522  0.307894  0.551058  1
  Zn  Zn14  1  0.087307  0.496659  0.145249  1
  Zn  Zn15  1  0.912693  0.503341  0.854751  1
  Zn  Zn16  1  0.394522  0.192106  0.448942  1
  Zn  Zn17  1  0.605478  0.807894  0.551058  1
  Zn  Zn18  1  0.087307  0.996659  0.354751  1
  Zn  Zn19  1  0.912693  0.003341  0.645249  1
  P  P20  1  0.245843  0.434393  0.564793  1
  P  P21  1  0.754157  0.565607  0.435207  1
  P  P22  1  0.254157  0.934393  0.564793  1
  P  P23  1  0.250000  0.753979  0.250000  1
  P  P24  1  0.750000  0.746021  0.750000  1
  P  P25  1  0.745843  0.065607  0.435207  1
  P  P26  1  0.750000  0.246021  0.750000  1
  P  P27  1  0.254157  0.434393  0.935207  1
  P  P28  1  0.245843  0.934393  0.935207  1
  P  P29  1  0.754157  0.065607  0.064793  1
  P  P30  1  0.745843  0.565607  0.064793  1
  P  P31  1  0.250000  0.253979  0.250000  1
  O  O32  1  0.902557  0.657797  0.762842  1
  O  O33  1  0.618606  0.675904  0.087420  1
  O  O34  1  0.381394  0.324096  0.912580  1
  O  O35  1  0.367474  0.436310  0.648630  1
  O  O36  1  0.367474  0.936310  0.851370  1
  O  O37  1  0.735518  0.843600  0.839172  1
  O  O38  1  0.764482  0.843600  0.660828  1
  O  O39  1  0.170820  0.576145  0.551545  1
  O  O40  1  0.829180  0.923855  0.051545  1
  O  O41  1  0.158961  0.891276  0.470743  1
  O  O42  1  0.264482  0.156400  0.160828  1
  O  O43  1  0.881394  0.675904  0.412580  1
  O  O44  1  0.402557  0.342203  0.262842  1
  O  O45  1  0.118606  0.824096  0.912580  1
  O  O46  1  0.170820  0.076145  0.948455  1
  O  O47  1  0.670820  0.923855  0.448455  1
  O  O48  1  0.329180  0.076145  0.551545  1
  O  O49  1  0.597443  0.157797  0.762842  1
  O  O50  1  0.118606  0.324096  0.587420  1
  O  O51  1  0.341039  0.891276  0.029257  1
  O  O52  1  0.381394  0.824096  0.587420  1
  O  O53  1  0.867474  0.063690  0.351370  1
  O  O54  1  0.097443  0.342203  0.237158  1
  O  O55  1  0.881394  0.175904  0.087420  1
  O  O56  1  0.829180  0.423855  0.448455  1
  O  O57  1  0.867474  0.563690  0.148630  1
  O  O58  1  0.632526  0.563690  0.351370  1
  O  O59  1  0.132526  0.436310  0.851370  1
  O  O60  1  0.658961  0.608724  0.529257  1
  O  O61  1  0.158961  0.391276  0.029257  1
  O  O62  1  0.670820  0.423855  0.051545  1
  O  O63  1  0.341039  0.391276  0.470743  1
  O  O64  1  0.097443  0.842203  0.262842  1
  O  O65  1  0.735518  0.343600  0.660828  1
  O  O66  1  0.658961  0.108724  0.970743  1
  O  O67  1  0.632526  0.063690  0.148630  1
  O  O68  1  0.235518  0.156400  0.339172  1
  O  O69  1  0.597443  0.657797  0.737158  1
  O  O70  1  0.841039  0.608724  0.970743  1
  O  O71  1  0.132526  0.936310  0.648630  1
  O  O72  1  0.402557  0.842203  0.237158  1
  O  O73  1  0.235518  0.656400  0.160828  1
  O  O74  1  0.902557  0.157797  0.737158  1
  O  O75  1  0.329180  0.576145  0.948455  1
  O  O76  1  0.264482  0.656400  0.339172  1
  O  O77  1  0.841039  0.108724  0.529257  1
  O  O78  1  0.618606  0.175904  0.412580  1
  O  O79  1  0.764482  0.343600  0.839172  1
