# generated using pymatgen
data_Ti(TlS)4
_symmetry_space_group_name_H-M   'P 1'
_cell_length_a   8.45291645
_cell_length_b   8.56161757
_cell_length_c   15.84343101
_cell_angle_alpha   105.67085725
_cell_angle_beta   90.00000000
_cell_angle_gamma   90.00000000
_symmetry_Int_Tables_number   1
_chemical_formula_structural   Ti(TlS)4
_chemical_formula_sum   'Ti4 Tl16 S16'
_cell_volume   1103.97926775
_cell_formula_units_Z   4
loop_
 _symmetry_equiv_pos_site_id
 _symmetry_equiv_pos_as_xyz
  1  'x, y, z'
loop_
 _atom_site_type_symbol
 _atom_site_label
 _atom_site_symmetry_multiplicity
 _atom_site_fract_x
 _atom_site_fract_y
 _atom_site_fract_z
 _atom_site_occupancy
  Tl  Tl0  1  0.723035  0.385018  0.358676  1
  Tl  Tl1  1  0.223035  0.614982  0.141324  1
  Tl  Tl2  1  0.276965  0.614982  0.641324  1
  Tl  Tl3  1  0.776965  0.385018  0.858676  1
  Tl  Tl4  1  0.901053  0.822541  0.376957  1
  Tl  Tl5  1  0.401053  0.177459  0.123043  1
  Tl  Tl6  1  0.098947  0.177459  0.623043  1
  Tl  Tl7  1  0.598947  0.822541  0.876957  1
  Tl  Tl8  1  0.316634  0.587022  0.391682  1
  Tl  Tl9  1  0.816634  0.412978  0.108318  1
  Tl  Tl10  1  0.683366  0.412978  0.608318  1
  Tl  Tl11  1  0.183366  0.587022  0.891682  1
  Tl  Tl12  1  0.491836  0.973716  0.366755  1
  Tl  Tl13  1  0.991836  0.026284  0.133245  1
  Tl  Tl14  1  0.508164  0.026284  0.633245  1
  Tl  Tl15  1  0.008164  0.973716  0.866755  1
  Ti  Ti16  1  0.888405  0.790936  0.622122  1
  Ti  Ti17  1  0.388405  0.209064  0.877878  1
  Ti  Ti18  1  0.111595  0.209064  0.377878  1
  Ti  Ti19  1  0.611595  0.790936  0.122122  1
  S  S20  1  0.106226  0.815924  0.540311  1
  S  S21  1  0.606226  0.184076  0.959689  1
  S  S22  1  0.893774  0.184076  0.459689  1
  S  S23  1  0.393774  0.815924  0.040311  1
  S  S24  1  0.674661  0.701032  0.536936  1
  S  S25  1  0.174661  0.298968  0.963064  1
  S  S26  1  0.325339  0.298968  0.463064  1
  S  S27  1  0.825339  0.701032  0.036936  1
  S  S28  1  0.944779  0.617391  0.704002  1
  S  S29  1  0.444779  0.382609  0.795998  1
  S  S30  1  0.055221  0.382609  0.295998  1
  S  S31  1  0.555221  0.617391  0.204002  1
  S  S32  1  0.831219  0.042490  0.711441  1
  S  S33  1  0.331219  0.957510  0.788559  1
  S  S34  1  0.168781  0.957510  0.288559  1
  S  S35  1  0.668781  0.042490  0.211441  1
