# generated using pymatgen
data_Dy2Te
_symmetry_space_group_name_H-M   'P 1'
_cell_length_a   4.06698735
_cell_length_b   11.54166612
_cell_length_c   22.20945229
_cell_angle_alpha   90.00000000
_cell_angle_beta   90.00000000
_cell_angle_gamma   90.00000000
_symmetry_Int_Tables_number   1
_chemical_formula_structural   Dy2Te
_chemical_formula_sum   'Dy24 Te12'
_cell_volume   1042.50747309
_cell_formula_units_Z   12
loop_
 _symmetry_equiv_pos_site_id
 _symmetry_equiv_pos_as_xyz
  1  'x, y, z'
loop_
 _atom_site_type_symbol
 _atom_site_label
 _atom_site_symmetry_multiplicity
 _atom_site_fract_x
 _atom_site_fract_y
 _atom_site_fract_z
 _atom_site_occupancy
  Dy  Dy0  1  0.250000  0.151757  0.391410  1
  Dy  Dy1  1  0.750000  0.848243  0.608590  1
  Dy  Dy2  1  0.750000  0.651757  0.108590  1
  Dy  Dy3  1  0.250000  0.348243  0.891410  1
  Dy  Dy4  1  0.250000  0.455955  0.339964  1
  Dy  Dy5  1  0.750000  0.544045  0.660036  1
  Dy  Dy6  1  0.750000  0.955955  0.160036  1
  Dy  Dy7  1  0.250000  0.044045  0.839964  1
  Dy  Dy8  1  0.250000  0.734627  0.233399  1
  Dy  Dy9  1  0.750000  0.265373  0.766601  1
  Dy  Dy10  1  0.750000  0.234627  0.266601  1
  Dy  Dy11  1  0.250000  0.765373  0.733399  1
  Dy  Dy12  1  0.250000  0.116124  0.034247  1
  Dy  Dy13  1  0.750000  0.883876  0.965753  1
  Dy  Dy14  1  0.750000  0.616124  0.465753  1
  Dy  Dy15  1  0.250000  0.383876  0.534247  1
  Dy  Dy16  1  0.250000  0.415139  0.146729  1
  Dy  Dy17  1  0.750000  0.584861  0.853271  1
  Dy  Dy18  1  0.750000  0.915139  0.353271  1
  Dy  Dy19  1  0.250000  0.084861  0.646729  1
  Dy  Dy20  1  0.250000  0.613093  0.983101  1
  Dy  Dy21  1  0.750000  0.386907  0.016899  1
  Dy  Dy22  1  0.750000  0.113093  0.516899  1
  Dy  Dy23  1  0.250000  0.886907  0.483101  1
  Te  Te24  1  0.250000  0.850694  0.068884  1
  Te  Te25  1  0.750000  0.149306  0.931116  1
  Te  Te26  1  0.750000  0.350694  0.431116  1
  Te  Te27  1  0.250000  0.649306  0.568884  1
  Te  Te28  1  0.250000  0.711938  0.372632  1
  Te  Te29  1  0.750000  0.288062  0.627368  1
  Te  Te30  1  0.750000  0.211938  0.127368  1
  Te  Te31  1  0.250000  0.788062  0.872632  1
  Te  Te32  1  0.250000  0.020368  0.260837  1
  Te  Te33  1  0.750000  0.979632  0.739163  1
  Te  Te34  1  0.750000  0.520368  0.239163  1
  Te  Te35  1  0.250000  0.479632  0.760837  1
