# generated using pymatgen
data_Hg2Te2O7
_symmetry_space_group_name_H-M   'P 1'
_cell_length_a   7.57796397
_cell_length_b   13.97090794
_cell_length_c   13.93557472
_cell_angle_alpha   120.08390666
_cell_angle_beta   90.00000000
_cell_angle_gamma   90.00000000
_symmetry_Int_Tables_number   1
_chemical_formula_structural   Hg2Te2O7
_chemical_formula_sum   'Hg16 Te16 O56'
_cell_volume   1276.62947135
_cell_formula_units_Z   8
loop_
 _symmetry_equiv_pos_site_id
 _symmetry_equiv_pos_as_xyz
  1  'x, y, z'
loop_
 _atom_site_type_symbol
 _atom_site_label
 _atom_site_symmetry_multiplicity
 _atom_site_fract_x
 _atom_site_fract_y
 _atom_site_fract_z
 _atom_site_occupancy
  Hg  Hg0  1  0.520255  0.235827  0.508927  1
  Hg  Hg1  1  0.953576  0.494936  0.740673  1
  Hg  Hg2  1  0.046424  0.754263  0.259327  1
  Hg  Hg3  1  0.479745  0.726900  0.491073  1
  Hg  Hg4  1  0.951676  0.251844  0.240172  1
  Hg  Hg5  1  0.000000  0.283615  1.000000  1
  Hg  Hg6  1  0.500000  0.291704  1.000000  1
  Hg  Hg7  1  0.000000  0.791704  1.000000  1
  Hg  Hg8  1  0.979745  0.735827  0.508927  1
  Hg  Hg9  1  0.453576  0.254263  0.259327  1
  Hg  Hg10  1  0.546424  0.994936  0.740673  1
  Hg  Hg11  1  0.048324  0.011673  0.759828  1
  Hg  Hg12  1  0.451676  0.511673  0.759828  1
  Hg  Hg13  1  0.500000  0.783615  1.000000  1
  Hg  Hg14  1  0.548324  0.751844  0.240172  1
  Hg  Hg15  1  0.020255  0.226900  0.491073  1
  Te  Te16  1  0.739530  0.464701  0.497155  1
  Te  Te17  1  0.250028  0.042505  0.001476  1
  Te  Te18  1  0.260470  0.967546  0.502845  1
  Te  Te19  1  0.750028  0.541028  0.998524  1
  Te  Te20  1  0.249660  0.755433  0.724360  1
  Te  Te21  1  0.760470  0.964701  0.497155  1
  Te  Te22  1  0.756857  0.249941  0.770201  1
  Te  Te23  1  0.750340  0.031073  0.275640  1
  Te  Te24  1  0.743143  0.749941  0.770201  1
  Te  Te25  1  0.256857  0.979740  0.229799  1
  Te  Te26  1  0.250340  0.255433  0.724360  1
  Te  Te27  1  0.243143  0.479740  0.229799  1
  Te  Te28  1  0.749660  0.531073  0.275640  1
  Te  Te29  1  0.249972  0.542505  0.001476  1
  Te  Te30  1  0.749972  0.041028  0.998524  1
  Te  Te31  1  0.239530  0.467546  0.502845  1
  O  O32  1  0.709608  0.064852  0.146919  1
  O  O33  1  0.790392  0.564852  0.146919  1
  O  O34  1  0.694849  0.695759  0.064426  1
  O  O35  1  0.190146  0.950700  0.360046  1
  O  O36  1  0.441065  0.377105  0.167666  1
  O  O37  1  0.805151  0.195759  0.064426  1
  O  O38  1  0.273293  0.662916  0.155497  1
  O  O39  1  0.690146  0.090654  0.639954  1
  O  O40  1  0.733069  0.867356  0.556639  1
  O  O41  1  0.945126  0.136038  0.315756  1
  O  O42  1  0.558935  0.209439  0.832334  1
  O  O43  1  0.058935  0.877105  0.167666  1
  O  O44  1  0.782448  0.071688  0.443598  1
  O  O45  1  0.044174  0.383175  0.192582  1
  O  O46  1  0.726707  0.507418  0.844503  1
  O  O47  1  0.000000  0.587125  0.000000  1
  O  O48  1  0.195862  0.443438  0.061717  1
  O  O49  1  0.941065  0.709439  0.832334  1
  O  O50  1  0.992277  0.440319  0.447143  1
  O  O51  1  0.195202  0.500035  0.654583  1
  O  O52  1  0.809854  0.590654  0.639954  1
  O  O53  1  0.445126  0.320281  0.684244  1
  O  O54  1  0.717552  0.571688  0.443598  1
  O  O55  1  0.500000  0.495275  1.000000  1
  O  O56  1  0.544174  0.690593  0.807418  1
  O  O57  1  0.304138  0.943438  0.061717  1
  O  O58  1  0.804798  0.845452  0.345417  1
  O  O59  1  0.454933  0.793074  0.668323  1
  O  O60  1  0.695202  0.345452  0.345417  1
  O  O61  1  0.492277  0.493176  0.552857  1
  O  O62  1  0.007723  0.993176  0.552857  1
  O  O63  1  0.054874  0.820281  0.684244  1
  O  O64  1  0.545067  0.124751  0.331677  1
  O  O65  1  0.305151  0.631333  0.935574  1
  O  O66  1  0.045067  0.293074  0.668323  1
  O  O67  1  0.290392  0.917933  0.853081  1
  O  O68  1  0.500000  0.087125  0.000000  1
  O  O69  1  0.309854  0.450700  0.360046  1
  O  O70  1  0.695862  0.881721  0.938283  1
  O  O71  1  0.507723  0.940319  0.447143  1
  O  O72  1  0.304798  1.000035  0.654583  1
  O  O73  1  0.217552  0.628090  0.556402  1
  O  O74  1  0.455826  0.883175  0.192582  1
  O  O75  1  0.773293  0.007418  0.844503  1
  O  O76  1  0.226707  0.162916  0.155497  1
  O  O77  1  0.954933  0.624751  0.331677  1
  O  O78  1  0.266931  0.310717  0.443361  1
  O  O79  1  0.233069  0.810717  0.443361  1
  O  O80  1  0.282448  0.128090  0.556402  1
  O  O81  1  0.766931  0.367356  0.556639  1
  O  O82  1  0.554874  0.636038  0.315756  1
  O  O83  1  0.804138  0.381721  0.938283  1
  O  O84  1  0.000000  0.995275  1.000000  1
  O  O85  1  0.194849  0.131333  0.935574  1
  O  O86  1  0.955826  0.190593  0.807418  1
  O  O87  1  0.209608  0.417933  0.853081  1
