# generated using pymatgen
data_H8C2I3N
_symmetry_space_group_name_H-M   'P 1'
_cell_length_a   6.59731125
_cell_length_b   10.10922065
_cell_length_c   14.95699817
_cell_angle_alpha   90.00000000
_cell_angle_beta   90.00000000
_cell_angle_gamma   90.00000000
_symmetry_Int_Tables_number   1
_chemical_formula_structural   H8C2I3N
_chemical_formula_sum   'H32 C8 I12 N4'
_cell_volume   997.53717676
_cell_formula_units_Z   4
loop_
 _symmetry_equiv_pos_site_id
 _symmetry_equiv_pos_as_xyz
  1  'x, y, z'
loop_
 _atom_site_type_symbol
 _atom_site_label
 _atom_site_symmetry_multiplicity
 _atom_site_fract_x
 _atom_site_fract_y
 _atom_site_fract_z
 _atom_site_occupancy
  H  H0  1  0.483669  0.365465  0.363285  1
  H  H1  1  0.335077  0.609492  0.548419  1
  H  H2  1  0.164923  0.890508  0.548419  1
  H  H3  1  0.817272  0.319812  0.312816  1
  H  H4  1  0.835077  0.390508  0.951581  1
  H  H5  1  0.516331  0.634535  0.636715  1
  H  H6  1  0.016331  0.365465  0.863285  1
  H  H7  1  0.682728  0.319812  0.812816  1
  H  H8  1  0.835077  0.109492  0.451581  1
  H  H9  1  0.664923  0.390508  0.451581  1
  H  H10  1  0.514003  0.257505  0.949673  1
  H  H11  1  0.485997  0.742495  0.050327  1
  H  H12  1  0.514003  0.242495  0.449673  1
  H  H13  1  0.164923  0.609492  0.048419  1
  H  H14  1  0.014003  0.757505  0.050327  1
  H  H15  1  0.317272  0.680188  0.187184  1
  H  H16  1  0.983669  0.634535  0.136715  1
  H  H17  1  0.182728  0.819812  0.187184  1
  H  H18  1  0.664923  0.109492  0.951581  1
  H  H19  1  0.317272  0.819812  0.687184  1
  H  H20  1  0.817272  0.180188  0.812816  1
  H  H21  1  0.983669  0.865465  0.636715  1
  H  H22  1  0.483669  0.134535  0.863285  1
  H  H23  1  0.182728  0.680188  0.687184  1
  H  H24  1  0.985997  0.257505  0.449673  1
  H  H25  1  0.016331  0.134535  0.363285  1
  H  H26  1  0.682728  0.180188  0.312816  1
  H  H27  1  0.985997  0.242495  0.949673  1
  H  H28  1  0.014003  0.742495  0.550327  1
  H  H29  1  0.485997  0.757505  0.550327  1
  H  H30  1  0.335077  0.890508  0.048419  1
  H  H31  1  0.516331  0.865465  0.136715  1
  C  C32  1  0.590856  0.317085  0.408758  1
  C  C33  1  0.090856  0.682915  0.091242  1
  C  C34  1  0.409144  0.817085  0.091242  1
  C  C35  1  0.909144  0.317085  0.908758  1
  C  C36  1  0.409144  0.682915  0.591242  1
  C  C37  1  0.590856  0.182915  0.908758  1
  C  C38  1  0.090856  0.817085  0.591242  1
  C  C39  1  0.909144  0.182915  0.408758  1
  I  I40  1  0.579182  0.446859  0.150638  1
  I  I41  1  0.250000  0.250000  0.146721  1
  I  I42  1  0.079182  0.946859  0.849362  1
  I  I43  1  0.920818  0.053141  0.150638  1
  I  I44  1  0.579182  0.053141  0.650638  1
  I  I45  1  0.750000  0.750000  0.853279  1
  I  I46  1  0.250000  0.250000  0.646721  1
  I  I47  1  0.420818  0.946859  0.349362  1
  I  I48  1  0.920818  0.446859  0.650638  1
  I  I49  1  0.750000  0.750000  0.353279  1
  I  I50  1  0.420818  0.553141  0.849362  1
  I  I51  1  0.079182  0.553141  0.349362  1
  N  N52  1  0.250000  0.750000  0.645873  1
  N  N53  1  0.750000  0.250000  0.354127  1
  N  N54  1  0.250000  0.750000  0.145873  1
  N  N55  1  0.750000  0.250000  0.854127  1
