# generated using pymatgen
data_La2CoO4
_symmetry_space_group_name_H-M   'P 1'
_cell_length_a   5.40783966
_cell_length_b   5.41669417
_cell_length_c   6.98387535
_cell_angle_alpha   89.93185838
_cell_angle_beta   112.77644870
_cell_angle_gamma   90.18392694
_symmetry_Int_Tables_number   1
_chemical_formula_structural   La2CoO4
_chemical_formula_sum   'La4 Co2 O8'
_cell_volume   188.62263897
_cell_formula_units_Z   2
loop_
 _symmetry_equiv_pos_site_id
 _symmetry_equiv_pos_as_xyz
  1  'x, y, z'
loop_
 _atom_site_type_symbol
 _atom_site_label
 _atom_site_symmetry_multiplicity
 _atom_site_fract_x
 _atom_site_fract_y
 _atom_site_fract_z
 _atom_site_occupancy
  La  La0  1  0.362559  0.997787  0.724980  1
  La  La1  1  0.137558  0.497742  0.275021  1
  La  La2  1  0.862445  0.502255  0.724981  1
  La  La3  1  0.637442  0.002211  0.275022  1
  Co  Co4  1  1.000000  0.000000  0.999999  1
  Co  Co5  1  0.499999  0.500001  0.999999  1
  O  O6  1  0.747097  0.250008  0.994176  1
  O  O7  1  0.680780  0.491978  0.361449  1
  O  O8  1  0.819266  0.991964  0.638552  1
  O  O9  1  0.247222  0.249988  0.994409  1
  O  O10  1  0.252901  0.749992  0.005821  1
  O  O11  1  0.180735  0.008039  0.361448  1
  O  O12  1  0.319219  0.508025  0.638553  1
  O  O13  1  0.752780  0.750012  0.005591  1
