# generated using pymatgen
data_CdI2
_symmetry_space_group_name_H-M   'P 1'
_cell_length_a   4.33316835
_cell_length_b   4.33316862
_cell_length_c   74.13178394
_cell_angle_alpha   90.00000000
_cell_angle_beta   90.00000000
_cell_angle_gamma   119.99999801
_symmetry_Int_Tables_number   1
_chemical_formula_structural   CdI2
_chemical_formula_sum   'Cd10 I20'
_cell_volume   1205.44179040
_cell_formula_units_Z   10
loop_
 _symmetry_equiv_pos_site_id
 _symmetry_equiv_pos_as_xyz
  1  'x, y, z'
loop_
 _atom_site_type_symbol
 _atom_site_label
 _atom_site_symmetry_multiplicity
 _atom_site_fract_x
 _atom_site_fract_y
 _atom_site_fract_z
 _atom_site_occupancy
  Cd  Cd0  1  0.333333  0.666667  0.325013  1
  Cd  Cd1  1  0.000000  0.000000  0.924996  1
  Cd  Cd2  1  0.000000  0.000000  0.824984  1
  Cd  Cd3  1  0.000000  0.000000  0.525018  1
  Cd  Cd4  1  0.333333  0.666667  0.024984  1
  Cd  Cd5  1  0.000000  0.000000  0.124986  1
  Cd  Cd6  1  0.333333  0.666667  0.424971  1
  Cd  Cd7  1  0.333333  0.666667  0.724999  1
  Cd  Cd8  1  0.333333  0.666667  0.225024  1
  Cd  Cd9  1  0.000000  0.000000  0.625004  1
  I  I10  1  0.000000  0.000000  0.401707  1
  I  I11  1  0.666667  0.333333  0.448246  1
  I  I12  1  0.333333  0.666667  0.801705  1
  I  I13  1  0.666667  0.333333  0.548296  1
  I  I14  1  0.666667  0.333333  0.648271  1
  I  I15  1  0.000000  0.000000  0.301757  1
  I  I16  1  0.666667  0.333333  0.348281  1
  I  I17  1  0.000000  0.000000  0.201760  1
  I  I18  1  0.666667  0.333333  0.748271  1
  I  I19  1  0.666667  0.333333  0.948267  1
  I  I20  1  0.666667  0.333333  0.048265  1
  I  I21  1  0.666667  0.333333  0.148268  1
  I  I22  1  0.333333  0.666667  0.101710  1
  I  I23  1  0.666667  0.333333  0.848268  1
  I  I24  1  0.333333  0.666667  0.901720  1
  I  I25  1  0.000000  0.000000  0.001720  1
  I  I26  1  0.000000  0.000000  0.701739  1
  I  I27  1  0.666667  0.333333  0.248302  1
  I  I28  1  0.333333  0.666667  0.601729  1
  I  I29  1  0.333333  0.666667  0.501739  1
