# generated using pymatgen
data_Cs6K3GaSb4
_symmetry_space_group_name_H-M   'P 1'
_cell_length_a   11.16825962
_cell_length_b   11.16825951
_cell_length_c   11.70399394
_cell_angle_alpha   90.00000000
_cell_angle_beta   90.00000000
_cell_angle_gamma   120.00000033
_symmetry_Int_Tables_number   1
_chemical_formula_structural   Cs6K3GaSb4
_chemical_formula_sum   'Cs12 K6 Ga2 Sb8'
_cell_volume   1264.25801750
_cell_formula_units_Z   2
loop_
 _symmetry_equiv_pos_site_id
 _symmetry_equiv_pos_as_xyz
  1  'x, y, z'
loop_
 _atom_site_type_symbol
 _atom_site_label
 _atom_site_symmetry_multiplicity
 _atom_site_fract_x
 _atom_site_fract_y
 _atom_site_fract_z
 _atom_site_occupancy
  Cs  Cs0  1  0.209410  0.418820  0.541644  1
  Cs  Cs1  1  0.790590  0.209410  0.041644  1
  Cs  Cs2  1  0.418820  0.209410  0.041644  1
  Cs  Cs3  1  0.581180  0.790590  0.541644  1
  Cs  Cs4  1  0.209410  0.790590  0.541644  1
  Cs  Cs5  1  0.790590  0.581180  0.458356  1
  Cs  Cs6  1  0.790590  0.209410  0.458356  1
  Cs  Cs7  1  0.790590  0.581180  0.041644  1
  Cs  Cs8  1  0.418820  0.209410  0.458356  1
  Cs  Cs9  1  0.581180  0.790590  0.958356  1
  Cs  Cs10  1  0.209410  0.418820  0.958356  1
  Cs  Cs11  1  0.209410  0.790590  0.958356  1
  Ga  Ga12  1  0.333333  0.666667  0.250000  1
  Ga  Ga13  1  0.666667  0.333333  0.750000  1
  Sb  Sb14  1  0.472624  0.527376  0.250000  1
  Sb  Sb15  1  0.945247  0.472624  0.750000  1
  Sb  Sb16  1  0.527376  0.054753  0.750000  1
  Sb  Sb17  1  0.472624  0.945247  0.250000  1
  Sb  Sb18  1  0.054753  0.527376  0.250000  1
  Sb  Sb19  1  0.527376  0.472624  0.750000  1
  Sb  Sb20  1  0.000000  0.000000  0.000000  1
  Sb  Sb21  1  0.000000  0.000000  0.500000  1
  K  K22  1  0.119030  0.238060  0.250000  1
  K  K23  1  0.880970  0.119030  0.750000  1
  K  K24  1  0.238060  0.119030  0.750000  1
  K  K25  1  0.761940  0.880970  0.250000  1
  K  K26  1  0.119030  0.880970  0.250000  1
  K  K27  1  0.880970  0.761940  0.750000  1
