# generated using pymatgen
data_AlPO4
_symmetry_space_group_name_H-M   'P 1'
_cell_length_a   8.70874550
_cell_length_b   12.60414329
_cell_length_c   12.60414345
_cell_angle_alpha   66.77680465
_cell_angle_beta   69.78941514
_cell_angle_gamma   69.78941614
_symmetry_Int_Tables_number   1
_chemical_formula_structural   AlPO4
_chemical_formula_sum   'Al10 P10 O40'
_cell_volume   1157.47657851
_cell_formula_units_Z   10
loop_
 _symmetry_equiv_pos_site_id
 _symmetry_equiv_pos_as_xyz
  1  'x, y, z'
loop_
 _atom_site_type_symbol
 _atom_site_label
 _atom_site_symmetry_multiplicity
 _atom_site_fract_x
 _atom_site_fract_y
 _atom_site_fract_z
 _atom_site_occupancy
  Al  Al0  1  0.204595  0.152552  0.054777  1
  Al  Al1  1  0.911924  0.445223  0.347448  1
  Al  Al2  1  0.772206  0.893506  0.178687  1
  Al  Al3  1  0.704595  0.554777  0.652552  1
  Al  Al4  1  0.059414  0.607815  0.892185  1
  Al  Al5  1  0.844399  0.106494  0.821313  1
  Al  Al6  1  0.344399  0.321313  0.606494  1
  Al  Al7  1  0.559414  0.392185  0.107815  1
  Al  Al8  1  0.272206  0.678687  0.393506  1
  Al  Al9  1  0.411924  0.847448  0.945223  1
  P  P10  1  0.719289  0.318604  0.609438  1
  P  P11  1  0.078030  0.555563  0.655058  1
  P  P12  1  0.433960  0.614035  0.885965  1
  P  P13  1  0.147331  0.890562  0.181396  1
  P  P14  1  0.788651  0.844942  0.944437  1
  P  P15  1  0.288651  0.444437  0.344942  1
  P  P16  1  0.578030  0.155058  0.055563  1
  P  P17  1  0.647331  0.681396  0.390562  1
  P  P18  1  0.219289  0.109438  0.818604  1
  P  P19  1  0.933960  0.385965  0.114035  1
  O  O20  1  0.277569  0.832606  0.088365  1
  O  O21  1  0.054023  0.266877  0.103337  1
  O  O22  1  0.758685  0.390134  0.109866  1
  O  O23  1  0.198023  0.431105  0.667092  1
  O  O24  1  0.698540  0.411635  0.667394  1
  O  O25  1  0.299675  0.183552  0.694404  1
  O  O26  1  0.499425  0.511704  0.988296  1
  O  O27  1  0.969405  0.896600  0.180254  1
  O  O28  1  0.177631  0.816448  0.305596  1
  O  O29  1  0.331845  0.352910  0.461137  1
  O  O30  1  0.404472  0.155991  0.050558  1
  O  O31  1  0.999425  0.488296  0.011704  1
  O  O32  1  0.924237  0.396663  0.233123  1
  O  O33  1  0.258685  0.609866  0.890134  1
  O  O34  1  0.777569  0.588365  0.332606  1
  O  O35  1  0.677631  0.805596  0.316448  1
  O  O36  1  0.554023  0.603337  0.766877  1
  O  O37  1  0.611020  0.844009  0.949442  1
  O  O38  1  0.046259  0.103400  0.819746  1
  O  O39  1  0.062811  0.593867  0.759642  1
  O  O40  1  0.111020  0.449442  0.344009  1
  O  O41  1  0.562811  0.259642  0.093867  1
  O  O42  1  0.469405  0.680254  0.396600  1
  O  O43  1  0.296220  0.568895  0.332908  1
  O  O44  1  0.163624  0.016602  0.154299  1
  O  O45  1  0.834525  0.345701  0.483398  1
  O  O46  1  0.916320  0.740358  0.906133  1
  O  O47  1  0.663624  0.654299  0.516602  1
  O  O48  1  0.831845  0.961137  0.852910  1
  O  O49  1  0.799675  0.194404  0.683552  1
  O  O50  1  0.424237  0.733123  0.896663  1
  O  O51  1  0.796220  0.832908  0.068895  1
  O  O52  1  0.416320  0.406133  0.240358  1
  O  O53  1  0.904472  0.550558  0.655991  1
  O  O54  1  0.145892  0.647090  0.538863  1
  O  O55  1  0.546259  0.319746  0.603400  1
  O  O56  1  0.698023  0.167092  0.931105  1
  O  O57  1  0.645892  0.038863  0.147090  1
  O  O58  1  0.334525  0.983398  0.845701  1
  O  O59  1  0.198540  0.167394  0.911635  1
