# generated using pymatgen
data_SrGaH4
_symmetry_space_group_name_H-M   'P 1'
_cell_length_a   4.73560064
_cell_length_b   8.78654425
_cell_length_c   7.46079754
_cell_angle_alpha   90.00000000
_cell_angle_beta   90.00000000
_cell_angle_gamma   90.00000000
_symmetry_Int_Tables_number   1
_chemical_formula_structural   SrGaH4
_chemical_formula_sum   'Sr4 Ga4 H16'
_cell_volume   310.44053701
_cell_formula_units_Z   4
loop_
 _symmetry_equiv_pos_site_id
 _symmetry_equiv_pos_as_xyz
  1  'x, y, z'
loop_
 _atom_site_type_symbol
 _atom_site_label
 _atom_site_symmetry_multiplicity
 _atom_site_fract_x
 _atom_site_fract_y
 _atom_site_fract_z
 _atom_site_occupancy
  Sr  Sr0  1  0.953984  0.995296  0.751419  1
  Sr  Sr1  1  0.453984  0.004704  0.248581  1
  Sr  Sr2  1  0.453984  0.504704  0.251419  1
  Sr  Sr3  1  0.953984  0.495296  0.748581  1
  Ga  Ga4  1  0.954054  0.757393  0.395803  1
  Ga  Ga5  1  0.454054  0.242607  0.604197  1
  Ga  Ga6  1  0.454054  0.742607  0.895803  1
  Ga  Ga7  1  0.954054  0.257393  0.104197  1
  H  H8  1  0.218195  0.256094  0.248457  1
  H  H9  1  0.718195  0.743906  0.751543  1
  H  H10  1  0.718195  0.243906  0.748457  1
  H  H11  1  0.218195  0.756094  0.251543  1
  H  H12  1  0.954084  0.961004  0.421548  1
  H  H13  1  0.454084  0.038996  0.578452  1
  H  H14  1  0.454084  0.538996  0.921548  1
  H  H15  1  0.954084  0.461004  0.078452  1
  H  H16  1  0.954081  0.053899  0.080052  1
  H  H17  1  0.454081  0.946101  0.919948  1
  H  H18  1  0.454081  0.446101  0.580052  1
  H  H19  1  0.954081  0.553899  0.419948  1
  H  H20  1  0.189620  0.243903  0.748174  1
  H  H21  1  0.689620  0.756097  0.251826  1
  H  H22  1  0.689620  0.256097  0.248174  1
  H  H23  1  0.189620  0.743903  0.751826  1
