# generated using pymatgen
data_Al(PO3)3
_symmetry_space_group_name_H-M   'P 1'
_cell_length_a   9.36966455
_cell_length_b   10.59212449
_cell_length_c   11.51486751
_cell_angle_alpha   113.56316009
_cell_angle_beta   109.80543535
_cell_angle_gamma   98.50518980
_symmetry_Int_Tables_number   1
_chemical_formula_structural   Al(PO3)3
_chemical_formula_sum   'Al6 P18 O54'
_cell_volume   930.82849825
_cell_formula_units_Z   6
loop_
 _symmetry_equiv_pos_site_id
 _symmetry_equiv_pos_as_xyz
  1  'x, y, z'
loop_
 _atom_site_type_symbol
 _atom_site_label
 _atom_site_symmetry_multiplicity
 _atom_site_fract_x
 _atom_site_fract_y
 _atom_site_fract_z
 _atom_site_occupancy
  Al  Al0  1  0.905134  0.419342  0.824347  1
  Al  Al1  1  0.580788  0.594995  0.175653  1
  Al  Al2  1  0.575125  0.085609  0.160665  1
  Al  Al3  1  0.914460  0.924944  0.839335  1
  Al  Al4  1  0.261123  0.741961  0.509207  1
  Al  Al5  1  0.251916  0.232755  0.490793  1
  P  P6  1  0.270595  0.618998  0.944022  1
  P  P7  1  0.826573  0.674976  0.055978  1
  P  P8  1  0.946213  0.267096  0.271669  1
  P  P9  1  0.174544  0.995427  0.728331  1
  P  P10  1  0.618101  0.932821  0.606721  1
  P  P11  1  0.511381  0.326100  0.393279  1
  P  P12  1  0.650816  0.843045  0.937072  1
  P  P13  1  0.213744  0.905973  0.062928  1
  P  P14  1  0.326250  0.494297  0.273628  1
  P  P15  1  0.552622  0.220670  0.726372  1
  P  P16  1  0.995469  0.162964  0.602534  1
  P  P17  1  0.892935  0.560430  0.397466  1
  P  P18  1  0.358139  0.583490  0.702039  1
  P  P19  1  0.156100  0.881451  0.297961  1
  P  P20  1  0.003806  0.284169  0.031320  1
  P  P21  1  0.472485  0.252849  0.968680  1
  P  P22  1  0.674572  0.938001  0.364290  1
  P  P23  1  0.810282  0.573711  0.635710  1
  O  O24  1  0.486074  0.806890  0.573855  1
  O  O25  1  0.412220  0.233035  0.426145  1
  O  O26  1  0.128284  0.514732  0.926254  1
  O  O27  1  0.702031  0.588478  0.073746  1
  O  O28  1  0.801285  0.141432  0.219976  1
  O  O29  1  0.081309  0.921456  0.780024  1
  O  O30  1  0.598108  0.077017  0.706097  1
  O  O31  1  0.392011  0.370921  0.293903  1
  O  O32  1  0.231137  0.764196  0.954991  1
  O  O33  1  0.776146  0.809205  0.045009  1
  O  O34  1  0.930250  0.412465  0.375019  1
  O  O35  1  0.055232  0.037447  0.624981  1
  O  O36  1  0.786465  0.934150  0.675449  1
  O  O37  1  0.611016  0.258701  0.324551  1
  O  O38  1  0.430061  0.652629  0.058806  1
  O  O39  1  0.871254  0.593823  0.941194  1
  O  O40  1  0.108489  0.259286  0.343004  1
  O  O41  1  0.265485  0.916282  0.656996  1
  O  O42  1  0.003283  0.132712  0.951817  1
  O  O43  1  0.551466  0.180895  0.048183  1
  O  O44  1  0.700071  0.792691  0.310835  1
  O  O45  1  0.889236  0.481857  0.689165  1
  O  O46  1  0.359723  0.437608  0.608784  1
  O  O47  1  0.250939  0.828824  0.391216  1
  O  O48  1  0.910005  0.348497  0.950320  1
  O  O49  1  0.459684  0.398177  0.049680  1
  O  O50  1  0.578355  0.977438  0.259310  1
  O  O51  1  0.819045  0.718128  0.740690  1
  O  O52  1  0.276800  0.664633  0.635188  1
  O  O53  1  0.141613  0.029445  0.364812  1
  O  O54  1  0.945247  0.246618  0.712232  1
  O  O55  1  0.733015  0.534386  0.287768  1
  O  O56  1  0.548680  0.913126  1.000463  1
  O  O57  1  0.048216  0.912663  -0.000463  1
  O  O58  1  0.257063  0.560366  0.373891  1
  O  O59  1  0.383172  0.186475  0.626109  1
  O  O60  1  0.111659  0.248427  0.576448  1
  O  O61  1  0.035211  0.671979  0.423552  1
  O  O62  1  0.743698  0.928174  0.893346  1
  O  O63  1  0.350353  0.034828  0.106654  1
  O  O64  1  0.450869  0.597810  0.270677  1
  O  O65  1  0.680192  0.327132  0.729323  1
  O  O66  1  0.292044  0.153597  0.855553  1
  O  O67  1  0.936492  0.298045  0.144447  1
  O  O68  1  0.981668  0.762217  0.203844  1
  O  O69  1  0.277824  0.558374  0.796156  1
  O  O70  1  0.623901  0.482448  0.528931  1
  O  O71  1  0.594970  0.953516  0.471069  1
  O  O72  1  0.565601  0.273754  0.881204  1
  O  O73  1  0.184397  0.392549  0.118796  1
  O  O74  1  0.232313  0.870637  0.189801  1
  O  O75  1  0.542512  0.680836  0.810199  1
  O  O76  1  0.888286  0.609217  0.545320  1
  O  O77  1  0.842967  0.063898  0.454680  1
