# generated using pymatgen
data_LaMo2O5
_symmetry_space_group_name_H-M   'P 1'
_cell_length_a   8.67043888
_cell_length_b   8.67043924
_cell_length_c   19.30455506
_cell_angle_alpha   90.00000000
_cell_angle_beta   90.00000000
_cell_angle_gamma   119.99999862
_symmetry_Int_Tables_number   1
_chemical_formula_structural   LaMo2O5
_chemical_formula_sum   'La12 Mo24 O60'
_cell_volume   1256.81864365
_cell_formula_units_Z   12
loop_
 _symmetry_equiv_pos_site_id
 _symmetry_equiv_pos_as_xyz
  1  'x, y, z'
loop_
 _atom_site_type_symbol
 _atom_site_label
 _atom_site_symmetry_multiplicity
 _atom_site_fract_x
 _atom_site_fract_y
 _atom_site_fract_z
 _atom_site_occupancy
  La  La0  1  0.333333  0.666667  0.999370  1
  La  La1  1  0.666667  0.333333  0.499370  1
  La  La2  1  0.016496  0.508248  0.344382  1
  La  La3  1  0.508248  0.016496  0.844382  1
  La  La4  1  0.491752  0.508248  0.344382  1
  La  La5  1  0.983504  0.491752  0.844382  1
  La  La6  1  0.000000  0.000000  0.269896  1
  La  La7  1  0.508248  0.491752  0.844382  1
  La  La8  1  0.666667  0.333333  0.013091  1
  La  La9  1  0.333333  0.666667  0.513091  1
  La  La10  1  0.000000  0.000000  0.769896  1
  La  La11  1  0.491752  0.983504  0.344382  1
  Mo  Mo12  1  0.894656  0.789313  0.055504  1
  Mo  Mo13  1  0.766449  0.233551  0.683804  1
  Mo  Mo14  1  0.106492  0.893508  0.940344  1
  Mo  Mo15  1  0.451466  0.902933  0.675958  1
  Mo  Mo16  1  0.548534  0.451466  0.175958  1
  Mo  Mo17  1  0.893508  0.787016  0.440344  1
  Mo  Mo18  1  0.233551  0.766449  0.183804  1
  Mo  Mo19  1  0.766449  0.532897  0.683804  1
  Mo  Mo20  1  0.548534  0.097067  0.175958  1
  Mo  Mo21  1  0.532897  0.766449  0.183804  1
  Mo  Mo22  1  0.233551  0.467103  0.183804  1
  Mo  Mo23  1  0.902933  0.451466  0.175958  1
  Mo  Mo24  1  0.893508  0.106492  0.440344  1
  Mo  Mo25  1  0.105344  0.210687  0.555504  1
  Mo  Mo26  1  0.210687  0.105344  0.055504  1
  Mo  Mo27  1  0.212984  0.106492  0.440344  1
  Mo  Mo28  1  0.467103  0.233551  0.683804  1
  Mo  Mo29  1  0.451466  0.548534  0.675958  1
  Mo  Mo30  1  0.097067  0.548534  0.675958  1
  Mo  Mo31  1  0.105344  0.894656  0.555504  1
  Mo  Mo32  1  0.106492  0.212984  0.940344  1
  Mo  Mo33  1  0.789313  0.894656  0.555504  1
  Mo  Mo34  1  0.787016  0.893508  0.940344  1
  Mo  Mo35  1  0.894656  0.105344  0.055504  1
  O  O36  1  0.105543  0.894457  0.371318  1
  O  O37  1  0.894457  0.105543  0.871318  1
  O  O38  1  0.564593  0.435407  0.608436  1
  O  O39  1  0.010611  0.674180  0.244540  1
  O  O40  1  0.211086  0.105543  0.871318  1
  O  O41  1  0.112006  0.224012  0.118566  1
  O  O42  1  0.674603  0.666563  0.993558  1
  O  O43  1  0.336431  0.325820  0.744540  1
  O  O44  1  0.112006  0.887994  0.118566  1
  O  O45  1  0.223679  0.447358  0.610240  1
  O  O46  1  0.887994  0.775988  0.618566  1
  O  O47  1  0.776321  0.223679  0.110240  1
  O  O48  1  0.449572  0.224786  0.389290  1
  O  O49  1  0.666667  0.333333  0.233384  1
  O  O50  1  0.775214  0.224786  0.389290  1
  O  O51  1  0.775988  0.887994  0.118566  1
  O  O52  1  0.666667  0.333333  0.896914  1
  O  O53  1  0.666563  0.674603  0.493558  1
  O  O54  1  0.224786  0.775214  0.889290  1
  O  O55  1  0.325820  0.336431  0.244540  1
  O  O56  1  0.325397  0.333437  0.493558  1
  O  O57  1  0.223679  0.776321  0.610240  1
  O  O58  1  0.788914  0.894457  0.371318  1
  O  O59  1  0.552642  0.776321  0.610240  1
  O  O60  1  0.674603  0.008040  0.993558  1
  O  O61  1  0.674180  0.663569  0.744540  1
  O  O62  1  0.666563  0.991960  0.493558  1
  O  O63  1  0.325820  0.989389  0.244540  1
  O  O64  1  0.336431  0.010611  0.744540  1
  O  O65  1  0.666667  0.333333  0.761235  1
  O  O66  1  0.224012  0.112006  0.618566  1
  O  O67  1  0.333333  0.666667  0.261235  1
  O  O68  1  0.333333  0.666667  0.396914  1
  O  O69  1  0.894457  0.788914  0.871318  1
  O  O70  1  0.435407  0.564593  0.108436  1
  O  O71  1  0.325397  0.991960  0.493558  1
  O  O72  1  0.129187  0.564593  0.108436  1
  O  O73  1  0.776321  0.552642  0.110240  1
  O  O74  1  0.991960  0.325397  0.993558  1
  O  O75  1  0.333333  0.666667  0.733384  1
  O  O76  1  0.105543  0.211086  0.371318  1
  O  O77  1  0.989389  0.325820  0.744540  1
  O  O78  1  0.870813  0.435407  0.608436  1
  O  O79  1  0.010611  0.336431  0.244540  1
  O  O80  1  0.447358  0.223679  0.110240  1
  O  O81  1  0.333437  0.325397  0.993558  1
  O  O82  1  0.887994  0.112006  0.618566  1
  O  O83  1  0.550428  0.775214  0.889290  1
  O  O84  1  0.663569  0.674180  0.244540  1
  O  O85  1  0.008040  0.333437  0.493558  1
  O  O86  1  0.775214  0.550428  0.389290  1
  O  O87  1  0.333437  0.008040  0.993558  1
  O  O88  1  0.224786  0.449572  0.889290  1
  O  O89  1  0.674180  0.010611  0.744540  1
  O  O90  1  0.663569  0.989389  0.244540  1
  O  O91  1  0.991960  0.666563  0.993558  1
  O  O92  1  0.564593  0.129187  0.608436  1
  O  O93  1  0.008040  0.674603  0.493558  1
  O  O94  1  0.435407  0.870813  0.108436  1
  O  O95  1  0.989389  0.663569  0.744540  1
