# generated using pymatgen
data_Lu2Te4O11
_symmetry_space_group_name_H-M   'P 1'
_cell_length_a   5.10394765
_cell_length_b   6.68129238
_cell_length_c   15.88682998
_cell_angle_alpha   80.17743717
_cell_angle_beta   80.75377882
_cell_angle_gamma   67.54564359
_symmetry_Int_Tables_number   1
_chemical_formula_structural   Lu2Te4O11
_chemical_formula_sum   'Lu4 Te8 O22'
_cell_volume   490.62145734
_cell_formula_units_Z   2
loop_
 _symmetry_equiv_pos_site_id
 _symmetry_equiv_pos_as_xyz
  1  'x, y, z'
loop_
 _atom_site_type_symbol
 _atom_site_label
 _atom_site_symmetry_multiplicity
 _atom_site_fract_x
 _atom_site_fract_y
 _atom_site_fract_z
 _atom_site_occupancy
  Lu  Lu0  1  0.631095  0.203265  0.036621  1
  Lu  Lu1  1  0.870894  0.296744  0.463390  1
  Lu  Lu2  1  0.368905  0.796735  0.963379  1
  Lu  Lu3  1  0.129106  0.703256  0.536610  1
  Te  Te4  1  0.590425  0.878074  0.375500  1
  Te  Te5  1  0.843727  0.622063  0.124560  1
  Te  Te6  1  0.409575  0.121926  0.624500  1
  Te  Te7  1  0.156273  0.377937  0.875440  1
  Te  Te8  1  0.157253  0.048068  0.197121  1
  Te  Te9  1  0.402265  0.452240  0.302921  1
  Te  Te10  1  0.842747  0.951932  0.802879  1
  Te  Te11  1  0.597735  0.547760  0.697079  1
  O  O12  1  0.686035  0.133717  0.373198  1
  O  O13  1  0.192736  0.366369  0.126843  1
  O  O14  1  0.313965  0.866283  0.626802  1
  O  O15  1  0.807264  0.633631  0.873157  1
  O  O16  1  0.242723  0.966434  0.449173  1
  O  O17  1  0.658293  0.533618  0.050825  1
  O  O18  1  0.757277  0.033566  0.550827  1
  O  O19  1  0.341707  0.466382  0.949175  1
  O  O20  1  0.830047  0.680700  0.456554  1
  O  O21  1  0.967222  0.819334  0.043494  1
  O  O22  1  0.169953  0.319300  0.543446  1
  O  O23  1  0.032778  0.180666  0.956506  1
  O  O24  1  0.451704  0.545982  0.406467  1
  O  O25  1  0.404068  0.954147  0.093571  1
  O  O26  1  0.548296  0.454018  0.593533  1
  O  O27  1  0.595932  0.045853  0.906429  1
  O  O28  1  0.087933  0.366866  0.335068  1
  O  O29  1  0.789747  0.133208  0.164942  1
  O  O30  1  0.912067  0.633134  0.664932  1
  O  O31  1  0.210253  0.866792  0.835058  1
  O  O32  1  0.143324  0.750112  0.250028  1
  O  O33  1  0.856676  0.249888  0.749972  1
