# generated using pymatgen
data_Ga41N11O45
_symmetry_space_group_name_H-M   'P 1'
_cell_length_a   5.94373152
_cell_length_b   5.94373154
_cell_length_c   41.66227859
_cell_angle_alpha   60.05736870
_cell_angle_beta   60.05736863
_cell_angle_gamma   60.11452849
_symmetry_Int_Tables_number   1
_chemical_formula_structural   Ga41N11O45
_chemical_formula_sum   'Ga41 N11 O45'
_cell_volume   1042.55165176
_cell_formula_units_Z   1
loop_
 _symmetry_equiv_pos_site_id
 _symmetry_equiv_pos_as_xyz
  1  'x, y, z'
loop_
 _atom_site_type_symbol
 _atom_site_label
 _atom_site_symmetry_multiplicity
 _atom_site_fract_x
 _atom_site_fract_y
 _atom_site_fract_z
 _atom_site_occupancy
  Ga  Ga0  1  0.128491  0.128491  0.018252  1
  Ga  Ga1  1  0.505501  0.505501  1.000186  1
  Ga  Ga2  1  0.503672  0.989934  0.074807  1
  Ga  Ga3  1  0.122613  0.122613  0.164033  1
  Ga  Ga4  1  0.499402  0.499402  0.074216  1
  Ga  Ga5  1  0.506239  0.992021  0.215730  1
  Ga  Ga6  1  0.125161  0.125161  0.300480  1
  Ga  Ga7  1  0.518071  0.518071  0.149155  1
  Ga  Ga8  1  0.989934  0.503672  0.074807  1
  Ga  Ga9  1  0.509852  0.995433  0.356531  1
  Ga  Ga10  1  0.869317  0.869317  0.127143  1
  Ga  Ga11  1  0.128633  0.128633  0.445915  1
  Ga  Ga12  1  0.498532  0.498532  0.279413  1
  Ga  Ga13  1  0.992021  0.506239  0.215730  1
  Ga  Ga14  1  0.987841  0.519224  0.498898  1
  Ga  Ga15  1  0.503867  0.503867  0.354800  1
  Ga  Ga16  1  0.872625  0.872625  0.264792  1
  Ga  Ga17  1  0.506635  0.506635  0.426236  1
  Ga  Ga18  1  0.519224  0.987841  0.498898  1
  Ga  Ga19  1  0.132110  0.132110  0.587871  1
  Ga  Ga20  1  0.995433  0.509852  0.356531  1
  Ga  Ga21  1  0.508731  0.508731  0.498326  1
  Ga  Ga22  1  0.987721  0.518948  0.642164  1
  Ga  Ga23  1  0.518948  0.987721  0.642164  1
  Ga  Ga24  1  0.861124  0.861124  0.411072  1
  Ga  Ga25  1  0.131612  0.131612  0.731070  1
  Ga  Ga26  1  0.507931  0.507931  0.569601  1
  Ga  Ga27  1  0.507980  0.507980  0.641704  1
  Ga  Ga28  1  0.859859  0.859859  0.555337  1
  Ga  Ga29  1  0.518372  0.987022  0.785357  1
  Ga  Ga30  1  0.131248  0.131248  0.874074  1
  Ga  Ga31  1  0.507501  0.507501  0.712776  1
  Ga  Ga32  1  0.507401  0.507401  0.784861  1
  Ga  Ga33  1  0.516875  0.986966  0.928692  1
  Ga  Ga34  1  0.859503  0.859503  0.698569  1
  Ga  Ga35  1  0.506682  0.506682  0.855964  1
  Ga  Ga36  1  0.987022  0.518372  0.785357  1
  Ga  Ga37  1  0.506104  0.506104  0.928220  1
  Ga  Ga38  1  0.858360  0.858360  0.841942  1
  Ga  Ga39  1  0.986966  0.516875  0.928692  1
  Ga  Ga40  1  0.864156  0.864156  0.982940  1
  N  N41  1  0.743859  0.743859  0.106031  1
  N  N42  1  0.731456  0.731456  0.249938  1
  N  N43  1  0.735972  0.735972  0.390765  1
  N  N44  1  0.740123  0.740123  0.467153  1
  N  N45  1  0.738117  0.738117  0.534482  1
  N  N46  1  0.738338  0.738338  0.611026  1
  N  N47  1  0.737715  0.737715  0.677790  1
  N  N48  1  0.737633  0.737633  0.754264  1
  N  N49  1  0.736956  0.736956  0.821032  1
  N  N50  1  0.736360  0.736360  0.897721  1
  N  N51  1  0.736185  0.736185  0.964312  1
  O  O52  1  0.264526  0.264526  0.036444  1
  O  O53  1  0.264910  0.264910  0.102997  1
  O  O54  1  0.258092  0.732926  0.036667  1
  O  O55  1  0.732926  0.258092  0.036667  1
  O  O56  1  0.269743  0.269743  0.178260  1
  O  O57  1  0.270424  0.755867  0.103318  1
  O  O58  1  0.755867  0.270424  0.103318  1
  O  O59  1  0.249320  0.249320  0.247080  1
  O  O60  1  0.741941  0.741941  0.039072  1
  O  O61  1  0.238297  0.748047  0.177883  1
  O  O62  1  0.748047  0.238297  0.177883  1
  O  O63  1  0.254444  0.254444  0.323461  1
  O  O64  1  0.249448  0.760388  0.251501  1
  O  O65  1  0.760388  0.249448  0.251501  1
  O  O66  1  0.255215  0.255215  0.390015  1
  O  O67  1  0.754976  0.754976  0.180350  1
  O  O68  1  0.251511  0.725701  0.323979  1
  O  O69  1  0.725701  0.251511  0.323979  1
  O  O70  1  0.261757  0.261757  0.465025  1
  O  O71  1  0.265962  0.737390  0.391390  1
  O  O72  1  0.737390  0.265962  0.391390  1
  O  O73  1  0.261915  0.261915  0.531173  1
  O  O74  1  0.257277  0.732443  0.464683  1
  O  O75  1  0.736734  0.736734  0.324601  1
  O  O76  1  0.732443  0.257277  0.464683  1
  O  O77  1  0.261855  0.738943  0.535284  1
  O  O78  1  0.262248  0.262248  0.607939  1
  O  O79  1  0.738943  0.261855  0.535284  1
  O  O80  1  0.262030  0.262030  0.674169  1
  O  O81  1  0.256968  0.734628  0.607606  1
  O  O82  1  0.734628  0.256968  0.607606  1
  O  O83  1  0.261717  0.261717  0.751077  1
  O  O84  1  0.260999  0.738428  0.678589  1
  O  O85  1  0.738428  0.260999  0.678589  1
  O  O86  1  0.261655  0.261655  0.817199  1
  O  O87  1  0.256241  0.734363  0.750751  1
  O  O88  1  0.734363  0.256241  0.750751  1
  O  O89  1  0.261151  0.261151  0.894137  1
  O  O90  1  0.260014  0.737787  0.821790  1
  O  O91  1  0.737787  0.260014  0.821790  1
  O  O92  1  0.261716  0.261716  0.960344  1
  O  O93  1  0.255397  0.734201  0.893894  1
  O  O94  1  0.734201  0.255397  0.893894  1
  O  O95  1  0.259129  0.739301  0.964935  1
  O  O96  1  0.739301  0.259129  0.964935  1
