# generated using pymatgen
data_Cs3AuO2
_symmetry_space_group_name_H-M   'P 1'
_cell_length_a   10.35967342
_cell_length_b   10.63359652
_cell_length_c   20.10794926
_cell_angle_alpha   90.00000000
_cell_angle_beta   90.00000000
_cell_angle_gamma   93.47624817
_symmetry_Int_Tables_number   1
_chemical_formula_structural   Cs3AuO2
_chemical_formula_sum   'Cs36 Au12 O24'
_cell_volume   2211.02775284
_cell_formula_units_Z   12
loop_
 _symmetry_equiv_pos_site_id
 _symmetry_equiv_pos_as_xyz
  1  'x, y, z'
loop_
 _atom_site_type_symbol
 _atom_site_label
 _atom_site_symmetry_multiplicity
 _atom_site_fract_x
 _atom_site_fract_y
 _atom_site_fract_z
 _atom_site_occupancy
  Cs  Cs0  1  0.943423  0.706520  0.404463  1
  Cs  Cs1  1  0.199713  0.634021  0.936461  1
  Cs  Cs2  1  0.264342  0.862795  0.732499  1
  Cs  Cs3  1  0.004816  0.925324  0.589143  1
  Cs  Cs4  1  0.556577  0.793480  0.904463  1
  Cs  Cs5  1  0.527623  0.573887  0.410693  1
  Cs  Cs6  1  0.681723  0.912870  0.071282  1
  Cs  Cs7  1  0.972377  0.926113  0.910693  1
  Cs  Cs8  1  0.443423  0.206520  0.095537  1
  Cs  Cs9  1  0.495184  0.574676  0.089143  1
  Cs  Cs10  1  0.181723  0.412870  0.428718  1
  Cs  Cs11  1  0.300287  0.865979  0.436461  1
  Cs  Cs12  1  0.840829  0.494182  0.243961  1
  Cs  Cs13  1  0.627350  0.781077  0.248530  1
  Cs  Cs14  1  0.872650  0.718923  0.748530  1
  Cs  Cs15  1  0.127350  0.281077  0.251470  1
  Cs  Cs16  1  0.504816  0.425324  0.910857  1
  Cs  Cs17  1  0.818277  0.587130  0.571282  1
  Cs  Cs18  1  0.735658  0.137205  0.267501  1
  Cs  Cs19  1  0.159171  0.505818  0.756039  1
  Cs  Cs20  1  0.318277  0.087130  0.928718  1
  Cs  Cs21  1  0.372650  0.218923  0.751470  1
  Cs  Cs22  1  0.699713  0.134021  0.563539  1
  Cs  Cs23  1  0.995184  0.074676  0.410857  1
  Cs  Cs24  1  0.973492  0.703923  0.086843  1
  Cs  Cs25  1  0.472377  0.426113  0.589307  1
  Cs  Cs26  1  0.526508  0.796077  0.586843  1
  Cs  Cs27  1  0.235658  0.637205  0.232499  1
  Cs  Cs28  1  0.659171  0.005818  0.743961  1
  Cs  Cs29  1  0.340829  0.994182  0.256039  1
  Cs  Cs30  1  0.473492  0.203923  0.413157  1
  Cs  Cs31  1  0.800287  0.365979  0.063539  1
  Cs  Cs32  1  0.027623  0.073887  0.089307  1
  Cs  Cs33  1  0.056577  0.293480  0.595537  1
  Cs  Cs34  1  0.764342  0.362795  0.767501  1
  Cs  Cs35  1  0.026508  0.296077  0.913157  1
  Au  Au36  1  0.487107  0.384716  0.248242  1
  Au  Au37  1  0.668855  0.906961  0.421488  1
  Au  Au38  1  0.193490  0.638031  0.579273  1
  Au  Au39  1  0.806510  0.361969  0.420727  1
  Au  Au40  1  0.168855  0.406961  0.078512  1
  Au  Au41  1  0.512893  0.615284  0.751758  1
  Au  Au42  1  0.306510  0.861969  0.079273  1
  Au  Au43  1  0.987107  0.884716  0.251758  1
  Au  Au44  1  0.331145  0.093039  0.578512  1
  Au  Au45  1  0.831145  0.593039  0.921488  1
  Au  Au46  1  0.693490  0.138031  0.920727  1
  Au  Au47  1  0.012893  0.115284  0.748242  1
  O  O48  1  0.122049  0.858090  0.323964  1
  O  O49  1  0.438078  0.832579  0.152532  1
  O  O50  1  0.622049  0.358090  0.176036  1
  O  O51  1  0.647435  0.588783  0.680367  1
  O  O52  1  0.352565  0.411217  0.319633  1
  O  O53  1  0.298054  0.365540  0.006073  1
  O  O54  1  0.061921  0.667421  0.652532  1
  O  O55  1  0.938079  0.332579  0.347468  1
  O  O56  1  0.852565  0.911217  0.180367  1
  O  O57  1  0.331013  0.615214  0.508354  1
  O  O58  1  0.877951  0.141910  0.676036  1
  O  O59  1  0.701946  0.634460  0.993927  1
  O  O60  1  0.168987  0.884786  0.008354  1
  O  O61  1  0.561921  0.167421  0.847468  1
  O  O62  1  0.668987  0.384786  0.491646  1
  O  O63  1  0.377951  0.641910  0.823964  1
  O  O64  1  0.960278  0.547068  0.849736  1
  O  O65  1  0.798054  0.865540  0.493927  1
  O  O66  1  0.539722  0.952932  0.349736  1
  O  O67  1  0.831013  0.115214  0.991646  1
  O  O68  1  0.460278  0.047068  0.650264  1
  O  O69  1  0.201946  0.134461  0.506073  1
  O  O70  1  0.039722  0.452932  0.150264  1
  O  O71  1  0.147435  0.088783  0.819633  1
