# generated using pymatgen
data_LiCoF4
_symmetry_space_group_name_H-M   'P 1'
_cell_length_a   4.74813703
_cell_length_b   5.53613748
_cell_length_c   5.62471405
_cell_angle_alpha   114.31626573
_cell_angle_beta   90.00000000
_cell_angle_gamma   90.00000000
_symmetry_Int_Tables_number   1
_chemical_formula_structural   LiCoF4
_chemical_formula_sum   'Li2 Co2 F8'
_cell_volume   134.73656001
_cell_formula_units_Z   2
loop_
 _symmetry_equiv_pos_site_id
 _symmetry_equiv_pos_as_xyz
  1  'x, y, z'
loop_
 _atom_site_type_symbol
 _atom_site_label
 _atom_site_symmetry_multiplicity
 _atom_site_fract_x
 _atom_site_fract_y
 _atom_site_fract_z
 _atom_site_occupancy
  Li  Li0  1  0.500000  0.500000  0.000000  1
  Li  Li1  1  0.000000  0.500000  0.500000  1
  F  F2  1  0.205276  0.145871  0.341665  1
  F  F3  1  0.180139  0.678219  0.872291  1
  F  F4  1  0.794724  0.854129  0.658335  1
  F  F5  1  0.705276  0.854129  0.158335  1
  F  F6  1  0.294724  0.145871  0.841665  1
  F  F7  1  0.819861  0.321781  0.127709  1
  F  F8  1  0.319861  0.678219  0.372291  1
  F  F9  1  0.680139  0.321781  0.627709  1
  Co  Co10  1  0.000000  0.000000  0.000000  1
  Co  Co11  1  0.500000  0.000000  0.500000  1
