# generated using pymatgen
data_Na2Te4WO12
_symmetry_space_group_name_H-M   'P 1'
_cell_length_a   5.87786552
_cell_length_b   9.24830350
_cell_length_c   11.46744767
_cell_angle_alpha   104.09077941
_cell_angle_beta   90.00000000
_cell_angle_gamma   108.52876661
_symmetry_Int_Tables_number   1
_chemical_formula_structural   Na2Te4WO12
_chemical_formula_sum   'Na4 Te8 W2 O24'
_cell_volume   571.24409162
_cell_formula_units_Z   2
loop_
 _symmetry_equiv_pos_site_id
 _symmetry_equiv_pos_as_xyz
  1  'x, y, z'
loop_
 _atom_site_type_symbol
 _atom_site_label
 _atom_site_symmetry_multiplicity
 _atom_site_fract_x
 _atom_site_fract_y
 _atom_site_fract_z
 _atom_site_occupancy
  W  W0  1  0.660092  0.000000  0.250000  1
  W  W1  1  0.339908  0.000000  0.750000  1
  Te  Te2  1  0.121047  0.811770  0.401325  1
  Te  Te3  1  0.309277  0.188230  0.098675  1
  Te  Te4  1  0.878953  0.188230  0.598675  1
  Te  Te5  1  0.690723  0.811770  0.901325  1
  Te  Te6  1  0.172457  0.686031  0.063664  1
  Te  Te7  1  0.486426  0.313969  0.436336  1
  Te  Te8  1  0.827543  0.313969  0.936336  1
  Te  Te9  1  0.513574  0.686031  0.563664  1
  O  O10  1  0.717187  0.222274  0.338135  1
  O  O11  1  0.494913  0.777726  0.161865  1
  O  O12  1  0.282813  0.777726  0.661865  1
  O  O13  1  0.505087  0.222274  0.838135  1
  O  O14  1  0.166356  0.481410  0.070745  1
  O  O15  1  0.684946  0.518590  0.429256  1
  O  O16  1  0.833644  0.518590  0.929256  1
  O  O17  1  0.315054  0.481410  0.570744  1
  O  O18  1  0.320163  0.674459  0.410425  1
  O  O19  1  0.645704  0.325541  0.089575  1
  O  O20  1  0.679837  0.325541  0.589575  1
  O  O21  1  0.354296  0.674459  0.910425  1
  O  O22  1  0.993468  0.681881  0.245205  1
  O  O23  1  0.311587  0.318119  0.254795  1
  O  O24  1  0.006532  0.318119  0.754795  1
  O  O25  1  0.688413  0.681881  0.745205  1
  O  O26  1  0.369382  0.976829  0.363997  1
  O  O27  1  0.392553  0.023171  0.136003  1
  O  O28  1  0.630618  0.023171  0.636003  1
  O  O29  1  0.607447  0.976829  0.863997  1
  O  O30  1  0.880749  0.047533  0.142493  1
  O  O31  1  0.833216  0.952467  0.357507  1
  O  O32  1  0.119251  0.952467  0.857507  1
  O  O33  1  0.166784  0.047533  0.642493  1
  Na  Na34  1  0.983379  0.423205  0.265978  1
  Na  Na35  1  0.560174  0.576795  0.234022  1
  Na  Na36  1  0.016621  0.576795  0.734022  1
  Na  Na37  1  0.439826  0.423205  0.765978  1
