# generated using pymatgen
data_Li5La3Ta2O12
_symmetry_space_group_name_H-M   'P 1'
_cell_length_a   11.35146847
_cell_length_b   11.35146799
_cell_length_c   11.35146848
_cell_angle_alpha   109.47121963
_cell_angle_beta   109.47121875
_cell_angle_gamma   109.47122335
_symmetry_Int_Tables_number   1
_chemical_formula_structural   Li5La3Ta2O12
_chemical_formula_sum   'Li20 La12 Ta8 O48'
_cell_volume   1125.98922283
_cell_formula_units_Z   4
loop_
 _symmetry_equiv_pos_site_id
 _symmetry_equiv_pos_as_xyz
  1  'x, y, z'
loop_
 _atom_site_type_symbol
 _atom_site_label
 _atom_site_symmetry_multiplicity
 _atom_site_fract_x
 _atom_site_fract_y
 _atom_site_fract_z
 _atom_site_occupancy
  Li  Li0  1  0.625000  0.750000  0.375000  1
  Li  Li1  1  0.875000  0.250000  0.125000  1
  Li  Li2  1  0.250000  0.625000  0.375000  1
  Li  Li3  1  0.125000  0.750000  0.875000  1
  Li  Li4  1  0.250000  0.125000  0.875000  1
  Li  Li5  1  0.875000  0.125000  0.750000  1
  Li  Li6  1  0.250000  0.250000  0.250000  1
  Li  Li7  1  0.000000  0.750000  0.500000  1
  Li  Li8  1  0.750000  0.875000  0.125000  1
  Li  Li9  1  0.500000  0.000000  0.250000  1
  Li  Li10  1  0.000000  0.250000  0.500000  1
  Li  Li11  1  0.375000  0.625000  0.750000  1
  Li  Li12  1  0.500000  0.000000  0.750000  1
  Li  Li13  1  0.625000  0.375000  0.250000  1
  Li  Li14  1  0.375000  0.250000  0.625000  1
  Li  Li15  1  0.750000  0.375000  0.625000  1
  Li  Li16  1  0.125000  0.875000  0.250000  1
  Li  Li17  1  0.250000  0.500000  0.000000  1
  Li  Li18  1  0.750000  0.500000  0.000000  1
  Li  Li19  1  0.750000  0.750000  0.750000  1
  La  La20  1  0.625000  0.875000  0.750000  1
  La  La21  1  0.375000  0.125000  0.250000  1
  La  La22  1  0.250000  0.875000  0.625000  1
  La  La23  1  0.750000  0.125000  0.375000  1
  La  La24  1  0.375000  0.750000  0.125000  1
  La  La25  1  0.875000  0.625000  0.250000  1
  La  La26  1  0.875000  0.750000  0.625000  1
  La  La27  1  0.625000  0.250000  0.875000  1
  La  La28  1  0.250000  0.375000  0.125000  1
  La  La29  1  0.750000  0.625000  0.875000  1
  La  La30  1  0.125000  0.375000  0.750000  1
  La  La31  1  0.125000  0.250000  0.375000  1
  Ta  Ta32  1  0.500000  0.500000  0.500000  1
  Ta  Ta33  1  0.500000  0.500000  0.000000  1
  Ta  Ta34  1  0.000000  0.000000  0.000000  1
  Ta  Ta35  1  0.500000  0.000000  0.500000  1
  Ta  Ta36  1  0.000000  0.500000  0.500000  1
  Ta  Ta37  1  0.500000  0.000000  0.000000  1
  Ta  Ta38  1  0.000000  0.000000  0.500000  1
  Ta  Ta39  1  0.000000  0.500000  0.000000  1
  O  O40  1  0.590149  0.165226  0.467166  1
  O  O41  1  0.590149  0.924923  0.122983  1
  O  O42  1  0.032834  0.334774  0.909851  1
  O  O43  1  0.122983  0.590149  0.924923  1
  O  O44  1  0.801940  0.424923  0.834774  1
  O  O45  1  0.424923  0.834774  0.801940  1
  O  O46  1  0.467166  0.377017  0.301940  1
  O  O47  1  0.877017  0.967166  0.801940  1
  O  O48  1  0.575077  0.909851  0.377017  1
  O  O49  1  0.532834  0.622983  0.698060  1
  O  O50  1  0.665226  0.090149  0.967166  1
  O  O51  1  0.622983  0.698060  0.532834  1
  O  O52  1  0.698060  0.532834  0.622983  1
  O  O53  1  0.334774  0.909851  0.032834  1
  O  O54  1  0.090149  0.622983  0.424923  1
  O  O55  1  0.198060  0.122983  0.032834  1
  O  O56  1  0.622983  0.424923  0.090149  1
  O  O57  1  0.575077  0.165226  0.198060  1
  O  O58  1  0.909851  0.032834  0.334774  1
  O  O59  1  0.924923  0.122983  0.590149  1
  O  O60  1  0.165226  0.198060  0.575077  1
  O  O61  1  0.834774  0.801940  0.424923  1
  O  O62  1  0.409851  0.075077  0.877017  1
  O  O63  1  0.467166  0.590149  0.165226  1
  O  O64  1  0.909851  0.377017  0.575077  1
  O  O65  1  0.532834  0.409851  0.834774  1
  O  O66  1  0.122983  0.032834  0.198060  1
  O  O67  1  0.698060  0.665226  0.075077  1
  O  O68  1  0.924923  0.301940  0.334774  1
  O  O69  1  0.834774  0.532834  0.409851  1
  O  O70  1  0.967166  0.665226  0.090149  1
  O  O71  1  0.075077  0.698060  0.665226  1
  O  O72  1  0.334774  0.924923  0.301940  1
  O  O73  1  0.877017  0.409851  0.075077  1
  O  O74  1  0.665226  0.075077  0.698060  1
  O  O75  1  0.075077  0.877017  0.409851  1
  O  O76  1  0.801940  0.877017  0.967166  1
  O  O77  1  0.424923  0.090149  0.622983  1
  O  O78  1  0.377017  0.301940  0.467166  1
  O  O79  1  0.377017  0.575077  0.909851  1
  O  O80  1  0.198060  0.575077  0.165226  1
  O  O81  1  0.165226  0.467166  0.590149  1
  O  O82  1  0.409851  0.834774  0.532834  1
  O  O83  1  0.032834  0.198060  0.122983  1
  O  O84  1  0.301940  0.467166  0.377017  1
  O  O85  1  0.301940  0.334774  0.924923  1
  O  O86  1  0.090149  0.967166  0.665226  1
  O  O87  1  0.967166  0.801940  0.877017  1
