# generated using pymatgen
data_Ho2CdS4
_symmetry_space_group_name_H-M   'P 1'
_cell_length_a   7.94845214
_cell_length_b   7.94845216
_cell_length_c   39.76403217
_cell_angle_alpha   60.53413531
_cell_angle_beta   60.53413522
_cell_angle_gamma   60.58567373
_symmetry_Int_Tables_number   1
_chemical_formula_structural   Ho2CdS4
_chemical_formula_sum   'Ho20 Cd10 S40'
_cell_volume   1798.52404240
_cell_formula_units_Z   10
loop_
 _symmetry_equiv_pos_site_id
 _symmetry_equiv_pos_as_xyz
  1  'x, y, z'
loop_
 _atom_site_type_symbol
 _atom_site_label
 _atom_site_symmetry_multiplicity
 _atom_site_fract_x
 _atom_site_fract_y
 _atom_site_fract_z
 _atom_site_occupancy
  Cd  Cd0  1  0.248619  0.248619  0.048769  1
  Cd  Cd1  1  0.247230  0.247230  0.249336  1
  Cd  Cd2  1  0.622187  0.622187  0.124316  1
  Cd  Cd3  1  0.247731  0.247731  0.449056  1
  Cd  Cd4  1  0.622320  0.622320  0.324131  1
  Cd  Cd5  1  0.249020  0.249020  0.649583  1
  Cd  Cd6  1  0.622448  0.622448  0.523914  1
  Cd  Cd7  1  0.245565  0.245565  0.851069  1
  Cd  Cd8  1  0.998480  0.998480  0.801731  1
  Cd  Cd9  1  0.626297  0.626297  0.923257  1
  Ho  Ho10  1  0.002571  0.002571  0.000686  1
  Ho  Ho11  1  0.131079  0.623467  0.124617  1
  Ho  Ho12  1  0.003168  0.003168  0.200613  1
  Ho  Ho13  1  0.623467  0.131079  0.124617  1
  Ho  Ho14  1  0.623614  0.623614  0.026117  1
  Ho  Ho15  1  0.131409  0.623719  0.324497  1
  Ho  Ho16  1  0.623719  0.131409  0.324497  1
  Ho  Ho17  1  0.003383  0.003383  0.400498  1
  Ho  Ho18  1  0.623637  0.623637  0.226086  1
  Ho  Ho19  1  0.131912  0.624001  0.524370  1
  Ho  Ho20  1  0.624001  0.131912  0.524370  1
  Ho  Ho21  1  0.623940  0.623940  0.425789  1
  Ho  Ho22  1  0.125347  0.621739  0.726223  1
  Ho  Ho23  1  0.621739  0.125347  0.726223  1
  Ho  Ho24  1  0.621182  0.621182  0.625789  1
  Ho  Ho25  1  0.622060  0.622060  0.726191  1
  Ho  Ho26  1  0.128965  0.624723  0.924092  1
  Ho  Ho27  1  0.003552  0.003552  0.599703  1
  Ho  Ho28  1  0.626290  0.626290  0.825887  1
  Ho  Ho29  1  0.624723  0.128965  0.924092  1
  S  S30  1  0.382037  0.382037  0.076540  1
  S  S31  1  0.380381  0.854107  0.076038  1
  S  S32  1  0.380365  0.380365  0.170719  1
  S  S33  1  0.854107  0.380381  0.076038  1
  S  S34  1  0.400247  0.867317  0.173642  1
  S  S35  1  0.381856  0.381856  0.276605  1
  S  S36  1  0.380276  0.853563  0.276149  1
  S  S37  1  0.380204  0.380204  0.370797  1
  S  S38  1  0.867387  0.867387  0.080207  1
  S  S39  1  0.867317  0.400247  0.173642  1
  S  S40  1  0.867794  0.867794  0.173606  1
  S  S41  1  0.853563  0.380276  0.276149  1
  S  S42  1  0.381712  0.381712  0.476680  1
  S  S43  1  0.399949  0.867288  0.373792  1
  S  S44  1  0.380212  0.853445  0.476278  1
  S  S45  1  0.867405  0.867405  0.280229  1
  S  S46  1  0.379175  0.379175  0.571133  1
  S  S47  1  0.867288  0.399949  0.373792  1
  S  S48  1  0.853445  0.380212  0.476278  1
  S  S49  1  0.867545  0.867545  0.373719  1
  S  S50  1  0.381637  0.381637  0.676815  1
  S  S51  1  0.399350  0.867915  0.573638  1
  S  S52  1  0.382694  0.382694  0.770467  1
  S  S53  1  0.867246  0.867246  0.480290  1
  S  S54  1  0.383663  0.850413  0.676500  1
  S  S55  1  0.867915  0.399350  0.573638  1
  S  S56  1  0.866463  0.866463  0.573724  1
  S  S57  1  0.850413  0.383663  0.676500  1
  S  S58  1  0.399374  0.867691  0.773035  1
  S  S59  1  0.384182  0.384182  0.875808  1
  S  S60  1  0.867375  0.867375  0.679756  1
  S  S61  1  0.382885  0.382885  0.969928  1
  S  S62  1  0.379862  0.854727  0.875702  1
  S  S63  1  0.867691  0.399374  0.773035  1
  S  S64  1  0.869462  0.869462  0.772702  1
  S  S65  1  0.854727  0.379862  0.875702  1
  S  S66  1  0.399570  0.867901  0.973742  1
  S  S67  1  0.867756  0.867756  0.879742  1
  S  S68  1  0.867901  0.399570  0.973742  1
  S  S69  1  0.867912  0.867912  0.973379  1
