# generated using pymatgen
data_Cs2Np(SO5)2
_symmetry_space_group_name_H-M   'P 1'
_cell_length_a   9.15759983
_cell_length_b   11.04592331
_cell_length_c   12.03945803
_cell_angle_alpha   110.23254475
_cell_angle_beta   90.00000000
_cell_angle_gamma   90.00000000
_symmetry_Int_Tables_number   1
_chemical_formula_structural   Cs2Np(SO5)2
_chemical_formula_sum   'Cs8 Np4 S8 O40'
_cell_volume   1142.69632051
_cell_formula_units_Z   4
loop_
 _symmetry_equiv_pos_site_id
 _symmetry_equiv_pos_as_xyz
  1  'x, y, z'
loop_
 _atom_site_type_symbol
 _atom_site_label
 _atom_site_symmetry_multiplicity
 _atom_site_fract_x
 _atom_site_fract_y
 _atom_site_fract_z
 _atom_site_occupancy
  Cs  Cs0  1  0.076679  0.468312  0.198748  1
  Cs  Cs1  1  0.576679  0.031688  0.301252  1
  Cs  Cs2  1  0.400050  0.720751  0.932499  1
  Cs  Cs3  1  0.900050  0.779249  0.567501  1
  Cs  Cs4  1  0.923321  0.531688  0.801252  1
  Cs  Cs5  1  0.599950  0.279249  0.067501  1
  Cs  Cs6  1  0.099950  0.220751  0.432499  1
  Cs  Cs7  1  0.423321  0.968312  0.698748  1
  Np  Np8  1  0.508399  0.639974  0.357459  1
  Np  Np9  1  0.991601  0.139974  0.857459  1
  Np  Np10  1  0.008399  0.860026  0.142541  1
  Np  Np11  1  0.491601  0.360026  0.642541  1
  S  S12  1  0.258947  0.584828  0.562049  1
  S  S13  1  0.810148  0.154493  0.639999  1
  S  S14  1  0.741053  0.415172  0.437951  1
  S  S15  1  0.241053  0.084828  0.062049  1
  S  S16  1  0.189852  0.845507  0.360001  1
  S  S17  1  0.310148  0.345507  0.860001  1
  S  S18  1  0.689852  0.654493  0.139999  1
  S  S19  1  0.758947  0.915172  0.937951  1
  O  O20  1  0.645815  0.940893  0.028917  1
  O  O21  1  0.145815  0.559107  0.471083  1
  O  O22  1  0.790199  0.769971  0.172350  1
  O  O23  1  0.790568  0.336423  0.319230  1
  O  O24  1  0.037816  0.795853  0.323404  1
  O  O25  1  0.700160  0.579338  0.014352  1
  O  O26  1  0.225738  0.922856  0.282446  1
  O  O27  1  0.569536  0.514958  0.722829  1
  O  O28  1  0.888438  0.846747  0.970537  1
  O  O29  1  0.585612  0.795915  0.438976  1
  O  O30  1  0.085612  0.704085  0.061024  1
  O  O31  1  0.200160  0.920662  0.485648  1
  O  O32  1  0.537816  0.704147  0.176596  1
  O  O33  1  0.299840  0.420662  0.985648  1
  O  O34  1  0.962184  0.204147  0.676596  1
  O  O35  1  0.799840  0.079338  0.514352  1
  O  O36  1  0.209801  0.230029  0.827650  1
  O  O37  1  0.414388  0.204085  0.561024  1
  O  O38  1  0.274262  0.422856  0.782446  1
  O  O39  1  0.183208  0.955333  0.062234  1
  O  O40  1  0.854185  0.440893  0.528917  1
  O  O41  1  0.683208  0.544667  0.437766  1
  O  O42  1  0.774262  0.077144  0.717554  1
  O  O43  1  0.725738  0.577144  0.217554  1
  O  O44  1  0.709432  0.836423  0.819230  1
  O  O45  1  0.069536  0.985042  0.777171  1
  O  O46  1  0.209432  0.663577  0.680770  1
  O  O47  1  0.611562  0.346747  0.470537  1
  O  O48  1  0.816792  0.044667  0.937766  1
  O  O49  1  0.430464  0.485042  0.277171  1
  O  O50  1  0.290568  0.163577  0.180770  1
  O  O51  1  0.290199  0.730029  0.327650  1
  O  O52  1  0.930464  0.014958  0.222829  1
  O  O53  1  0.111562  0.153253  0.029463  1
  O  O54  1  0.709801  0.269971  0.672350  1
  O  O55  1  0.354185  0.059108  0.971083  1
  O  O56  1  0.388438  0.653253  0.529463  1
  O  O57  1  0.462184  0.295853  0.823404  1
  O  O58  1  0.914388  0.295915  0.938976  1
  O  O59  1  0.316792  0.455333  0.562234  1
