# generated using pymatgen
data_EuC10
_symmetry_space_group_name_H-M   'P 1'
_cell_length_a   9.51237941
_cell_length_b   9.51237936
_cell_length_c   9.51238008
_cell_angle_alpha   109.47121999
_cell_angle_beta   109.47121988
_cell_angle_gamma   109.47122150
_symmetry_Int_Tables_number   1
_chemical_formula_structural   EuC10
_chemical_formula_sum   'Eu6 C60'
_cell_volume   662.59115359
_cell_formula_units_Z   6
loop_
 _symmetry_equiv_pos_site_id
 _symmetry_equiv_pos_as_xyz
  1  'x, y, z'
loop_
 _atom_site_type_symbol
 _atom_site_label
 _atom_site_symmetry_multiplicity
 _atom_site_fract_x
 _atom_site_fract_y
 _atom_site_fract_z
 _atom_site_occupancy
  Eu  Eu0  1  0.769291  0.269291  0.500000  1
  Eu  Eu1  1  0.230709  0.730709  0.500000  1
  Eu  Eu2  1  0.500000  0.769291  0.269291  1
  Eu  Eu3  1  0.730709  0.500000  0.230709  1
  Eu  Eu4  1  0.500000  0.230709  0.730709  1
  Eu  Eu5  1  0.269291  0.500000  0.769291  1
  C  C6  1  0.975422  0.828737  0.277143  1
  C  C7  1  0.024792  0.173024  0.411228  1
  C  C8  1  0.171263  0.722857  0.024578  1
  C  C9  1  0.698279  0.722857  0.551594  1
  C  C10  1  0.320683  0.254653  0.933970  1
  C  C11  1  0.761796  0.613564  0.588772  1
  C  C12  1  0.853315  0.551594  0.828737  1
  C  C13  1  0.024792  0.613564  0.851768  1
  C  C14  1  0.745348  0.066030  0.679317  1
  C  C15  1  0.761796  0.173024  0.148232  1
  C  C16  1  0.411228  0.024792  0.173024  1
  C  C17  1  0.679317  0.613287  0.933970  1
  C  C18  1  0.588772  0.975208  0.826976  1
  C  C19  1  0.975208  0.386436  0.148232  1
  C  C20  1  0.853315  0.024578  0.301721  1
  C  C21  1  0.173024  0.148232  0.761796  1
  C  C22  1  0.613564  0.851768  0.024792  1
  C  C23  1  0.148232  0.975208  0.386436  1
  C  C24  1  0.173024  0.411228  0.024792  1
  C  C25  1  0.826976  0.588772  0.975208  1
  C  C26  1  0.588772  0.761796  0.613564  1
  C  C27  1  0.551594  0.828737  0.853315  1
  C  C28  1  0.277143  0.448406  0.301721  1
  C  C29  1  0.722857  0.024578  0.171263  1
  C  C30  1  0.448406  0.301721  0.277143  1
  C  C31  1  0.975208  0.826976  0.588772  1
  C  C32  1  0.066030  0.320683  0.386713  1
  C  C33  1  0.698279  0.146685  0.975422  1
  C  C34  1  0.851768  0.024792  0.613564  1
  C  C35  1  0.238204  0.826976  0.851768  1
  C  C36  1  0.722857  0.551594  0.698279  1
  C  C37  1  0.146685  0.975422  0.698279  1
  C  C38  1  0.411228  0.238204  0.386436  1
  C  C39  1  0.146685  0.448406  0.171263  1
  C  C40  1  0.066030  0.679317  0.745348  1
  C  C41  1  0.171263  0.146685  0.448406  1
  C  C42  1  0.933970  0.679317  0.613287  1
  C  C43  1  0.828737  0.853315  0.551594  1
  C  C44  1  0.386436  0.148232  0.975208  1
  C  C45  1  0.933970  0.320683  0.254653  1
  C  C46  1  0.386713  0.066030  0.320683  1
  C  C47  1  0.551594  0.698279  0.722857  1
  C  C48  1  0.024578  0.171263  0.722857  1
  C  C49  1  0.301721  0.277143  0.448406  1
  C  C50  1  0.301721  0.853315  0.024578  1
  C  C51  1  0.613564  0.588772  0.761796  1
  C  C52  1  0.320683  0.386713  0.066030  1
  C  C53  1  0.975422  0.698279  0.146685  1
  C  C54  1  0.024578  0.301721  0.853315  1
  C  C55  1  0.851768  0.238204  0.826976  1
  C  C56  1  0.254653  0.933970  0.320683  1
  C  C57  1  0.386436  0.411228  0.238204  1
  C  C58  1  0.828737  0.277143  0.975422  1
  C  C59  1  0.679317  0.745348  0.066030  1
  C  C60  1  0.148232  0.761796  0.173024  1
  C  C61  1  0.238204  0.386436  0.411228  1
  C  C62  1  0.826976  0.851768  0.238204  1
  C  C63  1  0.613287  0.933970  0.679317  1
  C  C64  1  0.277143  0.975422  0.828737  1
  C  C65  1  0.448406  0.171263  0.146685  1
