# generated using pymatgen
data_As2Cl3OF5
_symmetry_space_group_name_H-M   'P 1'
_cell_length_a   6.21434802
_cell_length_b   8.03707362
_cell_length_c   19.37523260
_cell_angle_alpha   90.00000000
_cell_angle_beta   90.00000000
_cell_angle_gamma   108.24625645
_symmetry_Int_Tables_number   1
_chemical_formula_structural   As2Cl3OF5
_chemical_formula_sum   'As8 Cl12 O4 F20'
_cell_volume   919.04301028
_cell_formula_units_Z   4
loop_
 _symmetry_equiv_pos_site_id
 _symmetry_equiv_pos_as_xyz
  1  'x, y, z'
loop_
 _atom_site_type_symbol
 _atom_site_label
 _atom_site_symmetry_multiplicity
 _atom_site_fract_x
 _atom_site_fract_y
 _atom_site_fract_z
 _atom_site_occupancy
  As  As0  1  0.447767  0.816252  0.621207  1
  As  As1  1  0.860603  0.183766  0.613073  1
  As  As2  1  0.447767  0.316252  0.878793  1
  As  As3  1  0.552233  0.183748  0.378793  1
  As  As4  1  0.139397  0.816234  0.386927  1
  As  As5  1  0.552233  0.683748  0.121207  1
  As  As6  1  0.139397  0.316234  0.113073  1
  As  As7  1  0.860603  0.683766  0.886927  1
  Cl  Cl8  1  0.313542  0.634201  0.367236  1
  Cl  Cl9  1  0.030336  0.158120  0.704685  1
  Cl  Cl10  1  0.969664  0.841880  0.295315  1
  Cl  Cl11  1  0.686458  0.865799  0.867236  1
  Cl  Cl12  1  0.030336  0.658120  0.795315  1
  Cl  Cl13  1  0.892874  0.710891  0.462756  1
  Cl  Cl14  1  0.892874  0.210891  0.037244  1
  Cl  Cl15  1  0.969664  0.341880  0.204685  1
  Cl  Cl16  1  0.107126  0.789109  0.962756  1
  Cl  Cl17  1  0.107126  0.289109  0.537244  1
  Cl  Cl18  1  0.686458  0.365799  0.632764  1
  Cl  Cl19  1  0.313542  0.134201  0.132764  1
  O  O20  1  0.696040  0.992051  0.577552  1
  O  O21  1  0.696040  0.492051  0.922448  1
  O  O22  1  0.303960  0.007949  0.422448  1
  O  O23  1  0.303960  0.507949  0.077552  1
  F  F24  1  0.353399  0.278696  0.345405  1
  F  F25  1  0.480743  0.948971  0.696138  1
  F  F26  1  0.353399  0.778696  0.154595  1
  F  F27  1  0.260331  0.420172  0.912993  1
  F  F28  1  0.436020  0.700084  0.543152  1
  F  F29  1  0.563980  0.299916  0.456848  1
  F  F30  1  0.480743  0.448971  0.803862  1
  F  F31  1  0.646601  0.721304  0.654595  1
  F  F32  1  0.260331  0.920172  0.587007  1
  F  F33  1  0.519258  0.551029  0.196138  1
  F  F34  1  0.222102  0.147643  0.842692  1
  F  F35  1  0.222102  0.647643  0.657308  1
  F  F36  1  0.519258  0.051029  0.303862  1
  F  F37  1  0.739669  0.579828  0.087007  1
  F  F38  1  0.777898  0.352357  0.342692  1
  F  F39  1  0.739669  0.079828  0.412993  1
  F  F40  1  0.646601  0.221304  0.845405  1
  F  F41  1  0.563980  0.799916  0.043152  1
  F  F42  1  0.436020  0.200084  0.956848  1
  F  F43  1  0.777898  0.852357  0.157308  1
