# generated using pymatgen
data_CaCr2(PO4)2
_symmetry_space_group_name_H-M   'P 1'
_cell_length_a   5.09818408
_cell_length_b   9.18542864
_cell_length_c   15.13814726
_cell_angle_alpha   85.28079839
_cell_angle_beta   80.30585258
_cell_angle_gamma   73.88806656
_symmetry_Int_Tables_number   1
_chemical_formula_structural   CaCr2(PO4)2
_chemical_formula_sum   'Ca4 Cr8 P8 O32'
_cell_volume   670.86154396
_cell_formula_units_Z   4
loop_
 _symmetry_equiv_pos_site_id
 _symmetry_equiv_pos_as_xyz
  1  'x, y, z'
loop_
 _atom_site_type_symbol
 _atom_site_label
 _atom_site_symmetry_multiplicity
 _atom_site_fract_x
 _atom_site_fract_y
 _atom_site_fract_z
 _atom_site_occupancy
  Ca  Ca0  1  0.470195  0.836668  0.862326  1
  Ca  Ca1  1  0.169189  0.663332  0.637674  1
  Ca  Ca2  1  0.830811  0.336668  0.362326  1
  Ca  Ca3  1  0.529805  0.163332  0.137674  1
  Cr  Cr4  1  0.159138  0.232889  0.963019  1
  Cr  Cr5  1  0.355046  0.267111  0.536981  1
  Cr  Cr6  1  0.840862  0.767111  0.036981  1
  Cr  Cr7  1  0.500000  0.500000  0.000000  1
  Cr  Cr8  1  0.644954  0.732889  0.463019  1
  Cr  Cr9  1  0.691548  0.750000  0.250000  1
  Cr  Cr10  1  0.308452  0.250000  0.750000  1
  Cr  Cr11  1  0.000000  0.000000  0.500000  1
  P  P12  1  0.052574  0.566175  0.867100  1
  P  P13  1  0.768687  0.424823  0.607502  1
  P  P14  1  0.947426  0.433825  0.132900  1
  P  P15  1  0.198987  0.924823  0.107502  1
  P  P16  1  0.514150  0.066175  0.367100  1
  P  P17  1  0.485850  0.933825  0.632900  1
  P  P18  1  0.231313  0.575177  0.392498  1
  P  P19  1  0.801013  0.075177  0.892498  1
  O  O20  1  0.697928  0.392101  0.105417  1
  O  O21  1  0.825338  0.906892  0.926060  1
  O  O22  1  0.804554  0.892101  0.605417  1
  O  O23  1  0.805908  0.313750  0.531537  1
  O  O24  1  0.192150  0.395008  0.051418  1
  O  O25  1  0.558231  0.402332  0.688722  1
  O  O26  1  0.651196  0.186250  0.968463  1
  O  O27  1  0.893312  0.909320  0.131719  1
  O  O28  1  0.194092  0.686250  0.468463  1
  O  O29  1  0.658290  0.593108  0.573940  1
  O  O30  1  0.872374  0.609367  0.143533  1
  O  O31  1  0.607136  0.155797  0.284740  1
  O  O32  1  0.174662  0.093108  0.073940  1
  O  O33  1  0.065649  0.409320  0.631719  1
  O  O34  1  0.302072  0.607899  0.894583  1
  O  O35  1  0.127626  0.390633  0.856467  1
  O  O36  1  0.952325  0.655797  0.784740  1
  O  O37  1  0.348804  0.813750  0.031537  1
  O  O38  1  0.374727  0.109367  0.643533  1
  O  O39  1  0.392864  0.844203  0.715260  1
  O  O40  1  0.934351  0.590680  0.368281  1
  O  O41  1  0.361425  0.895008  0.551418  1
  O  O42  1  0.106688  0.090680  0.868281  1
  O  O43  1  0.350717  0.902332  0.188722  1
  O  O44  1  0.341710  0.406892  0.426060  1
  O  O45  1  0.195446  0.107899  0.394583  1
  O  O46  1  0.047675  0.344203  0.215260  1
  O  O47  1  0.638576  0.104992  0.448582  1
  O  O48  1  0.807850  0.604992  0.948582  1
  O  O49  1  0.649283  0.097668  0.811278  1
  O  O50  1  0.441769  0.597668  0.311278  1
  O  O51  1  0.625274  0.890633  0.356467  1
