# generated using pymatgen
data_Sr3La21Zn2(Cu5O24)2
_symmetry_space_group_name_H-M   'P 1'
_cell_length_a   5.36805006
_cell_length_b   5.53392486
_cell_length_c   42.40480288
_cell_angle_alpha   89.81713159
_cell_angle_beta   112.25359505
_cell_angle_gamma   89.99757292
_symmetry_Int_Tables_number   1
_chemical_formula_structural   Sr3La21Zn2(Cu5O24)2
_chemical_formula_sum   'Sr3 La21 Zn2 Cu10 O48'
_cell_volume   1165.86035733
_cell_formula_units_Z   1
loop_
 _symmetry_equiv_pos_site_id
 _symmetry_equiv_pos_as_xyz
  1  'x, y, z'
loop_
 _atom_site_type_symbol
 _atom_site_label
 _atom_site_symmetry_multiplicity
 _atom_site_fract_x
 _atom_site_fract_y
 _atom_site_fract_z
 _atom_site_occupancy
  Cu  Cu0  1  0.501298  0.500692  0.833841  1
  Cu  Cu1  1  -0.000217  0.995928  0.500041  1
  Cu  Cu2  1  0.497228  0.497762  0.665761  1
  Cu  Cu3  1  0.497335  0.497105  0.499135  1
  Cu  Cu4  1  0.496011  0.498857  0.332025  1
  Cu  Cu5  1  0.006338  0.996278  0.002139  1
  Cu  Cu6  1  0.497834  0.498022  0.166011  1
  Cu  Cu7  1  0.000362  0.999822  0.333469  1
  Cu  Cu8  1  0.504609  0.499524  0.001538  1
  Cu  Cu9  1  0.003460  0.997104  0.167922  1
  La  La10  1  0.141193  0.511349  0.881030  1
  La  La11  1  0.365414  0.015187  0.954904  1
  La  La12  1  0.137622  0.513570  0.712758  1
  La  La13  1  0.359441  0.015335  0.786322  1
  La  La14  1  0.643376  0.984368  0.881328  1
  La  La15  1  0.867677  0.486117  0.955844  1
  La  La16  1  0.353148  0.018649  0.617616  1
  La  La17  1  0.639162  0.983237  0.713256  1
  La  La18  1  0.862098  0.486588  0.787133  1
  La  La19  1  0.137052  0.512975  0.379201  1
  La  La20  1  0.359273  0.012601  0.452893  1
  La  La21  1  0.631925  0.979737  0.544915  1
  La  La22  1  0.856782  0.491870  0.618584  1
  La  La23  1  0.357002  0.014771  0.285617  1
  La  La24  1  0.637151  0.985190  0.379175  1
  La  La25  1  0.861330  0.483739  0.453640  1
  La  La26  1  0.360034  0.013608  0.119996  1
  La  La27  1  0.636023  0.982886  0.212482  1
  La  La28  1  0.857349  0.486751  0.285684  1
  La  La29  1  0.641090  0.981026  0.047511  1
  La  La30  1  0.863518  0.487551  0.121213  1
  O  O31  1  0.239684  0.750632  0.995429  1
  O  O32  1  0.177499  0.949131  0.892385  1
  O  O33  1  0.313564  0.442675  0.937668  1
  O  O34  1  0.241194  0.744274  0.828795  1
  O  O35  1  0.266829  0.256927  0.837594  1
  O  O36  1  0.733189  0.750666  0.995525  1
  O  O37  1  0.183661  0.944555  0.727664  1
  O  O38  1  0.310254  0.432458  0.770627  1
  O  O39  1  0.692697  0.565777  0.896425  1
  O  O40  1  0.812934  0.056129  0.938167  1
  O  O41  1  0.244171  0.743466  0.663483  1
  O  O42  1  0.271237  0.254824  0.672357  1
  O  O43  1  0.731445  0.743938  0.828754  1
  O  O44  1  0.757713  0.256506  0.837554  1
  O  O45  1  0.187777  0.965424  0.560658  1
  O  O46  1  0.319943  0.433202  0.607185  1
  O  O47  1  0.690923  0.566883  0.730124  1
  O  O48  1  0.819154  0.053814  0.773425  1
  O  O49  1  0.238965  0.750320  0.495055  1
  O  O50  1  0.258738  0.243047  0.501302  1
  O  O51  1  0.736492  0.743652  0.663456  1
  O  O52  1  0.762444  0.254757  0.672274  1
  O  O53  1  0.182868  0.943475  0.394171  1
  O  O54  1  0.311976  0.445312  0.437535  1
  O  O55  1  0.686941  0.566065  0.562232  1
  O  O56  1  0.823066  0.050834  0.607396  1
  O  O57  1  0.237043  0.751014  0.329689  1
  O  O58  1  0.260853  0.248192  0.337583  1
  O  O59  1  0.731632  0.750184  0.495160  1
  O  O60  1  0.748889  0.242558  0.501504  1
  O  O61  1  0.187014  0.968770  0.228161  1
  O  O62  1  0.328297  0.447909  0.276309  1
  O  O63  1  0.683731  0.554249  0.394276  1
  O  O64  1  0.811322  0.055563  0.437532  1
  O  O65  1  0.238967  0.753440  0.162880  1
  O  O66  1  0.258785  0.241603  0.168980  1
  O  O67  1  0.740685  0.751227  0.329645  1
  O  O68  1  0.764427  0.248349  0.337521  1
  O  O69  1  0.185411  0.974665  0.060820  1
  O  O70  1  0.332470  0.456809  0.110703  1
  O  O71  1  0.682782  0.553773  0.227646  1
  O  O72  1  0.815726  0.056111  0.271790  1
  O  O73  1  0.259276  0.245148  0.001467  1
  O  O74  1  0.737872  0.753703  0.162946  1
  O  O75  1  0.754737  0.241417  0.169065  1
  O  O76  1  0.687828  0.560274  0.062526  1
  O  O77  1  0.816372  0.053569  0.105265  1
  O  O78  1  0.749664  0.244853  0.001636  1
  Sr  Sr79  1  0.136976  0.503077  0.545777  1
  Sr  Sr80  1  0.140395  0.502920  0.213571  1
  Sr  Sr81  1  0.144814  0.501982  0.048356  1
  Zn  Zn82  1  0.005143  0.998556  0.835107  1
  Zn  Zn83  1  0.991610  0.003146  0.663859  1
