# generated using pymatgen
data_CaTiO3
_symmetry_space_group_name_H-M   'P 1'
_cell_length_a   5.47597249
_cell_length_b   5.47654609
_cell_length_c   7.67108164
_cell_angle_alpha   90.00000000
_cell_angle_beta   90.00000000
_cell_angle_gamma   90.00000000
_symmetry_Int_Tables_number   1
_chemical_formula_structural   CaTiO3
_chemical_formula_sum   'Ca4 Ti4 O12'
_cell_volume   230.05125639
_cell_formula_units_Z   4
loop_
 _symmetry_equiv_pos_site_id
 _symmetry_equiv_pos_as_xyz
  1  'x, y, z'
loop_
 _atom_site_type_symbol
 _atom_site_label
 _atom_site_symmetry_multiplicity
 _atom_site_fract_x
 _atom_site_fract_y
 _atom_site_fract_z
 _atom_site_occupancy
  Ca  Ca0  1  0.500365  0.512554  0.750000  1
  Ca  Ca1  1  0.999635  0.012554  0.250000  1
  Ca  Ca2  1  0.499635  0.487446  0.250000  1
  Ca  Ca3  1  0.000365  0.987446  0.750000  1
  Ti  Ti4  1  0.500000  0.000000  0.000000  1
  Ti  Ti5  1  0.500000  0.000000  0.500000  1
  Ti  Ti6  1  0.000000  0.500000  0.000000  1
  Ti  Ti7  1  0.000000  0.500000  0.500000  1
  O  O8  1  0.250153  0.749855  0.546873  1
  O  O9  1  0.999636  0.413667  0.750000  1
  O  O10  1  0.500364  0.913667  0.250000  1
  O  O11  1  0.750153  0.750145  0.546873  1
  O  O12  1  0.249847  0.249855  0.046873  1
  O  O13  1  0.749847  0.250145  0.046873  1
  O  O14  1  0.250153  0.749855  0.953127  1
  O  O15  1  0.249847  0.249855  0.453127  1
  O  O16  1  0.750153  0.750145  0.953127  1
  O  O17  1  0.499636  0.086333  0.750000  1
  O  O18  1  0.000364  0.586333  0.250000  1
  O  O19  1  0.749847  0.250145  0.453127  1
