# generated using pymatgen
data_Ag6Mo10O33
_symmetry_space_group_name_H-M   'P 1'
_cell_length_a   7.63259799
_cell_length_b   8.52641006
_cell_length_c   11.64781846
_cell_angle_alpha   84.47761868
_cell_angle_beta   78.41065980
_cell_angle_gamma   74.95518634
_symmetry_Int_Tables_number   1
_chemical_formula_structural   Ag6Mo10O33
_chemical_formula_sum   'Ag6 Mo10 O33'
_cell_volume   716.33817107
_cell_formula_units_Z   1
loop_
 _symmetry_equiv_pos_site_id
 _symmetry_equiv_pos_as_xyz
  1  'x, y, z'
loop_
 _atom_site_type_symbol
 _atom_site_label
 _atom_site_symmetry_multiplicity
 _atom_site_fract_x
 _atom_site_fract_y
 _atom_site_fract_z
 _atom_site_occupancy
  Ag  Ag0  1  0.816069  0.511882  0.251885  1
  Ag  Ag1  1  0.650264  0.000920  0.751876  1
  Ag  Ag2  1  0.761717  0.527308  0.790176  1
  Ag  Ag3  1  0.183931  0.488118  0.748115  1
  Ag  Ag4  1  0.238283  0.472692  0.209824  1
  Ag  Ag5  1  0.349736  0.999080  0.248124  1
  Mo  Mo6  1  0.297204  0.797487  0.984325  1
  Mo  Mo7  1  0.812651  0.998733  0.318302  1
  Mo  Mo8  1  0.853771  0.810965  0.019623  1
  Mo  Mo9  1  0.702796  0.202513  0.015675  1
  Mo  Mo10  1  0.432381  0.222080  0.486657  1
  Mo  Mo11  1  0.072063  0.774725  0.500211  1
  Mo  Mo12  1  0.567619  0.777920  0.513343  1
  Mo  Mo13  1  0.146229  0.189035  0.980377  1
  Mo  Mo14  1  0.187349  0.001267  0.681698  1
  Mo  Mo15  1  0.927937  0.225275  0.499789  1
  O  O16  1  0.784649  0.168259  0.218687  1
  O  O17  1  0.490781  0.656154  0.918130  1
  O  O18  1  0.821028  0.805596  0.874959  1
  O  O19  1  0.756429  0.655646  0.095605  1
  O  O20  1  0.106504  0.167274  0.772498  1
  O  O21  1  0.967161  0.360227  0.377599  1
  O  O22  1  0.332048  0.803459  0.127804  1
  O  O23  1  0.030935  0.000908  0.380494  1
  O  O24  1  0.178972  0.194404  0.125041  1
  O  O25  1  0.107638  0.680532  0.013764  1
  O  O26  1  0.173547  0.653232  0.382453  1
  O  O27  1  0.550600  0.989482  0.379381  1
  O  O28  1  0.449400  0.010518  0.620619  1
  O  O29  1  0.811056  0.829895  0.479019  1
  O  O30  1  0.393287  0.373895  0.584723  1
  O  O31  1  0.892362  0.319468  0.986236  1
  O  O32  1  0.509219  0.343846  0.081870  1
  O  O33  1  0.606713  0.626105  0.415277  1
  O  O34  1  0.188944  0.170105  0.520981  1
  O  O35  1  0.215351  0.831741  0.781313  1
  O  O36  1  0.292715  0.827682  0.530992  1
  O  O37  1  0.347115  0.004019  0.924259  1
  O  O38  1  0.667952  0.196541  0.872196  1
  O  O39  1  0.597646  0.674428  0.646777  1
  O  O40  1  0.707285  0.172318  0.469008  1
  O  O41  1  0.826453  0.346768  0.617547  1
  O  O42  1  0.402354  0.325572  0.353223  1
  O  O43  1  0.032839  0.639773  0.622401  1
  O  O44  1  0.243571  0.344354  0.904395  1
  O  O45  1  0.000000  0.000000  0.000000  1
  O  O46  1  0.893496  0.832726  0.227502  1
  O  O47  1  0.652885  0.995981  0.075741  1
  O  O48  1  0.969065  0.999092  0.619506  1
