# generated using pymatgen
data_CsAu2F7
_symmetry_space_group_name_H-M   'P 1'
_cell_length_a   7.62319015
_cell_length_b   8.04181887
_cell_length_c   8.04181821
_cell_angle_alpha   87.14982244
_cell_angle_beta   66.56434651
_cell_angle_gamma   66.56434068
_symmetry_Int_Tables_number   1
_chemical_formula_structural   CsAu2F7
_chemical_formula_sum   'Cs2 Au4 F14'
_cell_volume   411.55679922
_cell_formula_units_Z   2
loop_
 _symmetry_equiv_pos_site_id
 _symmetry_equiv_pos_as_xyz
  1  'x, y, z'
loop_
 _atom_site_type_symbol
 _atom_site_label
 _atom_site_symmetry_multiplicity
 _atom_site_fract_x
 _atom_site_fract_y
 _atom_site_fract_z
 _atom_site_occupancy
  Cs  Cs0  1  0.750000  0.691434  0.308566  1
  Cs  Cs1  1  0.250000  0.308566  0.691434  1
  Au  Au2  1  0.856367  0.913192  0.715319  1
  Au  Au3  1  0.643633  0.284681  0.086808  1
  Au  Au4  1  0.143633  0.086808  0.284681  1
  Au  Au5  1  0.356367  0.715319  0.913192  1
  F  F6  1  0.551571  0.091553  0.185502  1
  F  F7  1  0.038599  0.332231  0.402451  1
  F  F8  1  0.051571  0.185502  0.091553  1
  F  F9  1  0.733647  0.479818  0.986791  1
  F  F10  1  0.948429  0.814499  0.908447  1
  F  F11  1  0.266353  0.520182  0.013209  1
  F  F12  1  0.750000  0.177519  0.822481  1
  F  F13  1  0.766353  0.013209  0.520182  1
  F  F14  1  0.233647  0.986791  0.479818  1
  F  F15  1  0.961401  0.667769  0.597549  1
  F  F16  1  0.448429  0.908447  0.814499  1
  F  F17  1  0.461401  0.597549  0.667769  1
  F  F18  1  0.250000  0.822481  0.177519  1
  F  F19  1  0.538599  0.402451  0.332231  1
