# generated using pymatgen
data_MnSO3
_symmetry_space_group_name_H-M   'P 1'
_cell_length_a   5.49630595
_cell_length_b   8.42641860
_cell_length_c   12.44106781
_cell_angle_alpha   90.00000000
_cell_angle_beta   90.00000000
_cell_angle_gamma   100.31574976
_symmetry_Int_Tables_number   1
_chemical_formula_structural   MnSO3
_chemical_formula_sum   'Mn8 S8 O24'
_cell_volume   566.88404036
_cell_formula_units_Z   8
loop_
 _symmetry_equiv_pos_site_id
 _symmetry_equiv_pos_as_xyz
  1  'x, y, z'
loop_
 _atom_site_type_symbol
 _atom_site_label
 _atom_site_symmetry_multiplicity
 _atom_site_fract_x
 _atom_site_fract_y
 _atom_site_fract_z
 _atom_site_occupancy
  O  O0  1  0.733655  0.004015  0.260784  1
  O  O1  1  0.266345  0.495985  0.760784  1
  O  O2  1  0.266345  0.995985  0.739216  1
  O  O3  1  0.733655  0.504015  0.239216  1
  O  O4  1  0.329495  0.371585  0.984593  1
  O  O5  1  0.670505  0.128415  0.484593  1
  O  O6  1  0.670505  0.628415  0.015407  1
  O  O7  1  0.329495  0.871585  0.515407  1
  O  O8  1  0.904689  0.337301  0.921185  1
  O  O9  1  0.095311  0.162699  0.421185  1
  O  O10  1  0.095311  0.662699  0.078815  1
  O  O11  1  0.904689  0.837301  0.578815  1
  O  O12  1  0.718638  0.076201  0.759706  1
  O  O13  1  0.281362  0.423799  0.259706  1
  O  O14  1  0.281362  0.923799  0.240294  1
  O  O15  1  0.718638  0.576201  0.740294  1
  O  O16  1  0.025812  0.756134  0.903551  1
  O  O17  1  0.974188  0.743866  0.403551  1
  O  O18  1  0.974188  0.243866  0.096449  1
  O  O19  1  0.025812  0.256134  0.596449  1
  O  O20  1  0.526033  0.833979  0.840417  1
  O  O21  1  0.473967  0.666021  0.340417  1
  O  O22  1  0.473967  0.166021  0.159583  1
  O  O23  1  0.526033  0.333979  0.659583  1
  S  S24  1  0.479020  0.509269  0.675773  1
  S  S25  1  0.520980  0.990731  0.175773  1
  S  S26  1  0.520980  0.490731  0.324227  1
  S  S27  1  0.479020  0.009269  0.824227  1
  S  S28  1  0.086476  0.745383  0.518576  1
  S  S29  1  0.913524  0.754617  0.018576  1
  S  S30  1  0.913524  0.254617  0.481424  1
  S  S31  1  0.086476  0.245383  0.981424  1
  Mn  Mn32  1  0.332746  0.616729  0.920434  1
  Mn  Mn33  1  0.667254  0.883271  0.420434  1
  Mn  Mn34  1  0.667254  0.383271  0.079566  1
  Mn  Mn35  1  0.332746  0.116729  0.579566  1
  Mn  Mn36  1  0.115709  0.158223  0.245960  1
  Mn  Mn37  1  0.884291  0.341777  0.745960  1
  Mn  Mn38  1  0.884291  0.841777  0.754040  1
  Mn  Mn39  1  0.115709  0.658223  0.254040  1
