# generated using pymatgen
data_Ba2Mn2As2O
_symmetry_space_group_name_H-M   'P 1'
_cell_length_a   4.31059058
_cell_length_b   6.58530226
_cell_length_c   7.16757829
_cell_angle_alpha   67.78146019
_cell_angle_beta   72.50030009
_cell_angle_gamma   70.89570106
_symmetry_Int_Tables_number   1
_chemical_formula_structural   Ba2Mn2As2O
_chemical_formula_sum   'Ba2 Mn2 As2 O1'
_cell_volume   174.30253080
_cell_formula_units_Z   1
loop_
 _symmetry_equiv_pos_site_id
 _symmetry_equiv_pos_as_xyz
  1  'x, y, z'
loop_
 _atom_site_type_symbol
 _atom_site_label
 _atom_site_symmetry_multiplicity
 _atom_site_fract_x
 _atom_site_fract_y
 _atom_site_fract_z
 _atom_site_occupancy
  Ba  Ba0  1  0.050720  0.195975  0.702583  1
  Ba  Ba1  1  0.949271  0.804026  0.297433  1
  Mn  Mn2  1  0.311904  0.299485  0.076705  1
  Mn  Mn3  1  0.688098  0.700515  0.923290  1
  As  As4  1  0.684336  0.350447  0.280880  1
  As  As5  1  0.315670  0.649555  0.719106  1
  O  O6  1  0.500000  0.999998  0.000002  1
