# generated using pymatgen
data_Na2NiH8(SO6)2
_symmetry_space_group_name_H-M   'P 1'
_cell_length_a   5.55905717
_cell_length_b   8.26464537
_cell_length_c   11.11192405
_cell_angle_alpha   90.00000000
_cell_angle_beta   99.85259534
_cell_angle_gamma   90.00000000
_symmetry_Int_Tables_number   1
_chemical_formula_structural   Na2NiH8(SO6)2
_chemical_formula_sum   'Na4 Ni2 H16 S4 O24'
_cell_volume   502.99262434
_cell_formula_units_Z   2
loop_
 _symmetry_equiv_pos_site_id
 _symmetry_equiv_pos_as_xyz
  1  'x, y, z'
loop_
 _atom_site_type_symbol
 _atom_site_label
 _atom_site_symmetry_multiplicity
 _atom_site_fract_x
 _atom_site_fract_y
 _atom_site_fract_z
 _atom_site_occupancy
  Ni  Ni0  1  0.000000  0.000000  0.000000  1
  Ni  Ni1  1  0.000000  0.500000  0.500000  1
  S  S2  1  0.624652  0.714646  0.863631  1
  S  S3  1  0.375348  0.214646  0.636369  1
  S  S4  1  0.375348  0.285354  0.136369  1
  S  S5  1  0.624652  0.785354  0.363631  1
  Na  Na6  1  0.876788  0.928795  0.639236  1
  Na  Na7  1  0.123212  0.428795  0.860764  1
  Na  Na8  1  0.123212  0.071205  0.360764  1
  Na  Na9  1  0.876788  0.571205  0.139236  1
  O  O10  1  0.638306  0.724692  0.729627  1
  O  O11  1  0.361694  0.224692  0.770373  1
  O  O12  1  0.361694  0.275308  0.270373  1
  O  O13  1  0.638306  0.775308  0.229627  1
  O  O14  1  0.787380  0.586117  0.922319  1
  O  O15  1  0.212620  0.086117  0.577681  1
  O  O16  1  0.212620  0.413883  0.077681  1
  O  O17  1  0.787380  0.913883  0.422319  1
  O  O18  1  0.685082  0.874605  0.923656  1
  O  O19  1  0.314918  0.374605  0.576344  1
  O  O20  1  0.314918  0.125395  0.076344  1
  O  O21  1  0.685082  0.625395  0.423656  1
  O  O22  1  0.362725  0.679067  0.873951  1
  O  O23  1  0.637275  0.179067  0.626049  1
  O  O24  1  0.637275  0.320933  0.126049  1
  O  O25  1  0.362725  0.820933  0.373951  1
  O  O26  1  0.126277  0.965096  0.839002  1
  O  O27  1  0.873723  0.465096  0.660998  1
  O  O28  1  0.873723  0.034904  0.160998  1
  O  O29  1  0.126277  0.534904  0.339002  1
  O  O30  1  0.172860  0.713139  0.578924  1
  O  O31  1  0.827140  0.213139  0.921076  1
  O  O32  1  0.827140  0.286861  0.421076  1
  O  O33  1  0.172860  0.786861  0.078924  1
  H  H34  1  0.234237  0.056111  0.821435  1
  H  H35  1  0.765763  0.556111  0.678565  1
  H  H36  1  0.765763  0.943889  0.178565  1
  H  H37  1  0.234237  0.443889  0.321435  1
  H  H38  1  0.226786  0.864117  0.847452  1
  H  H39  1  0.773214  0.364117  0.652548  1
  H  H40  1  0.773214  0.135883  0.152548  1
  H  H41  1  0.226786  0.635883  0.347452  1
  H  H42  1  0.322188  0.693032  0.639920  1
  H  H43  1  0.677812  0.193032  0.860080  1
  H  H44  1  0.677812  0.306968  0.360080  1
  H  H45  1  0.322188  0.806968  0.139920  1
  H  H46  1  0.236284  0.775155  0.514753  1
  H  H47  1  0.763716  0.275155  0.985247  1
  H  H48  1  0.763716  0.224845  0.485247  1
  H  H49  1  0.236284  0.724845  0.014753  1
