# generated using pymatgen
data_BaPr2Ti3O10
_symmetry_space_group_name_H-M   'P 1'
_cell_length_a   3.93422279
_cell_length_b   7.70629221
_cell_length_c   14.47925470
_cell_angle_alpha   90.00000000
_cell_angle_beta   97.80818954
_cell_angle_gamma   90.00000000
_symmetry_Int_Tables_number   1
_chemical_formula_structural   BaPr2Ti3O10
_chemical_formula_sum   'Ba2 Pr4 Ti6 O20'
_cell_volume   434.91587161
_cell_formula_units_Z   2
loop_
 _symmetry_equiv_pos_site_id
 _symmetry_equiv_pos_as_xyz
  1  'x, y, z'
loop_
 _atom_site_type_symbol
 _atom_site_label
 _atom_site_symmetry_multiplicity
 _atom_site_fract_x
 _atom_site_fract_y
 _atom_site_fract_z
 _atom_site_occupancy
  Ba  Ba0  1  0.740461  0.255121  0.480921  1
  Ba  Ba1  1  0.259539  0.755121  0.519079  1
  Pr  Pr2  1  0.420564  0.254337  0.841127  1
  Pr  Pr3  1  0.579436  0.754337  0.158873  1
  Pr  Pr4  1  0.427429  0.753679  0.854857  1
  Pr  Pr5  1  0.572571  0.253679  0.145143  1
  Ti  Ti6  1  0.854288  0.508819  0.708577  1
  Ti  Ti7  1  0.145698  0.500708  0.291395  1
  Ti  Ti8  1  0.854302  0.000708  0.708605  1
  Ti  Ti9  1  0.999861  0.004647  0.999722  1
  Ti  Ti10  1  0.000139  0.504647  0.000278  1
  Ti  Ti11  1  0.145712  0.008819  0.291423  1
  O  O12  1  0.630856  0.497689  0.261712  1
  O  O13  1  0.206691  0.047299  0.413382  1
  O  O14  1  0.206704  0.462790  0.413409  1
  O  O15  1  0.933828  0.456257  0.867655  1
  O  O16  1  0.855570  0.255019  0.711141  1
  O  O17  1  0.500146  0.507328  0.000292  1
  O  O18  1  0.630833  0.011811  0.261666  1
  O  O19  1  0.123190  0.254979  0.246381  1
  O  O20  1  0.933666  0.055347  0.867332  1
  O  O21  1  0.369144  0.997689  0.738288  1
  O  O22  1  0.144430  0.755019  0.288859  1
  O  O23  1  0.876810  0.754979  0.753619  1
  O  O24  1  0.016027  0.256169  0.032054  1
  O  O25  1  0.066172  0.956257  0.132345  1
  O  O26  1  0.793296  0.962790  0.586591  1
  O  O27  1  0.369167  0.511811  0.738334  1
  O  O28  1  0.793309  0.547299  0.586618  1
  O  O29  1  0.066334  0.555347  0.132668  1
  O  O30  1  0.983973  0.756169  0.967946  1
  O  O31  1  0.499854  0.007328  0.999708  1
