# generated using pymatgen
data_Nd3(CuGe)4
_symmetry_space_group_name_H-M   'P 1'
_cell_length_a   4.32723185
_cell_length_b   6.74497803
_cell_length_c   8.21180731
_cell_angle_alpha   114.24804774
_cell_angle_beta   105.27642793
_cell_angle_gamma   89.99999634
_symmetry_Int_Tables_number   1
_chemical_formula_structural   Nd3(CuGe)4
_chemical_formula_sum   'Nd3 Cu4 Ge4'
_cell_volume   209.21024981
_cell_formula_units_Z   1
loop_
 _symmetry_equiv_pos_site_id
 _symmetry_equiv_pos_as_xyz
  1  'x, y, z'
loop_
 _atom_site_type_symbol
 _atom_site_label
 _atom_site_symmetry_multiplicity
 _atom_site_fract_x
 _atom_site_fract_y
 _atom_site_fract_z
 _atom_site_occupancy
  Nd  Nd0  1  0.867714  0.367714  0.735427  1
  Nd  Nd1  1  0.000000  0.000000  0.000000  1
  Nd  Nd2  1  0.132286  0.632286  0.264573  1
  Cu  Cu3  1  0.666423  0.352382  0.332846  1
  Cu  Cu4  1  0.333577  0.647618  0.667154  1
  Cu  Cu5  1  0.333577  0.019536  0.667154  1
  Cu  Cu6  1  0.666423  0.980464  0.332846  1
  Ge  Ge7  1  0.500000  0.311181  0.000000  1
  Ge  Ge8  1  0.216191  0.216191  0.432381  1
  Ge  Ge9  1  0.783809  0.783809  0.567619  1
  Ge  Ge10  1  0.500000  0.688819  1.000000  1
