# generated using pymatgen
data_AlF3
_symmetry_space_group_name_H-M   'P 1'
_cell_length_a   3.64072972
_cell_length_b   11.63012387
_cell_length_c   11.63012387
_cell_angle_alpha   90.00000000
_cell_angle_beta   90.00000000
_cell_angle_gamma   90.00000000
_symmetry_Int_Tables_number   1
_chemical_formula_structural   AlF3
_chemical_formula_sum   'Al10 F30'
_cell_volume   492.44430545
_cell_formula_units_Z   10
loop_
 _symmetry_equiv_pos_site_id
 _symmetry_equiv_pos_as_xyz
  1  'x, y, z'
loop_
 _atom_site_type_symbol
 _atom_site_label
 _atom_site_symmetry_multiplicity
 _atom_site_fract_x
 _atom_site_fract_y
 _atom_site_fract_z
 _atom_site_occupancy
  Al  Al0  1  0.000000  0.707993  0.424353  1
  Al  Al1  1  0.000000  0.575647  0.707993  1
  Al  Al2  1  0.000000  0.924353  0.207993  1
  Al  Al3  1  0.000000  0.424353  0.292007  1
  Al  Al4  1  0.000000  0.075647  0.792007  1
  Al  Al5  1  0.000000  0.792007  0.924353  1
  Al  Al6  1  0.000000  0.207993  0.075647  1
  Al  Al7  1  0.000000  0.292007  0.575647  1
  Al  Al8  1  0.000000  0.500000  0.000000  1
  Al  Al9  1  0.000000  0.000000  0.500000  1
  F  F10  1  0.000000  0.344558  0.000047  1
  F  F11  1  0.000000  0.567419  0.358772  1
  F  F12  1  0.500000  0.792106  0.923290  1
  F  F13  1  0.000000  0.215169  0.715169  1
  F  F14  1  0.500000  0.423290  0.292106  1
  F  F15  1  0.000000  0.858772  0.067419  1
  F  F16  1  0.000000  0.358772  0.432581  1
  F  F17  1  0.000000  0.784831  0.284831  1
  F  F18  1  0.000000  0.715169  0.784831  1
  F  F19  1  0.000000  0.500047  0.844558  1
  F  F20  1  0.500000  0.576710  0.707894  1
  F  F21  1  0.500000  0.207894  0.076710  1
  F  F22  1  0.000000  0.641228  0.567419  1
  F  F23  1  0.000000  0.499953  0.155442  1
  F  F24  1  0.000000  0.432581  0.641228  1
  F  F25  1  0.000000  0.844558  0.499953  1
  F  F26  1  0.500000  0.292106  0.576710  1
  F  F27  1  0.000000  0.067419  0.141228  1
  F  F28  1  0.000000  0.141228  0.932581  1
  F  F29  1  0.500000  0.707894  0.423290  1
  F  F30  1  0.500000  0.000000  0.500000  1
  F  F31  1  0.000000  0.000047  0.655442  1
  F  F32  1  0.000000  0.155442  0.500047  1
  F  F33  1  0.500000  0.076710  0.792106  1
  F  F34  1  0.000000  0.932581  0.858772  1
  F  F35  1  0.000000  0.999953  0.344558  1
  F  F36  1  0.500000  0.923290  0.207894  1
  F  F37  1  0.000000  0.655442  0.999953  1
  F  F38  1  0.000000  0.284831  0.215169  1
  F  F39  1  0.500000  0.500000  0.000000  1
