# generated using pymatgen
data_KSm2Cl5
_symmetry_space_group_name_H-M   'P 1'
_cell_length_a   7.12423960
_cell_length_b   8.65881334
_cell_length_c   13.36956956
_cell_angle_alpha   89.91890094
_cell_angle_beta   90.00000000
_cell_angle_gamma   90.00000000
_symmetry_Int_Tables_number   1
_chemical_formula_structural   KSm2Cl5
_chemical_formula_sum   'K4 Sm8 Cl20'
_cell_volume   824.73397285
_cell_formula_units_Z   4
loop_
 _symmetry_equiv_pos_site_id
 _symmetry_equiv_pos_as_xyz
  1  'x, y, z'
loop_
 _atom_site_type_symbol
 _atom_site_label
 _atom_site_symmetry_multiplicity
 _atom_site_fract_x
 _atom_site_fract_y
 _atom_site_fract_z
 _atom_site_occupancy
  K  K0  1  0.446977  0.498754  0.332836  1
  K  K1  1  0.946977  0.501246  0.167164  1
  K  K2  1  0.553023  0.501246  0.667164  1
  K  K3  1  0.053023  0.498754  0.832836  1
  Sm  Sm4  1  0.029996  0.205500  0.499792  1
  Sm  Sm5  1  0.970004  0.794500  0.500208  1
  Sm  Sm6  1  0.602170  0.008649  0.657973  1
  Sm  Sm7  1  0.529996  0.794500  0.000208  1
  Sm  Sm8  1  0.102170  0.991351  0.842027  1
  Sm  Sm9  1  0.470004  0.205500  0.999792  1
  Sm  Sm10  1  0.897830  0.008649  0.157973  1
  Sm  Sm11  1  0.397830  0.991351  0.342027  1
  Cl  Cl12  1  0.170997  0.524500  0.577692  1
  Cl  Cl13  1  0.829003  0.475500  0.422308  1
  Cl  Cl14  1  0.951864  0.793038  0.999767  1
  Cl  Cl15  1  0.838496  0.761663  0.704186  1
  Cl  Cl16  1  0.338496  0.238337  0.795814  1
  Cl  Cl17  1  0.670997  0.475500  0.922308  1
  Cl  Cl18  1  0.048136  0.206961  0.000233  1
  Cl  Cl19  1  0.807697  0.023672  0.365554  1
  Cl  Cl20  1  0.161504  0.238337  0.295814  1
  Cl  Cl21  1  0.451864  0.206961  0.500233  1
  Cl  Cl22  1  0.148257  0.750780  0.313815  1
  Cl  Cl23  1  0.351743  0.750780  0.813815  1
  Cl  Cl24  1  0.648257  0.249220  0.186185  1
  Cl  Cl25  1  0.661504  0.761663  0.204186  1
  Cl  Cl26  1  0.192303  0.976328  0.634446  1
  Cl  Cl27  1  0.329003  0.524500  0.077692  1
  Cl  Cl28  1  0.548136  0.793038  0.499767  1
  Cl  Cl29  1  0.851743  0.249220  0.686185  1
  Cl  Cl30  1  0.692303  0.023672  0.865554  1
  Cl  Cl31  1  0.307697  0.976328  0.134446  1
