# generated using pymatgen
data_CuH8C2(N6Cl)2
_symmetry_space_group_name_H-M   'P 1'
_cell_length_a   6.70956760
_cell_length_b   6.81053052
_cell_length_c   12.32194805
_cell_angle_alpha   90.00000000
_cell_angle_beta   95.62394703
_cell_angle_gamma   90.00000000
_symmetry_Int_Tables_number   1
_chemical_formula_structural   CuH8C2(N6Cl)2
_chemical_formula_sum   'Cu2 H16 C4 N24 Cl4'
_cell_volume   560.34995061
_cell_formula_units_Z   2
loop_
 _symmetry_equiv_pos_site_id
 _symmetry_equiv_pos_as_xyz
  1  'x, y, z'
loop_
 _atom_site_type_symbol
 _atom_site_label
 _atom_site_symmetry_multiplicity
 _atom_site_fract_x
 _atom_site_fract_y
 _atom_site_fract_z
 _atom_site_occupancy
  Cu  Cu0  1  0.000000  0.000000  0.000000  1
  Cu  Cu1  1  0.000000  0.500000  0.500000  1
  H  H2  1  0.599095  0.332970  0.580735  1
  H  H3  1  0.715283  0.368755  0.041601  1
  H  H4  1  0.599095  0.167030  0.080735  1
  H  H5  1  0.284717  0.868755  0.458399  1
  H  H6  1  0.204908  0.142939  0.792791  1
  H  H7  1  0.887037  0.832873  0.344148  1
  H  H8  1  0.887037  0.667127  0.844148  1
  H  H9  1  0.112963  0.167127  0.655852  1
  H  H10  1  0.112963  0.332873  0.155852  1
  H  H11  1  0.400905  0.832970  0.919265  1
  H  H12  1  0.795092  0.642939  0.707209  1
  H  H13  1  0.284717  0.631245  0.958399  1
  H  H14  1  0.715283  0.131245  0.541601  1
  H  H15  1  0.795092  0.857061  0.207209  1
  H  H16  1  0.400905  0.667030  0.419265  1
  H  H17  1  0.204908  0.357061  0.292791  1
  C  C18  1  0.903625  0.131038  0.764927  1
  C  C19  1  0.096375  0.631038  0.735073  1
  C  C20  1  0.903625  0.368962  0.264927  1
  C  C21  1  0.096375  0.868962  0.235073  1
  N  N22  1  0.843729  0.419086  0.362524  1
  N  N23  1  0.274176  0.748242  0.905301  1
  N  N24  1  0.359336  0.599755  0.644856  1
  N  N25  1  0.725824  0.251758  0.094699  1
  N  N26  1  0.274176  0.751758  0.405301  1
  N  N27  1  0.572122  0.345954  0.258452  1
  N  N28  1  0.088633  0.372472  0.233818  1
  N  N29  1  0.427878  0.845954  0.241548  1
  N  N30  1  0.088633  0.127528  0.733818  1
  N  N31  1  0.911367  0.872472  0.266182  1
  N  N32  1  0.725824  0.248242  0.594699  1
  N  N33  1  0.427878  0.654046  0.741548  1
  N  N34  1  0.734250  0.176306  0.700414  1
  N  N35  1  0.640664  0.099755  0.855144  1
  N  N36  1  0.265750  0.823694  0.299586  1
  N  N37  1  0.572122  0.154046  0.758452  1
  N  N38  1  0.911367  0.627528  0.766182  1
  N  N39  1  0.156271  0.580914  0.637476  1
  N  N40  1  0.265750  0.676306  0.799586  1
  N  N41  1  0.640664  0.400245  0.355144  1
  N  N42  1  0.734250  0.323694  0.200414  1
  N  N43  1  0.843729  0.080914  0.862524  1
  N  N44  1  0.156271  0.919086  0.137476  1
  N  N45  1  0.359336  0.900245  0.144856  1
  Cl  Cl46  1  0.212804  0.230263  0.486632  1
  Cl  Cl47  1  0.787196  0.769737  0.513368  1
  Cl  Cl48  1  0.787196  0.730263  0.013368  1
  Cl  Cl49  1  0.212804  0.269737  0.986632  1
