# generated using pymatgen
data_Mo15N16
_symmetry_space_group_name_H-M   'P 1'
_cell_length_a   11.47492187
_cell_length_b   9.96003657
_cell_length_c   8.04724016
_cell_angle_alpha   89.98058796
_cell_angle_beta   44.52271632
_cell_angle_gamma   90.00000000
_symmetry_Int_Tables_number   1
_chemical_formula_structural   Mo15N16
_chemical_formula_sum   'Mo30 N32'
_cell_volume   644.90319948
_cell_formula_units_Z   2
loop_
 _symmetry_equiv_pos_site_id
 _symmetry_equiv_pos_as_xyz
  1  'x, y, z'
loop_
 _atom_site_type_symbol
 _atom_site_label
 _atom_site_symmetry_multiplicity
 _atom_site_fract_x
 _atom_site_fract_y
 _atom_site_fract_z
 _atom_site_occupancy
  Mo  Mo0  1  0.004262  0.010278  0.490759  1
  Mo  Mo1  1  0.005945  0.501063  0.489102  1
  Mo  Mo2  1  0.121493  0.244322  0.491861  1
  Mo  Mo3  1  0.136645  0.744322  0.491861  1
  Mo  Mo4  1  0.006009  0.492569  0.991166  1
  Mo  Mo5  1  0.254979  0.510278  0.490759  1
  Mo  Mo6  1  0.254953  0.001063  0.489102  1
  Mo  Mo7  1  0.006545  0.997795  0.987766  1
  Mo  Mo8  1  0.361113  0.746150  0.516053  1
  Mo  Mo9  1  0.124412  0.256912  0.991639  1
  Mo  Mo10  1  0.396998  0.243230  0.469199  1
  Mo  Mo11  1  0.252855  0.987552  0.992306  1
  Mo  Mo12  1  0.505359  0.008441  0.491581  1
  Mo  Mo13  1  0.505488  0.502137  0.487537  1
  Mo  Mo14  1  0.255296  0.498631  0.987538  1
  Mo  Mo15  1  0.623086  0.243739  0.492021  1
  Mo  Mo16  1  0.374198  0.757015  0.993451  1
  Mo  Mo17  1  0.634893  0.743739  0.492021  1
  Mo  Mo18  1  0.382352  0.257015  0.993451  1
  Mo  Mo19  1  0.753060  0.508441  0.491581  1
  Mo  Mo20  1  0.504839  0.487552  0.992306  1
  Mo  Mo21  1  0.756975  0.002137  0.487537  1
  Mo  Mo22  1  0.507166  0.998631  0.987538  1
  Mo  Mo23  1  0.883803  0.743230  0.469199  1
  Mo  Mo24  1  0.872834  0.246150  0.516053  1
  Mo  Mo25  1  0.633949  0.756912  0.991639  1
  Mo  Mo26  1  0.755689  0.497795  0.987766  1
  Mo  Mo27  1  0.752825  0.992569  0.991166  1
  Mo  Mo28  1  0.873371  0.755133  0.992550  1
  Mo  Mo29  1  0.884079  0.255133  0.992550  1
  N  N30  1  0.004295  0.916008  0.244020  1
  N  N31  1  0.131023  0.667708  0.241359  1
  N  N32  1  0.134034  0.166036  0.229643  1
  N  N33  1  0.250582  0.916549  0.247409  1
  N  N34  1  0.000945  0.583939  0.748300  1
  N  N35  1  0.252009  0.416549  0.247409  1
  N  N36  1  0.386323  0.666036  0.229643  1
  N  N37  1  0.377618  0.167708  0.241359  1
  N  N38  1  0.136666  0.333894  0.726547  1
  N  N39  1  0.126365  0.834951  0.747768  1
  N  N40  1  0.252187  0.582629  0.747359  1
  N  N41  1  0.501685  0.416008  0.244020  1
  N  N42  1  0.501095  0.918045  0.247221  1
  N  N43  1  0.252743  0.083504  0.744525  1
  N  N44  1  0.379980  0.832127  0.737846  1
  N  N45  1  0.637556  0.165609  0.228377  1
  N  N46  1  0.626150  0.666973  0.244483  1
  N  N47  1  0.379901  0.333973  0.739441  1
  N  N48  1  0.753164  0.915467  0.245492  1
  N  N49  1  0.501370  0.083669  0.747680  1
  N  N50  1  0.751345  0.415467  0.245492  1
  N  N51  1  0.500950  0.583669  0.747680  1
  N  N52  1  0.632174  0.332127  0.737846  1
  N  N53  1  0.884067  0.665609  0.228377  1
  N  N54  1  0.879368  0.166973  0.244483  1
  N  N55  1  0.630658  0.833973  0.739441  1
  N  N56  1  0.752732  0.583504  0.744525  1
  N  N57  1  0.001684  0.418045  0.247221  1
  N  N58  1  0.750454  0.082629  0.747359  1
  N  N59  1  0.886787  0.833894  0.726547  1
  N  N60  1  0.875867  0.334951  0.747768  1
  N  N61  1  0.000755  0.083939  0.748300  1
