# generated using pymatgen
data_NaTbMnWO6
_symmetry_space_group_name_H-M   'P 1'
_cell_length_a   5.48310960
_cell_length_b   5.67384904
_cell_length_c   8.00799318
_cell_angle_alpha   90.00000000
_cell_angle_beta   90.03571737
_cell_angle_gamma   90.00000000
_symmetry_Int_Tables_number   1
_chemical_formula_structural   NaTbMnWO6
_chemical_formula_sum   'Na2 Tb2 Mn2 W2 O12'
_cell_volume   249.13131129
_cell_formula_units_Z   2
loop_
 _symmetry_equiv_pos_site_id
 _symmetry_equiv_pos_as_xyz
  1  'x, y, z'
loop_
 _atom_site_type_symbol
 _atom_site_label
 _atom_site_symmetry_multiplicity
 _atom_site_fract_x
 _atom_site_fract_y
 _atom_site_fract_z
 _atom_site_occupancy
  Tb  Tb0  1  0.734691  0.790559  0.498507  1
  Tb  Tb1  1  0.265309  0.290559  0.501493  1
  Na  Na2  1  0.748839  0.694068  0.999058  1
  Na  Na3  1  0.251161  0.194068  0.000942  1
  Mn  Mn4  1  0.247993  0.734549  0.758216  1
  Mn  Mn5  1  0.752007  0.234549  0.241784  1
  W  W6  1  0.238289  0.724767  0.243825  1
  W  W7  1  0.761711  0.224767  0.756175  1
  O  O8  1  0.910734  0.920251  0.782797  1
  O  O9  1  0.530364  0.533177  0.320131  1
  O  O10  1  0.469636  0.033177  0.679869  1
  O  O11  1  0.939565  0.891899  0.225312  1
  O  O12  1  0.433345  0.000156  0.321620  1
  O  O13  1  0.669945  0.262282  0.979686  1
  O  O14  1  0.566655  0.500156  0.678380  1
  O  O15  1  0.330055  0.762282  0.020314  1
  O  O16  1  0.089266  0.420251  0.217203  1
  O  O17  1  0.060435  0.391899  0.774688  1
  O  O18  1  0.863211  0.183891  0.506940  1
  O  O19  1  0.136789  0.683891  0.493060  1
