# generated using pymatgen
data_Na3FeO3
_symmetry_space_group_name_H-M   'P 1'
_cell_length_a   6.20537035
_cell_length_b   8.61827437
_cell_length_c   8.61827403
_cell_angle_alpha   77.72002849
_cell_angle_beta   69.49328986
_cell_angle_gamma   69.49328636
_symmetry_Int_Tables_number   1
_chemical_formula_structural   Na3FeO3
_chemical_formula_sum   'Na12 Fe4 O12'
_cell_volume   402.20707234
_cell_formula_units_Z   4
loop_
 _symmetry_equiv_pos_site_id
 _symmetry_equiv_pos_as_xyz
  1  'x, y, z'
loop_
 _atom_site_type_symbol
 _atom_site_label
 _atom_site_symmetry_multiplicity
 _atom_site_fract_x
 _atom_site_fract_y
 _atom_site_fract_z
 _atom_site_occupancy
  Na  Na0  1  0.384654  0.251344  0.205566  1
  Na  Na1  1  0.514407  0.353121  0.826729  1
  Na  Na2  1  0.884654  0.205566  0.251344  1
  Na  Na3  1  0.966697  0.723442  0.767961  1
  Na  Na4  1  0.225708  0.016123  0.964449  1
  Na  Na5  1  0.003957  0.061778  0.634959  1
  Na  Na6  1  0.466697  0.767961  0.723442  1
  Na  Na7  1  0.725708  0.964449  0.016123  1
  Na  Na8  1  0.503957  0.634959  0.061778  1
  Na  Na9  1  0.945851  0.437406  0.521949  1
  Na  Na10  1  0.445851  0.521949  0.437406  1
  Na  Na11  1  0.014407  0.826729  0.353121  1
  Fe  Fe12  1  0.955657  0.353654  0.876643  1
  Fe  Fe13  1  0.031949  0.600371  0.122145  1
  Fe  Fe14  1  0.531949  0.122145  0.600371  1
  Fe  Fe15  1  0.455657  0.876643  0.353654  1
  O  O16  1  0.689422  0.689662  0.230127  1
  O  O17  1  0.114909  0.405484  0.007654  1
  O  O18  1  0.703346  0.280913  0.532166  1
  O  O19  1  0.614909  0.007654  0.405484  1
  O  O20  1  0.189422  0.230127  0.689662  1
  O  O21  1  0.203346  0.532166  0.280913  1
  O  O22  1  0.253836  0.787012  0.542040  1
  O  O23  1  0.631440  0.969193  0.772998  1
  O  O24  1  0.131440  0.772998  0.969193  1
  O  O25  1  0.770728  0.217067  0.012928  1
  O  O26  1  0.753836  0.542040  0.787012  1
  O  O27  1  0.270728  0.012928  0.217067  1
