# generated using pymatgen
data_La12Fe2I17
_symmetry_space_group_name_H-M   'P 1'
_cell_length_a   9.94546354
_cell_length_b   12.24288528
_cell_length_c   12.20182431
_cell_angle_alpha   93.55889099
_cell_angle_beta   104.83732938
_cell_angle_gamma   115.51342055
_symmetry_Int_Tables_number   1
_chemical_formula_structural   La12Fe2I17
_chemical_formula_sum   'La12 Fe2 I17'
_cell_volume   1270.56897824
_cell_formula_units_Z   1
loop_
 _symmetry_equiv_pos_site_id
 _symmetry_equiv_pos_as_xyz
  1  'x, y, z'
loop_
 _atom_site_type_symbol
 _atom_site_label
 _atom_site_symmetry_multiplicity
 _atom_site_fract_x
 _atom_site_fract_y
 _atom_site_fract_z
 _atom_site_occupancy
  La  La0  1  0.068224  0.520732  0.328613  1
  La  La1  1  0.771276  0.332376  0.001099  1
  La  La2  1  0.708803  -0.000108  0.087735  1
  La  La3  1  0.873678  0.716042  0.846749  1
  La  La4  1  0.339029  0.761324  0.729685  1
  La  La5  1  0.291197  1.000108  0.912265  1
  La  La6  1  0.931776  0.479268  0.671387  1
  La  La7  1  0.228724  0.667624  0.998901  1
  La  La8  1  0.660971  0.238676  0.270315  1
  La  La9  1  0.986078  0.815029  0.576604  1
  La  La10  1  0.013922  0.184971  0.423396  1
  La  La11  1  0.126322  0.283958  0.153251  1
  Fe  Fe12  1  0.900337  0.265867  0.214846  1
  Fe  Fe13  1  0.099663  0.734133  0.785154  1
  I  I14  1  0.837365  0.892893  0.318152  1
  I  I15  1  0.599398  0.057979  0.825494  1
  I  I16  1  0.745107  0.175652  0.530532  1
  I  I17  1  0.254893  0.824348  0.469468  1
  I  I18  1  0.449415  0.303753  0.049080  1
  I  I19  1  0.370004  0.582412  0.247571  1
  I  I20  1  0.941787  0.637751  0.108372  1
  I  I21  1  0.400602  0.942021  0.174506  1
  I  I22  1  0.778501  0.526262  0.413318  1
  I  I23  1  0.326004  0.213777  0.368015  1
  I  I24  1  0.162635  0.107107  0.681848  1
  I  I25  1  0.550585  0.696247  0.950920  1
  I  I26  1  0.058213  0.362249  0.891628  1
  I  I27  1  0.000000  0.000000  0.000000  1
  I  I28  1  0.673996  0.786223  0.631985  1
  I  I29  1  0.629996  0.417588  0.752429  1
  I  I30  1  0.221499  0.473738  0.586682  1
