# generated using pymatgen
data_CdI2
_symmetry_space_group_name_H-M   'P 1'
_cell_length_a   4.33185092
_cell_length_b   4.33185119
_cell_length_c   52.20957323
_cell_angle_alpha   90.00000000
_cell_angle_beta   90.00000000
_cell_angle_gamma   119.99999796
_symmetry_Int_Tables_number   1
_chemical_formula_structural   CdI2
_chemical_formula_sum   'Cd7 I14'
_cell_volume   848.45304888
_cell_formula_units_Z   7
loop_
 _symmetry_equiv_pos_site_id
 _symmetry_equiv_pos_as_xyz
  1  'x, y, z'
loop_
 _atom_site_type_symbol
 _atom_site_label
 _atom_site_symmetry_multiplicity
 _atom_site_fract_x
 _atom_site_fract_y
 _atom_site_fract_z
 _atom_site_occupancy
  Cd  Cd0  1  0.000000  0.000000  0.178586  1
  Cd  Cd1  1  0.000000  0.000000  0.607153  1
  Cd  Cd2  1  0.000000  0.000000  0.749995  1
  Cd  Cd3  1  0.000000  0.000000  0.892820  1
  Cd  Cd4  1  0.666667  0.333333  0.321397  1
  Cd  Cd5  1  0.000000  0.000000  0.464331  1
  Cd  Cd6  1  0.666667  0.333333  0.035713  1
  I  I7  1  0.666667  0.333333  0.431235  1
  I  I8  1  0.666667  0.333333  0.574095  1
  I  I9  1  0.666667  0.333333  0.145499  1
  I  I10  1  0.333333  0.666667  0.068791  1
  I  I11  1  0.333333  0.666667  0.211664  1
  I  I12  1  0.333333  0.666667  0.354486  1
  I  I13  1  0.333333  0.666667  0.640210  1
  I  I14  1  0.000000  0.000000  0.002655  1
  I  I15  1  0.333333  0.666667  0.783038  1
  I  I16  1  0.333333  0.666667  0.925878  1
  I  I17  1  0.666667  0.333333  0.859764  1
  I  I18  1  0.333333  0.666667  0.497425  1
  I  I19  1  0.666667  0.333333  0.716950  1
  I  I20  1  0.000000  0.000000  0.288314  1
