# generated using pymatgen
data_CdAg4Ge2S7
_symmetry_space_group_name_H-M   'P 1'
_cell_length_a   6.93321690
_cell_length_b   9.55580959
_cell_length_c   10.65016154
_cell_angle_alpha   93.00086753
_cell_angle_beta   90.00000000
_cell_angle_gamma   111.27071398
_symmetry_Int_Tables_number   1
_chemical_formula_structural   CdAg4Ge2S7
_chemical_formula_sum   'Cd2 Ag8 Ge4 S14'
_cell_volume   656.49369945
_cell_formula_units_Z   2
loop_
 _symmetry_equiv_pos_site_id
 _symmetry_equiv_pos_as_xyz
  1  'x, y, z'
loop_
 _atom_site_type_symbol
 _atom_site_label
 _atom_site_symmetry_multiplicity
 _atom_site_fract_x
 _atom_site_fract_y
 _atom_site_fract_z
 _atom_site_occupancy
  Ag  Ag0  1  0.815434  0.990616  0.999705  1
  Ag  Ag1  1  0.175182  0.990616  0.499705  1
  Ag  Ag2  1  0.740351  0.126976  0.386170  1
  Ag  Ag3  1  0.386625  0.126976  0.886170  1
  Ag  Ag4  1  0.891793  0.422064  0.097601  1
  Ag  Ag5  1  0.530270  0.422064  0.597601  1
  Ag  Ag6  1  0.155202  0.552502  0.445096  1
  Ag  Ag7  1  0.397299  0.552502  0.945096  1
  Cd  Cd8  1  0.670117  0.700729  0.289516  1
  Cd  Cd9  1  0.030612  0.700729  0.789516  1
  Ge  Ge10  1  0.252885  0.855222  0.168655  1
  Ge  Ge11  1  0.602337  0.855222  0.668655  1
  Ge  Ge12  1  0.310457  0.275551  0.243826  1
  Ge  Ge13  1  0.965094  0.275551  0.743826  1
  S  S14  1  0.865481  0.062041  0.595875  1
  S  S15  1  0.196560  0.062041  0.095875  1
  S  S16  1  0.032695  0.332572  0.283735  1
  S  S17  1  0.299877  0.332572  0.783735  1
  S  S18  1  0.546459  0.462509  0.141480  1
  S  S19  1  0.916050  0.462509  0.641480  1
  S  S20  1  0.135943  0.670035  0.016723  1
  S  S21  1  0.534092  0.670035  0.516723  1
  S  S22  1  0.063123  0.769921  0.338985  1
  S  S23  1  0.706797  0.769921  0.838985  1
  S  S24  1  0.326203  0.921469  0.703357  1
  S  S25  1  0.595266  0.921469  0.203357  1
  S  S26  1  0.441965  0.222793  0.416077  1
  S  S27  1  0.780829  0.222793  0.916077  1
