# generated using pymatgen
data_H14C3NF5
_symmetry_space_group_name_H-M   'P 1'
_cell_length_a   6.68472467
_cell_length_b   6.90851124
_cell_length_c   10.15535905
_cell_angle_alpha   83.21383632
_cell_angle_beta   72.13349662
_cell_angle_gamma   88.38720483
_symmetry_Int_Tables_number   1
_chemical_formula_structural   H14C3NF5
_chemical_formula_sum   'H28 C6 N2 F10'
_cell_volume   443.22857797
_cell_formula_units_Z   2
loop_
 _symmetry_equiv_pos_site_id
 _symmetry_equiv_pos_as_xyz
  1  'x, y, z'
loop_
 _atom_site_type_symbol
 _atom_site_label
 _atom_site_symmetry_multiplicity
 _atom_site_fract_x
 _atom_site_fract_y
 _atom_site_fract_z
 _atom_site_occupancy
  H  H0  1  0.486178  0.927888  0.798509  1
  H  H1  1  0.907550  0.288263  0.205193  1
  H  H2  1  0.202313  0.300818  0.607550  1
  H  H3  1  0.351359  0.965163  0.669311  1
  H  H4  1  0.908793  0.217357  0.532274  1
  H  H5  1  0.092450  0.711737  0.794807  1
  H  H6  1  0.606351  0.589169  0.855241  1
  H  H7  1  0.648641  0.034837  0.330689  1
  H  H8  1  0.374800  0.091774  0.381659  1
  H  H9  1  0.086502  0.827626  0.222381  1
  H  H10  1  0.590838  0.366843  0.369996  1
  H  H11  1  0.091207  0.782643  0.467726  1
  H  H12  1  0.819062  0.526226  0.155612  1
  H  H13  1  0.544349  0.396320  0.768784  1
  H  H14  1  0.180938  0.473774  0.844388  1
  H  H15  1  0.217978  0.678236  0.928801  1
  H  H16  1  0.262914  0.421671  0.326734  1
  H  H17  1  0.513822  0.072112  0.201491  1
  H  H18  1  0.797687  0.699182  0.392450  1
  H  H19  1  0.393649  0.410831  0.144759  1
  H  H20  1  0.625200  0.908226  0.618341  1
  H  H21  1  0.913498  0.172374  0.777619  1
  H  H22  1  0.768283  0.934254  0.950442  1
  H  H23  1  0.231717  0.065746  0.049558  1
  H  H24  1  0.409162  0.633157  0.630004  1
  H  H25  1  0.782022  0.321764  0.071199  1
  H  H26  1  0.737086  0.578329  0.673266  1
  H  H27  1  0.455651  0.603680  0.231216  1
  C  C28  1  0.212219  0.630654  0.830909  1
  C  C29  1  0.524982  0.116045  0.299191  1
  C  C30  1  0.410163  0.450465  0.242278  1
  C  C31  1  0.787782  0.369346  0.169091  1
  C  C32  1  0.475018  0.883955  0.700809  1
  C  C33  1  0.589837  0.549535  0.757722  1
  N  N34  1  0.579184  0.328300  0.277120  1
  N  N35  1  0.420816  0.671700  0.722880  1
  F  F36  1  0.352643  0.343155  0.578958  1
  F  F37  1  0.992121  0.237226  0.647022  1
  F  F38  1  0.853797  0.131021  0.884312  1
  F  F39  1  0.859043  0.208847  0.451417  1
  F  F40  1  0.705608  0.808495  0.997175  1
  F  F41  1  0.294392  0.191505  0.002825  1
  F  F42  1  0.140957  0.791153  0.548583  1
  F  F43  1  0.146203  0.868979  0.115688  1
  F  F44  1  0.647357  0.656845  0.421042  1
  F  F45  1  0.007879  0.762774  0.352978  1
