# generated using pymatgen
data_La3CuSiS7
_symmetry_space_group_name_H-M   'P 1'
_cell_length_a   10.35394775
_cell_length_b   10.35394783
_cell_length_c   5.85401778
_cell_angle_alpha   90.00000000
_cell_angle_beta   90.00000000
_cell_angle_gamma   119.99999974
_symmetry_Int_Tables_number   1
_chemical_formula_structural   La3CuSiS7
_chemical_formula_sum   'La6 Cu2 Si2 S14'
_cell_volume   543.49632425
_cell_formula_units_Z   2
loop_
 _symmetry_equiv_pos_site_id
 _symmetry_equiv_pos_as_xyz
  1  'x, y, z'
loop_
 _atom_site_type_symbol
 _atom_site_label
 _atom_site_symmetry_multiplicity
 _atom_site_fract_x
 _atom_site_fract_y
 _atom_site_fract_z
 _atom_site_occupancy
  La  La0  1  0.122773  0.356494  0.249377  1
  La  La1  1  0.766279  0.122773  0.749377  1
  La  La2  1  0.356494  0.233721  0.749377  1
  La  La3  1  0.643506  0.766279  0.249377  1
  La  La4  1  0.233721  0.877227  0.249377  1
  La  La5  1  0.877227  0.643506  0.749377  1
  Cu  Cu6  1  0.000000  0.000000  0.276132  1
  Cu  Cu7  1  0.000000  0.000000  0.776132  1
  Si  Si8  1  0.333333  0.666667  0.663753  1
  Si  Si9  1  0.666667  0.333333  0.163753  1
  S  S10  1  0.084510  0.248112  0.761957  1
  S  S11  1  0.836398  0.084510  0.261957  1
  S  S12  1  0.248112  0.163602  0.261957  1
  S  S13  1  0.751888  0.836398  0.761957  1
  S  S14  1  0.163602  0.915490  0.761957  1
  S  S15  1  0.915490  0.751888  0.261957  1
  S  S16  1  0.409959  0.525370  0.522989  1
  S  S17  1  0.884588  0.409959  0.022989  1
  S  S18  1  0.525370  0.115412  0.022989  1
  S  S19  1  0.474630  0.884588  0.522989  1
  S  S20  1  0.115412  0.590041  0.522989  1
  S  S21  1  0.590041  0.474630  0.022989  1
  S  S22  1  0.333333  0.666667  0.025148  1
  S  S23  1  0.666667  0.333333  0.525148  1
