# generated using pymatgen
data_Zr5Al4
_symmetry_space_group_name_H-M   'P 1'
_cell_length_a   8.45133686
_cell_length_b   8.45133736
_cell_length_c   5.81281498
_cell_angle_alpha   90.00000000
_cell_angle_beta   90.00000000
_cell_angle_gamma   120.00000194
_symmetry_Int_Tables_number   1
_chemical_formula_structural   Zr5Al4
_chemical_formula_sum   'Zr10 Al8'
_cell_volume   359.55718680
_cell_formula_units_Z   2
loop_
 _symmetry_equiv_pos_site_id
 _symmetry_equiv_pos_as_xyz
  1  'x, y, z'
loop_
 _atom_site_type_symbol
 _atom_site_label
 _atom_site_symmetry_multiplicity
 _atom_site_fract_x
 _atom_site_fract_y
 _atom_site_fract_z
 _atom_site_occupancy
  Zr  Zr0  1  0.288302  0.288302  0.750000  1
  Zr  Zr1  1  1.000000  0.711698  0.750000  1
  Zr  Zr2  1  0.000000  0.288302  0.250000  1
  Zr  Zr3  1  0.711698  0.000000  0.750000  1
  Zr  Zr4  1  0.333333  0.666667  0.500000  1
  Zr  Zr5  1  0.711698  0.711698  0.250000  1
  Zr  Zr6  1  0.288302  1.000000  0.250000  1
  Zr  Zr7  1  0.666667  0.333333  0.500000  1
  Zr  Zr8  1  0.666667  0.333333  0.000000  1
  Zr  Zr9  1  0.333333  0.666667  0.000000  1
  Al  Al10  1  0.000000  0.627773  0.250000  1
  Al  Al11  1  0.372227  0.372227  0.250000  1
  Al  Al12  1  0.627773  1.000000  0.250000  1
  Al  Al13  1  -0.000000  -0.000000  0.000000  1
  Al  Al14  1  0.372227  0.000000  0.750000  1
  Al  Al15  1  0.627773  0.627773  0.750000  1
  Al  Al16  1  -0.000000  -0.000000  0.500000  1
  Al  Al17  1  -0.000000  0.372227  0.750000  1
