# generated using pymatgen
data_Ba3GaP3
_symmetry_space_group_name_H-M   'P 1'
_cell_length_a   6.76680490
_cell_length_b   10.38603258
_cell_length_c   13.14156527
_cell_angle_alpha   90.00000000
_cell_angle_beta   90.00000000
_cell_angle_gamma   109.01190857
_symmetry_Int_Tables_number   1
_chemical_formula_structural   Ba3GaP3
_chemical_formula_sum   'Ba12 Ga4 P12'
_cell_volume   873.21141821
_cell_formula_units_Z   4
loop_
 _symmetry_equiv_pos_site_id
 _symmetry_equiv_pos_as_xyz
  1  'x, y, z'
loop_
 _atom_site_type_symbol
 _atom_site_label
 _atom_site_symmetry_multiplicity
 _atom_site_fract_x
 _atom_site_fract_y
 _atom_site_fract_z
 _atom_site_occupancy
  Ba  Ba0  1  0.827626  0.000000  0.650832  1
  Ba  Ba1  1  0.327626  0.000000  0.849168  1
  Ba  Ba2  1  0.672374  0.000000  0.150832  1
  Ba  Ba3  1  0.172374  0.000000  0.349168  1
  Ba  Ba4  1  0.134636  0.648933  0.129637  1
  Ba  Ba5  1  0.985703  0.351067  0.370363  1
  Ba  Ba6  1  0.365364  0.351067  0.629637  1
  Ba  Ba7  1  0.514297  0.648933  0.870363  1
  Ba  Ba8  1  0.865364  0.351067  0.870363  1
  Ba  Ba9  1  0.014297  0.648933  0.629637  1
  Ba  Ba10  1  0.634636  0.648933  0.370363  1
  Ba  Ba11  1  0.485703  0.351067  0.129637  1
  Ga  Ga12  1  0.916385  0.832771  0.000000  1
  Ga  Ga13  1  0.583615  0.167229  0.500000  1
  Ga  Ga14  1  0.083615  0.167229  0.000000  1
  Ga  Ga15  1  0.416385  0.832771  0.500000  1
  P  P16  1  0.301186  0.000000  0.595098  1
  P  P17  1  0.801186  0.000000  0.904902  1
  P  P18  1  0.198814  0.000000  0.095098  1
  P  P19  1  0.698814  0.000000  0.404902  1
  P  P20  1  0.533921  0.686655  0.616828  1
  P  P21  1  0.347266  0.313345  0.883172  1
  P  P22  1  0.966079  0.313345  0.116828  1
  P  P23  1  0.152734  0.686655  0.383172  1
  P  P24  1  0.466079  0.313345  0.383172  1
  P  P25  1  0.652734  0.686655  0.116828  1
  P  P26  1  0.033921  0.686655  0.883172  1
  P  P27  1  0.847266  0.313345  0.616828  1
