# generated using pymatgen
data_K3Nb2AsSe11
_symmetry_space_group_name_H-M   'P 1'
_cell_length_a   10.14478396
_cell_length_b   10.14478478
_cell_length_c   10.09721122
_cell_angle_alpha   82.85039103
_cell_angle_beta   82.85039033
_cell_angle_gamma   82.47342827
_symmetry_Int_Tables_number   1
_chemical_formula_structural   K3Nb2AsSe11
_chemical_formula_sum   'K6 Nb4 As2 Se22'
_cell_volume   1016.00961756
_cell_formula_units_Z   2
loop_
 _symmetry_equiv_pos_site_id
 _symmetry_equiv_pos_as_xyz
  1  'x, y, z'
loop_
 _atom_site_type_symbol
 _atom_site_label
 _atom_site_symmetry_multiplicity
 _atom_site_fract_x
 _atom_site_fract_y
 _atom_site_fract_z
 _atom_site_occupancy
  K  K0  1  0.055656  0.899414  0.749949  1
  K  K1  1  0.899414  0.055656  0.249949  1
  K  K2  1  0.662771  0.800519  0.916212  1
  K  K3  1  0.800519  0.662771  0.416212  1
  K  K4  1  0.430811  0.272327  0.165235  1
  K  K5  1  0.272327  0.430811  0.665235  1
  Nb  Nb6  1  0.826755  0.410160  0.830671  1
  Nb  Nb7  1  0.410160  0.826755  0.330671  1
  Nb  Nb8  1  0.708967  0.157558  0.646474  1
  Nb  Nb9  1  0.157558  0.708967  0.146474  1
  As  As10  1  0.350991  0.045551  0.597567  1
  As  As11  1  0.045551  0.350991  0.097567  1
  Se  Se12  1  0.740082  0.141439  0.903888  1
  Se  Se13  1  0.141439  0.740082  0.403888  1
  Se  Se14  1  0.943619  0.259167  0.627384  1
  Se  Se15  1  0.259167  0.943619  0.127384  1
  Se  Se16  1  0.640245  0.441073  0.667788  1
  Se  Se17  1  0.441073  0.640245  0.167788  1
  Se  Se18  1  0.507302  0.198743  0.492209  1
  Se  Se19  1  0.198743  0.507302  0.992209  1
  Se  Se20  1  0.032823  0.225677  0.905111  1
  Se  Se21  1  0.225677  0.032823  0.405111  1
  Se  Se22  1  0.518987  0.131539  0.843756  1
  Se  Se23  1  0.131539  0.518987  0.343756  1
  Se  Se24  1  0.814673  0.441707  0.089329  1
  Se  Se25  1  0.441707  0.814673  0.589329  1
  Se  Se26  1  0.574543  0.493234  0.892386  1
  Se  Se27  1  0.493234  0.574543  0.392386  1
  Se  Se28  1  0.815627  0.310652  0.439085  1
  Se  Se29  1  0.310652  0.815627  0.939085  1
  Se  Se30  1  0.942469  0.597178  0.746929  1
  Se  Se31  1  0.597178  0.942469  0.246929  1
  Se  Se32  1  0.785026  0.938335  0.586599  1
  Se  Se33  1  0.938335  0.785026  0.086599  1
