# generated using pymatgen
data_Na2Bi5AuO11
_symmetry_space_group_name_H-M   'P 1'
_cell_length_a   3.91805048
_cell_length_b   12.49570468
_cell_length_c   12.49570468
_cell_angle_alpha   90.00000000
_cell_angle_beta   90.00000000
_cell_angle_gamma   90.00000000
_symmetry_Int_Tables_number   1
_chemical_formula_structural   Na2Bi5AuO11
_chemical_formula_sum   'Na4 Bi10 Au2 O22'
_cell_volume   611.77472777
_cell_formula_units_Z   2
loop_
 _symmetry_equiv_pos_site_id
 _symmetry_equiv_pos_as_xyz
  1  'x, y, z'
loop_
 _atom_site_type_symbol
 _atom_site_label
 _atom_site_symmetry_multiplicity
 _atom_site_fract_x
 _atom_site_fract_y
 _atom_site_fract_z
 _atom_site_occupancy
  Na  Na0  1  0.000000  0.203921  0.296079  1
  Na  Na1  1  0.000000  0.703921  0.203921  1
  Na  Na2  1  0.000000  0.296079  0.796079  1
  Na  Na3  1  0.000000  0.796079  0.703921  1
  Bi  Bi4  1  0.500000  0.730548  0.450607  1
  Bi  Bi5  1  0.500000  0.230548  0.049393  1
  Bi  Bi6  1  0.500000  0.769452  0.950607  1
  Bi  Bi7  1  0.500000  0.269452  0.549393  1
  Bi  Bi8  1  0.500000  0.450607  0.269452  1
  Bi  Bi9  1  0.500000  0.049393  0.769452  1
  Bi  Bi10  1  0.500000  0.549393  0.730548  1
  Bi  Bi11  1  0.000000  0.000000  0.500000  1
  Bi  Bi12  1  0.000000  0.500000  0.000000  1
  Bi  Bi13  1  0.500000  0.950607  0.230548  1
  Au  Au14  1  0.000000  0.000000  0.000000  1
  Au  Au15  1  0.000000  0.500000  0.500000  1
  O  O16  1  0.000000  0.171533  0.496704  1
  O  O17  1  0.000000  0.622202  0.391247  1
  O  O18  1  0.000000  0.496704  0.828467  1
  O  O19  1  0.000000  0.108753  0.877798  1
  O  O20  1  0.000000  0.503296  0.171533  1
  O  O21  1  0.500000  0.788248  0.288248  1
  O  O22  1  0.500000  0.288248  0.211752  1
  O  O23  1  0.000000  0.996704  0.671533  1
  O  O24  1  0.000000  0.877798  0.891247  1
  O  O25  1  0.500000  0.711752  0.788248  1
  O  O26  1  0.000000  0.828467  0.503296  1
  O  O27  1  0.000000  0.377798  0.608753  1
  O  O28  1  0.000000  0.891247  0.122202  1
  O  O29  1  0.500000  0.500000  0.000000  1
  O  O30  1  0.000000  0.391247  0.377798  1
  O  O31  1  0.000000  0.671533  0.003296  1
  O  O32  1  0.000000  0.328467  0.996704  1
  O  O33  1  0.500000  0.211752  0.711752  1
  O  O34  1  0.000000  0.122202  0.108753  1
  O  O35  1  0.500000  0.000000  0.500000  1
  O  O36  1  0.000000  0.003296  0.328467  1
  O  O37  1  0.000000  0.608753  0.622202  1
