# generated using pymatgen
data_NiH32C8S4(NO5)2
_symmetry_space_group_name_H-M   'P 1'
_cell_length_a   10.20624288
_cell_length_b   10.34791754
_cell_length_c   10.68413865
_cell_angle_alpha   90.00000000
_cell_angle_beta   90.00000000
_cell_angle_gamma   109.53621381
_symmetry_Int_Tables_number   1
_chemical_formula_structural   NiH32C8S4(NO5)2
_chemical_formula_sum   'Ni2 H64 C16 S8 N4 O20'
_cell_volume   1063.42685520
_cell_formula_units_Z   2
loop_
 _symmetry_equiv_pos_site_id
 _symmetry_equiv_pos_as_xyz
  1  'x, y, z'
loop_
 _atom_site_type_symbol
 _atom_site_label
 _atom_site_symmetry_multiplicity
 _atom_site_fract_x
 _atom_site_fract_y
 _atom_site_fract_z
 _atom_site_occupancy
  Ni  Ni0  1  0.000000  0.000000  0.000000  1
  Ni  Ni1  1  0.500000  0.500000  0.500000  1
  H  H2  1  0.419524  0.237747  0.530229  1
  H  H3  1  0.978051  0.376116  0.416077  1
  H  H4  1  0.996490  0.171207  0.512571  1
  H  H5  1  0.744677  0.623908  0.597127  1
  H  H6  1  0.684296  0.268326  0.504540  1
  H  H7  1  0.315704  0.731674  0.495460  1
  H  H8  1  0.496490  0.671207  0.987429  1
  H  H9  1  0.447768  0.791284  0.233462  1
  H  H10  1  0.845202  0.501355  0.876194  1
  H  H11  1  0.478051  0.876116  0.083923  1
  H  H12  1  0.465547  0.583118  0.136461  1
  H  H13  1  0.639316  0.149828  0.304720  1
  H  H14  1  0.238657  0.926968  0.756780  1
  H  H15  1  0.226140  0.416714  0.541774  1
  H  H16  1  0.755323  0.876092  0.097127  1
  H  H17  1  0.738657  0.426968  0.743220  1
  H  H18  1  0.534453  0.416882  0.863539  1
  H  H19  1  0.335386  0.770599  0.906838  1
  H  H20  1  0.261343  0.573032  0.256780  1
  H  H21  1  0.379575  0.291766  0.660127  1
  H  H22  1  0.642940  0.488409  0.996861  1
  H  H23  1  0.620425  0.708234  0.339873  1
  H  H24  1  0.857060  0.011591  0.496861  1
  H  H25  1  0.080476  0.262253  0.030229  1
  H  H26  1  0.052232  0.708716  0.733462  1
  H  H27  1  0.580476  0.762253  0.469771  1
  H  H28  1  0.194514  0.612085  0.926119  1
  H  H29  1  0.805486  0.387915  0.073881  1
  H  H30  1  0.120425  0.208234  0.160127  1
  H  H31  1  0.142940  0.988409  0.503139  1
  H  H32  1  0.521949  0.123884  0.916077  1
  H  H33  1  0.664614  0.229401  0.093162  1
  H  H34  1  0.879575  0.791766  0.839873  1
  H  H35  1  0.726140  0.916714  0.958226  1
  H  H36  1  0.139316  0.649828  0.195280  1
  H  H37  1  0.305486  0.887915  0.426119  1
  H  H38  1  0.174175  0.632032  0.672130  1
  H  H39  1  0.674175  0.132032  0.827870  1
  H  H40  1  0.357060  0.511591  0.003139  1
  H  H41  1  0.654798  0.998645  0.376194  1
  H  H42  1  0.034453  0.916882  0.636461  1
  H  H43  1  0.244677  0.123908  0.902873  1
  H  H44  1  0.154798  0.498645  0.123806  1
  H  H45  1  0.360684  0.850172  0.695280  1
  H  H46  1  0.825825  0.367968  0.327870  1
  H  H47  1  0.003510  0.828793  0.487429  1
  H  H48  1  0.273860  0.083286  0.041774  1
  H  H49  1  0.947768  0.291284  0.266538  1
  H  H50  1  0.164614  0.729401  0.406838  1
  H  H51  1  0.761343  0.073032  0.243220  1
  H  H52  1  0.965547  0.083118  0.363539  1
  H  H53  1  0.345202  0.001355  0.623806  1
  H  H54  1  0.919524  0.737747  0.969771  1
  H  H55  1  0.773860  0.583286  0.458226  1
  H  H56  1  0.184296  0.768326  0.995460  1
  H  H57  1  0.815704  0.231674  0.004540  1
  H  H58  1  0.694514  0.112085  0.573881  1
  H  H59  1  0.021949  0.623884  0.583923  1
  H  H60  1  0.552232  0.208716  0.766538  1
  H  H61  1  0.860684  0.350172  0.804720  1
  H  H62  1  0.503510  0.328793  0.012571  1
  H  H63  1  0.255323  0.376092  0.402873  1
  H  H64  1  0.325825  0.867968  0.172130  1
  H  H65  1  0.835386  0.270599  0.593162  1
  C  C66  1  0.752623  0.210507  0.530441  1
  C  C67  1  0.898814  0.314298  0.351058  1
  C  C68  1  0.398814  0.814298  0.148942  1
  C  C69  1  0.289299  0.905775  0.672575  1
  C  C70  1  0.252623  0.710507  0.969559  1
  C  C71  1  0.710701  0.094225  0.327425  1
  C  C72  1  0.601186  0.185702  0.851058  1
  C  C73  1  0.789299  0.405775  0.827425  1
  C  C74  1  0.417869  0.606167  0.051171  1
  C  C75  1  0.582131  0.393833  0.948829  1
  C  C76  1  0.747377  0.289492  0.030441  1
  C  C77  1  0.082131  0.893833  0.551171  1
  C  C78  1  0.247377  0.789493  0.469559  1
  C  C79  1  0.917869  0.106167  0.448829  1
  C  C80  1  0.210701  0.594225  0.172575  1
  C  C81  1  0.101186  0.685702  0.648942  1
  S  S82  1  0.630582  0.784086  0.711045  1
  S  S83  1  0.464035  0.608212  0.698574  1
  S  S84  1  0.130582  0.284086  0.788955  1
  S  S85  1  0.035965  0.891788  0.198574  1
  S  S86  1  0.535965  0.391788  0.301426  1
  S  S87  1  0.369418  0.215914  0.288955  1
  S  S88  1  0.964035  0.108212  0.801426  1
  S  S89  1  0.869418  0.715914  0.211045  1
  N  N90  1  0.179691  0.818601  0.585840  1
  N  N91  1  0.320309  0.681399  0.085840  1
  N  N92  1  0.820309  0.181399  0.414160  1
  N  N93  1  0.679691  0.318601  0.914160  1
  O  O94  1  0.760462  0.746478  0.715472  1
  O  O95  1  0.614458  0.855304  0.827351  1
  O  O96  1  0.954666  0.809231  0.903628  1
  O  O97  1  0.217967  0.048024  0.965314  1
  O  O98  1  0.239538  0.253522  0.284528  1
  O  O99  1  0.260462  0.246478  0.784528  1
  O  O100  1  0.717967  0.548024  0.534686  1
  O  O101  1  0.282033  0.451976  0.465314  1
  O  O102  1  0.545334  0.690769  0.403628  1
  O  O103  1  0.045334  0.190769  0.096372  1
  O  O104  1  0.131870  0.368772  0.901874  1
  O  O105  1  0.385542  0.144696  0.172649  1
  O  O106  1  0.114458  0.355304  0.672649  1
  O  O107  1  0.631870  0.868772  0.598126  1
  O  O108  1  0.368130  0.131228  0.401874  1
  O  O109  1  0.739538  0.753522  0.215472  1
  O  O110  1  0.782033  0.951976  0.034686  1
  O  O111  1  0.454666  0.309231  0.596372  1
  O  O112  1  0.868130  0.631228  0.098126  1
  O  O113  1  0.885542  0.644696  0.327351  1
