# generated using pymatgen
data_Sr2YbRuO6
_symmetry_space_group_name_H-M   'P 1'
_cell_length_a   5.77899696
_cell_length_b   5.86198841
_cell_length_c   8.19950751
_cell_angle_alpha   90.00000000
_cell_angle_beta   90.39461414
_cell_angle_gamma   90.00000000
_symmetry_Int_Tables_number   1
_chemical_formula_structural   Sr2YbRuO6
_chemical_formula_sum   'Sr4 Yb2 Ru2 O12'
_cell_volume   277.76331648
_cell_formula_units_Z   2
loop_
 _symmetry_equiv_pos_site_id
 _symmetry_equiv_pos_as_xyz
  1  'x, y, z'
loop_
 _atom_site_type_symbol
 _atom_site_label
 _atom_site_symmetry_multiplicity
 _atom_site_fract_x
 _atom_site_fract_y
 _atom_site_fract_z
 _atom_site_occupancy
  Yb  Yb0  1  0.500000  0.000000  0.000000  1
  Yb  Yb1  1  0.000000  0.500000  0.500000  1
  Sr  Sr2  1  0.490984  0.542114  0.249842  1
  Sr  Sr3  1  0.009016  0.042114  0.250158  1
  Sr  Sr4  1  0.990984  0.957886  0.749842  1
  Sr  Sr5  1  0.509016  0.457886  0.750158  1
  Ru  Ru6  1  0.000000  0.500000  0.000000  1
  Ru  Ru7  1  0.500000  0.000000  0.500000  1
  O  O8  1  0.689486  0.730416  0.542722  1
  O  O9  1  0.423722  0.020437  0.730007  1
  O  O10  1  0.076278  0.520437  0.769993  1
  O  O11  1  0.576278  0.979563  0.269993  1
  O  O12  1  0.310514  0.269584  0.457278  1
  O  O13  1  0.768473  0.193704  0.539790  1
  O  O14  1  0.731527  0.693704  0.960210  1
  O  O15  1  0.189486  0.769584  0.042722  1
  O  O16  1  0.923722  0.479563  0.230007  1
  O  O17  1  0.810514  0.230416  0.957278  1
  O  O18  1  0.268473  0.306296  0.039790  1
  O  O19  1  0.231527  0.806296  0.460210  1
