# generated using pymatgen
data_GdCuS2
_symmetry_space_group_name_H-M   'P 1'
_cell_length_a   6.44115088
_cell_length_b   6.77023265
_cell_length_c   7.06739000
_cell_angle_alpha   90.00000000
_cell_angle_beta   90.00000000
_cell_angle_gamma   97.74628979
_symmetry_Int_Tables_number   1
_chemical_formula_structural   GdCuS2
_chemical_formula_sum   'Gd4 Cu4 S8'
_cell_volume   305.38298165
_cell_formula_units_Z   4
loop_
 _symmetry_equiv_pos_site_id
 _symmetry_equiv_pos_as_xyz
  1  'x, y, z'
loop_
 _atom_site_type_symbol
 _atom_site_label
 _atom_site_symmetry_multiplicity
 _atom_site_fract_x
 _atom_site_fract_y
 _atom_site_fract_z
 _atom_site_occupancy
  Cu  Cu0  1  0.587058  0.558617  0.844263  1
  Cu  Cu1  1  0.412942  0.941383  0.344263  1
  Cu  Cu2  1  0.412942  0.441383  0.155737  1
  Cu  Cu3  1  0.587058  0.058617  0.655737  1
  Gd  Gd4  1  0.193728  0.802464  0.949836  1
  Gd  Gd5  1  0.806272  0.697536  0.449836  1
  Gd  Gd6  1  0.806272  0.197536  0.050164  1
  Gd  Gd7  1  0.193728  0.302464  0.550164  1
  S  S8  1  0.588073  0.280305  0.383894  1
  S  S9  1  0.411927  0.219695  0.883894  1
  S  S10  1  0.411927  0.719695  0.616106  1
  S  S11  1  0.588073  0.780305  0.116106  1
  S  S12  1  0.923003  0.501936  0.772898  1
  S  S13  1  0.076997  0.998064  0.272898  1
  S  S14  1  0.076997  0.498064  0.227102  1
  S  S15  1  0.923003  0.001936  0.727102  1
