# generated using pymatgen
data_Na2SnSe3
_symmetry_space_group_name_H-M   'P 1'
_cell_length_a   6.25308116
_cell_length_b   7.35229897
_cell_length_c   16.53820183
_cell_angle_alpha   90.00000000
_cell_angle_beta   90.00000000
_cell_angle_gamma   112.72317460
_symmetry_Int_Tables_number   1
_chemical_formula_structural   Na2SnSe3
_chemical_formula_sum   'Na8 Sn4 Se12'
_cell_volume   701.32011599
_cell_formula_units_Z   4
loop_
 _symmetry_equiv_pos_site_id
 _symmetry_equiv_pos_as_xyz
  1  'x, y, z'
loop_
 _atom_site_type_symbol
 _atom_site_label
 _atom_site_symmetry_multiplicity
 _atom_site_fract_x
 _atom_site_fract_y
 _atom_site_fract_z
 _atom_site_occupancy
  Na  Na0  1  0.676340  0.764762  0.025750  1
  Na  Na1  1  0.488237  0.451554  0.333822  1
  Na  Na2  1  0.176340  0.764762  0.474250  1
  Na  Na3  1  0.323660  0.235238  0.974250  1
  Na  Na4  1  0.011763  0.548446  0.833822  1
  Na  Na5  1  0.823660  0.235238  0.525750  1
  Na  Na6  1  0.511763  0.548446  0.666178  1
  Na  Na7  1  0.988237  0.451554  0.166178  1
  Sn  Sn8  1  0.130945  0.956957  0.665969  1
  Sn  Sn9  1  0.630945  0.956957  0.834031  1
  Sn  Sn10  1  0.869055  0.043043  0.334031  1
  Sn  Sn11  1  0.369055  0.043043  0.165969  1
  Se  Se12  1  0.536220  0.593397  0.855712  1
  Se  Se13  1  0.036220  0.593397  0.644288  1
  Se  Se14  1  0.963780  0.406603  0.355712  1
  Se  Se15  1  0.677470  0.802882  0.445916  1
  Se  Se16  1  0.248216  0.018693  0.817432  1
  Se  Se17  1  0.748216  0.018693  0.682568  1
  Se  Se18  1  0.177470  0.802882  0.054084  1
  Se  Se19  1  0.322530  0.197118  0.554084  1
  Se  Se20  1  0.251784  0.981307  0.317432  1
  Se  Se21  1  0.463780  0.406603  0.144288  1
  Se  Se22  1  0.822530  0.197118  0.945916  1
  Se  Se23  1  0.751784  0.981307  0.182568  1
