# generated using pymatgen
data_NdMg2Ni9
_symmetry_space_group_name_H-M   'P 1'
_cell_length_a   8.34153501
_cell_length_b   8.34153535
_cell_length_c   8.34153493
_cell_angle_alpha   34.04610690
_cell_angle_beta   34.04610348
_cell_angle_gamma   34.04610649
_symmetry_Int_Tables_number   1
_chemical_formula_structural   NdMg2Ni9
_chemical_formula_sum   'Nd1 Mg2 Ni9'
_cell_volume   162.17762203
_cell_formula_units_Z   1
loop_
 _symmetry_equiv_pos_site_id
 _symmetry_equiv_pos_as_xyz
  1  'x, y, z'
loop_
 _atom_site_type_symbol
 _atom_site_label
 _atom_site_symmetry_multiplicity
 _atom_site_fract_x
 _atom_site_fract_y
 _atom_site_fract_z
 _atom_site_occupancy
  Nd  Nd0  1  0.000000  0.000000  0.000000  1
  Mg  Mg1  1  0.855540  0.855540  0.855540  1
  Mg  Mg2  1  0.144460  0.144460  0.144460  1
  Ni  Ni3  1  0.917164  0.413565  0.413565  1
  Ni  Ni4  1  0.586435  0.586435  0.082836  1
  Ni  Ni5  1  0.666646  0.666646  0.666646  1
  Ni  Ni6  1  0.413565  0.917164  0.413565  1
  Ni  Ni7  1  0.586435  0.082836  0.586435  1
  Ni  Ni8  1  0.333354  0.333354  0.333354  1
  Ni  Ni9  1  0.500000  0.500000  0.500000  1
  Ni  Ni10  1  0.413565  0.413565  0.917164  1
  Ni  Ni11  1  0.082836  0.586435  0.586435  1
