# generated using pymatgen
data_Cr3B7ClO13
_symmetry_space_group_name_H-M   'P 1'
_cell_length_a   8.68615188
_cell_length_b   8.66643243
_cell_length_c   12.27319727
_cell_angle_alpha   90.00000000
_cell_angle_beta   90.00000000
_cell_angle_gamma   90.00000000
_symmetry_Int_Tables_number   1
_chemical_formula_structural   Cr3B7ClO13
_chemical_formula_sum   'Cr12 B28 Cl4 O52'
_cell_volume   923.90111012
_cell_formula_units_Z   4
loop_
 _symmetry_equiv_pos_site_id
 _symmetry_equiv_pos_as_xyz
  1  'x, y, z'
loop_
 _atom_site_type_symbol
 _atom_site_label
 _atom_site_symmetry_multiplicity
 _atom_site_fract_x
 _atom_site_fract_y
 _atom_site_fract_z
 _atom_site_occupancy
  Cr  Cr0  1  0.997211  0.496665  0.997691  1
  Cr  Cr1  1  0.001885  0.997708  0.498387  1
  Cr  Cr2  1  0.248947  0.750407  0.255613  1
  Cr  Cr3  1  0.998115  0.002292  0.998387  1
  Cr  Cr4  1  0.002789  0.503335  0.497691  1
  Cr  Cr5  1  0.498115  0.997708  0.998387  1
  Cr  Cr6  1  0.502789  0.496665  0.497691  1
  Cr  Cr7  1  0.501885  0.002292  0.498387  1
  Cr  Cr8  1  0.751053  0.249593  0.755613  1
  Cr  Cr9  1  0.251053  0.750407  0.755613  1
  Cr  Cr10  1  0.497211  0.503335  0.997691  1
  Cr  Cr11  1  0.748947  0.249593  0.255613  1
  B  B12  1  0.499587  0.499636  0.247926  1
  B  B13  1  0.749680  0.749667  0.498378  1
  B  B14  1  0.250788  0.089559  0.668417  1
  B  B15  1  0.000989  0.999529  0.748355  1
  B  B16  1  0.749620  0.587538  0.167474  1
  B  B17  1  0.249680  0.250333  0.498378  1
  B  B18  1  0.499011  0.999529  0.248355  1
  B  B19  1  0.999587  0.500364  0.247926  1
  B  B20  1  0.750788  0.910441  0.668417  1
  B  B21  1  0.750380  0.587538  0.667474  1
  B  B22  1  0.250320  0.250333  0.998378  1
  B  B23  1  0.590111  0.749646  0.328420  1
  B  B24  1  0.000413  0.499636  0.747926  1
  B  B25  1  0.999011  0.000471  0.248355  1
  B  B26  1  0.750320  0.749667  0.998378  1
  B  B27  1  0.409889  0.250354  0.828420  1
  B  B28  1  0.092463  0.249673  0.827525  1
  B  B29  1  0.592463  0.750327  0.827525  1
  B  B30  1  0.749212  0.910441  0.168417  1
  B  B31  1  0.090111  0.250354  0.328420  1
  B  B32  1  0.907537  0.750327  0.327525  1
  B  B33  1  0.249620  0.412463  0.167474  1
  B  B34  1  0.500413  0.500364  0.747926  1
  B  B35  1  0.249212  0.089559  0.168417  1
  B  B36  1  0.250380  0.412463  0.667474  1
  B  B37  1  0.407537  0.249673  0.327525  1
  B  B38  1  0.909889  0.749646  0.828420  1
  B  B39  1  0.500989  0.000471  0.748355  1
  Cl  Cl40  1  0.755219  0.250173  0.991806  1
  Cl  Cl41  1  0.244781  0.749827  0.491806  1
  Cl  Cl42  1  0.255219  0.749827  0.991806  1
  Cl  Cl43  1  0.744781  0.250173  0.491806  1
  O  O44  1  0.091382  0.048855  0.652651  1
  O  O45  1  0.525959  0.166370  0.768848  1
  O  O46  1  0.909909  0.548880  0.652142  1
  O  O47  1  0.825615  0.865335  0.568471  1
  O  O48  1  0.633362  0.824974  0.428764  1
  O  O49  1  0.051266  0.089770  0.843864  1
  O  O50  1  0.090091  0.451120  0.152142  1
  O  O51  1  0.908618  0.951145  0.152651  1
  O  O52  1  0.409909  0.451120  0.652142  1
  O  O53  1  0.335587  0.974238  0.728043  1
  O  O54  1  0.334041  0.526659  0.227839  1
  O  O55  1  0.551266  0.910230  0.843864  1
  O  O56  1  0.550216  0.589515  0.343591  1
  O  O57  1  0.133362  0.175026  0.428764  1
  O  O58  1  0.364870  0.325535  0.427916  1
  O  O59  1  0.524055  0.333714  0.268059  1
  O  O60  1  0.975945  0.333714  0.768059  1
  O  O61  1  0.250424  0.249561  0.748806  1
  O  O62  1  0.475945  0.666286  0.768059  1
  O  O63  1  0.591382  0.951145  0.652651  1
  O  O64  1  0.135130  0.325535  0.927916  1
  O  O65  1  0.750424  0.750439  0.748806  1
  O  O66  1  0.974041  0.166370  0.268848  1
  O  O67  1  0.664413  0.025762  0.228043  1
  O  O68  1  0.866638  0.824974  0.928764  1
  O  O69  1  0.749576  0.750439  0.248806  1
  O  O70  1  0.024055  0.666286  0.268059  1
  O  O71  1  0.165959  0.526659  0.727839  1
  O  O72  1  0.408618  0.048855  0.152651  1
  O  O73  1  0.448734  0.089770  0.343864  1
  O  O74  1  0.164413  0.974238  0.228043  1
  O  O75  1  0.834041  0.473341  0.227839  1
  O  O76  1  0.864869  0.674465  0.427916  1
  O  O77  1  0.674716  0.633093  0.568314  1
  O  O78  1  0.025959  0.833630  0.768848  1
  O  O79  1  0.325615  0.134665  0.568471  1
  O  O80  1  0.674385  0.865335  0.068471  1
  O  O81  1  0.665959  0.473341  0.727839  1
  O  O82  1  0.050216  0.410485  0.343591  1
  O  O83  1  0.174385  0.134665  0.068471  1
  O  O84  1  0.825284  0.633093  0.068314  1
  O  O85  1  0.366638  0.175026  0.928764  1
  O  O86  1  0.174716  0.366907  0.568314  1
  O  O87  1  0.635131  0.674465  0.927916  1
  O  O88  1  0.949784  0.589515  0.843591  1
  O  O89  1  0.325284  0.366907  0.068314  1
  O  O90  1  0.590091  0.548880  0.152142  1
  O  O91  1  0.835587  0.025762  0.728043  1
  O  O92  1  0.948734  0.910230  0.343864  1
  O  O93  1  0.249576  0.249561  0.248806  1
  O  O94  1  0.449784  0.410485  0.843591  1
  O  O95  1  0.474041  0.833630  0.268848  1
