# generated using pymatgen
data_Si2H15C5N
_symmetry_space_group_name_H-M   'P 1'
_cell_length_a   6.85681757
_cell_length_b   11.36158893
_cell_length_c   13.48517709
_cell_angle_alpha   90.00000000
_cell_angle_beta   90.00000000
_cell_angle_gamma   104.12929054
_symmetry_Int_Tables_number   1
_chemical_formula_structural   Si2H15C5N
_chemical_formula_sum   'Si8 H60 C20 N4'
_cell_volume   1018.77181664
_cell_formula_units_Z   4
loop_
 _symmetry_equiv_pos_site_id
 _symmetry_equiv_pos_as_xyz
  1  'x, y, z'
loop_
 _atom_site_type_symbol
 _atom_site_label
 _atom_site_symmetry_multiplicity
 _atom_site_fract_x
 _atom_site_fract_y
 _atom_site_fract_z
 _atom_site_occupancy
  Si  Si0  1  0.988645  0.759554  0.000754  1
  Si  Si1  1  0.941244  0.491177  0.911861  1
  Si  Si2  1  0.511355  0.740446  0.500754  1
  Si  Si3  1  0.558756  0.008823  0.411861  1
  Si  Si4  1  0.011355  0.240446  0.999246  1
  Si  Si5  1  0.441244  0.991177  0.588139  1
  Si  Si6  1  0.058756  0.508823  0.088139  1
  Si  Si7  1  0.488645  0.259554  0.499246  1
  H  H8  1  0.561605  0.102316  0.744264  1
  H  H9  1  0.235551  0.937036  0.319645  1
  H  H10  1  0.641032  0.734118  0.327367  1
  H  H11  1  0.746217  0.744065  0.643161  1
  H  H12  1  0.590792  0.951927  0.750201  1
  H  H13  1  0.264449  0.562964  0.819645  1
  H  H14  1  0.754138  0.451619  0.527761  1
  H  H15  1  0.189431  0.114599  0.099948  1
  H  H16  1  0.931604  0.083905  0.431436  1
  H  H17  1  0.492464  0.707966  0.684713  1
  H  H18  1  0.310569  0.385401  0.599948  1
  H  H19  1  0.344369  0.647463  0.175554  1
  H  H20  1  0.568396  0.416096  0.931436  1
  H  H21  1  0.764449  0.062964  0.680355  1
  H  H22  1  0.870948  0.996437  0.321066  1
  H  H23  1  0.007536  0.792034  0.184713  1
  H  H24  1  0.629052  0.503563  0.821066  1
  H  H25  1  0.507536  0.292034  0.315287  1
  H  H26  1  0.438395  0.897684  0.255736  1
  H  H27  1  0.689431  0.614599  0.400052  1
  H  H28  1  0.938395  0.397684  0.244264  1
  H  H29  1  0.358968  0.265882  0.672633  1
  H  H30  1  0.245862  0.548381  0.472239  1
  H  H31  1  0.358150  0.840850  0.030244  1
  H  H32  1  0.910262  0.904335  0.124979  1
  H  H33  1  0.370948  0.496437  0.178934  1
  H  H34  1  0.655631  0.352537  0.824446  1
  H  H35  1  0.409208  0.048073  0.249799  1
  H  H36  1  0.068396  0.916095  0.568564  1
  H  H37  1  0.858968  0.765882  0.827367  1
  H  H38  1  0.810569  0.885401  0.900052  1
  H  H39  1  0.735551  0.437036  0.180355  1
  H  H40  1  0.992464  0.207966  0.815287  1
  H  H41  1  0.129052  0.003563  0.678934  1
  H  H42  1  0.254138  0.951619  0.972239  1
  H  H43  1  0.589738  0.595665  0.624980  1
  H  H44  1  0.061605  0.602316  0.755736  1
  H  H45  1  0.253783  0.255935  0.356839  1
  H  H46  1  0.141032  0.234118  0.172633  1
  H  H47  1  0.304479  0.830650  0.901351  1
  H  H48  1  0.431604  0.583905  0.068564  1
  H  H49  1  0.155631  0.852537  0.675554  1
  H  H50  1  0.842020  0.764115  0.414292  1
  H  H51  1  0.657980  0.735885  0.914292  1
  H  H52  1  0.141850  0.659150  0.530244  1
  H  H53  1  0.410262  0.404335  0.375020  1
  H  H54  1  0.089738  0.095665  0.875020  1
  H  H55  1  0.090792  0.451927  0.749799  1
  H  H56  1  0.745862  0.048381  0.027761  1
  H  H57  1  0.844369  0.147463  0.324446  1
  H  H58  1  0.909208  0.548073  0.250201  1
  H  H59  1  0.195521  0.669350  0.401351  1
  H  H60  1  0.157980  0.235885  0.585708  1
  H  H61  1  0.342020  0.264115  0.085708  1
  H  H62  1  0.641850  0.159150  0.969756  1
  H  H63  1  0.858150  0.340850  0.469756  1
  H  H64  1  0.246217  0.244065  0.856839  1
  H  H65  1  0.695521  0.169350  0.098649  1
  H  H66  1  0.753783  0.755935  0.143161  1
  H  H67  1  0.804479  0.330650  0.598649  1
  C  C68  1  0.187010  0.211058  0.098424  1
  C  C69  1  0.249988  0.854183  0.973648  1
  C  C70  1  0.407369  0.307068  0.375164  1
  C  C71  1  0.173689  0.935991  0.631263  1
  C  C72  1  0.250012  0.645817  0.473648  1
  C  C73  1  0.749988  0.354183  0.526352  1
  C  C74  1  0.394763  0.969293  0.299160  1
  C  C75  1  0.750012  0.145817  0.026352  1
  C  C76  1  0.894763  0.469293  0.200840  1
  C  C77  1  0.326311  0.564009  0.131263  1
  C  C78  1  0.092631  0.192932  0.875164  1
  C  C79  1  0.105237  0.530707  0.799160  1
  C  C80  1  0.812990  0.788942  0.901576  1
  C  C81  1  0.605237  0.030707  0.700840  1
  C  C82  1  0.907369  0.807068  0.124836  1
  C  C83  1  0.673689  0.435991  0.868737  1
  C  C84  1  0.826311  0.064009  0.368737  1
  C  C85  1  0.592631  0.692932  0.624836  1
  C  C86  1  0.312990  0.288942  0.598424  1
  C  C87  1  0.687010  0.711058  0.401576  1
  N  N88  1  0.482093  0.105789  0.497262  1
  N  N89  1  0.517907  0.894211  0.502738  1
  N  N90  1  0.017907  0.394211  0.997262  1
  N  N91  1  0.982093  0.605789  0.002738  1
