# generated using pymatgen
data_Mg2GeB2Rh5
_symmetry_space_group_name_H-M   'P 1'
_cell_length_a   2.93730291
_cell_length_b   9.42012054
_cell_length_c   9.42012054
_cell_angle_alpha   90.00000000
_cell_angle_beta   90.00000000
_cell_angle_gamma   90.00000000
_symmetry_Int_Tables_number   1
_chemical_formula_structural   Mg2GeB2Rh5
_chemical_formula_sum   'Mg4 Ge2 B4 Rh10'
_cell_volume   260.65235652
_cell_formula_units_Z   2
loop_
 _symmetry_equiv_pos_site_id
 _symmetry_equiv_pos_as_xyz
  1  'x, y, z'
loop_
 _atom_site_type_symbol
 _atom_site_label
 _atom_site_symmetry_multiplicity
 _atom_site_fract_x
 _atom_site_fract_y
 _atom_site_fract_z
 _atom_site_occupancy
  Rh  Rh0  1  0.500000  0.213616  0.072067  1
  Rh  Rh1  1  0.500000  0.927933  0.213616  1
  Rh  Rh2  1  0.500000  0.072067  0.786384  1
  Rh  Rh3  1  0.500000  0.786384  0.927933  1
  Rh  Rh4  1  0.500000  0.713616  0.427933  1
  Rh  Rh5  1  0.500000  0.286384  0.572067  1
  Rh  Rh6  1  0.500000  0.572067  0.713616  1
  Rh  Rh7  1  0.500000  0.427933  0.286384  1
  Rh  Rh8  1  0.500000  0.000000  0.500000  1
  Rh  Rh9  1  0.500000  0.500000  0.000000  1
  Mg  Mg10  1  0.000000  0.325335  0.825335  1
  Mg  Mg11  1  0.000000  0.174665  0.325335  1
  Mg  Mg12  1  0.000000  0.825335  0.674665  1
  Mg  Mg13  1  0.000000  0.674665  0.174665  1
  B  B14  1  0.000000  0.125254  0.625254  1
  B  B15  1  0.000000  0.374746  0.125254  1
  B  B16  1  0.000000  0.625254  0.874746  1
  B  B17  1  0.000000  0.874746  0.374746  1
  Ge  Ge18  1  0.000000  0.000000  0.000000  1
  Ge  Ge19  1  0.000000  0.500000  0.500000  1
