# generated using pymatgen
data_Nd9Ti10O30
_symmetry_space_group_name_H-M   'P 1'
_cell_length_a   27.52633834
_cell_length_b   7.87592459
_cell_length_c   9.57331487
_cell_angle_alpha   66.26150537
_cell_angle_beta   54.89918288
_cell_angle_gamma   45.57594683
_symmetry_Int_Tables_number   1
_chemical_formula_structural   Nd9Ti10O30
_chemical_formula_sum   'Nd18 Ti20 O60'
_cell_volume   1212.68435690
_cell_formula_units_Z   2
loop_
 _symmetry_equiv_pos_site_id
 _symmetry_equiv_pos_as_xyz
  1  'x, y, z'
loop_
 _atom_site_type_symbol
 _atom_site_label
 _atom_site_symmetry_multiplicity
 _atom_site_fract_x
 _atom_site_fract_y
 _atom_site_fract_z
 _atom_site_occupancy
  Nd  Nd0  1  0.134180  0.060428  0.247900  1
  Nd  Nd1  1  0.054917  0.454077  0.756240  1
  Nd  Nd2  1  0.142861  0.546753  0.249027  1
  Nd  Nd3  1  0.341290  0.043819  0.242994  1
  Nd  Nd4  1  0.061199  0.951587  0.749382  1
  Nd  Nd5  1  0.260276  0.447027  0.751675  1
  Nd  Nd6  1  0.343486  0.544063  0.247444  1
  Nd  Nd7  1  0.536375  0.050389  0.254696  1
  Nd  Nd8  1  0.261296  0.958492  0.752705  1
  Nd  Nd9  1  0.458696  0.444219  0.749255  1
  Nd  Nd10  1  0.542019  0.544818  0.251206  1
  Nd  Nd11  1  0.739545  0.045634  0.253490  1
  Nd  Nd12  1  0.655442  0.458934  0.746572  1
  Nd  Nd13  1  0.743926  0.541565  0.252003  1
  Nd  Nd14  1  0.938334  0.047544  0.250399  1
  Nd  Nd15  1  0.659810  0.959972  0.749982  1
  Nd  Nd16  1  0.859671  0.447222  0.747035  1
  Nd  Nd17  1  0.861413  0.951845  0.748696  1
  O  O18  1  0.082891  0.277859  0.029477  1
  O  O19  1  0.069153  0.486815  0.250298  1
  O  O20  1  0.008636  0.210689  0.954694  1
  O  O21  1  0.090826  0.213943  0.545826  1
  O  O22  1  0.009695  0.705075  0.544299  1
  O  O23  1  0.039862  0.969753  0.249069  1
  O  O24  1  0.163925  0.017263  0.747008  1
  O  O25  1  0.275730  0.287838  0.042585  1
  O  O26  1  0.194007  0.286901  0.452820  1
  O  O27  1  0.191944  0.786058  0.045953  1
  O  O28  1  0.110132  0.788192  0.454595  1
  O  O29  1  0.129796  0.519282  0.747779  1
  O  O30  1  0.269725  0.479142  0.250824  1
  O  O31  1  0.291234  0.209222  0.540411  1
  O  O32  1  0.206989  0.213833  0.960769  1
  O  O33  1  0.208346  0.706877  0.544964  1
  O  O34  1  0.127959  0.705249  0.951854  1
  O  O35  1  0.235874  0.978112  0.250286  1
  O  O36  1  0.356743  0.015896  0.750754  1
  O  O37  1  0.476370  0.285631  0.045336  1
  O  O38  1  0.391654  0.290553  0.457704  1
  O  O39  1  0.389104  0.778150  0.053968  1
  O  O40  1  0.309673  0.789968  0.451980  1
  O  O41  1  0.328421  0.531697  0.749652  1
  O  O42  1  0.468906  0.482541  0.248380  1
  O  O43  1  0.494023  0.224120  0.528558  1
  O  O44  1  0.406231  0.222413  0.970677  1
  O  O45  1  0.407174  0.710427  0.542800  1
  O  O46  1  0.324476  0.710406  0.956508  1
  O  O47  1  0.437535  0.977797  0.252466  1
  O  O48  1  0.562722  0.013728  0.750536  1
  O  O49  1  0.675045  0.288448  0.046657  1
  O  O50  1  0.594571  0.284795  0.455809  1
  O  O51  1  0.591282  0.792748  0.047019  1
  O  O52  1  0.511604  0.776839  0.445860  1
  O  O53  1  0.535629  0.492978  0.749620  1
  O  O54  1  0.671901  0.474541  0.249185  1
  O  O55  1  0.691626  0.208167  0.541851  1
  O  O56  1  0.607835  0.208759  0.959836  1
  O  O57  1  0.616606  0.694712  0.526853  1
  O  O58  1  0.527698  0.694370  0.973287  1
  O  O59  1  0.638362  0.975730  0.248387  1
  O  O60  1  0.759792  0.030240  0.751569  1
  O  O61  1  0.789841  0.293293  0.463221  1
  O  O62  1  0.875010  0.293709  0.035351  1
  O  O63  1  0.707906  0.796201  0.456901  1
  O  O64  1  0.790871  0.794297  0.042866  1
  O  O65  1  0.726228  0.527486  0.751213  1
  O  O66  1  0.863371  0.481188  0.251303  1
  O  O67  1  0.890586  0.212329  0.544722  1
  O  O68  1  0.808663  0.212764  0.953473  1
  O  O69  1  0.800341  0.722050  0.558411  1
  O  O70  1  0.725804  0.709953  0.954707  1
  O  O71  1  0.834755  0.004104  0.250391  1
  O  O72  1  0.962876  0.014915  0.749953  1
  O  O73  1  0.995139  0.277614  0.470999  1
  O  O74  1  0.905927  0.808940  0.472403  1
  O  O75  1  0.994739  0.810016  0.027479  1
  O  O76  1  0.928253  0.524161  0.751570  1
  O  O77  1  0.922387  0.721427  0.946755  1
  Ti  Ti78  1  0.099751  0.004373  0.000159  1
  Ti  Ti79  1  0.000025  0.004866  0.497792  1
  Ti  Ti80  1  0.096487  0.503117  0.002344  1
  Ti  Ti81  1  0.997793  0.502866  0.497486  1
  Ti  Ti82  1  0.302854  0.996438  0.994609  1
  Ti  Ti83  1  0.200469  -0.000692  0.498690  1
  Ti  Ti84  1  0.302457  0.494211  0.998085  1
  Ti  Ti85  1  0.200537  0.498615  0.498785  1
  Ti  Ti86  1  0.498876  0.997345  0.997553  1
  Ti  Ti87  1  0.400864  0.995391  0.506568  1
  Ti  Ti88  1  0.498892  0.510012  0.994146  1
  Ti  Ti89  1  0.401093  0.496077  0.501597  1
  Ti  Ti90  1  0.597428  0.998288  0.502305  1
  Ti  Ti91  1  0.699626  1.000675  0.000874  1
  Ti  Ti92  1  0.700074  0.500681  0.999633  1
  Ti  Ti93  1  0.596707  0.509770  0.504852  1
  Ti  Ti94  1  0.901007  0.990237  0.005509  1
  Ti  Ti95  1  0.803026  0.990387  0.495219  1
  Ti  Ti96  1  0.801304  0.503845  0.495738  1
  Ti  Ti97  1  0.899029  0.502905  0.006875  1
