# generated using pymatgen
data_Nd2W2O9
_symmetry_space_group_name_H-M   'P 1'
_cell_length_a   7.78981641
_cell_length_b   9.37075380
_cell_length_c   10.00268531
_cell_angle_alpha   90.00000000
_cell_angle_beta   90.00000000
_cell_angle_gamma   107.72824990
_symmetry_Int_Tables_number   1
_chemical_formula_structural   Nd2W2O9
_chemical_formula_sum   'Nd8 W8 O36'
_cell_volume   695.48627860
_cell_formula_units_Z   4
loop_
 _symmetry_equiv_pos_site_id
 _symmetry_equiv_pos_as_xyz
  1  'x, y, z'
loop_
 _atom_site_type_symbol
 _atom_site_label
 _atom_site_symmetry_multiplicity
 _atom_site_fract_x
 _atom_site_fract_y
 _atom_site_fract_z
 _atom_site_occupancy
  Nd  Nd0  1  0.712573  0.425292  0.449308  1
  Nd  Nd1  1  0.712573  0.925292  0.050692  1
  Nd  Nd2  1  0.226555  0.152312  0.554575  1
  Nd  Nd3  1  0.773445  0.347688  0.054575  1
  Nd  Nd4  1  0.226555  0.652312  0.945425  1
  Nd  Nd5  1  0.773445  0.847688  0.445425  1
  Nd  Nd6  1  0.287427  0.074708  0.949308  1
  Nd  Nd7  1  0.287427  0.574708  0.550692  1
  W  W8  1  0.071606  0.738229  0.251058  1
  W  W9  1  0.578701  0.966454  0.730471  1
  W  W10  1  0.928394  0.261771  0.748942  1
  W  W11  1  0.578701  0.466454  0.769529  1
  W  W12  1  0.071606  0.238229  0.248942  1
  W  W13  1  0.928394  0.761771  0.751058  1
  W  W14  1  0.421299  0.033546  0.269529  1
  W  W15  1  0.421299  0.533546  0.230471  1
  O  O16  1  0.056370  0.346377  0.592200  1
  O  O17  1  0.734821  0.638153  0.634407  1
  O  O18  1  0.265179  0.861847  0.134407  1
  O  O19  1  0.409677  0.069815  0.708123  1
  O  O20  1  0.554249  0.608807  0.395910  1
  O  O21  1  0.590323  0.930185  0.291877  1
  O  O22  1  0.006007  0.903813  0.618387  1
  O  O23  1  0.774667  0.082513  0.622278  1
  O  O24  1  0.898272  0.836906  0.217449  1
  O  O25  1  0.898272  0.336906  0.282551  1
  O  O26  1  0.445751  0.391193  0.604090  1
  O  O27  1  0.554249  0.108807  0.104090  1
  O  O28  1  0.774667  0.582513  0.877722  1
  O  O29  1  0.943630  0.153623  0.092200  1
  O  O30  1  0.943630  0.653623  0.407800  1
  O  O31  1  0.225333  0.417487  0.122278  1
  O  O32  1  0.499024  0.175538  0.402329  1
  O  O33  1  0.225333  0.917487  0.377722  1
  O  O34  1  0.499024  0.675538  0.097671  1
  O  O35  1  0.500976  0.824462  0.597671  1
  O  O36  1  0.993993  0.596187  0.118387  1
  O  O37  1  0.056370  0.846377  0.907800  1
  O  O38  1  0.744029  0.360986  0.685236  1
  O  O39  1  0.590323  0.430185  0.208123  1
  O  O40  1  0.734821  0.138153  0.865593  1
  O  O41  1  0.265179  0.361847  0.365593  1
  O  O42  1  0.255971  0.639014  0.314764  1
  O  O43  1  0.500976  0.324462  0.902329  1
  O  O44  1  0.744029  0.860986  0.814764  1
  O  O45  1  0.445751  0.891193  0.895910  1
  O  O46  1  0.409677  0.569815  0.791877  1
  O  O47  1  0.006007  0.403813  0.881613  1
  O  O48  1  0.101728  0.663094  0.717449  1
  O  O49  1  0.993993  0.096187  0.381613  1
  O  O50  1  0.101728  0.163094  0.782551  1
  O  O51  1  0.255971  0.139014  0.185236  1
