# generated using pymatgen
data_Cs7Np3(Cl2O)6
_symmetry_space_group_name_H-M   'P 1'
_cell_length_a   13.30322434
_cell_length_b   13.30322492
_cell_length_c   13.30322446
_cell_angle_alpha   109.47122153
_cell_angle_beta   109.47122245
_cell_angle_gamma   109.47121795
_symmetry_Int_Tables_number   1
_chemical_formula_structural   Cs7Np3(Cl2O)6
_chemical_formula_sum   'Cs14 Np6 Cl24 O12'
_cell_volume   1812.37839645
_cell_formula_units_Z   2
loop_
 _symmetry_equiv_pos_site_id
 _symmetry_equiv_pos_as_xyz
  1  'x, y, z'
loop_
 _atom_site_type_symbol
 _atom_site_label
 _atom_site_symmetry_multiplicity
 _atom_site_fract_x
 _atom_site_fract_y
 _atom_site_fract_z
 _atom_site_occupancy
  Cs  Cs0  1  0.125000  0.750000  0.875000  1
  Cs  Cs1  1  0.875000  0.125000  0.750000  1
  Cs  Cs2  1  1.000000  0.796176  0.500000  1
  Cs  Cs3  1  0.796176  0.500000  0.000000  1
  Cs  Cs4  1  0.203824  0.203824  0.203824  1
  Cs  Cs5  1  0.500000  0.000000  0.296176  1
  Cs  Cs6  1  0.250000  0.625000  0.375000  1
  Cs  Cs7  1  0.296176  0.500000  0.000000  1
  Cs  Cs8  1  0.750000  0.875000  0.125000  1
  Cs  Cs9  1  0.375000  0.250000  0.625000  1
  Cs  Cs10  1  0.625000  0.375000  0.250000  1
  Cs  Cs11  1  0.500000  0.000000  0.796176  1
  Cs  Cs12  1  1.000000  0.296176  0.500000  1
  Cs  Cs13  1  0.703824  0.703824  0.703824  1
  Np  Np14  1  0.875000  0.250000  0.125000  1
  Np  Np15  1  0.250000  0.125000  0.875000  1
  Np  Np16  1  0.375000  0.625000  0.750000  1
  Np  Np17  1  0.750000  0.375000  0.625000  1
  Np  Np18  1  0.125000  0.875000  0.250000  1
  Np  Np19  1  0.625000  0.750000  0.375000  1
  Cl  Cl20  1  0.954773  0.810973  0.025662  1
  Cl  Cl21  1  0.474338  0.285311  0.929111  1
  Cl  Cl22  1  0.856200  0.545227  0.570889  1
  Cl  Cl23  1  0.929111  0.474338  0.285311  1
  Cl  Cl24  1  0.643800  0.214689  0.689027  1
  Cl  Cl25  1  0.974338  0.429111  0.785311  1
  Cl  Cl26  1  0.310973  0.454773  0.525662  1
  Cl  Cl27  1  0.025662  0.954773  0.810973  1
  Cl  Cl28  1  0.214689  0.689027  0.643800  1
  Cl  Cl29  1  0.285311  0.929111  0.474338  1
  Cl  Cl30  1  0.070889  0.045227  0.356200  1
  Cl  Cl31  1  0.545227  0.570889  0.856200  1
  Cl  Cl32  1  0.689027  0.643800  0.214689  1
  Cl  Cl33  1  0.045227  0.356200  0.070889  1
  Cl  Cl34  1  0.525662  0.310973  0.454773  1
  Cl  Cl35  1  0.570889  0.856200  0.545227  1
  Cl  Cl36  1  0.429111  0.785311  0.974338  1
  Cl  Cl37  1  0.143800  0.189027  0.714689  1
  Cl  Cl38  1  0.810973  0.025662  0.954773  1
  Cl  Cl39  1  0.356200  0.070889  0.045227  1
  Cl  Cl40  1  0.189027  0.714689  0.143800  1
  Cl  Cl41  1  0.454773  0.525662  0.310973  1
  Cl  Cl42  1  0.714689  0.143800  0.189027  1
  Cl  Cl43  1  0.785311  0.974338  0.429111  1
  O  O44  1  0.250000  0.007098  0.757098  1
  O  O45  1  0.242902  0.992902  0.250000  1
  O  O46  1  0.742902  0.750000  0.492902  1
  O  O47  1  0.257098  0.507098  0.750000  1
  O  O48  1  0.757098  0.250000  0.007098  1
  O  O49  1  0.250000  0.242902  0.992902  1
  O  O50  1  0.492902  0.742902  0.750000  1
  O  O51  1  0.507098  0.750000  0.257098  1
  O  O52  1  0.007098  0.757098  0.250000  1
  O  O53  1  0.750000  0.257098  0.507098  1
  O  O54  1  0.750000  0.492902  0.742902  1
  O  O55  1  0.992902  0.250000  0.242902  1
