# generated using pymatgen
data_K2ZrSi2O7
_symmetry_space_group_name_H-M   'P 1'
_cell_length_a   5.64516322
_cell_length_b   9.70797753
_cell_length_c   13.20487556
_cell_angle_alpha   104.11585739
_cell_angle_beta   90.00000000
_cell_angle_gamma   90.00000000
_symmetry_Int_Tables_number   1
_chemical_formula_structural   K2ZrSi2O7
_chemical_formula_sum   'K8 Zr4 Si8 O28'
_cell_volume   701.81686139
_cell_formula_units_Z   4
loop_
 _symmetry_equiv_pos_site_id
 _symmetry_equiv_pos_as_xyz
  1  'x, y, z'
loop_
 _atom_site_type_symbol
 _atom_site_label
 _atom_site_symmetry_multiplicity
 _atom_site_fract_x
 _atom_site_fract_y
 _atom_site_fract_z
 _atom_site_occupancy
  K  K0  1  0.246367  0.391646  0.428620  1
  K  K1  1  0.756865  0.884872  0.401530  1
  K  K2  1  0.746367  0.108354  0.071380  1
  K  K3  1  0.253633  0.891646  0.928620  1
  K  K4  1  0.753633  0.608354  0.571380  1
  K  K5  1  0.243135  0.115127  0.598470  1
  K  K6  1  0.256865  0.615128  0.098470  1
  K  K7  1  0.743135  0.384873  0.901530  1
  Zr  Zr8  1  0.756575  0.005212  0.770367  1
  Zr  Zr9  1  0.256575  0.494788  0.729633  1
  Zr  Zr10  1  0.243425  0.994788  0.229633  1
  Zr  Zr11  1  0.743425  0.505212  0.270367  1
  Si  Si12  1  0.263565  0.803946  0.629333  1
  Si  Si13  1  0.236435  0.303946  0.129333  1
  Si  Si14  1  0.763565  0.696054  0.870667  1
  Si  Si15  1  0.736435  0.196054  0.370667  1
  Si  Si16  1  0.251635  0.721867  0.386270  1
  Si  Si17  1  0.248365  0.221867  0.886270  1
  Si  Si18  1  0.748365  0.278133  0.613730  1
  Si  Si19  1  0.751635  0.778133  0.113730  1
  O  O20  1  0.217520  0.822264  0.507843  1
  O  O21  1  0.996431  0.137627  0.880283  1
  O  O22  1  0.525214  0.885780  0.137521  1
  O  O23  1  0.749320  0.864256  0.872268  1
  O  O24  1  0.474786  0.114220  0.862479  1
  O  O25  1  0.503569  0.637627  0.380283  1
  O  O26  1  0.974786  0.385781  0.637521  1
  O  O27  1  0.750680  0.364256  0.372268  1
  O  O28  1  0.254239  0.337973  0.814947  1
  O  O29  1  0.717520  0.677736  0.992157  1
  O  O30  1  0.496431  0.362373  0.619717  1
  O  O31  1  0.025214  0.614220  0.362479  1
  O  O32  1  0.051920  0.898519  0.696267  1
  O  O33  1  0.745761  0.662027  0.185053  1
  O  O34  1  0.782480  0.177736  0.492157  1
  O  O35  1  0.245761  0.837973  0.314947  1
  O  O36  1  0.023905  0.626441  0.835468  1
  O  O37  1  0.948080  0.101481  0.303733  1
  O  O38  1  0.523905  0.873559  0.664532  1
  O  O39  1  0.250680  0.135744  0.127732  1
  O  O40  1  0.754239  0.162027  0.685053  1
  O  O41  1  0.249320  0.635744  0.627732  1
  O  O42  1  0.282480  0.322264  0.007843  1
  O  O43  1  0.976095  0.373559  0.164532  1
  O  O44  1  0.476095  0.126441  0.335468  1
  O  O45  1  0.448080  0.398519  0.196267  1
  O  O46  1  0.003569  0.862373  0.119717  1
  O  O47  1  0.551920  0.601481  0.803733  1
