# generated using pymatgen
data_SbSe2S(NF3)2
_symmetry_space_group_name_H-M   'P 1'
_cell_length_a   10.18365715
_cell_length_b   10.81716921
_cell_length_c   16.97579612
_cell_angle_alpha   90.00000000
_cell_angle_beta   90.00000000
_cell_angle_gamma   97.73047768
_symmetry_Int_Tables_number   1
_chemical_formula_structural   SbSe2S(NF3)2
_chemical_formula_sum   'Sb8 Se16 S8 N16 F48'
_cell_volume   1853.03037533
_cell_formula_units_Z   8
loop_
 _symmetry_equiv_pos_site_id
 _symmetry_equiv_pos_as_xyz
  1  'x, y, z'
loop_
 _atom_site_type_symbol
 _atom_site_label
 _atom_site_symmetry_multiplicity
 _atom_site_fract_x
 _atom_site_fract_y
 _atom_site_fract_z
 _atom_site_occupancy
  Sb  Sb0  1  0.766147  0.191413  0.059222  1
  Sb  Sb1  1  0.746102  0.635686  0.850288  1
  Sb  Sb2  1  0.733853  0.308587  0.559222  1
  Sb  Sb3  1  0.233853  0.808587  0.940778  1
  Sb  Sb4  1  0.266147  0.691413  0.440778  1
  Sb  Sb5  1  0.753898  0.864314  0.350288  1
  Sb  Sb6  1  0.246102  0.135686  0.649712  1
  Sb  Sb7  1  0.253898  0.364314  0.149712  1
  Se  Se8  1  0.361870  0.535073  0.705799  1
  Se  Se9  1  0.353590  0.468157  0.885646  1
  Se  Se10  1  0.117516  0.394970  0.876748  1
  Se  Se11  1  0.875734  0.535256  0.305114  1
  Se  Se12  1  0.624266  0.964744  0.805114  1
  Se  Se13  1  0.617516  0.894970  0.623252  1
  Se  Se14  1  0.646410  0.531843  0.114354  1
  Se  Se15  1  0.138130  0.964927  0.205799  1
  Se  Se16  1  0.882484  0.605030  0.123252  1
  Se  Se17  1  0.853590  0.968157  0.614354  1
  Se  Se18  1  0.638130  0.464927  0.294201  1
  Se  Se19  1  0.375734  0.035256  0.194886  1
  Se  Se20  1  0.861870  0.035073  0.794201  1
  Se  Se21  1  0.382484  0.105030  0.376748  1
  Se  Se22  1  0.146410  0.031843  0.385646  1
  Se  Se23  1  0.124266  0.464744  0.694886  1
  S  S24  1  0.284795  0.197193  0.891882  1
  S  S25  1  0.715205  0.802807  0.108118  1
  S  S26  1  0.196724  0.735280  0.692123  1
  S  S27  1  0.696724  0.235280  0.807877  1
  S  S28  1  0.303276  0.764720  0.192123  1
  S  S29  1  0.803276  0.264720  0.307877  1
  S  S30  1  0.784795  0.697193  0.608118  1
  S  S31  1  0.215205  0.302807  0.391882  1
  N  N32  1  0.641782  0.734427  0.616318  1
  N  N33  1  0.585290  0.120626  0.812083  1
  N  N34  1  0.660905  0.303606  0.300848  1
  N  N35  1  0.414710  0.879374  0.187917  1
  N  N36  1  0.141782  0.234427  0.883682  1
  N  N37  1  0.085290  0.620626  0.687917  1
  N  N38  1  0.160905  0.803606  0.199152  1
  N  N39  1  0.914710  0.379374  0.312083  1
  N  N40  1  0.394760  0.312929  0.894372  1
  N  N41  1  0.894760  0.812929  0.605628  1
  N  N42  1  0.358218  0.265573  0.383682  1
  N  N43  1  0.605240  0.687071  0.105628  1
  N  N44  1  0.339095  0.696394  0.699152  1
  N  N45  1  0.105240  0.187071  0.394372  1
  N  N46  1  0.839095  0.196394  0.800848  1
  N  N47  1  0.858218  0.765573  0.116318  1
  F  F48  1  0.677575  0.725553  0.284147  1
  F  F49  1  0.414052  0.077992  0.636350  1
  F  F50  1  0.751431  0.449161  0.489185  1
  F  F51  1  0.285317  0.467054  0.241490  1
  F  F52  1  0.880504  0.246230  0.509920  1
  F  F53  1  0.281403  0.836659  0.370082  1
  F  F54  1  0.585948  0.922008  0.363650  1
  F  F55  1  0.841639  0.995979  0.414722  1
  F  F56  1  0.322425  0.274447  0.715853  1
  F  F57  1  0.822425  0.774447  0.784147  1
  F  F58  1  0.085948  0.422008  0.136350  1
  F  F59  1  0.914052  0.577992  0.863650  1
  F  F60  1  0.658361  0.504021  0.914722  1
  F  F61  1  0.225071  0.257381  0.060121  1
  F  F62  1  0.922824  0.806524  0.331605  1
  F  F63  1  0.274929  0.242619  0.560121  1
  F  F64  1  0.077176  0.193476  0.668395  1
  F  F65  1  0.725071  0.757381  0.439879  1
  F  F66  1  0.646091  0.102105  0.133657  1
  F  F67  1  0.089240  0.866838  0.887037  1
  F  F68  1  0.781403  0.336659  0.129918  1
  F  F69  1  0.218597  0.663341  0.870082  1
  F  F70  1  0.410760  0.633162  0.387037  1
  F  F71  1  0.774929  0.742619  0.939879  1
  F  F72  1  0.577176  0.693476  0.831605  1
  F  F73  1  0.341639  0.495979  0.085278  1
  F  F74  1  0.785317  0.967054  0.258510  1
  F  F75  1  0.380504  0.746230  0.990080  1
  F  F76  1  0.214683  0.032946  0.741490  1
  F  F77  1  0.615427  0.212931  0.487374  1
  F  F78  1  0.718597  0.163341  0.629918  1
  F  F79  1  0.146091  0.602105  0.366343  1
  F  F80  1  0.251431  0.949161  0.010815  1
  F  F81  1  0.748569  0.050839  0.989185  1
  F  F82  1  0.589240  0.366838  0.612963  1
  F  F83  1  0.853909  0.397895  0.633657  1
  F  F84  1  0.714683  0.532946  0.758510  1
  F  F85  1  0.353909  0.897895  0.866343  1
  F  F86  1  0.119496  0.753770  0.490080  1
  F  F87  1  0.177575  0.225553  0.215853  1
  F  F88  1  0.115427  0.712931  0.012626  1
  F  F89  1  0.158361  0.004021  0.585278  1
  F  F90  1  0.910760  0.133162  0.112963  1
  F  F91  1  0.619496  0.253770  0.009920  1
  F  F92  1  0.384573  0.787069  0.512626  1
  F  F93  1  0.248569  0.550839  0.510815  1
  F  F94  1  0.422824  0.306524  0.168395  1
  F  F95  1  0.884573  0.287069  0.987374  1
