# generated using pymatgen
data_UPO5
_symmetry_space_group_name_H-M   'P 1'
_cell_length_a   5.52418269
_cell_length_b   8.91110472
_cell_length_c   9.35239843
_cell_angle_alpha   101.89727867
_cell_angle_beta   103.11591057
_cell_angle_gamma   97.85309629
_symmetry_Int_Tables_number   1
_chemical_formula_structural   UPO5
_chemical_formula_sum   'U4 P4 O20'
_cell_volume   430.54208733
_cell_formula_units_Z   4
loop_
 _symmetry_equiv_pos_site_id
 _symmetry_equiv_pos_as_xyz
  1  'x, y, z'
loop_
 _atom_site_type_symbol
 _atom_site_label
 _atom_site_symmetry_multiplicity
 _atom_site_fract_x
 _atom_site_fract_y
 _atom_site_fract_z
 _atom_site_occupancy
  U  U0  1  0.352906  0.297182  0.048694  1
  U  U1  1  0.647094  0.702818  0.951306  1
  U  U2  1  0.338074  0.803275  0.552812  1
  U  U3  1  0.661926  0.196725  0.447188  1
  P  P4  1  0.092178  0.515265  0.763409  1
  P  P5  1  0.907822  0.484735  0.236591  1
  P  P6  1  0.280312  0.921810  0.178495  1
  P  P7  1  0.719688  0.078190  0.821505  1
  O  O8  1  0.003157  0.142290  0.895723  1
  O  O9  1  0.996843  0.857710  0.104277  1
  O  O10  1  0.975641  0.377028  0.629598  1
  O  O11  1  0.024359  0.622972  0.370402  1
  O  O12  1  0.723303  0.355551  0.269696  1
  O  O13  1  0.276697  0.644449  0.730304  1
  O  O14  1  0.431650  0.815573  0.094047  1
  O  O15  1  0.568350  0.184427  0.905953  1
  O  O16  1  0.429576  0.306149  0.495718  1
  O  O17  1  0.570424  0.693851  0.504282  1
  O  O18  1  0.882988  0.587513  0.824753  1
  O  O19  1  0.117012  0.412487  0.175247  1
  O  O20  1  0.277138  0.471267  0.896378  1
  O  O21  1  0.722862  0.528733  0.103622  1
  O  O22  1  0.886554  0.088518  0.385835  1
  O  O23  1  0.113446  0.911482  0.614165  1
  O  O24  1  0.356112  0.930969  0.349790  1
  O  O25  1  0.643888  0.069031  0.650210  1
  O  O26  1  0.361534  0.093625  0.169797  1
  O  O27  1  0.638466  0.906375  0.830203  1
