# generated using pymatgen
data_H8PtCN8
_symmetry_space_group_name_H-M   'P 1'
_cell_length_a   7.18554003
_cell_length_b   7.79520700
_cell_length_c   13.90218287
_cell_angle_alpha   90.00000000
_cell_angle_beta   96.09994411
_cell_angle_gamma   90.00000000
_symmetry_Int_Tables_number   1
_chemical_formula_structural   H8PtCN8
_chemical_formula_sum   'H32 Pt4 C4 N32'
_cell_volume   774.29083806
_cell_formula_units_Z   4
loop_
 _symmetry_equiv_pos_site_id
 _symmetry_equiv_pos_as_xyz
  1  'x, y, z'
loop_
 _atom_site_type_symbol
 _atom_site_label
 _atom_site_symmetry_multiplicity
 _atom_site_fract_x
 _atom_site_fract_y
 _atom_site_fract_z
 _atom_site_occupancy
  H  H0  1  0.040890  0.458479  0.115107  1
  H  H1  1  0.265061  0.496217  0.100671  1
  H  H2  1  0.757135  0.550557  0.316181  1
  H  H3  1  0.310340  0.999218  0.484403  1
  H  H4  1  0.734939  0.503783  0.899329  1
  H  H5  1  0.616355  0.375141  0.433916  1
  H  H6  1  0.883645  0.875141  0.566084  1
  H  H7  1  0.742865  0.050557  0.683819  1
  H  H8  1  0.338630  0.222981  0.461817  1
  H  H9  1  0.957768  0.450791  0.337481  1
  H  H10  1  0.383645  0.624859  0.566084  1
  H  H11  1  0.257135  0.949443  0.316181  1
  H  H12  1  0.242865  0.449443  0.683819  1
  H  H13  1  0.042232  0.549209  0.662519  1
  H  H14  1  0.161370  0.722981  0.538183  1
  H  H15  1  0.234939  0.996217  0.899329  1
  H  H16  1  0.959110  0.541521  0.884893  1
  H  H17  1  0.347251  0.831278  0.954798  1
  H  H18  1  0.838630  0.277019  0.461817  1
  H  H19  1  0.689660  0.000782  0.515597  1
  H  H20  1  0.457768  0.049209  0.337481  1
  H  H21  1  0.152749  0.331278  0.045202  1
  H  H22  1  0.847251  0.668722  0.954798  1
  H  H23  1  0.189660  0.499218  0.515597  1
  H  H24  1  0.542232  0.950791  0.662519  1
  H  H25  1  0.661370  0.777019  0.538183  1
  H  H26  1  0.459110  0.958479  0.884893  1
  H  H27  1  0.810340  0.500782  0.484403  1
  H  H28  1  0.540890  0.041521  0.115107  1
  H  H29  1  0.652749  0.168722  0.045202  1
  H  H30  1  0.765061  0.003783  0.100671  1
  H  H31  1  0.116355  0.124859  0.433916  1
  Pt  Pt32  1  0.241139  0.238299  0.224260  1
  Pt  Pt33  1  0.741139  0.261701  0.224260  1
  Pt  Pt34  1  0.258861  0.738299  0.775740  1
  Pt  Pt35  1  0.758861  0.761701  0.775740  1
  C  C36  1  0.767493  0.394429  0.435105  1
  C  C37  1  0.232507  0.605571  0.564895  1
  C  C38  1  0.267493  0.105571  0.435105  1
  C  C39  1  0.732507  0.894429  0.564895  1
  N  N40  1  0.477651  0.331043  0.915009  1
  N  N41  1  0.168347  0.401161  0.108128  1
  N  N42  1  0.668347  0.098839  0.108128  1
  N  N43  1  0.728535  0.062646  0.319223  1
  N  N44  1  0.834721  0.941559  0.322859  1
  N  N45  1  0.334721  0.558441  0.322859  1
  N  N46  1  0.931698  0.821254  0.332977  1
  N  N47  1  0.685579  0.933528  0.663664  1
  N  N48  1  0.757189  0.460943  0.129925  1
  N  N49  1  0.866327  0.064121  0.890233  1
  N  N50  1  0.568302  0.321254  0.667023  1
  N  N51  1  0.242811  0.539057  0.870075  1
  N  N52  1  0.814421  0.433528  0.336336  1
  N  N53  1  0.831653  0.598839  0.891872  1
  N  N54  1  0.133673  0.935879  0.109767  1
  N  N55  1  0.633673  0.564121  0.109767  1
  N  N56  1  0.977651  0.168957  0.915009  1
  N  N57  1  0.185579  0.566472  0.663664  1
  N  N58  1  0.314421  0.066472  0.336336  1
  N  N59  1  0.522349  0.668957  0.084991  1
  N  N60  1  0.165279  0.058441  0.677141  1
  N  N61  1  0.257189  0.039057  0.129925  1
  N  N62  1  0.228535  0.437354  0.319223  1
  N  N63  1  0.431698  0.678746  0.332977  1
  N  N64  1  0.022349  0.831043  0.084991  1
  N  N65  1  0.271465  0.937354  0.680777  1
  N  N66  1  0.665279  0.441559  0.677141  1
  N  N67  1  0.068302  0.178746  0.667023  1
  N  N68  1  0.742811  0.960943  0.870075  1
  N  N69  1  0.771465  0.562646  0.680777  1
  N  N70  1  0.366327  0.435879  0.890233  1
  N  N71  1  0.331653  0.901161  0.891872  1
