# generated using pymatgen
data_CsV2P5O16
_symmetry_space_group_name_H-M   'P 1'
_cell_length_a   7.67533788
_cell_length_b   9.59840181
_cell_length_c   10.39380162
_cell_angle_alpha   90.00000000
_cell_angle_beta   111.40141722
_cell_angle_gamma   90.00000000
_symmetry_Int_Tables_number   1
_chemical_formula_structural   CsV2P5O16
_chemical_formula_sum   'Cs2 V4 P10 O32'
_cell_volume   712.92256333
_cell_formula_units_Z   2
loop_
 _symmetry_equiv_pos_site_id
 _symmetry_equiv_pos_as_xyz
  1  'x, y, z'
loop_
 _atom_site_type_symbol
 _atom_site_label
 _atom_site_symmetry_multiplicity
 _atom_site_fract_x
 _atom_site_fract_y
 _atom_site_fract_z
 _atom_site_occupancy
  Cs  Cs0  1  0.248688  0.805544  0.246477  1
  Cs  Cs1  1  0.748688  0.194456  0.746477  1
  V  V2  1  0.209397  0.369062  0.138485  1
  V  V3  1  0.709397  0.630938  0.638485  1
  V  V4  1  0.154582  0.143482  0.533634  1
  V  V5  1  0.654582  0.856518  0.033634  1
  P  P6  1  0.418854  0.873848  0.697345  1
  P  P7  1  0.918854  0.126152  0.197345  1
  P  P8  1  0.015289  0.860402  0.626902  1
  P  P9  1  0.515289  0.139598  0.126902  1
  P  P10  1  0.802653  0.706318  0.373129  1
  P  P11  1  0.302653  0.293682  0.873129  1
  P  P12  1  0.991493  0.460132  0.507248  1
  P  P13  1  0.491493  0.539868  0.007248  1
  P  P14  1  0.348825  0.417561  0.475355  1
  P  P15  1  0.848825  0.582439  0.975355  1
  O  O16  1  0.359408  0.989721  0.589226  1
  O  O17  1  0.859408  0.010279  0.089226  1
  O  O18  1  0.497495  0.747615  0.649254  1
  O  O19  1  0.997495  0.252385  0.149254  1
  O  O20  1  0.541133  0.929271  0.840476  1
  O  O21  1  0.041133  0.070729  0.340476  1
  O  O22  1  0.224575  0.818719  0.714445  1
  O  O23  1  0.724575  0.181281  0.214445  1
  O  O24  1  0.889425  0.799046  0.693643  1
  O  O25  1  0.389425  0.200954  0.193643  1
  O  O26  1  0.994184  0.016794  0.603492  1
  O  O27  1  0.494184  0.983206  0.103492  1
  O  O28  1  0.983382  0.787559  0.478430  1
  O  O29  1  0.483382  0.212441  0.978430  1
  O  O30  1  0.752580  0.769458  0.233472  1
  O  O31  1  0.252580  0.230542  0.733472  1
  O  O32  1  0.653981  0.701872  0.436383  1
  O  O33  1  0.153981  0.298128  0.936383  1
  O  O34  1  0.885021  0.552063  0.368093  1
  O  O35  1  0.385021  0.447937  0.868093  1
  O  O36  1  0.958756  0.307311  0.475369  1
  O  O37  1  0.458756  0.692689  0.975369  1
  O  O38  1  0.935194  0.520153  0.620228  1
  O  O39  1  0.435194  0.479847  0.120228  1
  O  O40  1  0.207450  0.495654  0.539505  1
  O  O41  1  0.707450  0.504346  0.039505  1
  O  O42  1  0.338659  0.260134  0.495358  1
  O  O43  1  0.838659  0.739866  0.995358  1
  O  O44  1  0.280296  0.459573  0.323750  1
  O  O45  1  0.780296  0.540427  0.823750  1
  O  O46  1  0.542780  0.468047  0.562000  1
  O  O47  1  0.042780  0.531953  0.062000  1
