# generated using pymatgen
data_Na3MoH6(CO2)6
_symmetry_space_group_name_H-M   'P 1'
_cell_length_a   6.52397102
_cell_length_b   14.18019953
_cell_length_c   14.82947063
_cell_angle_alpha   90.00000000
_cell_angle_beta   90.00000000
_cell_angle_gamma   90.00000000
_symmetry_Int_Tables_number   1
_chemical_formula_structural   Na3MoH6(CO2)6
_chemical_formula_sum   'Na12 Mo4 H24 C24 O48'
_cell_volume   1371.89228338
_cell_formula_units_Z   4
loop_
 _symmetry_equiv_pos_site_id
 _symmetry_equiv_pos_as_xyz
  1  'x, y, z'
loop_
 _atom_site_type_symbol
 _atom_site_label
 _atom_site_symmetry_multiplicity
 _atom_site_fract_x
 _atom_site_fract_y
 _atom_site_fract_z
 _atom_site_occupancy
  Na  Na0  1  0.227044  0.720642  0.999562  1
  Na  Na1  1  0.227044  0.220642  0.500438  1
  Na  Na2  1  0.272956  0.220642  0.999562  1
  Na  Na3  1  0.772956  0.279358  0.000438  1
  Na  Na4  1  0.750000  0.423378  0.250000  1
  Na  Na5  1  0.272956  0.720642  0.500438  1
  Na  Na6  1  0.727044  0.279358  0.499562  1
  Na  Na7  1  0.250000  0.576622  0.750000  1
  Na  Na8  1  0.750000  0.923378  0.250000  1
  Na  Na9  1  0.772956  0.779358  0.499562  1
  Na  Na10  1  0.250000  0.076622  0.750000  1
  Na  Na11  1  0.727044  0.779358  0.000438  1
  Mo  Mo12  1  0.250000  0.563584  0.250000  1
  Mo  Mo13  1  0.250000  0.063584  0.250000  1
  Mo  Mo14  1  0.750000  0.936416  0.750000  1
  Mo  Mo15  1  0.750000  0.436416  0.750000  1
  H  H16  1  0.324155  0.425964  0.086874  1
  H  H17  1  0.270382  0.429725  0.591167  1
  H  H18  1  0.324155  0.925964  0.413126  1
  H  H19  1  0.998635  0.245255  0.225995  1
  H  H20  1  0.175845  0.425964  0.413126  1
  H  H21  1  0.770382  0.570275  0.091167  1
  H  H22  1  0.501365  0.245255  0.274005  1
  H  H23  1  0.498635  0.754745  0.725995  1
  H  H24  1  0.729618  0.570275  0.408833  1
  H  H25  1  0.229618  0.929725  0.591167  1
  H  H26  1  0.001365  0.754745  0.774005  1
  H  H27  1  0.729618  0.070275  0.091167  1
  H  H28  1  0.675845  0.074036  0.586874  1
  H  H29  1  0.824155  0.574036  0.586874  1
  H  H30  1  0.770382  0.070275  0.408833  1
  H  H31  1  0.675845  0.574036  0.913126  1
  H  H32  1  0.498635  0.254745  0.774005  1
  H  H33  1  0.001365  0.254745  0.725995  1
  H  H34  1  0.175845  0.925964  0.086874  1
  H  H35  1  0.270382  0.929725  0.908833  1
  H  H36  1  0.501365  0.745255  0.225995  1
  H  H37  1  0.824155  0.074036  0.913126  1
  H  H38  1  0.229618  0.429725  0.908833  1
  H  H39  1  0.998635  0.745255  0.274005  1
  C  C40  1  0.501506  0.738499  0.300649  1
  C  C41  1  0.608788  0.089194  0.394138  1
  C  C42  1  0.108788  0.910806  0.894138  1
  C  C43  1  0.001506  0.761501  0.699351  1
  C  C44  1  0.998494  0.238499  0.300649  1
  C  C45  1  0.338423  0.412112  0.396157  1
  C  C46  1  0.161577  0.912112  0.396157  1
  C  C47  1  0.338423  0.912112  0.103843  1
  C  C48  1  0.838423  0.087888  0.603843  1
  C  C49  1  0.001506  0.261501  0.800649  1
  C  C50  1  0.661577  0.087888  0.896157  1
  C  C51  1  0.391212  0.410806  0.894138  1
  C  C52  1  0.608788  0.589194  0.105862  1
  C  C53  1  0.838423  0.587888  0.896157  1
  C  C54  1  0.661577  0.587888  0.603843  1
  C  C55  1  0.891212  0.089194  0.105862  1
  C  C56  1  0.498494  0.761501  0.800649  1
  C  C57  1  0.498494  0.261501  0.699351  1
  C  C58  1  0.891212  0.589194  0.394138  1
  C  C59  1  0.391212  0.910806  0.605862  1
  C  C60  1  0.161577  0.412112  0.103843  1
  C  C61  1  0.108788  0.410806  0.605862  1
  C  C62  1  0.501506  0.238499  0.199351  1
  C  C63  1  0.998494  0.738499  0.199351  1
  O  O64  1  0.895079  0.795193  0.153464  1
  O  O65  1  0.062829  0.854143  0.442082  1
  O  O66  1  0.562829  0.145857  0.942082  1
  O  O67  1  0.609230  0.828741  0.834103  1
  O  O68  1  0.395079  0.704807  0.846536  1
  O  O69  1  0.412345  0.457608  0.327804  1
  O  O70  1  0.412345  0.957608  0.172196  1
  O  O71  1  0.062829  0.354143  0.057918  1
  O  O72  1  0.104921  0.204807  0.846536  1
  O  O73  1  0.983591  0.144841  0.055229  1
  O  O74  1  0.036613  0.450969  0.677512  1
  O  O75  1  0.587655  0.542392  0.672196  1
  O  O76  1  0.483591  0.355159  0.944771  1
  O  O77  1  0.963387  0.549031  0.322488  1
  O  O78  1  0.516409  0.644841  0.055229  1
  O  O79  1  0.390770  0.171259  0.165897  1
  O  O80  1  0.912345  0.542392  0.827804  1
  O  O81  1  0.087655  0.457608  0.172196  1
  O  O82  1  0.390770  0.671259  0.334103  1
  O  O83  1  0.963387  0.049031  0.177512  1
  O  O84  1  0.087655  0.957608  0.327804  1
  O  O85  1  0.109230  0.171259  0.334103  1
  O  O86  1  0.109230  0.671259  0.165897  1
  O  O87  1  0.016409  0.855159  0.944771  1
  O  O88  1  0.516409  0.144841  0.444771  1
  O  O89  1  0.587655  0.042392  0.827804  1
  O  O90  1  0.536613  0.049031  0.322488  1
  O  O91  1  0.983591  0.644841  0.444771  1
  O  O92  1  0.937171  0.145857  0.557918  1
  O  O93  1  0.463387  0.450969  0.822488  1
  O  O94  1  0.437171  0.854143  0.057918  1
  O  O95  1  0.937171  0.645857  0.942082  1
  O  O96  1  0.912345  0.042392  0.672196  1
  O  O97  1  0.895079  0.295193  0.346536  1
  O  O98  1  0.604921  0.295193  0.153464  1
  O  O99  1  0.890770  0.328741  0.834103  1
  O  O100  1  0.463387  0.950969  0.677512  1
  O  O101  1  0.890770  0.828741  0.665897  1
  O  O102  1  0.536613  0.549031  0.177512  1
  O  O103  1  0.104921  0.704807  0.653464  1
  O  O104  1  0.016409  0.355159  0.555229  1
  O  O105  1  0.395079  0.204807  0.653464  1
  O  O106  1  0.604921  0.795193  0.346536  1
  O  O107  1  0.437171  0.354143  0.442082  1
  O  O108  1  0.483591  0.855159  0.555229  1
  O  O109  1  0.609230  0.328741  0.665897  1
  O  O110  1  0.562829  0.645857  0.557918  1
  O  O111  1  0.036613  0.950969  0.822488  1
