# generated using pymatgen
data_Sn5W8O23
_symmetry_space_group_name_H-M   'P 1'
_cell_length_a   8.15596452
_cell_length_b   8.15596434
_cell_length_c   19.49138672
_cell_angle_alpha   90.00000000
_cell_angle_beta   90.00000000
_cell_angle_gamma   120.00000080
_symmetry_Int_Tables_number   1
_chemical_formula_structural   Sn5W8O23
_chemical_formula_sum   'Sn10 W16 O46'
_cell_volume   1122.85586630
_cell_formula_units_Z   2
loop_
 _symmetry_equiv_pos_site_id
 _symmetry_equiv_pos_as_xyz
  1  'x, y, z'
loop_
 _atom_site_type_symbol
 _atom_site_label
 _atom_site_symmetry_multiplicity
 _atom_site_fract_x
 _atom_site_fract_y
 _atom_site_fract_z
 _atom_site_occupancy
  Sn  Sn0  1  0.200344  0.295791  0.250000  1
  Sn  Sn1  1  0.904553  0.200344  0.750000  1
  Sn  Sn2  1  0.295791  0.095447  0.750000  1
  Sn  Sn3  1  0.704209  0.904553  0.250000  1
  Sn  Sn4  1  0.095447  0.799656  0.250000  1
  Sn  Sn5  1  0.799656  0.704209  0.750000  1
  Sn  Sn6  1  0.333333  0.666667  0.060384  1
  Sn  Sn7  1  0.666667  0.333333  0.560384  1
  Sn  Sn8  1  0.666667  0.333333  0.939616  1
  Sn  Sn9  1  0.333333  0.666667  0.439616  1
  W  W10  1  0.748716  0.943616  0.569904  1
  W  W11  1  0.805100  0.748716  0.069904  1
  W  W12  1  0.943616  0.194900  0.069904  1
  W  W13  1  0.056384  0.805100  0.569904  1
  W  W14  1  0.194900  0.251284  0.569904  1
  W  W15  1  0.251284  0.056384  0.069904  1
  W  W16  1  0.748716  0.943616  0.930096  1
  W  W17  1  0.805100  0.748716  0.430096  1
  W  W18  1  0.943616  0.194900  0.430096  1
  W  W19  1  0.056384  0.805100  0.930096  1
  W  W20  1  0.194900  0.251284  0.930096  1
  W  W21  1  0.251284  0.056384  0.430096  1
  W  W22  1  0.333333  0.666667  0.674446  1
  W  W23  1  0.666667  0.333333  0.174446  1
  W  W24  1  0.666667  0.333333  0.325554  1
  W  W25  1  0.333333  0.666667  0.825554  1
  O  O26  1  0.000000  0.000000  0.750000  1
  O  O27  1  0.000000  0.000000  0.250000  1
  O  O28  1  0.176211  0.223988  0.377646  1
  O  O29  1  0.952222  0.176211  0.877646  1
  O  O30  1  0.223988  0.047778  0.877646  1
  O  O31  1  0.776012  0.952222  0.377646  1
  O  O32  1  0.047778  0.823789  0.377646  1
  O  O33  1  0.823789  0.776012  0.877646  1
  O  O34  1  0.823789  0.776012  0.622354  1
  O  O35  1  0.047778  0.823789  0.122354  1
  O  O36  1  0.776012  0.952222  0.122354  1
  O  O37  1  0.223988  0.047778  0.622354  1
  O  O38  1  0.952222  0.176211  0.622354  1
  O  O39  1  0.176211  0.223988  0.122354  1
  O  O40  1  0.000000  0.000000  0.500000  1
  O  O41  1  0.000000  0.000000  0.000000  1
  O  O42  1  0.145439  0.404784  0.496058  1
  O  O43  1  0.740654  0.145439  0.503942  1
  O  O44  1  0.740654  0.145439  0.996058  1
  O  O45  1  0.595216  0.740654  0.496058  1
  O  O46  1  0.259346  0.854561  0.496058  1
  O  O47  1  0.854561  0.595216  0.996058  1
  O  O48  1  0.854561  0.595216  0.503942  1
  O  O49  1  0.259346  0.854561  0.003942  1
  O  O50  1  0.595216  0.740654  0.003942  1
  O  O51  1  0.404784  0.259346  0.503942  1
  O  O52  1  0.467919  0.291158  0.250000  1
  O  O53  1  0.176761  0.467919  0.750000  1
  O  O54  1  0.291158  0.823239  0.750000  1
  O  O55  1  0.708842  0.176761  0.250000  1
  O  O56  1  0.823239  0.532081  0.250000  1
  O  O57  1  0.532081  0.708842  0.750000  1
  O  O58  1  0.482369  0.121292  0.129224  1
  O  O59  1  0.361077  0.482369  0.629224  1
  O  O60  1  0.121292  0.638923  0.629224  1
  O  O61  1  0.878708  0.361077  0.129224  1
  O  O62  1  0.638923  0.517631  0.129224  1
  O  O63  1  0.517631  0.878708  0.629224  1
  O  O64  1  0.517631  0.878708  0.870776  1
  O  O65  1  0.638923  0.517631  0.370776  1
  O  O66  1  0.878708  0.361077  0.370776  1
  O  O67  1  0.121292  0.638923  0.870776  1
  O  O68  1  0.361077  0.482369  0.870776  1
  O  O69  1  0.482369  0.121292  0.370776  1
  O  O70  1  0.145439  0.404784  0.003942  1
  O  O71  1  0.404784  0.259346  0.996058  1
