# generated using pymatgen
data_Rb3Zr2P5S18
_symmetry_space_group_name_H-M   'P 1'
_cell_length_a   6.96110491
_cell_length_b   6.96110493
_cell_length_c   34.12899510
_cell_angle_alpha   93.68332696
_cell_angle_beta   93.68332697
_cell_angle_gamma   93.06736865
_symmetry_Int_Tables_number   1
_chemical_formula_structural   Rb3Zr2P5S18
_chemical_formula_sum   'Rb6 Zr4 P10 S36'
_cell_volume   1644.20219900
_cell_formula_units_Z   2
loop_
 _symmetry_equiv_pos_site_id
 _symmetry_equiv_pos_as_xyz
  1  'x, y, z'
loop_
 _atom_site_type_symbol
 _atom_site_label
 _atom_site_symmetry_multiplicity
 _atom_site_fract_x
 _atom_site_fract_y
 _atom_site_fract_z
 _atom_site_occupancy
  Rb  Rb0  1  0.456946  0.277861  0.865104  1
  Rb  Rb1  1  0.277861  0.456946  0.365104  1
  Rb  Rb2  1  0.675495  0.913951  0.253659  1
  Rb  Rb3  1  0.913951  0.675495  0.753659  1
  Rb  Rb4  1  0.984304  0.795610  0.569339  1
  Rb  Rb5  1  0.795610  0.984304  0.069339  1
  Zr  Zr6  1  0.539287  0.122020  0.463214  1
  Zr  Zr7  1  0.122020  0.539287  0.963214  1
  Zr  Zr8  1  0.512805  0.370438  0.654544  1
  Zr  Zr9  1  0.370438  0.512805  0.154544  1
  P  P10  1  0.743513  0.176356  0.378371  1
  P  P11  1  1.003485  0.073931  0.944573  1
  P  P12  1  0.556962  0.276108  0.558428  1
  P  P13  1  0.176356  0.743513  0.878371  1
  P  P14  1  0.181358  0.633471  0.239329  1
  P  P15  1  0.416403  0.826318  0.673676  1
  P  P16  1  0.826318  0.416403  0.173676  1
  P  P17  1  0.633471  0.181358  0.739329  1
  P  P18  1  0.276108  0.556962  0.058428  1
  P  P19  1  0.073931  1.003485  0.444573  1
  S  S20  1  0.195893  0.792983  0.191200  1
  S  S21  1  0.439312  0.385230  0.729362  1
  S  S22  1  0.603314  0.213539  0.168805  1
  S  S23  1  0.041378  0.310163  0.142313  1
  S  S24  1  0.332086  0.396927  0.585442  1
  S  S25  1  0.278099  0.807797  0.449893  1
  S  S26  1  0.755620  0.284425  0.326361  1
  S  S27  1  0.792983  0.195893  0.691200  1
  S  S28  1  0.385230  0.439312  0.229362  1
  S  S29  1  0.807797  0.278099  0.949893  1
  S  S30  1  0.918886  0.844594  0.975199  1
  S  S31  1  0.185994  0.777238  0.291145  1
  S  S32  1  0.993786  0.515083  0.888640  1
  S  S33  1  0.310163  0.041378  0.642313  1
  S  S34  1  0.722266  0.668142  0.155188  1
  S  S35  1  0.668142  0.722266  0.655188  1
  S  S36  1  0.213539  0.603314  0.668805  1
  S  S37  1  0.745931  0.372205  0.425753  1
  S  S38  1  0.642427  0.423206  0.511820  1
  S  S39  1  0.465649  0.906201  0.735151  1
  S  S40  1  0.777238  0.185994  0.791145  1
  S  S41  1  0.770396  0.286661  0.603248  1
  S  S42  1  0.844594  0.918886  0.475199  1
  S  S43  1  0.001251  0.489276  0.034489  1
  S  S44  1  0.997528  0.009656  0.382864  1
  S  S45  1  0.372205  0.745931  0.925753  1
  S  S46  1  0.201583  0.268175  0.463121  1
  S  S47  1  0.515083  0.993786  0.388640  1
  S  S48  1  0.009656  0.997528  0.882864  1
  S  S49  1  0.906201  0.465649  0.235151  1
  S  S50  1  0.423206  0.642427  0.011820  1
  S  S51  1  0.268175  0.201583  0.963121  1
  S  S52  1  0.286661  0.770396  0.103248  1
  S  S53  1  0.284425  0.755620  0.826361  1
  S  S54  1  0.489276  0.001251  0.534489  1
  S  S55  1  0.396927  0.332086  0.085442  1
