# generated using pymatgen
data_Ni10Sn5P3
_symmetry_space_group_name_H-M   'P 1'
_cell_length_a   6.44020761
_cell_length_b   8.36378531
_cell_length_c   10.31778718
_cell_angle_alpha   73.50262207
_cell_angle_beta   84.40177265
_cell_angle_gamma   82.75100733
_symmetry_Int_Tables_number   1
_chemical_formula_structural   Ni10Sn5P3
_chemical_formula_sum   'Ni20 Sn10 P6'
_cell_volume   527.51004245
_cell_formula_units_Z   2
loop_
 _symmetry_equiv_pos_site_id
 _symmetry_equiv_pos_as_xyz
  1  'x, y, z'
loop_
 _atom_site_type_symbol
 _atom_site_label
 _atom_site_symmetry_multiplicity
 _atom_site_fract_x
 _atom_site_fract_y
 _atom_site_fract_z
 _atom_site_occupancy
  Ni  Ni0  1  0.709959  0.274162  0.198943  1
  Ni  Ni1  1  0.658497  0.603276  0.693883  1
  Ni  Ni2  1  0.864855  0.134959  0.625102  1
  Ni  Ni3  1  0.580051  0.917077  0.706717  1
  Ni  Ni4  1  0.143457  0.351102  0.548004  1
  Ni  Ni5  1  0.943223  0.568342  0.873925  1
  Ni  Ni6  1  0.290041  0.725838  0.801057  1
  Ni  Ni7  1  0.267817  0.212619  0.963831  1
  Ni  Ni8  1  0.341503  0.396724  0.306117  1
  Ni  Ni9  1  0.135145  0.865041  0.374898  1
  Ni  Ni10  1  0.500000  0.500000  0.500000  1
  Ni  Ni11  1  0.056825  0.703588  0.202966  1
  Ni  Ni12  1  0.943175  0.296412  0.797034  1
  Ni  Ni13  1  0.397260  0.606558  0.068181  1
  Ni  Ni14  1  0.419949  0.082923  0.293283  1
  Ni  Ni15  1  0.856543  0.648898  0.451996  1
  Ni  Ni16  1  0.732183  0.787381  0.036169  1
  Ni  Ni17  1  0.000000  0.000000  0.000000  1
  Ni  Ni18  1  0.056777  0.431658  0.126075  1
  Ni  Ni19  1  0.602740  0.393442  0.931819  1
  Sn  Sn20  1  0.351671  0.911148  0.130595  1
  Sn  Sn21  1  0.207088  0.048988  0.759141  1
  Sn  Sn22  1  0.792912  0.951012  0.240859  1
  Sn  Sn23  1  0.534443  0.181641  0.497141  1
  Sn  Sn24  1  0.648329  0.088852  0.869405  1
  Sn  Sn25  1  0.465557  0.818359  0.502859  1
  Sn  Sn26  1  0.298812  0.448617  0.741182  1
  Sn  Sn27  1  0.033483  0.184262  0.372438  1
  Sn  Sn28  1  0.966517  0.815738  0.627562  1
  Sn  Sn29  1  0.701188  0.551383  0.258819  1
  P  P30  1  0.077677  0.719942  0.983128  1
  P  P31  1  0.391181  0.315992  0.114021  1
  P  P32  1  0.922323  0.280058  0.016872  1
  P  P33  1  0.197481  0.593903  0.399713  1
  P  P34  1  0.608819  0.684008  0.885979  1
  P  P35  1  0.802519  0.406097  0.600287  1
