# generated using pymatgen
data_K2PO4
_symmetry_space_group_name_H-M   'P 1'
_cell_length_a   5.97723038
_cell_length_b   7.49120277
_cell_length_c   10.38388209
_cell_angle_alpha   90.00000000
_cell_angle_beta   90.00000000
_cell_angle_gamma   99.12457361
_symmetry_Int_Tables_number   1
_chemical_formula_structural   K2PO4
_chemical_formula_sum   'K8 P4 O16'
_cell_volume   459.07179936
_cell_formula_units_Z   4
loop_
 _symmetry_equiv_pos_site_id
 _symmetry_equiv_pos_as_xyz
  1  'x, y, z'
loop_
 _atom_site_type_symbol
 _atom_site_label
 _atom_site_symmetry_multiplicity
 _atom_site_fract_x
 _atom_site_fract_y
 _atom_site_fract_z
 _atom_site_occupancy
  K  K0  1  0.251765  0.827817  0.915505  1
  K  K1  1  0.748235  0.672183  0.415505  1
  K  K2  1  0.748235  0.172183  0.084495  1
  K  K3  1  0.251765  0.327817  0.584495  1
  K  K4  1  0.762994  0.526058  0.768577  1
  K  K5  1  0.237006  0.973942  0.268577  1
  K  K6  1  0.237006  0.473942  0.231423  1
  K  K7  1  0.762994  0.026058  0.731423  1
  P  P8  1  0.279058  0.280439  0.924972  1
  P  P9  1  0.720942  0.719561  0.075028  1
  P  P10  1  0.279058  0.780439  0.575028  1
  P  P11  1  0.720942  0.219561  0.424972  1
  O  O12  1  0.542122  0.795407  0.154030  1
  O  O13  1  0.542122  0.295407  0.345970  1
  O  O14  1  0.225060  0.181383  0.052784  1
  O  O15  1  0.389982  0.998041  0.538223  1
  O  O16  1  0.610018  0.501959  0.038223  1
  O  O17  1  0.774940  0.318617  0.552784  1
  O  O18  1  0.927111  0.680924  0.150740  1
  O  O19  1  0.927111  0.180924  0.349260  1
  O  O20  1  0.457878  0.204593  0.845970  1
  O  O21  1  0.072889  0.819076  0.650740  1
  O  O22  1  0.389982  0.498041  0.961777  1
  O  O23  1  0.610018  0.001959  0.461777  1
  O  O24  1  0.457878  0.704593  0.654030  1
  O  O25  1  0.774940  0.818617  0.947216  1
  O  O26  1  0.072889  0.319076  0.849260  1
  O  O27  1  0.225060  0.681383  0.447216  1
