# generated using pymatgen
data_NaFeF3
_symmetry_space_group_name_H-M   'P 1'
_cell_length_a   5.79286175
_cell_length_b   7.89760986
_cell_length_c   5.55950911
_cell_angle_alpha   90.00000000
_cell_angle_beta   90.00000000
_cell_angle_gamma   90.00000000
_symmetry_Int_Tables_number   1
_chemical_formula_structural   NaFeF3
_chemical_formula_sum   'Na4 Fe4 F12'
_cell_volume   254.34621903
_cell_formula_units_Z   4
loop_
 _symmetry_equiv_pos_site_id
 _symmetry_equiv_pos_as_xyz
  1  'x, y, z'
loop_
 _atom_site_type_symbol
 _atom_site_label
 _atom_site_symmetry_multiplicity
 _atom_site_fract_x
 _atom_site_fract_y
 _atom_site_fract_z
 _atom_site_occupancy
  Na  Na0  1  0.062953  0.250000  0.978574  1
  Na  Na1  1  0.562953  0.250000  0.521426  1
  Na  Na2  1  0.937047  0.750000  0.021426  1
  Na  Na3  1  0.437047  0.750000  0.478574  1
  Fe  Fe4  1  0.500000  0.000000  0.000000  1
  Fe  Fe5  1  0.000000  0.500000  0.500000  1
  Fe  Fe6  1  0.500000  0.500000  0.000000  1
  Fe  Fe7  1  0.000000  0.000000  0.500000  1
  F  F8  1  0.459531  0.250000  0.119909  1
  F  F9  1  0.959531  0.250000  0.380091  1
  F  F10  1  0.540469  0.750000  0.880091  1
  F  F11  1  0.040469  0.750000  0.619909  1
  F  F12  1  0.306439  0.057232  0.697602  1
  F  F13  1  0.806439  0.442768  0.802398  1
  F  F14  1  0.693561  0.557232  0.302398  1
  F  F15  1  0.193561  0.942768  0.197602  1
  F  F16  1  0.693561  0.942768  0.302398  1
  F  F17  1  0.193561  0.557232  0.197602  1
  F  F18  1  0.306439  0.442768  0.697602  1
  F  F19  1  0.806439  0.057232  0.802398  1
