# generated using pymatgen
data_Li3Mo2(PO4)3
_symmetry_space_group_name_H-M   'P 1'
_cell_length_a   8.96234822
_cell_length_b   12.54437068
_cell_length_c   8.94618825
_cell_angle_alpha   90.00000000
_cell_angle_beta   90.00000000
_cell_angle_gamma   90.13127997
_symmetry_Int_Tables_number   1
_chemical_formula_structural   Li3Mo2(PO4)3
_chemical_formula_sum   'Li12 Mo8 P12 O48'
_cell_volume   1005.79062859
_cell_formula_units_Z   4
loop_
 _symmetry_equiv_pos_site_id
 _symmetry_equiv_pos_as_xyz
  1  'x, y, z'
loop_
 _atom_site_type_symbol
 _atom_site_label
 _atom_site_symmetry_multiplicity
 _atom_site_fract_x
 _atom_site_fract_y
 _atom_site_fract_z
 _atom_site_occupancy
  Li  Li0  1  0.065018  0.756211  0.703772  1
  Li  Li1  1  0.086421  0.693228  0.097790  1
  Li  Li2  1  0.204518  0.177988  0.768805  1
  Li  Li3  1  0.295482  0.322013  0.268805  1
  Li  Li4  1  0.413579  0.806772  0.597790  1
  Li  Li5  1  0.434982  0.743789  0.203772  1
  Li  Li6  1  0.565018  0.256211  0.796228  1
  Li  Li7  1  0.586421  0.193228  0.402210  1
  Li  Li8  1  0.704518  0.677988  0.731195  1
  Li  Li9  1  0.795482  0.822012  0.231195  1
  Li  Li10  1  0.913579  0.306772  0.902210  1
  Li  Li11  1  0.934982  0.243789  0.296228  1
  Mo  Mo12  1  0.248911  0.111471  0.453221  1
  Mo  Mo13  1  0.251943  0.888219  0.039755  1
  Mo  Mo14  1  0.248057  0.611781  0.539755  1
  Mo  Mo15  1  0.251089  0.388529  0.953221  1
  Mo  Mo16  1  0.748911  0.611471  0.046779  1
  Mo  Mo17  1  0.751943  0.388219  0.460245  1
  Mo  Mo18  1  0.748057  0.111781  0.960245  1
  Mo  Mo19  1  0.751089  0.888529  0.546779  1
  O  O20  1  0.037607  0.432828  0.863912  1
  O  O21  1  0.065560  0.597076  0.694212  1
  O  O22  1  0.068070  0.170370  0.589586  1
  O  O23  1  0.071326  0.842739  0.890456  1
  O  O24  1  0.103575  0.562763  0.370937  1
  O  O25  1  0.142816  0.809187  0.230972  1
  O  O26  1  0.160972  0.041917  0.058668  1
  O  O27  1  0.144396  0.964932  0.410587  1
  O  O28  1  0.158891  0.192031  0.252128  1
  O  O29  1  0.146728  0.231752  0.970584  1
  O  O30  1  0.172755  0.432401  0.169736  1
  O  O31  1  0.185256  0.780887  0.514561  1
  O  O32  1  0.314744  0.719113  0.014561  1
  O  O33  1  0.327245  0.067599  0.669736  1
  O  O34  1  0.353272  0.268248  0.470584  1
  O  O35  1  0.341109  0.307969  0.752128  1
  O  O36  1  0.339028  0.458083  0.558668  1
  O  O37  1  0.355604  0.535068  0.910587  1
  O  O38  1  0.357184  0.690813  0.730972  1
  O  O39  1  0.396425  0.937237  0.870937  1
  O  O40  1  0.431930  0.329630  0.089586  1
  O  O41  1  0.428674  0.657261  0.390456  1
  O  O42  1  0.434440  0.902924  0.194212  1
  O  O43  1  0.462393  0.067172  0.363912  1
  O  O44  1  0.537607  0.932828  0.636088  1
  O  O45  1  0.565560  0.097076  0.805788  1
  O  O46  1  0.571326  0.342739  0.609544  1
  O  O47  1  0.568070  0.670370  0.910414  1
  O  O48  1  0.603575  0.062763  0.129063  1
  O  O49  1  0.642816  0.309187  0.269028  1
  O  O50  1  0.644396  0.464932  0.089413  1
  O  O51  1  0.660972  0.541917  0.441332  1
  O  O52  1  0.658891  0.692031  0.247872  1
  O  O53  1  0.646728  0.731752  0.529416  1
  O  O54  1  0.672755  0.932401  0.330264  1
  O  O55  1  0.685256  0.280887  0.985439  1
  O  O56  1  0.814744  0.219113  0.485438  1
  O  O57  1  0.827245  0.567599  0.830264  1
  O  O58  1  0.853272  0.768248  0.029416  1
  O  O59  1  0.841109  0.807969  0.747872  1
  O  O60  1  0.855604  0.035068  0.589413  1
  O  O61  1  0.839028  0.958083  0.941332  1
  O  O62  1  0.857184  0.190813  0.769028  1
  O  O63  1  0.896425  0.437237  0.629063  1
  O  O64  1  0.928674  0.157261  0.109544  1
  O  O65  1  0.931930  0.829630  0.410414  1
  O  O66  1  0.934440  0.402924  0.305788  1
  O  O67  1  0.962393  0.567172  0.136088  1
  P  P68  1  0.041911  0.491185  0.248047  1
  P  P69  1  0.102184  0.848591  0.391240  1
  P  P70  1  0.102253  0.151069  0.096574  1
  P  P71  1  0.397747  0.348931  0.596574  1
  P  P72  1  0.397816  0.651409  0.891240  1
  P  P73  1  0.458089  0.008815  0.748047  1
  P  P74  1  0.541911  0.991185  0.251953  1
  P  P75  1  0.602184  0.348591  0.108760  1
  P  P76  1  0.602253  0.651069  0.403426  1
  P  P77  1  0.897747  0.848931  0.903426  1
  P  P78  1  0.897816  0.151409  0.608760  1
  P  P79  1  0.958089  0.508815  0.751953  1
