# generated using pymatgen
data_TbHO2
_symmetry_space_group_name_H-M   'P 1'
_cell_length_a   4.50875810
_cell_length_b   3.69631642
_cell_length_c   5.55186335
_cell_angle_alpha   90.01441329
_cell_angle_beta   90.00000000
_cell_angle_gamma   90.00000000
_symmetry_Int_Tables_number   1
_chemical_formula_structural   TbHO2
_chemical_formula_sum   'Tb2 H2 O4'
_cell_volume   92.52622237
_cell_formula_units_Z   2
loop_
 _symmetry_equiv_pos_site_id
 _symmetry_equiv_pos_as_xyz
  1  'x, y, z'
loop_
 _atom_site_type_symbol
 _atom_site_label
 _atom_site_symmetry_multiplicity
 _atom_site_fract_x
 _atom_site_fract_y
 _atom_site_fract_z
 _atom_site_occupancy
  Tb  Tb0  1  0.250000  0.250127  0.191276  1
  Tb  Tb1  1  0.750000  0.749873  0.808724  1
  O  O2  1  0.250000  0.750013  0.923782  1
  O  O3  1  0.750000  0.249987  0.076218  1
  O  O4  1  0.250000  0.750188  0.431798  1
  O  O5  1  0.750000  0.249812  0.568202  1
  H  H6  1  0.250000  0.750469  0.610685  1
  H  H7  1  0.750000  0.249531  0.389315  1
