# generated using pymatgen
data_Na3MgC2ClO6
_symmetry_space_group_name_H-M   'P 1'
_cell_length_a   10.11759283
_cell_length_b   10.11759293
_cell_length_c   10.11759210
_cell_angle_alpha   59.99999929
_cell_angle_beta   59.99999899
_cell_angle_gamma   59.99999965
_symmetry_Int_Tables_number   1
_chemical_formula_structural   Na3MgC2ClO6
_chemical_formula_sum   'Na12 Mg4 C8 Cl4 O24'
_cell_volume   732.34641755
_cell_formula_units_Z   4
loop_
 _symmetry_equiv_pos_site_id
 _symmetry_equiv_pos_as_xyz
  1  'x, y, z'
loop_
 _atom_site_type_symbol
 _atom_site_label
 _atom_site_symmetry_multiplicity
 _atom_site_fract_x
 _atom_site_fract_y
 _atom_site_fract_z
 _atom_site_occupancy
  Na  Na0  1  0.640356  0.109644  0.109644  1
  Na  Na1  1  0.640356  0.640356  0.109644  1
  Na  Na2  1  0.109644  0.640356  0.109644  1
  Na  Na3  1  0.890356  0.359644  0.890356  1
  Na  Na4  1  0.109644  0.109644  0.640356  1
  Na  Na5  1  0.109644  0.640356  0.640356  1
  Na  Na6  1  0.890356  0.359644  0.359644  1
  Na  Na7  1  0.359644  0.359644  0.890356  1
  Na  Na8  1  0.640356  0.109644  0.640356  1
  Na  Na9  1  0.359644  0.890356  0.359644  1
  Na  Na10  1  0.359644  0.890356  0.890356  1
  Na  Na11  1  0.890356  0.890356  0.359644  1
  Mg  Mg12  1  0.500000  0.500000  0.000000  1
  Mg  Mg13  1  0.500000  0.000000  0.500000  1
  Mg  Mg14  1  0.000000  0.500000  0.500000  1
  Mg  Mg15  1  0.500000  0.500000  0.500000  1
  C  C16  1  0.347080  0.717640  0.717640  1
  C  C17  1  0.717640  0.347080  0.717640  1
  C  C18  1  0.717640  0.717640  0.717640  1
  C  C19  1  0.282360  0.652920  0.282360  1
  C  C20  1  0.282360  0.282360  0.652920  1
  C  C21  1  0.282360  0.282360  0.282360  1
  C  C22  1  0.717640  0.717640  0.347080  1
  C  C23  1  0.652920  0.282360  0.282360  1
  Cl  Cl24  1  0.000000  0.000000  0.500000  1
  Cl  Cl25  1  0.500000  0.000000  0.000000  1
  Cl  Cl26  1  0.000000  0.500000  0.000000  1
  Cl  Cl27  1  0.000000  0.000000  0.000000  1
  O  O28  1  0.866085  0.644398  0.644398  1
  O  O29  1  0.345120  0.644398  0.866085  1
  O  O30  1  0.133915  0.355602  0.355602  1
  O  O31  1  0.644398  0.345120  0.644398  1
  O  O32  1  0.133915  0.654880  0.355602  1
  O  O33  1  0.355602  0.654880  0.133915  1
  O  O34  1  0.355602  0.133915  0.355602  1
  O  O35  1  0.355602  0.654880  0.355602  1
  O  O36  1  0.644398  0.345120  0.866085  1
  O  O37  1  0.355602  0.355602  0.654880  1
  O  O38  1  0.355602  0.355602  0.133915  1
  O  O39  1  0.654880  0.355602  0.133915  1
  O  O40  1  0.654880  0.355602  0.355602  1
  O  O41  1  0.866085  0.345120  0.644398  1
  O  O42  1  0.644398  0.644398  0.866085  1
  O  O43  1  0.654880  0.133915  0.355602  1
  O  O44  1  0.355602  0.133915  0.654880  1
  O  O45  1  0.644398  0.644398  0.345120  1
  O  O46  1  0.866085  0.644398  0.345120  1
  O  O47  1  0.345120  0.644398  0.644398  1
  O  O48  1  0.345120  0.866085  0.644398  1
  O  O49  1  0.133915  0.355602  0.654880  1
  O  O50  1  0.644398  0.866085  0.644398  1
  O  O51  1  0.644398  0.866085  0.345120  1
