# generated using pymatgen
data_Si2H18C7N2
_symmetry_space_group_name_H-M   'P 1'
_cell_length_a   10.01342431
_cell_length_b   11.47820056
_cell_length_c   12.28868067
_cell_angle_alpha   90.00000000
_cell_angle_beta   102.58551990
_cell_angle_gamma   90.00000000
_symmetry_Int_Tables_number   1
_chemical_formula_structural   Si2H18C7N2
_chemical_formula_sum   'Si8 H72 C28 N8'
_cell_volume   1378.47528411
_cell_formula_units_Z   4
loop_
 _symmetry_equiv_pos_site_id
 _symmetry_equiv_pos_as_xyz
  1  'x, y, z'
loop_
 _atom_site_type_symbol
 _atom_site_label
 _atom_site_symmetry_multiplicity
 _atom_site_fract_x
 _atom_site_fract_y
 _atom_site_fract_z
 _atom_site_occupancy
  Si  Si0  1  0.010057  0.543959  0.267870  1
  Si  Si1  1  0.563699  0.732800  0.466903  1
  Si  Si2  1  0.436301  0.267200  0.533097  1
  Si  Si3  1  0.436301  0.232800  0.033097  1
  Si  Si4  1  0.563699  0.767200  0.966903  1
  Si  Si5  1  0.989943  0.456041  0.732130  1
  Si  Si6  1  0.989943  0.043959  0.232130  1
  Si  Si7  1  0.010057  0.956041  0.767870  1
  H  H8  1  0.570418  0.135687  0.202700  1
  H  H9  1  0.524905  0.897646  0.332068  1
  H  H10  1  0.570418  0.364313  0.702700  1
  H  H11  1  0.560473  0.331901  0.903871  1
  H  H12  1  0.963134  0.888826  0.949367  1
  H  H13  1  0.300822  0.146100  0.638563  1
  H  H14  1  0.395309  0.094669  0.179476  1
  H  H15  1  0.390702  0.817096  0.078219  1
  H  H16  1  0.390702  0.682904  0.578219  1
  H  H17  1  0.675582  0.213717  0.527672  1
  H  H18  1  0.844434  0.412520  0.146488  1
  H  H19  1  0.439527  0.831901  0.596129  1
  H  H20  1  0.237392  0.042212  0.322517  1
  H  H21  1  0.635792  0.939799  0.459531  1
  H  H22  1  0.524905  0.602354  0.832068  1
  H  H23  1  0.068165  0.223867  0.152728  1
  H  H24  1  0.300822  0.353900  0.138563  1
  H  H25  1  0.675582  0.286283  0.027672  1
  H  H26  1  0.495804  0.530898  0.401097  1
  H  H27  1  0.604691  0.594669  0.320524  1
  H  H28  1  0.429582  0.864313  0.797300  1
  H  H29  1  0.324418  0.786283  0.472328  1
  H  H30  1  0.237392  0.457788  0.822517  1
  H  H31  1  0.801866  0.428993  0.278956  1
  H  H32  1  0.823490  0.152721  0.318195  1
  H  H33  1  0.036866  0.388826  0.550633  1
  H  H34  1  0.897702  0.188951  0.084241  1
  H  H35  1  0.176510  0.652721  0.181805  1
  H  H36  1  0.963134  0.611174  0.449367  1
  H  H37  1  0.155566  0.587480  0.853512  1
  H  H38  1  0.004946  0.813063  0.615281  1
  H  H39  1  0.198134  0.928993  0.221044  1
  H  H40  1  0.364208  0.060201  0.540469  1
  H  H41  1  0.198134  0.571007  0.721044  1
  H  H42  1  0.699178  0.853900  0.361437  1
  H  H43  1  0.762608  0.957788  0.677483  1
  H  H44  1  0.844434  0.087480  0.646488  1
  H  H45  1  0.762608  0.542212  0.177483  1
  H  H46  1  0.931835  0.776133  0.847272  1
  H  H47  1  0.495804  0.969102  0.901097  1
  H  H48  1  0.102298  0.811049  0.915759  1
  H  H49  1  0.364208  0.439799  0.040469  1
  H  H50  1  0.079397  0.946914  0.585306  1
  H  H51  1  0.079397  0.553086  0.085306  1
  H  H52  1  0.324418  0.713717  0.972328  1
  H  H53  1  0.801866  0.071007  0.778956  1
  H  H54  1  0.604691  0.905331  0.820524  1
  H  H55  1  0.439527  0.668099  0.096129  1
  H  H56  1  0.995054  0.186937  0.384719  1
  H  H57  1  0.931835  0.723867  0.347272  1
  H  H58  1  0.395309  0.405331  0.679476  1
  H  H59  1  0.504196  0.469102  0.598903  1
  H  H60  1  0.176510  0.847279  0.681805  1
  H  H61  1  0.068165  0.276133  0.652728  1
  H  H62  1  0.560473  0.168099  0.403871  1
  H  H63  1  0.155566  0.912520  0.353512  1
  H  H64  1  0.823490  0.347279  0.818195  1
  H  H65  1  0.920603  0.053086  0.414694  1
  H  H66  1  0.699178  0.646100  0.861437  1
  H  H67  1  0.609298  0.182904  0.921781  1
  H  H68  1  0.995054  0.313063  0.884719  1
  H  H69  1  0.635792  0.560201  0.959531  1
  H  H70  1  0.475095  0.102354  0.667932  1
  H  H71  1  0.036866  0.111174  0.050633  1
  H  H72  1  0.102298  0.688951  0.415759  1
  H  H73  1  0.920603  0.446914  0.914694  1
  H  H74  1  0.004946  0.686937  0.115281  1
  H  H75  1  0.504196  0.030898  0.098903  1
  H  H76  1  0.609298  0.317096  0.421781  1
  H  H77  1  0.429582  0.635687  0.297300  1
  H  H78  1  0.475095  0.397646  0.167932  1
  H  H79  1  0.897702  0.311049  0.584241  1
  C  C80  1  0.389678  0.368482  0.101181  1
  C  C81  1  0.416058  0.760956  0.534875  1
  C  C82  1  0.416058  0.739044  0.034875  1
  C  C83  1  0.519932  0.612067  0.362002  1
  C  C84  1  0.000915  0.651652  0.380787  1
  C  C85  1  0.610322  0.631518  0.898819  1
  C  C86  1  0.788655  0.626185  0.621453  1
  C  C87  1  0.480068  0.387933  0.637998  1
  C  C88  1  0.999085  0.348348  0.619213  1
  C  C89  1  0.161492  0.524634  0.787215  1
  C  C90  1  0.838508  0.024634  0.712785  1
  C  C91  1  0.838508  0.475366  0.212785  1
  C  C92  1  0.926194  0.115734  0.348153  1
  C  C93  1  0.583942  0.239044  0.465125  1
  C  C94  1  0.999085  0.151652  0.119213  1
  C  C95  1  0.073806  0.615734  0.151847  1
  C  C96  1  0.926194  0.384266  0.848153  1
  C  C97  1  0.788655  0.873815  0.121453  1
  C  C98  1  0.519932  0.887933  0.862002  1
  C  C99  1  0.610322  0.868482  0.398819  1
  C  C100  1  0.161492  0.975366  0.287215  1
  C  C101  1  0.000915  0.848348  0.880787  1
  C  C102  1  0.211345  0.126185  0.878547  1
  C  C103  1  0.583942  0.260956  0.965125  1
  C  C104  1  0.480068  0.112067  0.137998  1
  C  C105  1  0.073806  0.884266  0.651847  1
  C  C106  1  0.211345  0.373815  0.378547  1
  C  C107  1  0.389678  0.131518  0.601181  1
  N  N108  1  0.877905  0.566392  0.677209  1
  N  N109  1  0.702795  0.692805  0.570273  1
  N  N110  1  0.702795  0.807195  0.070273  1
  N  N111  1  0.122095  0.066392  0.822791  1
  N  N112  1  0.122095  0.433608  0.322791  1
  N  N113  1  0.297205  0.192805  0.929727  1
  N  N114  1  0.877905  0.933608  0.177209  1
  N  N115  1  0.297205  0.307194  0.429727  1
