# generated using pymatgen
data_KVF4
_symmetry_space_group_name_H-M   'P 1'
_cell_length_a   7.74535996
_cell_length_b   7.91286536
_cell_length_c   12.56348938
_cell_angle_alpha   90.00000000
_cell_angle_beta   90.00000000
_cell_angle_gamma   90.00000000
_symmetry_Int_Tables_number   1
_chemical_formula_structural   KVF4
_chemical_formula_sum   'K8 V8 F32'
_cell_volume   769.99101812
_cell_formula_units_Z   8
loop_
 _symmetry_equiv_pos_site_id
 _symmetry_equiv_pos_as_xyz
  1  'x, y, z'
loop_
 _atom_site_type_symbol
 _atom_site_label
 _atom_site_symmetry_multiplicity
 _atom_site_fract_x
 _atom_site_fract_y
 _atom_site_fract_z
 _atom_site_occupancy
  F  F0  1  0.452827  0.375489  0.247097  1
  F  F1  1  0.952827  0.624511  0.752903  1
  F  F2  1  0.547173  0.875489  0.252903  1
  F  F3  1  0.047173  0.124511  0.747097  1
  F  F4  1  0.547173  0.624511  0.752903  1
  F  F5  1  0.047173  0.375489  0.247097  1
  F  F6  1  0.452827  0.124511  0.747097  1
  F  F7  1  0.952827  0.875489  0.252903  1
  F  F8  1  0.250000  0.417801  0.788460  1
  F  F9  1  0.750000  0.582199  0.211540  1
  F  F10  1  0.750000  0.917801  0.711540  1
  F  F11  1  0.250000  0.082199  0.288460  1
  F  F12  1  0.750000  0.331330  0.716546  1
  F  F13  1  0.250000  0.668670  0.283454  1
  F  F14  1  0.250000  0.831330  0.783454  1
  F  F15  1  0.750000  0.168670  0.216546  1
  F  F16  1  0.049196  0.115233  0.101812  1
  F  F17  1  0.549196  0.884767  0.898188  1
  F  F18  1  0.950804  0.615233  0.398188  1
  F  F19  1  0.450804  0.384767  0.601812  1
  F  F20  1  0.950804  0.884767  0.898188  1
  F  F21  1  0.450804  0.115233  0.101812  1
  F  F22  1  0.049196  0.384767  0.601812  1
  F  F23  1  0.549196  0.615233  0.398188  1
  F  F24  1  0.953299  0.134598  0.402372  1
  F  F25  1  0.453299  0.865402  0.597628  1
  F  F26  1  0.046701  0.634598  0.097628  1
  F  F27  1  0.546701  0.365402  0.902372  1
  F  F28  1  0.046701  0.865402  0.597628  1
  F  F29  1  0.546701  0.134598  0.402372  1
  F  F30  1  0.953299  0.365402  0.902372  1
  F  F31  1  0.453299  0.634598  0.097628  1
  K  K32  1  0.250000  0.624115  0.512357  1
  K  K33  1  0.750000  0.375885  0.487643  1
  K  K34  1  0.750000  0.124115  0.987643  1
  K  K35  1  0.250000  0.875885  0.012357  1
  K  K36  1  0.250000  0.125885  0.527056  1
  K  K37  1  0.750000  0.874115  0.472944  1
  K  K38  1  0.750000  0.625885  0.972944  1
  K  K39  1  0.250000  0.374115  0.027056  1
  V  V40  1  0.500636  0.625481  0.248098  1
  V  V41  1  0.000636  0.374519  0.751902  1
  V  V42  1  0.499364  0.125481  0.251902  1
  V  V43  1  0.999364  0.874519  0.748098  1
  V  V44  1  0.499364  0.374519  0.751902  1
  V  V45  1  0.999364  0.625481  0.248098  1
  V  V46  1  0.500636  0.874519  0.748098  1
  V  V47  1  0.000636  0.125481  0.251902  1
