# generated using pymatgen
data_Na3NiF6
_symmetry_space_group_name_H-M   'P 1'
_cell_length_a   5.60001788
_cell_length_b   5.76879130
_cell_length_c   7.96346108
_cell_angle_alpha   90.00000000
_cell_angle_beta   91.44239036
_cell_angle_gamma   90.00000000
_symmetry_Int_Tables_number   1
_chemical_formula_structural   Na3NiF6
_chemical_formula_sum   'Na6 Ni2 F12'
_cell_volume   257.18075743
_cell_formula_units_Z   2
loop_
 _symmetry_equiv_pos_site_id
 _symmetry_equiv_pos_as_xyz
  1  'x, y, z'
loop_
 _atom_site_type_symbol
 _atom_site_label
 _atom_site_symmetry_multiplicity
 _atom_site_fract_x
 _atom_site_fract_y
 _atom_site_fract_z
 _atom_site_occupancy
  Na  Na0  1  0.995143  0.452257  0.263098  1
  Na  Na1  1  0.495143  0.047743  0.763098  1
  Na  Na2  1  0.004857  0.547743  0.736902  1
  Na  Na3  1  0.504857  0.952257  0.236902  1
  Na  Na4  1  0.500000  0.500000  0.000000  1
  Na  Na5  1  0.000000  0.000000  0.500000  1
  Ni  Ni6  1  0.500000  0.500000  0.500000  1
  Ni  Ni7  1  0.000000  0.000000  0.000000  1
  F  F8  1  0.204293  0.332424  0.540282  1
  F  F9  1  0.155324  0.280338  0.934100  1
  F  F10  1  0.102355  0.059347  0.226805  1
  F  F11  1  0.844676  0.719662  0.065900  1
  F  F12  1  0.295707  0.832424  0.959718  1
  F  F13  1  0.397645  0.559347  0.273195  1
  F  F14  1  0.655324  0.219662  0.434100  1
  F  F15  1  0.602355  0.440653  0.726805  1
  F  F16  1  0.344676  0.780338  0.565900  1
  F  F17  1  0.897645  0.940653  0.773195  1
  F  F18  1  0.795707  0.667576  0.459718  1
  F  F19  1  0.704293  0.167576  0.040282  1
