# generated using pymatgen
data_K2P2WO9
_symmetry_space_group_name_H-M   'P 1'
_cell_length_a   8.17221544
_cell_length_b   8.17221575
_cell_length_c   15.75856578
_cell_angle_alpha   82.38113426
_cell_angle_beta   82.38113399
_cell_angle_gamma   60.49869881
_symmetry_Int_Tables_number   1
_chemical_formula_structural   K2P2WO9
_chemical_formula_sum   'K8 P8 W4 O36'
_cell_volume   905.13035196
_cell_formula_units_Z   4
loop_
 _symmetry_equiv_pos_site_id
 _symmetry_equiv_pos_as_xyz
  1  'x, y, z'
loop_
 _atom_site_type_symbol
 _atom_site_label
 _atom_site_symmetry_multiplicity
 _atom_site_fract_x
 _atom_site_fract_y
 _atom_site_fract_z
 _atom_site_occupancy
  K  K0  1  0.426613  0.275205  0.473641  1
  K  K1  1  0.275205  0.426613  0.973641  1
  K  K2  1  0.493626  0.798262  0.261789  1
  K  K3  1  0.201738  0.506374  0.238211  1
  K  K4  1  0.506374  0.201738  0.738211  1
  K  K5  1  0.573387  0.724795  0.526359  1
  K  K6  1  0.798262  0.493626  0.761789  1
  K  K7  1  0.724795  0.573387  0.026359  1
  P  P8  1  0.791206  0.953920  0.344935  1
  P  P9  1  0.231750  0.842264  0.077594  1
  P  P10  1  0.157736  0.768250  0.422406  1
  P  P11  1  0.046080  0.208794  0.155065  1
  P  P12  1  0.208794  0.046080  0.655065  1
  P  P13  1  0.953920  0.791206  0.844935  1
  P  P14  1  0.768250  0.157736  0.922406  1
  P  P15  1  0.842264  0.231750  0.577594  1
  W  W16  1  0.969935  0.254668  0.364394  1
  W  W17  1  0.254668  0.969935  0.864394  1
  W  W18  1  0.030065  0.745332  0.635606  1
  W  W19  1  0.745332  0.030065  0.135606  1
  O  O20  1  0.371899  0.679104  0.130907  1
  O  O21  1  0.811711  0.474959  0.315041  1
  O  O22  1  0.966088  0.137925  0.915559  1
  O  O23  1  0.188289  0.525041  0.684959  1
  O  O24  1  0.142047  0.098820  0.750666  1
  O  O25  1  0.312971  0.830007  0.981731  1
  O  O26  1  0.616556  0.943725  0.379588  1
  O  O27  1  0.214170  0.036035  0.103504  1
  O  O28  1  0.963965  0.785830  0.396496  1
  O  O29  1  0.320896  0.628101  0.369093  1
  O  O30  1  0.214888  0.859461  0.643590  1
  O  O31  1  0.036035  0.214170  0.603504  1
  O  O32  1  0.901180  0.857953  0.749334  1
  O  O33  1  0.785112  0.140539  0.356410  1
  O  O34  1  0.830007  0.312971  0.481731  1
  O  O35  1  0.169993  0.687029  0.518269  1
  O  O36  1  0.056275  0.383444  0.120412  1
  O  O37  1  0.525041  0.188289  0.184959  1
  O  O38  1  0.033912  0.862075  0.084441  1
  O  O39  1  0.297079  0.152949  0.886085  1
  O  O40  1  0.152949  0.297079  0.386085  1
  O  O41  1  0.785830  0.963965  0.896496  1
  O  O42  1  0.679104  0.371899  0.630907  1
  O  O43  1  0.702921  0.847051  0.113915  1
  O  O44  1  0.847051  0.702921  0.613915  1
  O  O45  1  0.687029  0.169993  0.018269  1
  O  O46  1  0.140539  0.785112  0.856410  1
  O  O47  1  0.943725  0.616556  0.879588  1
  O  O48  1  0.862075  0.033912  0.584441  1
  O  O49  1  0.857953  0.901180  0.249334  1
  O  O50  1  0.383444  0.056275  0.620412  1
  O  O51  1  0.137925  0.966088  0.415559  1
  O  O52  1  0.628101  0.320896  0.869093  1
  O  O53  1  0.098820  0.142047  0.250666  1
  O  O54  1  0.474959  0.811711  0.815041  1
  O  O55  1  0.859461  0.214888  0.143590  1
