# generated using pymatgen
data_KMnVO4
_symmetry_space_group_name_H-M   'P 1'
_cell_length_a   5.72037526
_cell_length_b   12.29139724
_cell_length_c   24.29417867
_cell_angle_alpha   103.61225941
_cell_angle_beta   90.00000000
_cell_angle_gamma   90.00000000
_symmetry_Int_Tables_number   1
_chemical_formula_structural   KMnVO4
_chemical_formula_sum   'K16 Mn16 V16 O64'
_cell_volume   1660.17681151
_cell_formula_units_Z   16
loop_
 _symmetry_equiv_pos_site_id
 _symmetry_equiv_pos_as_xyz
  1  'x, y, z'
loop_
 _atom_site_type_symbol
 _atom_site_label
 _atom_site_symmetry_multiplicity
 _atom_site_fract_x
 _atom_site_fract_y
 _atom_site_fract_z
 _atom_site_occupancy
  K  K0  1  0.213645  0.441206  0.812834  1
  K  K1  1  0.715811  0.807011  0.935619  1
  K  K2  1  0.729951  0.376671  0.695184  1
  K  K3  1  0.784189  0.307011  0.435619  1
  K  K4  1  0.229951  0.123329  0.804816  1
  K  K5  1  0.727313  0.734556  0.684988  1
  K  K6  1  0.786355  0.558794  0.187166  1
  K  K7  1  0.772687  0.234556  0.184988  1
  K  K8  1  0.215811  0.692989  0.564381  1
  K  K9  1  0.227313  0.765444  0.815012  1
  K  K10  1  0.284189  0.192989  0.064381  1
  K  K11  1  0.270049  0.623329  0.304816  1
  K  K12  1  0.713645  0.058794  0.687166  1
  K  K13  1  0.272687  0.265444  0.315012  1
  K  K14  1  0.770049  0.876671  0.195185  1
  K  K15  1  0.286355  0.941206  0.312834  1
  Mn  Mn16  1  0.764420  0.440577  0.318413  1
  Mn  Mn17  1  0.257769  0.386055  0.560710  1
  Mn  Mn18  1  0.235580  0.559423  0.681587  1
  Mn  Mn19  1  0.742318  0.676366  0.058418  1
  Mn  Mn20  1  0.757682  0.176366  0.558418  1
  Mn  Mn21  1  0.257682  0.323634  0.941582  1
  Mn  Mn22  1  0.722835  0.499627  0.922830  1
  Mn  Mn23  1  0.242231  0.886055  0.060710  1
  Mn  Mn24  1  0.777165  0.999627  0.422830  1
  Mn  Mn25  1  0.222835  0.000373  0.577170  1
  Mn  Mn26  1  0.757769  0.113945  0.939290  1
  Mn  Mn27  1  0.264420  0.059423  0.181587  1
  Mn  Mn28  1  0.742231  0.613945  0.439290  1
  Mn  Mn29  1  0.277165  0.500373  0.077170  1
  Mn  Mn30  1  0.242318  0.823634  0.441582  1
  Mn  Mn31  1  0.735580  0.940577  0.818413  1
  V  V32  1  0.729741  0.864655  0.536047  1
  V  V33  1  0.273104  0.385760  0.208877  1
  V  V34  1  0.245101  0.233928  0.652636  1
  V  V35  1  0.229741  0.635345  0.963953  1
  V  V36  1  0.770259  0.364655  0.036047  1
  V  V37  1  0.754899  0.766072  0.347364  1
  V  V38  1  0.226896  0.885760  0.708877  1
  V  V39  1  0.773020  0.994316  0.070147  1
  V  V40  1  0.745101  0.266072  0.847364  1
  V  V41  1  0.773104  0.114240  0.291123  1
  V  V42  1  0.726896  0.614240  0.791123  1
  V  V43  1  0.273020  0.505684  0.429853  1
  V  V44  1  0.726980  0.494316  0.570147  1
  V  V45  1  0.254899  0.733928  0.152636  1
  V  V46  1  0.226980  0.005684  0.929853  1
  V  V47  1  0.270259  0.135345  0.463953  1
  O  O48  1  0.505814  0.014480  0.107270  1
  O  O49  1  0.747320  0.312649  0.093812  1
  O  O50  1  0.250324  0.454931  0.490058  1
  O  O51  1  0.252680  0.687351  0.906188  1
  O  O52  1  0.778408  0.260361  0.311617  1
  O  O53  1  0.184420  0.726127  0.218990  1
  O  O54  1  0.249676  0.954931  0.990058  1
  O  O55  1  0.045708  0.804031  0.364501  1
  O  O56  1  0.613117  0.275412  0.980133  1
  O  O57  1  0.716199  0.625745  0.351642  1
  O  O58  1  0.075462  0.380424  0.021615  1
  O  O59  1  0.494186  0.985520  0.892730  1
  O  O60  1  0.020243  0.068520  0.250047  1
  O  O61  1  0.849481  0.850192  0.053906  1
  O  O62  1  0.750324  0.045069  0.009942  1
  O  O63  1  0.721592  0.760361  0.811617  1
  O  O64  1  0.498381  0.440737  0.386132  1
  O  O65  1  0.265703  0.444241  0.150317  1
  O  O66  1  0.545708  0.695969  0.135499  1
  O  O67  1  0.216199  0.874255  0.148358  1
  O  O68  1  0.436678  0.142622  0.604109  1
  O  O69  1  0.815580  0.273873  0.781010  1
  O  O70  1  0.752680  0.812649  0.593812  1
  O  O71  1  0.954292  0.195969  0.635499  1
  O  O72  1  0.684420  0.773873  0.281010  1
  O  O73  1  0.454292  0.304031  0.864501  1
  O  O74  1  0.063322  0.642622  0.104109  1
  O  O75  1  0.734297  0.555759  0.849683  1
  O  O76  1  0.372079  0.503425  0.949001  1
  O  O77  1  0.563322  0.857378  0.395891  1
  O  O78  1  0.221592  0.739639  0.688383  1
  O  O79  1  0.150519  0.149808  0.946094  1
  O  O80  1  0.113117  0.224588  0.519867  1
  O  O81  1  0.001619  0.940737  0.886132  1
  O  O82  1  0.872079  0.996575  0.550999  1
  O  O83  1  0.234297  0.944241  0.650317  1
  O  O84  1  0.979757  0.931480  0.749953  1
  O  O85  1  0.469673  0.929461  0.752467  1
  O  O86  1  0.386883  0.724588  0.019867  1
  O  O87  1  0.575462  0.119576  0.478385  1
  O  O88  1  0.998381  0.059263  0.113868  1
  O  O89  1  0.030327  0.429461  0.252467  1
  O  O90  1  0.749676  0.545069  0.509942  1
  O  O91  1  0.765703  0.055759  0.349683  1
  O  O92  1  0.627921  0.496575  0.050999  1
  O  O93  1  0.127921  0.003425  0.449001  1
  O  O94  1  0.936678  0.357378  0.895891  1
  O  O95  1  0.924538  0.619576  0.978385  1
  O  O96  1  0.783801  0.125745  0.851642  1
  O  O97  1  0.479757  0.568520  0.750047  1
  O  O98  1  0.650519  0.350192  0.553906  1
  O  O99  1  0.424538  0.880424  0.521615  1
  O  O100  1  0.886883  0.775412  0.480133  1
  O  O101  1  0.349481  0.649808  0.446094  1
  O  O102  1  0.994186  0.514480  0.607270  1
  O  O103  1  0.501619  0.559263  0.613868  1
  O  O104  1  0.530327  0.070540  0.247533  1
  O  O105  1  0.247320  0.187351  0.406188  1
  O  O106  1  0.005814  0.485520  0.392730  1
  O  O107  1  0.278408  0.239639  0.188383  1
  O  O108  1  0.283801  0.374255  0.648358  1
  O  O109  1  0.315580  0.226127  0.718990  1
  O  O110  1  0.520243  0.431480  0.249953  1
  O  O111  1  0.969673  0.570539  0.747533  1
