# generated using pymatgen
data_KTaN2
_symmetry_space_group_name_H-M   'P 1'
_cell_length_a   5.96749985
_cell_length_b   11.96324898
_cell_length_c   16.77839066
_cell_angle_alpha   90.00000000
_cell_angle_beta   90.00000000
_cell_angle_gamma   90.00000000
_symmetry_Int_Tables_number   1
_chemical_formula_structural   KTaN2
_chemical_formula_sum   'K16 Ta16 N32'
_cell_volume   1197.82082748
_cell_formula_units_Z   16
loop_
 _symmetry_equiv_pos_site_id
 _symmetry_equiv_pos_as_xyz
  1  'x, y, z'
loop_
 _atom_site_type_symbol
 _atom_site_label
 _atom_site_symmetry_multiplicity
 _atom_site_fract_x
 _atom_site_fract_y
 _atom_site_fract_z
 _atom_site_occupancy
  K  K0  1  0.209861  0.737199  0.814842  1
  K  K1  1  0.209861  0.762801  0.314842  1
  K  K2  1  0.241940  0.501795  0.439173  1
  K  K3  1  0.290139  0.237199  0.814842  1
  K  K4  1  0.790139  0.262801  0.185158  1
  K  K5  1  0.758060  0.498205  0.560827  1
  K  K6  1  0.258060  0.498205  0.939173  1
  K  K7  1  0.741940  0.998205  0.560827  1
  K  K8  1  0.741940  0.501795  0.060827  1
  K  K9  1  0.258060  0.001795  0.439173  1
  K  K10  1  0.758060  0.001795  0.060827  1
  K  K11  1  0.709861  0.762801  0.185158  1
  K  K12  1  0.290139  0.262801  0.314842  1
  K  K13  1  0.709861  0.737199  0.685158  1
  K  K14  1  0.241940  0.998205  0.939173  1
  K  K15  1  0.790139  0.237199  0.685158  1
  Ta  Ta16  1  0.273945  0.265144  0.064162  1
  Ta  Ta17  1  0.226055  0.734856  0.564162  1
  Ta  Ta18  1  0.761321  0.009301  0.310976  1
  Ta  Ta19  1  0.273945  0.234856  0.564162  1
  Ta  Ta20  1  0.261321  0.490699  0.689024  1
  Ta  Ta21  1  0.726055  0.734856  0.935838  1
  Ta  Ta22  1  0.738679  0.990699  0.810976  1
  Ta  Ta23  1  0.261321  0.009301  0.189024  1
  Ta  Ta24  1  0.226055  0.765144  0.064162  1
  Ta  Ta25  1  0.773945  0.234856  0.935838  1
  Ta  Ta26  1  0.238679  0.509301  0.189024  1
  Ta  Ta27  1  0.238679  0.990699  0.689024  1
  Ta  Ta28  1  0.738679  0.509301  0.310976  1
  Ta  Ta29  1  0.761321  0.490699  0.810976  1
  Ta  Ta30  1  0.773945  0.265144  0.435838  1
  Ta  Ta31  1  0.726055  0.765144  0.435838  1
  N  N32  1  0.449605  0.517900  0.781685  1
  N  N33  1  0.806035  0.162772  0.346152  1
  N  N34  1  0.436860  0.793476  0.485885  1
  N  N35  1  0.550395  0.482100  0.218315  1
  N  N36  1  0.949605  0.982100  0.218315  1
  N  N37  1  0.949605  0.517900  0.718315  1
  N  N38  1  0.063140  0.293476  0.485885  1
  N  N39  1  0.936860  0.793476  0.014115  1
  N  N40  1  0.936860  0.706524  0.514115  1
  N  N41  1  0.693965  0.837228  0.846152  1
  N  N42  1  0.193965  0.837228  0.653848  1
  N  N43  1  0.436860  0.706524  0.985885  1
  N  N44  1  0.343086  0.906596  0.103473  1
  N  N45  1  0.050395  0.482100  0.281685  1
  N  N46  1  0.306035  0.162772  0.153848  1
  N  N47  1  0.343086  0.593404  0.603473  1
  N  N48  1  0.843086  0.906596  0.396527  1
  N  N49  1  0.449605  0.982100  0.281685  1
  N  N50  1  0.656914  0.406596  0.396527  1
  N  N51  1  0.050395  0.017900  0.781685  1
  N  N52  1  0.550395  0.017900  0.718315  1
  N  N53  1  0.806035  0.337228  0.846152  1
  N  N54  1  0.656914  0.093404  0.896527  1
  N  N55  1  0.306035  0.337228  0.653848  1
  N  N56  1  0.156914  0.093404  0.603473  1
  N  N57  1  0.563140  0.206524  0.514115  1
  N  N58  1  0.156914  0.406596  0.103473  1
  N  N59  1  0.063140  0.206524  0.985885  1
  N  N60  1  0.693965  0.662772  0.346152  1
  N  N61  1  0.843086  0.593404  0.896527  1
  N  N62  1  0.193965  0.662772  0.153848  1
  N  N63  1  0.563140  0.293476  0.014115  1
