# generated using pymatgen
data_Na2Sr2Al2PO4F9
_symmetry_space_group_name_H-M   'P 1'
_cell_length_a   5.33846110
_cell_length_b   10.62911225
_cell_length_c   17.97380900
_cell_angle_alpha   90.00000000
_cell_angle_beta   91.05801447
_cell_angle_gamma   90.00000000
_symmetry_Int_Tables_number   1
_chemical_formula_structural   Na2Sr2Al2PO4F9
_chemical_formula_sum   'Na8 Sr8 Al8 P4 O16 F36'
_cell_volume   1019.71580229
_cell_formula_units_Z   4
loop_
 _symmetry_equiv_pos_site_id
 _symmetry_equiv_pos_as_xyz
  1  'x, y, z'
loop_
 _atom_site_type_symbol
 _atom_site_label
 _atom_site_symmetry_multiplicity
 _atom_site_fract_x
 _atom_site_fract_y
 _atom_site_fract_z
 _atom_site_occupancy
  Na  Na0  1  0.520224  0.279844  0.018847  1
  Na  Na1  1  0.023577  0.742941  0.868156  1
  Na  Na2  1  0.976423  0.257059  0.131844  1
  Na  Na3  1  0.479776  0.720156  0.981153  1
  Na  Na4  1  0.523577  0.757059  0.368156  1
  Na  Na5  1  0.979776  0.779844  0.481153  1
  Na  Na6  1  0.020224  0.220156  0.518847  1
  Na  Na7  1  0.476423  0.242941  0.631844  1
  Sr  Sr8  1  0.492893  0.538826  0.168437  1
  Sr  Sr9  1  0.507107  0.461174  0.831563  1
  Sr  Sr10  1  0.007107  0.038826  0.331563  1
  Sr  Sr11  1  0.999769  0.463390  0.356969  1
  Sr  Sr12  1  0.499769  0.036610  0.856969  1
  Sr  Sr13  1  0.500231  0.963390  0.143031  1
  Sr  Sr14  1  0.000231  0.536610  0.643031  1
  Sr  Sr15  1  0.992893  0.961174  0.668437  1
  Al  Al16  1  0.544814  0.752955  0.758985  1
  Al  Al17  1  0.000000  0.500000  0.000000  1
  Al  Al18  1  0.044814  0.747045  0.258985  1
  Al  Al19  1  0.500000  0.000000  0.500000  1
  Al  Al20  1  0.955186  0.252955  0.741015  1
  Al  Al21  1  0.455186  0.247045  0.241015  1
  Al  Al22  1  0.000000  0.000000  0.000000  1
  Al  Al23  1  0.500000  0.500000  0.500000  1
  P  P24  1  0.036466  0.250393  0.909470  1
  P  P25  1  0.536466  0.249607  0.409470  1
  P  P26  1  0.463534  0.750393  0.590530  1
  P  P27  1  0.963534  0.749607  0.090530  1
  O  O28  1  0.106521  0.698377  0.161011  1
  O  O29  1  0.545196  0.827141  0.522080  1
  O  O30  1  0.393479  0.198377  0.338989  1
  O  O31  1  0.954804  0.327141  0.977920  1
  O  O32  1  0.322874  0.255708  0.899134  1
  O  O33  1  0.442069  0.387023  0.419704  1
  O  O34  1  0.942069  0.112977  0.919704  1
  O  O35  1  0.822874  0.244292  0.399134  1
  O  O36  1  0.454804  0.172859  0.477920  1
  O  O37  1  0.177126  0.755708  0.600866  1
  O  O38  1  0.677126  0.744292  0.100866  1
  O  O39  1  0.045197  0.672859  0.022080  1
  O  O40  1  0.557931  0.612977  0.580296  1
  O  O41  1  0.606521  0.801623  0.661011  1
  O  O42  1  0.893479  0.301623  0.838989  1
  O  O43  1  0.057931  0.887023  0.080296  1
  F  F44  1  0.000431  0.786392  0.356684  1
  F  F45  1  0.658809  0.966034  0.411573  1
  F  F46  1  0.699730  0.135373  0.739673  1
  F  F47  1  0.499569  0.286392  0.143316  1
  F  F48  1  0.800270  0.635373  0.760327  1
  F  F49  1  0.706086  0.130861  0.232391  1
  F  F50  1  0.206086  0.369139  0.732391  1
  F  F51  1  0.229617  0.124376  0.211093  1
  F  F52  1  0.729617  0.375624  0.711093  1
  F  F53  1  0.341191  0.033966  0.588427  1
  F  F54  1  0.270383  0.624376  0.288907  1
  F  F55  1  0.158809  0.533966  0.911573  1
  F  F56  1  0.790253  0.091288  0.061255  1
  F  F57  1  0.500431  0.713608  0.856684  1
  F  F58  1  0.170569  0.124911  0.763711  1
  F  F59  1  0.296581  0.466149  0.048024  1
  F  F60  1  0.290253  0.408712  0.561255  1
  F  F61  1  0.999569  0.213608  0.643316  1
  F  F62  1  0.709747  0.591288  0.438745  1
  F  F63  1  0.829431  0.875089  0.236289  1
  F  F64  1  0.793914  0.630861  0.267609  1
  F  F65  1  0.203419  0.966149  0.451976  1
  F  F66  1  0.733196  0.910229  0.962949  1
  F  F67  1  0.266804  0.089771  0.037051  1
  F  F68  1  0.329431  0.624911  0.736289  1
  F  F69  1  0.796581  0.033851  0.548024  1
  F  F70  1  0.770383  0.875624  0.788907  1
  F  F71  1  0.209747  0.908712  0.938745  1
  F  F72  1  0.670569  0.375089  0.263711  1
  F  F73  1  0.293914  0.869139  0.767609  1
  F  F74  1  0.199730  0.364627  0.239673  1
  F  F75  1  0.841191  0.466034  0.088427  1
  F  F76  1  0.703419  0.533851  0.951976  1
  F  F77  1  0.233196  0.589771  0.462949  1
  F  F78  1  0.766804  0.410229  0.537051  1
  F  F79  1  0.300270  0.864627  0.260327  1
