# generated using pymatgen
data_Na3(CuO2)2
_symmetry_space_group_name_H-M   'P 1'
_cell_length_a   5.72407055
_cell_length_b   8.16156790
_cell_length_c   11.14097236
_cell_angle_alpha   90.00000000
_cell_angle_beta   90.00000000
_cell_angle_gamma   108.25796291
_symmetry_Int_Tables_number   1
_chemical_formula_structural   Na3(CuO2)2
_chemical_formula_sum   'Na12 Cu8 O16'
_cell_volume   494.27404201
_cell_formula_units_Z   4
loop_
 _symmetry_equiv_pos_site_id
 _symmetry_equiv_pos_as_xyz
  1  'x, y, z'
loop_
 _atom_site_type_symbol
 _atom_site_label
 _atom_site_symmetry_multiplicity
 _atom_site_fract_x
 _atom_site_fract_y
 _atom_site_fract_z
 _atom_site_occupancy
  Na  Na0  1  0.191549  0.051763  0.899130  1
  Na  Na1  1  0.270665  0.381387  0.794478  1
  Na  Na2  1  0.308451  0.448237  0.399130  1
  Na  Na3  1  0.691549  0.551763  0.600870  1
  Na  Na4  1  0.770665  0.881387  0.705522  1
  Na  Na5  1  0.729335  0.618613  0.205522  1
  Na  Na6  1  0.273489  0.382101  0.078697  1
  Na  Na7  1  0.808451  0.948237  0.100870  1
  Na  Na8  1  0.226511  0.117899  0.578697  1
  Na  Na9  1  0.229335  0.118613  0.294478  1
  Na  Na10  1  0.726511  0.617899  0.921303  1
  Na  Na11  1  0.773489  0.882101  0.421303  1
  Cu  Cu12  1  0.739640  0.239272  0.826643  1
  Cu  Cu13  1  0.239640  0.739272  0.673357  1
  Cu  Cu14  1  0.760008  0.230356  0.575289  1
  Cu  Cu15  1  0.760360  0.260728  0.326643  1
  Cu  Cu16  1  0.260360  0.760728  0.173357  1
  Cu  Cu17  1  0.739992  0.269644  0.075289  1
  Cu  Cu18  1  0.260008  0.730356  0.924711  1
  Cu  Cu19  1  0.239992  0.769644  0.424711  1
  O  O20  1  0.444064  0.722446  0.303227  1
  O  O21  1  0.564664  0.290812  0.455208  1
  O  O22  1  0.944064  0.222446  0.196773  1
  O  O23  1  0.055936  0.777554  0.803227  1
  O  O24  1  0.564100  0.324043  0.207297  1
  O  O25  1  0.543995  0.306136  0.944542  1
  O  O26  1  0.956005  0.193864  0.444542  1
  O  O27  1  0.555936  0.277554  0.696773  1
  O  O28  1  0.435336  0.709188  0.544792  1
  O  O29  1  0.935900  0.175957  0.707297  1
  O  O30  1  0.456005  0.693864  0.055458  1
  O  O31  1  0.435900  0.675957  0.792703  1
  O  O32  1  0.935336  0.209188  0.955208  1
  O  O33  1  0.064664  0.790812  0.044792  1
  O  O34  1  0.043995  0.806136  0.555458  1
  O  O35  1  0.064100  0.824043  0.292703  1
