# generated using pymatgen
data_C12SeF10
_symmetry_space_group_name_H-M   'P 1'
_cell_length_a   7.63052895
_cell_length_b   9.46097296
_cell_length_c   9.63738607
_cell_angle_alpha   106.41693777
_cell_angle_beta   89.99998752
_cell_angle_gamma   90.00005370
_symmetry_Int_Tables_number   1
_chemical_formula_structural   C12SeF10
_chemical_formula_sum   'Se2 C24 F20'
_cell_volume   667.37920034
_cell_formula_units_Z   2
loop_
 _symmetry_equiv_pos_site_id
 _symmetry_equiv_pos_as_xyz
  1  'x, y, z'
loop_
 _atom_site_type_symbol
 _atom_site_label
 _atom_site_symmetry_multiplicity
 _atom_site_fract_x
 _atom_site_fract_y
 _atom_site_fract_z
 _atom_site_occupancy
  Se  Se0  1  0.244942  0.744573  0.529811  1
  C  C1  1  0.336905  0.546988  0.701282  1
  C  C2  1  0.306088  0.454698  0.788455  1
  C  C3  1  0.635050  0.565740  0.169640  1
  C  C4  1  0.450211  0.072063  0.886483  1
  C  C5  1  0.200755  0.622304  0.655923  1
  C  C6  1  0.570514  0.904976  0.617426  1
  C  C7  1  0.682011  0.006521  0.709089  1
  C  C8  1  0.530499  0.399779  0.300765  1
  C  C9  1  0.806084  0.545301  0.211544  1
  C  C10  1  0.122263  0.910791  0.155454  1
  C  C11  1  0.622264  0.089208  0.844546  1
  C  C12  1  0.182010  0.993480  0.290911  1
  C  C13  1  0.700756  0.377697  0.344076  1
  C  C14  1  0.898148  0.114785  0.342584  1
  C  C15  1  0.839791  0.027427  0.208036  1
  Se  Se16  1  0.744942  0.255428  0.470189  1
  C  C17  1  0.398148  0.885215  0.657416  1
  C  C18  1  0.996671  0.507321  0.785685  1
  C  C19  1  0.030500  0.600222  0.699235  1
  C  C20  1  0.339791  0.972573  0.791965  1
  C  C21  1  0.836904  0.453011  0.298718  1
  C  C22  1  0.135051  0.434261  0.830359  1
  C  C23  1  0.496670  0.492678  0.214316  1
  C  C24  1  0.070514  0.095024  0.382575  1
  C  C25  1  0.950211  0.927937  0.113517  1
  F  F26  1  0.672763  0.037950  0.165918  1
  F  F27  1  0.847372  0.025660  0.667869  1
  F  F28  1  0.003885  0.438585  0.339808  1
  F  F29  1  0.603459  0.657151  0.088126  1
  F  F30  1  0.831819  0.487411  0.826692  1
  F  F31  1  0.890786  0.846837  0.983720  1
  F  F32  1  0.940053  0.617276  0.169905  1
  F  F33  1  0.103460  0.342850  0.911874  1
  F  F34  1  0.347371  0.974340  0.332131  1
  F  F35  1  0.893047  0.668098  0.657224  1
  F  F36  1  0.390787  0.153162  0.016281  1
  F  F37  1  0.172763  0.962050  0.834083  1
  F  F38  1  0.229604  0.813115  0.066715  1
  F  F39  1  0.440055  0.382722  0.830093  1
  F  F40  1  0.503886  0.561416  0.660191  1
  F  F41  1  0.393047  0.331905  0.342777  1
  F  F42  1  0.634414  0.825893  0.487978  1
  F  F43  1  0.134413  0.174106  0.512022  1
  F  F44  1  0.729604  0.186885  0.933285  1
  F  F45  1  0.331816  0.512588  0.173309  1
