# generated using pymatgen
data_B8Ru11
_symmetry_space_group_name_H-M   'P 1'
_cell_length_a   2.87569101
_cell_length_b   11.96586269
_cell_length_c   11.67620160
_cell_angle_alpha   90.00000000
_cell_angle_beta   90.00000000
_cell_angle_gamma   90.00000000
_symmetry_Int_Tables_number   1
_chemical_formula_structural   B8Ru11
_chemical_formula_sum   'B16 Ru22'
_cell_volume   401.77954216
_cell_formula_units_Z   2
loop_
 _symmetry_equiv_pos_site_id
 _symmetry_equiv_pos_as_xyz
  1  'x, y, z'
loop_
 _atom_site_type_symbol
 _atom_site_label
 _atom_site_symmetry_multiplicity
 _atom_site_fract_x
 _atom_site_fract_y
 _atom_site_fract_z
 _atom_site_occupancy
  Ru  Ru0  1  0.000000  0.000000  0.000000  1
  Ru  Ru1  1  0.000000  0.500000  0.500000  1
  Ru  Ru2  1  0.000000  0.615567  0.715149  1
  Ru  Ru3  1  0.000000  0.384433  0.284851  1
  Ru  Ru4  1  0.000000  0.115567  0.784851  1
  Ru  Ru5  1  0.000000  0.884433  0.215149  1
  Ru  Ru6  1  0.000000  0.602829  0.955717  1
  Ru  Ru7  1  0.000000  0.397171  0.044283  1
  Ru  Ru8  1  0.000000  0.102829  0.544283  1
  Ru  Ru9  1  0.000000  0.897171  0.455717  1
  Ru  Ru10  1  0.000000  0.828709  0.831539  1
  Ru  Ru11  1  0.000000  0.171291  0.168461  1
  Ru  Ru12  1  0.000000  0.328709  0.668461  1
  Ru  Ru13  1  0.000000  0.671291  0.331539  1
  Ru  Ru14  1  0.500000  0.700360  0.531841  1
  Ru  Ru15  1  0.500000  0.299640  0.468159  1
  Ru  Ru16  1  0.500000  0.200360  0.968159  1
  Ru  Ru17  1  0.500000  0.799640  0.031841  1
  Ru  Ru18  1  0.500000  0.952880  0.664126  1
  Ru  Ru19  1  0.500000  0.047120  0.335874  1
  Ru  Ru20  1  0.500000  0.452880  0.835874  1
  Ru  Ru21  1  0.500000  0.547120  0.164126  1
  B  B22  1  0.500000  0.979215  0.853313  1
  B  B23  1  0.500000  0.020785  0.146687  1
  B  B24  1  0.500000  0.479215  0.646687  1
  B  B25  1  0.500000  0.520785  0.353313  1
  B  B26  1  0.000000  0.812630  0.621914  1
  B  B27  1  0.000000  0.187370  0.378086  1
  B  B28  1  0.000000  0.312630  0.878086  1
  B  B29  1  0.000000  0.687370  0.121914  1
  B  B30  1  0.500000  0.682786  0.851044  1
  B  B31  1  0.500000  0.317214  0.148956  1
  B  B32  1  0.500000  0.182786  0.648956  1
  B  B33  1  0.500000  0.817214  0.351044  1
  B  B34  1  0.500000  0.767133  0.702601  1
  B  B35  1  0.500000  0.232867  0.297399  1
  B  B36  1  0.500000  0.267133  0.797399  1
  B  B37  1  0.500000  0.732867  0.202601  1
