# generated using pymatgen
data_NdBC
_symmetry_space_group_name_H-M   'P 1'
_cell_length_a   8.45236119
_cell_length_b   8.48693649
_cell_length_c   12.29335570
_cell_angle_alpha   90.00000000
_cell_angle_beta   90.00000000
_cell_angle_gamma   90.00000000
_symmetry_Int_Tables_number   1
_chemical_formula_structural   NdBC
_chemical_formula_sum   'Nd20 B20 C20'
_cell_volume   881.85960055
_cell_formula_units_Z   20
loop_
 _symmetry_equiv_pos_site_id
 _symmetry_equiv_pos_as_xyz
  1  'x, y, z'
loop_
 _atom_site_type_symbol
 _atom_site_label
 _atom_site_symmetry_multiplicity
 _atom_site_fract_x
 _atom_site_fract_y
 _atom_site_fract_z
 _atom_site_occupancy
  Nd  Nd0  1  0.843535  0.090959  0.097452  1
  Nd  Nd1  1  0.452611  0.900959  0.140098  1
  Nd  Nd2  1  0.255097  0.713849  0.671709  1
  Nd  Nd3  1  0.339764  0.008105  0.418712  1
  Nd  Nd4  1  0.744903  0.213849  0.828291  1
  Nd  Nd5  1  0.561990  0.802497  0.866359  1
  Nd  Nd6  1  0.244903  0.286151  0.171709  1
  Nd  Nd7  1  0.839764  0.491895  0.581288  1
  Nd  Nd8  1  0.438010  0.302498  0.633641  1
  Nd  Nd9  1  0.343535  0.409041  0.902548  1
  Nd  Nd10  1  0.156465  0.590959  0.402548  1
  Nd  Nd11  1  0.938010  0.197503  0.366359  1
  Nd  Nd12  1  0.061990  0.697503  0.133641  1
  Nd  Nd13  1  0.656465  0.909041  0.597452  1
  Nd  Nd14  1  0.047389  0.099041  0.640098  1
  Nd  Nd15  1  0.755097  0.786151  0.328291  1
  Nd  Nd16  1  0.160236  0.991895  0.918712  1
  Nd  Nd17  1  0.547389  0.400959  0.359902  1
  Nd  Nd18  1  0.660236  0.508105  0.081288  1
  Nd  Nd19  1  0.952611  0.599041  0.859902  1
  B  B20  1  0.062608  0.298218  0.820749  1
  B  B21  1  0.520238  0.612903  0.541597  1
  B  B22  1  0.118547  0.398388  0.712944  1
  B  B23  1  0.684290  0.192232  0.508682  1
  B  B24  1  0.399724  0.023630  0.739070  1
  B  B25  1  0.184290  0.307768  0.491318  1
  B  B26  1  0.381453  0.601612  0.212944  1
  B  B27  1  0.479762  0.112903  0.958403  1
  B  B28  1  0.881453  0.898388  0.787056  1
  B  B29  1  0.979762  0.387097  0.041597  1
  B  B30  1  0.100277  0.976370  0.239070  1
  B  B31  1  0.618547  0.101612  0.287056  1
  B  B32  1  0.020239  0.887097  0.458403  1
  B  B33  1  0.937392  0.798218  0.679251  1
  B  B34  1  0.600276  0.523630  0.760930  1
  B  B35  1  0.815710  0.807768  0.008682  1
  B  B36  1  0.437392  0.701782  0.320749  1
  B  B37  1  0.899724  0.476370  0.260930  1
  B  B38  1  0.562608  0.201782  0.179251  1
  B  B39  1  0.315710  0.692232  0.991318  1
  C  C40  1  0.472162  0.692681  0.439521  1
  C  C41  1  0.146141  0.397394  0.592206  1
  C  C42  1  0.853006  0.494552  0.375057  1
  C  C43  1  0.245586  0.297493  0.379815  1
  C  C44  1  0.754414  0.797493  0.120185  1
  C  C45  1  0.554642  0.610280  0.659681  1
  C  C46  1  0.054642  0.889720  0.340319  1
  C  C47  1  0.646141  0.102606  0.407794  1
  C  C48  1  0.972162  0.807319  0.560479  1
  C  C49  1  0.146994  0.994552  0.124943  1
  C  C50  1  0.254414  0.702507  0.879815  1
  C  C51  1  0.945358  0.389720  0.159681  1
  C  C52  1  0.353859  0.602606  0.092206  1
  C  C53  1  0.527838  0.192681  0.060479  1
  C  C54  1  0.853859  0.897394  0.907794  1
  C  C55  1  0.027838  0.307319  0.939521  1
  C  C56  1  0.646994  0.505448  0.875057  1
  C  C57  1  0.745586  0.202507  0.620185  1
  C  C58  1  0.445358  0.110280  0.840319  1
  C  C59  1  0.353006  0.005448  0.624943  1
