# generated using pymatgen
data_Ag3BiO3
_symmetry_space_group_name_H-M   'P 1'
_cell_length_a   8.90722951
_cell_length_b   11.15710900
_cell_length_c   11.16102658
_cell_angle_alpha   80.82266555
_cell_angle_beta   66.47694356
_cell_angle_gamma   66.49222196
_symmetry_Int_Tables_number   1
_chemical_formula_structural   Ag3BiO3
_chemical_formula_sum   'Ag24 Bi8 O24'
_cell_volume   932.59339599
_cell_formula_units_Z   8
loop_
 _symmetry_equiv_pos_site_id
 _symmetry_equiv_pos_as_xyz
  1  'x, y, z'
loop_
 _atom_site_type_symbol
 _atom_site_label
 _atom_site_symmetry_multiplicity
 _atom_site_fract_x
 _atom_site_fract_y
 _atom_site_fract_z
 _atom_site_occupancy
  Bi  Bi0  1  0.103216  0.128800  0.673863  1
  Bi  Bi1  1  0.027166  0.826137  0.628798  1
  Bi  Bi2  1  0.482009  0.173833  0.371224  1
  Bi  Bi3  1  0.906008  0.871222  0.326072  1
  Bi  Bi4  1  0.724074  0.681661  0.878829  1
  Bi  Bi5  1  0.852892  0.621239  0.181742  1
  Bi  Bi6  1  0.655770  0.378748  0.818315  1
  Bi  Bi7  1  0.284623  0.318298  0.121183  1
  Ag  Ag8  1  0.471467  0.845377  0.450071  1
  Ag  Ag9  1  0.171715  0.049875  0.345235  1
  Ag  Ag10  1  0.566802  0.950092  0.654458  1
  Ag  Ag11  1  0.766640  0.154563  0.549947  1
  Ag  Ag12  1  0.759137  0.644870  0.538018  1
  Ag  Ag13  1  0.546739  0.961756  0.144884  1
  Ag  Ag14  1  0.653392  0.038198  0.854917  1
  Ag  Ag15  1  0.941547  0.354857  0.461937  1
  Ag  Ag16  1  0.384058  0.270483  0.728185  1
  Ag  Ag17  1  0.362721  0.771823  0.770155  1
  Ag  Ag18  1  0.904595  0.228297  0.229753  1
  Ag  Ag19  1  0.382751  0.729731  0.271782  1
  Ag  Ag20  1  0.217450  0.522728  0.355491  1
  Ag  Ag21  1  0.822828  0.144396  0.022853  1
  Ag  Ag22  1  0.990066  0.855431  0.977276  1
  Ag  Ag23  1  0.095108  0.477430  0.644551  1
  Ag  Ag24  1  0.286779  0.634613  0.064443  1
  Ag  Ag25  1  0.601034  0.435563  0.134774  1
  Ag  Ag26  1  0.171363  0.564368  0.865368  1
  Ag  Ag27  1  0.985570  0.365344  0.935725  1
  Ag  Ag28  1  0.606989  0.435791  0.386034  1
  Ag  Ag29  1  0.242819  0.114198  0.935679  1
  Ag  Ag30  1  0.292915  0.885946  0.064153  1
  Ag  Ag31  1  0.428691  0.564268  0.614152  1
  O  O32  1  0.064855  0.659175  0.248703  1
  O  O33  1  0.563477  0.251225  0.159243  1
  O  O34  1  0.974081  0.748624  0.840767  1
  O  O35  1  0.972594  0.340757  0.751424  1
  O  O36  1  0.754922  0.554684  0.373110  1
  O  O37  1  0.377712  0.126932  0.054728  1
  O  O38  1  0.559636  0.873065  0.945285  1
  O  O39  1  0.682599  0.445366  0.626966  1
  O  O40  1  0.395695  0.366665  0.434698  1
  O  O41  1  0.080254  0.065228  0.866688  1
  O  O42  1  0.012528  0.934646  0.133218  1
  O  O43  1  0.197047  0.633298  0.565307  1
  O  O44  1  0.503884  0.624517  0.880960  1
  O  O45  1  0.634847  0.619077  0.124520  1
  O  O46  1  0.378365  0.380909  0.875561  1
  O  O47  1  0.009345  0.375654  0.119072  1
  O  O48  1  0.243476  0.886173  0.630657  1
  O  O49  1  0.124105  0.869307  0.386129  1
  O  O50  1  0.379429  0.130742  0.613870  1
  O  O51  1  0.760185  0.113825  0.369276  1
  O  O52  1  0.767857  0.764709  0.671066  1
  O  O53  1  0.688913  0.828982  0.264665  1
  O  O54  1  0.782391  0.171088  0.735270  1
  O  O55  1  0.203508  0.235412  0.328948  1
