# generated using pymatgen
data_KLa5(CCl5)2
_symmetry_space_group_name_H-M   'P 1'
_cell_length_a   8.61971137
_cell_length_b   14.99181686
_cell_length_c   15.27557989
_cell_angle_alpha   90.00000000
_cell_angle_beta   90.00000000
_cell_angle_gamma   90.36525627
_symmetry_Int_Tables_number   1
_chemical_formula_structural   KLa5(CCl5)2
_chemical_formula_sum   'K4 La20 C8 Cl40'
_cell_volume   1973.94875102
_cell_formula_units_Z   4
loop_
 _symmetry_equiv_pos_site_id
 _symmetry_equiv_pos_as_xyz
  1  'x, y, z'
loop_
 _atom_site_type_symbol
 _atom_site_label
 _atom_site_symmetry_multiplicity
 _atom_site_fract_x
 _atom_site_fract_y
 _atom_site_fract_z
 _atom_site_occupancy
  K  K0  1  0.752352  0.237369  0.547518  1
  K  K1  1  0.252352  0.737369  0.952482  1
  K  K2  1  0.247648  0.762631  0.452482  1
  K  K3  1  0.747648  0.262631  0.047518  1
  La  La4  1  0.649325  0.769312  0.755323  1
  La  La5  1  0.249257  0.415251  0.536350  1
  La  La6  1  0.250743  0.084749  0.036350  1
  La  La7  1  0.077461  0.540997  0.735342  1
  La  La8  1  0.750743  0.584749  0.463650  1
  La  La9  1  0.850675  0.730688  0.255323  1
  La  La10  1  0.251188  0.078267  0.440379  1
  La  La11  1  0.751188  0.578267  0.059621  1
  La  La12  1  0.524044  0.440238  0.740346  1
  La  La13  1  0.922539  0.459003  0.264658  1
  La  La14  1  0.475956  0.559762  0.259654  1
  La  La15  1  0.422539  0.959003  0.235342  1
  La  La16  1  0.024044  0.940238  0.759654  1
  La  La17  1  0.577461  0.040997  0.764658  1
  La  La18  1  0.748812  0.921733  0.559621  1
  La  La19  1  0.975956  0.059762  0.240346  1
  La  La20  1  0.149325  0.269312  0.744677  1
  La  La21  1  0.749257  0.915251  0.963650  1
  La  La22  1  0.248812  0.421733  0.940379  1
  La  La23  1  0.350675  0.230688  0.244677  1
  C  C24  1  0.749239  0.917643  0.712571  1
  C  C25  1  0.750761  0.582357  0.212571  1
  C  C26  1  0.751943  0.917705  0.809316  1
  C  C27  1  0.248057  0.082295  0.190684  1
  C  C28  1  0.748057  0.582295  0.309316  1
  C  C29  1  0.251943  0.417705  0.690684  1
  C  C30  1  0.249239  0.417643  0.787429  1
  C  C31  1  0.250761  0.082357  0.287429  1
  Cl  Cl32  1  0.121413  0.234134  0.557393  1
  Cl  Cl33  1  0.034533  0.567967  0.919522  1
  Cl  Cl34  1  0.115399  0.872914  0.273237  1
  Cl  Cl35  1  0.498800  0.755851  0.261323  1
  Cl  Cl36  1  0.581208  0.086463  0.949044  1
  Cl  Cl37  1  0.001200  0.744149  0.761323  1
  Cl  Cl38  1  0.878587  0.765866  0.442607  1
  Cl  Cl39  1  0.094207  0.933854  0.571710  1
  Cl  Cl40  1  0.578023  0.418686  0.554828  1
  Cl  Cl41  1  0.566786  0.762083  0.572124  1
  Cl  Cl42  1  0.066786  0.262083  0.927876  1
  Cl  Cl43  1  0.754594  0.912344  0.186404  1
  Cl  Cl44  1  0.501200  0.244149  0.738677  1
  Cl  Cl45  1  0.884601  0.127086  0.726763  1
  Cl  Cl46  1  0.365931  0.877213  0.769654  1
  Cl  Cl47  1  0.421977  0.581314  0.445172  1
  Cl  Cl48  1  0.615399  0.372914  0.226763  1
  Cl  Cl49  1  0.405793  0.566146  0.071710  1
  Cl  Cl50  1  0.745406  0.587656  0.686404  1
  Cl  Cl51  1  0.465467  0.932033  0.419522  1
  Cl  Cl52  1  0.918792  0.413537  0.449044  1
  Cl  Cl53  1  0.905793  0.066146  0.428290  1
  Cl  Cl54  1  0.933214  0.737917  0.072124  1
  Cl  Cl55  1  0.865931  0.377213  0.730346  1
  Cl  Cl56  1  0.245406  0.087656  0.813596  1
  Cl  Cl57  1  0.081208  0.586463  0.550956  1
  Cl  Cl58  1  0.965467  0.432033  0.080478  1
  Cl  Cl59  1  0.921977  0.081314  0.054828  1
  Cl  Cl60  1  0.621413  0.734134  0.942607  1
  Cl  Cl61  1  0.418792  0.913537  0.050956  1
  Cl  Cl62  1  0.433214  0.237917  0.427876  1
  Cl  Cl63  1  0.998800  0.255851  0.238677  1
  Cl  Cl64  1  0.378587  0.265866  0.057393  1
  Cl  Cl65  1  0.384601  0.627086  0.773237  1
  Cl  Cl66  1  0.534533  0.067967  0.580478  1
  Cl  Cl67  1  0.634069  0.122787  0.230346  1
  Cl  Cl68  1  0.254594  0.412344  0.313596  1
  Cl  Cl69  1  0.078023  0.918686  0.945172  1
  Cl  Cl70  1  0.134069  0.622787  0.269654  1
  Cl  Cl71  1  0.594207  0.433854  0.928290  1
