# generated using pymatgen
data_SiO2
_symmetry_space_group_name_H-M   'P 1'
_cell_length_a   8.81592903
_cell_length_b   8.81592864
_cell_length_c   8.81592939
_cell_angle_alpha   109.47122235
_cell_angle_beta   109.47122146
_cell_angle_gamma   109.47122071
_symmetry_Int_Tables_number   1
_chemical_formula_structural   SiO2
_chemical_formula_sum   'Si12 O24'
_cell_volume   527.45127952
_cell_formula_units_Z   12
loop_
 _symmetry_equiv_pos_site_id
 _symmetry_equiv_pos_as_xyz
  1  'x, y, z'
loop_
 _atom_site_type_symbol
 _atom_site_label
 _atom_site_symmetry_multiplicity
 _atom_site_fract_x
 _atom_site_fract_y
 _atom_site_fract_z
 _atom_site_occupancy
  Si  Si0  1  0.885298  0.537814  0.615495  1
  Si  Si1  1  0.537814  0.615495  0.885298  1
  Si  Si2  1  0.847483  0.077681  0.962186  1
  Si  Si3  1  0.615495  0.885298  0.537814  1
  Si  Si4  1  0.077681  0.962186  0.847483  1
  Si  Si5  1  0.884505  0.422319  0.269803  1
  Si  Si6  1  0.269803  0.884505  0.422319  1
  Si  Si7  1  0.962186  0.847483  0.077681  1
  Si  Si8  1  0.614702  0.230197  0.652517  1
  Si  Si9  1  0.230197  0.652517  0.614702  1
  Si  Si10  1  0.652517  0.614702  0.230197  1
  Si  Si11  1  0.422319  0.269803  0.884505  1
  O  O12  1  0.425052  0.675052  0.750000  1
  O  O13  1  0.250000  0.074948  0.824948  1
  O  O14  1  0.905323  0.011351  0.116958  1
  O  O15  1  0.832418  0.582418  0.250000  1
  O  O16  1  0.824948  0.250000  0.074948  1
  O  O17  1  0.788366  0.383043  0.394394  1
  O  O18  1  0.750000  0.425052  0.675052  1
  O  O19  1  0.074948  0.824948  0.250000  1
  O  O20  1  0.393972  0.105606  0.488649  1
  O  O21  1  0.250000  0.832418  0.582418  1
  O  O22  1  0.750000  0.667582  0.917582  1
  O  O23  1  0.917582  0.750000  0.667582  1
  O  O24  1  0.116958  0.905323  0.011351  1
  O  O25  1  0.394394  0.788366  0.383043  1
  O  O26  1  0.011351  0.116958  0.905323  1
  O  O27  1  0.105606  0.488649  0.393972  1
  O  O28  1  0.667582  0.917582  0.750000  1
  O  O29  1  0.711634  0.106028  0.594677  1
  O  O30  1  0.106028  0.594677  0.711634  1
  O  O31  1  0.582418  0.250000  0.832418  1
  O  O32  1  0.594677  0.711634  0.106028  1
  O  O33  1  0.488649  0.393972  0.105606  1
  O  O34  1  0.383043  0.394394  0.788366  1
  O  O35  1  0.675052  0.750000  0.425052  1
