# generated using pymatgen
data_CuBi(WO4)2
_symmetry_space_group_name_H-M   'P 1'
_cell_length_a   5.14835352
_cell_length_b   6.23470268
_cell_length_c   6.12172410
_cell_angle_alpha   108.80063130
_cell_angle_beta   113.44919252
_cell_angle_gamma   91.71054947
_symmetry_Int_Tables_number   1
_chemical_formula_structural   CuBi(WO4)2
_chemical_formula_sum   'Cu1 Bi1 W2 O8'
_cell_volume   167.80020379
_cell_formula_units_Z   1
loop_
 _symmetry_equiv_pos_site_id
 _symmetry_equiv_pos_as_xyz
  1  'x, y, z'
loop_
 _atom_site_type_symbol
 _atom_site_label
 _atom_site_symmetry_multiplicity
 _atom_site_fract_x
 _atom_site_fract_y
 _atom_site_fract_z
 _atom_site_occupancy
  Cu  Cu0  1  0.144447  0.215389  0.101976  1
  Bi  Bi1  1  0.636568  0.709951  0.097987  1
  W  W2  1  0.887481  0.374455  0.582469  1
  W  W3  1  0.389968  0.047621  0.614671  1
  O  O4  1  0.669648  0.374249  0.788895  1
  O  O5  1  0.175543  0.190388  0.802300  1
  O  O6  1  0.645243  0.484632  0.350279  1
  O  O7  1  0.134759  0.788603  0.369091  1
  O  O8  1  0.136817  0.636658  0.825909  1
  O  O9  1  0.609791  0.045599  0.409439  1
  O  O10  1  0.104946  0.235480  0.396761  1
  O  O11  1  0.625991  0.932875  0.844424  1
