# generated using pymatgen
data_CS2NF5
_symmetry_space_group_name_H-M   'P 1'
_cell_length_a   5.00973684
_cell_length_b   7.55060869
_cell_length_c   8.18644035
_cell_angle_alpha   97.15475277
_cell_angle_beta   90.57000520
_cell_angle_gamma   92.39640644
_symmetry_Int_Tables_number   1
_chemical_formula_structural   CS2NF5
_chemical_formula_sum   'C2 S4 N2 F10'
_cell_volume   306.94906532
_cell_formula_units_Z   2
loop_
 _symmetry_equiv_pos_site_id
 _symmetry_equiv_pos_as_xyz
  1  'x, y, z'
loop_
 _atom_site_type_symbol
 _atom_site_label
 _atom_site_symmetry_multiplicity
 _atom_site_fract_x
 _atom_site_fract_y
 _atom_site_fract_z
 _atom_site_occupancy
  C  C0  1  0.624326  0.492850  0.221125  1
  C  C1  1  0.375674  0.507150  0.778875  1
  S  S2  1  0.120298  0.192632  0.774338  1
  S  S3  1  0.879702  0.807368  0.225662  1
  S  S4  1  0.493899  0.330910  0.293060  1
  S  S5  1  0.506101  0.669090  0.706940  1
  N  N6  1  0.721013  0.612966  0.148719  1
  N  N7  1  0.278987  0.387034  0.851281  1
  F  F8  1  0.270926  0.091858  0.907486  1
  F  F9  1  0.729074  0.908142  0.092514  1
  F  F10  1  0.120249  0.766991  0.099724  1
  F  F11  1  0.033241  0.994798  0.293613  1
  F  F12  1  0.959675  0.283665  0.635215  1
  F  F13  1  0.879751  0.233009  0.900276  1
  F  F14  1  0.966759  0.005202  0.706387  1
  F  F15  1  0.040325  0.716335  0.364785  1
  F  F16  1  0.353930  0.141351  0.642918  1
  F  F17  1  0.646070  0.858649  0.357082  1
