# generated using pymatgen
data_V2ZnPbO7
_symmetry_space_group_name_H-M   'P 1'
_cell_length_a   7.02697545
_cell_length_b   11.56438105
_cell_length_c   15.07179957
_cell_angle_alpha   90.00000000
_cell_angle_beta   90.00000000
_cell_angle_gamma   99.66646385
_symmetry_Int_Tables_number   1
_chemical_formula_structural   V2ZnPbO7
_chemical_formula_sum   'V16 Zn8 Pb8 O56'
_cell_volume   1207.38450831
_cell_formula_units_Z   8
loop_
 _symmetry_equiv_pos_site_id
 _symmetry_equiv_pos_as_xyz
  1  'x, y, z'
loop_
 _atom_site_type_symbol
 _atom_site_label
 _atom_site_symmetry_multiplicity
 _atom_site_fract_x
 _atom_site_fract_y
 _atom_site_fract_z
 _atom_site_occupancy
  V  V0  1  0.523808  0.800560  0.703581  1
  V  V1  1  0.592082  0.322687  0.986361  1
  V  V2  1  0.866346  0.982544  0.361070  1
  V  V3  1  0.848760  0.477640  0.638000  1
  V  V4  1  0.151240  0.522360  0.362000  1
  V  V5  1  0.476192  0.199440  0.296419  1
  V  V6  1  0.848760  0.977640  0.862000  1
  V  V7  1  0.523808  0.300560  0.796419  1
  V  V8  1  0.407918  0.677313  0.013639  1
  V  V9  1  0.407918  0.177313  0.486361  1
  V  V10  1  0.476192  0.699440  0.203581  1
  V  V11  1  0.151240  0.022360  0.138000  1
  V  V12  1  0.133654  0.017456  0.638930  1
  V  V13  1  0.866346  0.482544  0.138930  1
  V  V14  1  0.133654  0.517456  0.861070  1
  V  V15  1  0.592082  0.822687  0.513639  1
  Zn  Zn16  1  0.011444  0.246842  0.754225  1
  Zn  Zn17  1  0.350687  0.921403  0.328536  1
  Zn  Zn18  1  0.649313  0.578597  0.828536  1
  Zn  Zn19  1  0.988556  0.753158  0.245775  1
  Zn  Zn20  1  0.011444  0.746842  0.745775  1
  Zn  Zn21  1  0.988556  0.253158  0.254225  1
  Zn  Zn22  1  0.649313  0.078597  0.671464  1
  Zn  Zn23  1  0.350687  0.421403  0.171464  1
  Pb  Pb24  1  0.079753  0.735969  0.513612  1
  Pb  Pb25  1  0.920247  0.264031  0.486388  1
  Pb  Pb26  1  0.658497  0.532679  0.371069  1
  Pb  Pb27  1  0.658497  0.032679  0.128931  1
  Pb  Pb28  1  0.341503  0.467321  0.628931  1
  Pb  Pb29  1  0.920247  0.764031  0.013612  1
  Pb  Pb30  1  0.079753  0.235969  0.986388  1
  Pb  Pb31  1  0.341503  0.967321  0.871069  1
  O  O32  1  0.436005  0.721222  0.604199  1
  O  O33  1  0.563995  0.778778  0.104199  1
  O  O34  1  0.323975  0.543424  0.788677  1
  O  O35  1  0.001791  0.373630  0.653283  1
  O  O36  1  0.761748  0.455163  0.532917  1
  O  O37  1  0.006122  0.383123  0.356134  1
  O  O38  1  0.037500  0.367504  0.858221  1
  O  O39  1  0.592616  0.168859  0.558840  1
  O  O40  1  0.998209  0.126370  0.153283  1
  O  O41  1  0.347105  0.044971  0.214740  1
  O  O42  1  0.227178  0.549945  0.968581  1
  O  O43  1  0.238252  0.544837  0.467083  1
  O  O44  1  0.318557  0.794853  0.766411  1
  O  O45  1  0.037500  0.867504  0.641779  1
  O  O46  1  0.689761  0.220248  0.752782  1
  O  O47  1  0.039303  0.391972  0.164275  1
  O  O48  1  0.681443  0.205147  0.233589  1
  O  O49  1  0.310239  0.279752  0.252782  1
  O  O50  1  0.238252  0.044837  0.032917  1
  O  O51  1  0.960697  0.608028  0.835725  1
  O  O52  1  0.281246  0.785259  0.983664  1
  O  O53  1  0.385990  0.083979  0.380016  1
  O  O54  1  0.001791  0.873630  0.846717  1
  O  O55  1  0.676025  0.956576  0.288677  1
  O  O56  1  0.436005  0.221222  0.895801  1
  O  O57  1  0.993878  0.616877  0.643866  1
  O  O58  1  0.718754  0.214741  0.016336  1
  O  O59  1  0.227178  0.049945  0.531419  1
  O  O60  1  0.592616  0.668859  0.941160  1
  O  O61  1  0.039303  0.891972  0.335725  1
  O  O62  1  0.614010  0.916021  0.619984  1
  O  O63  1  0.962500  0.132496  0.358221  1
  O  O64  1  0.310239  0.779752  0.247218  1
  O  O65  1  0.676025  0.456576  0.211323  1
  O  O66  1  0.689761  0.720248  0.747218  1
  O  O67  1  0.718754  0.714741  0.483664  1
  O  O68  1  0.772822  0.950055  0.468581  1
  O  O69  1  0.614010  0.416021  0.880016  1
  O  O70  1  0.681443  0.705147  0.266411  1
  O  O71  1  0.281246  0.285259  0.516336  1
  O  O72  1  0.761748  0.955163  0.967083  1
  O  O73  1  0.563995  0.278778  0.395801  1
  O  O74  1  0.993878  0.116877  0.856134  1
  O  O75  1  0.962500  0.632496  0.141779  1
  O  O76  1  0.347105  0.544971  0.285260  1
  O  O77  1  0.652895  0.955029  0.785260  1
  O  O78  1  0.318557  0.294853  0.733589  1
  O  O79  1  0.960697  0.108028  0.664275  1
  O  O80  1  0.407384  0.331141  0.058840  1
  O  O81  1  0.323975  0.043424  0.711323  1
  O  O82  1  0.652895  0.455029  0.714740  1
  O  O83  1  0.998209  0.626370  0.346717  1
  O  O84  1  0.772822  0.450055  0.031419  1
  O  O85  1  0.006122  0.883123  0.143866  1
  O  O86  1  0.407384  0.831141  0.441160  1
  O  O87  1  0.385990  0.583979  0.119984  1
