# generated using pymatgen
data_IrCl3
_symmetry_space_group_name_H-M   'P 1'
_cell_length_a   6.22368855
_cell_length_b   6.22368844
_cell_length_c   11.18358341
_cell_angle_alpha   100.85992023
_cell_angle_beta   100.85987997
_cell_angle_gamma   108.84119215
_symmetry_Int_Tables_number   1
_chemical_formula_structural   IrCl3
_chemical_formula_sum   'Ir4 Cl12'
_cell_volume   387.88684961
_cell_formula_units_Z   4
loop_
 _symmetry_equiv_pos_site_id
 _symmetry_equiv_pos_as_xyz
  1  'x, y, z'
loop_
 _atom_site_type_symbol
 _atom_site_label
 _atom_site_symmetry_multiplicity
 _atom_site_fract_x
 _atom_site_fract_y
 _atom_site_fract_z
 _atom_site_occupancy
  Ir  Ir0  1  0.791327  0.041325  0.082663  1
  Ir  Ir1  1  0.208673  0.958675  0.917337  1
  Ir  Ir2  1  0.041325  0.791327  0.582663  1
  Ir  Ir3  1  0.958675  0.208673  0.417337  1
  Cl  Cl4  1  0.657236  0.907220  0.249997  1
  Cl  Cl5  1  0.819478  0.037214  0.573858  1
  Cl  Cl6  1  0.180522  0.962786  0.426142  1
  Cl  Cl7  1  0.254389  0.536658  0.573867  1
  Cl  Cl8  1  0.037213  0.819477  0.073858  1
  Cl  Cl9  1  0.092780  0.342763  0.250003  1
  Cl  Cl10  1  0.342764  0.092780  0.750003  1
  Cl  Cl11  1  0.907220  0.657237  0.749997  1
  Cl  Cl12  1  0.962787  0.180523  0.926142  1
  Cl  Cl13  1  0.745611  0.463342  0.426133  1
  Cl  Cl14  1  0.536658  0.254390  0.073868  1
  Cl  Cl15  1  0.463342  0.745610  0.926132  1
