# generated using pymatgen
data_Ce(IO3)3
_symmetry_space_group_name_H-M   'P 1'
_cell_length_a   6.06245138
_cell_length_b   8.97103331
_cell_length_c   15.55287376
_cell_angle_alpha   96.44652536
_cell_angle_beta   90.00000000
_cell_angle_gamma   90.00000000
_symmetry_Int_Tables_number   1
_chemical_formula_structural   Ce(IO3)3
_chemical_formula_sum   'Ce4 I12 O36'
_cell_volume   840.51729863
_cell_formula_units_Z   4
loop_
 _symmetry_equiv_pos_site_id
 _symmetry_equiv_pos_as_xyz
  1  'x, y, z'
loop_
 _atom_site_type_symbol
 _atom_site_label
 _atom_site_symmetry_multiplicity
 _atom_site_fract_x
 _atom_site_fract_y
 _atom_site_fract_z
 _atom_site_occupancy
  Ce  Ce0  1  0.732536  0.460926  0.599365  1
  Ce  Ce1  1  0.232536  0.039074  0.900635  1
  Ce  Ce2  1  0.267464  0.539074  0.400635  1
  Ce  Ce3  1  0.767464  0.960926  0.099365  1
  I  I4  1  0.409560  0.386144  0.801658  1
  I  I5  1  0.909560  0.113856  0.698342  1
  I  I6  1  0.590440  0.613856  0.198342  1
  I  I7  1  0.090440  0.886144  0.301658  1
  I  I8  1  0.363094  0.162561  0.522520  1
  I  I9  1  0.863094  0.337439  0.977480  1
  I  I10  1  0.636906  0.837439  0.477480  1
  I  I11  1  0.136906  0.662561  0.022520  1
  I  I12  1  0.187836  0.718708  0.649217  1
  I  I13  1  0.687836  0.781292  0.850783  1
  I  I14  1  0.812164  0.281292  0.350783  1
  I  I15  1  0.312164  0.218708  0.149217  1
  O  O16  1  0.682694  0.410873  0.754271  1
  O  O17  1  0.182694  0.089127  0.745729  1
  O  O18  1  0.317306  0.589127  0.245729  1
  O  O19  1  0.817306  0.910873  0.254271  1
  O  O20  1  0.413895  0.550898  0.882877  1
  O  O21  1  0.913895  0.949102  0.617123  1
  O  O22  1  0.586105  0.449102  0.117123  1
  O  O23  1  0.086105  0.050898  0.382877  1
  O  O24  1  0.498895  0.238500  0.868493  1
  O  O25  1  -0.001105  0.261500  0.631507  1
  O  O26  1  0.501105  0.761500  0.131507  1
  O  O27  1  1.001105  0.738500  0.368493  1
  O  O28  1  0.532249  0.217148  0.619236  1
  O  O29  1  0.032249  0.282852  0.880764  1
  O  O30  1  0.467751  0.782852  0.380764  1
  O  O31  1  0.967751  0.717148  0.119236  1
  O  O32  1  0.586479  0.088044  0.446368  1
  O  O33  1  0.086479  0.411956  0.053632  1
  O  O34  1  0.413521  0.911956  0.553632  1
  O  O35  1  0.913521  0.588044  0.946368  1
  O  O36  1  0.399436  0.356535  0.490249  1
  O  O37  1  0.899436  0.143465  0.009751  1
  O  O38  1  0.600564  0.643465  0.509751  1
  O  O39  1  0.100564  0.856535  0.990249  1
  O  O40  1  0.949389  0.639515  0.702359  1
  O  O41  1  0.449389  0.860485  0.797641  1
  O  O42  1  0.050611  0.360485  0.297641  1
  O  O43  1  0.550611  0.139515  0.202359  1
  O  O44  1  0.394363  0.575594  0.670762  1
  O  O45  1  0.894363  0.924406  0.829238  1
  O  O46  1  0.605637  0.424406  0.329238  1
  O  O47  1  0.105637  0.075594  0.170762  1
  O  O48  1  0.094311  0.633600  0.541315  1
  O  O49  1  0.594311  0.866400  0.958685  1
  O  O50  1  0.905689  0.366400  0.458685  1
  O  O51  1  0.405689  0.133600  0.041315  1
