# generated using pymatgen
data_RbLi2Be2F7
_symmetry_space_group_name_H-M   'P 1'
_cell_length_a   5.02450353
_cell_length_b   10.19625493
_cell_length_c   12.58556850
_cell_angle_alpha   90.18740797
_cell_angle_beta   90.00000000
_cell_angle_gamma   90.00000000
_symmetry_Int_Tables_number   1
_chemical_formula_structural   RbLi2Be2F7
_chemical_formula_sum   'Rb4 Li8 Be8 F28'
_cell_volume   644.76930727
_cell_formula_units_Z   4
loop_
 _symmetry_equiv_pos_site_id
 _symmetry_equiv_pos_as_xyz
  1  'x, y, z'
loop_
 _atom_site_type_symbol
 _atom_site_label
 _atom_site_symmetry_multiplicity
 _atom_site_fract_x
 _atom_site_fract_y
 _atom_site_fract_z
 _atom_site_occupancy
  Rb  Rb0  1  0.767143  0.640325  0.250063  1
  Rb  Rb1  1  0.732857  0.140325  0.250063  1
  Rb  Rb2  1  0.232857  0.359675  0.749937  1
  Rb  Rb3  1  0.267143  0.859675  0.749937  1
  Li  Li4  1  0.292914  0.652131  0.999327  1
  Li  Li5  1  0.792914  0.847869  0.000673  1
  Li  Li6  1  0.790058  0.850410  0.499004  1
  Li  Li7  1  0.707086  0.347869  0.000673  1
  Li  Li8  1  0.209942  0.149590  0.500996  1
  Li  Li9  1  0.290058  0.649590  0.500996  1
  Li  Li10  1  0.207086  0.152131  0.999327  1
  Li  Li11  1  0.709942  0.350410  0.499004  1
  Be  Be12  1  0.275240  0.899042  0.365907  1
  Be  Be13  1  0.786149  0.597292  0.867782  1
  Be  Be14  1  0.724760  0.100958  0.634093  1
  Be  Be15  1  0.213851  0.402708  0.132218  1
  Be  Be16  1  0.286149  0.902708  0.132218  1
  Be  Be17  1  0.224760  0.399042  0.365907  1
  Be  Be18  1  0.775240  0.600958  0.634093  1
  Be  Be19  1  0.713851  0.097292  0.867782  1
  F  F20  1  0.870168  0.195919  0.555354  1
  F  F21  1  0.197219  0.046776  0.120433  1
  F  F22  1  0.676149  0.458935  0.618368  1
  F  F23  1  0.323851  0.541065  0.381632  1
  F  F24  1  0.591937  0.889521  0.121757  1
  F  F25  1  0.823851  0.958935  0.618368  1
  F  F26  1  0.300072  0.350272  0.247750  1
  F  F27  1  0.302781  0.546776  0.120433  1
  F  F28  1  0.580496  0.889550  0.379607  1
  F  F29  1  0.699928  0.649728  0.752250  1
  F  F30  1  0.408063  0.110479  0.878243  1
  F  F31  1  0.080496  0.610450  0.620393  1
  F  F32  1  0.143641  0.813295  0.048134  1
  F  F33  1  0.802781  0.953224  0.879567  1
  F  F34  1  0.919504  0.389550  0.379607  1
  F  F35  1  0.643641  0.686705  0.951866  1
  F  F36  1  0.697219  0.453224  0.879567  1
  F  F37  1  0.800072  0.149728  0.752250  1
  F  F38  1  0.129832  0.804081  0.444646  1
  F  F39  1  0.091937  0.610479  0.878243  1
  F  F40  1  0.370168  0.304081  0.444646  1
  F  F41  1  0.176149  0.041065  0.381632  1
  F  F42  1  0.908063  0.389521  0.121757  1
  F  F43  1  0.856359  0.186705  0.951866  1
  F  F44  1  0.629832  0.695919  0.555354  1
  F  F45  1  0.356359  0.313295  0.048134  1
  F  F46  1  0.199928  0.850272  0.247750  1
  F  F47  1  0.419504  0.110450  0.620393  1
