# generated using pymatgen
data_LaNdI4
_symmetry_space_group_name_H-M   'P 1'
_cell_length_a   7.86212888
_cell_length_b   7.97722868
_cell_length_c   8.96260640
_cell_angle_alpha   112.16347616
_cell_angle_beta   111.70571240
_cell_angle_gamma   98.87744639
_symmetry_Int_Tables_number   1
_chemical_formula_structural   LaNdI4
_chemical_formula_sum   'La2 Nd2 I8'
_cell_volume   454.59339320
_cell_formula_units_Z   2
loop_
 _symmetry_equiv_pos_site_id
 _symmetry_equiv_pos_as_xyz
  1  'x, y, z'
loop_
 _atom_site_type_symbol
 _atom_site_label
 _atom_site_symmetry_multiplicity
 _atom_site_fract_x
 _atom_site_fract_y
 _atom_site_fract_z
 _atom_site_occupancy
  La  La0  1  0.238541  0.488574  0.977083  1
  La  La1  1  0.761459  0.511426  0.022917  1
  Nd  Nd2  1  0.119739  0.869466  0.739224  1
  Nd  Nd3  1  0.880261  0.130534  0.260776  1
  I  I4  1  0.847741  0.442315  0.629121  1
  I  I5  1  0.152259  0.557685  0.370879  1
  I  I6  1  0.718857  0.813158  0.370964  1
  I  I7  1  0.490987  0.247001  0.119486  1
  I  I8  1  0.281143  0.186842  0.629036  1
  I  I9  1  0.509013  0.752999  0.880514  1
  I  I10  1  0.128545  0.872566  0.119631  1
  I  I11  1  0.871455  0.127434  0.880369  1
