# generated using pymatgen
data_ErAl9(Fe2Si3)2
_symmetry_space_group_name_H-M   'P 1'
_cell_length_a   8.65512623
_cell_length_b   8.65512623
_cell_length_c   15.15536376
_cell_angle_alpha   90.00000000
_cell_angle_beta   90.00000000
_cell_angle_gamma   90.00000000
_symmetry_Int_Tables_number   1
_chemical_formula_structural   ErAl9(Fe2Si3)2
_chemical_formula_sum   'Er4 Al36 Fe16 Si24'
_cell_volume   1135.30663812
_cell_formula_units_Z   4
loop_
 _symmetry_equiv_pos_site_id
 _symmetry_equiv_pos_as_xyz
  1  'x, y, z'
loop_
 _atom_site_type_symbol
 _atom_site_label
 _atom_site_symmetry_multiplicity
 _atom_site_fract_x
 _atom_site_fract_y
 _atom_site_fract_z
 _atom_site_occupancy
  Er  Er0  1  0.750000  0.750000  0.835687  1
  Er  Er1  1  0.750000  0.750000  0.335687  1
  Er  Er2  1  0.250000  0.250000  0.164313  1
  Er  Er3  1  0.250000  0.250000  0.664313  1
  Al  Al4  1  0.933282  0.750000  0.660869  1
  Al  Al5  1  0.504020  0.452797  0.080953  1
  Al  Al6  1  0.594097  0.250000  0.648337  1
  Al  Al7  1  0.066718  0.250000  0.339131  1
  Al  Al8  1  0.952797  0.004020  0.419047  1
  Al  Al9  1  0.250000  0.594097  0.148337  1
  Al  Al10  1  0.750000  0.094096  0.851663  1
  Al  Al11  1  0.905903  0.250000  0.648337  1
  Al  Al12  1  0.750000  0.250000  0.021949  1
  Al  Al13  1  0.495980  0.952797  0.919047  1
  Al  Al14  1  0.995980  0.452797  0.080953  1
  Al  Al15  1  0.952797  0.495980  0.419047  1
  Al  Al16  1  0.250000  0.905903  0.148337  1
  Al  Al17  1  0.995980  0.047203  0.080953  1
  Al  Al18  1  0.452797  0.995980  0.580953  1
  Al  Al19  1  0.750000  0.405903  0.851663  1
  Al  Al20  1  0.250000  0.750000  0.521949  1
  Al  Al21  1  0.004020  0.547203  0.919047  1
  Al  Al22  1  0.047203  0.504020  0.580953  1
  Al  Al23  1  0.004020  0.952797  0.919047  1
  Al  Al24  1  0.547203  0.495980  0.419047  1
  Al  Al25  1  0.094096  0.750000  0.351663  1
  Al  Al26  1  0.504020  0.047203  0.080953  1
  Al  Al27  1  0.750000  0.933282  0.160869  1
  Al  Al28  1  0.566718  0.750000  0.660869  1
  Al  Al29  1  0.250000  0.750000  0.978051  1
  Al  Al30  1  0.750000  0.250000  0.478051  1
  Al  Al31  1  0.547203  0.004020  0.419047  1
  Al  Al32  1  0.047203  0.995980  0.580953  1
  Al  Al33  1  0.750000  0.566718  0.160869  1
  Al  Al34  1  0.495980  0.547203  0.919047  1
  Al  Al35  1  0.452797  0.504020  0.580953  1
  Al  Al36  1  0.405903  0.750000  0.351663  1
  Al  Al37  1  0.250000  0.433282  0.839131  1
  Al  Al38  1  0.250000  0.066718  0.839131  1
  Al  Al39  1  0.433282  0.250000  0.339131  1
  Fe  Fe40  1  0.472079  0.250000  0.500113  1
  Fe  Fe41  1  0.994656  0.494656  0.250000  1
  Fe  Fe42  1  0.250000  0.472079  1.000113  1
  Fe  Fe43  1  0.994656  0.005344  0.250000  1
  Fe  Fe44  1  0.750000  0.972079  -0.000113  1
  Fe  Fe45  1  0.750000  0.527921  -0.000113  1
  Fe  Fe46  1  0.972079  0.750000  0.499887  1
  Fe  Fe47  1  0.494656  0.505344  0.750000  1
  Fe  Fe48  1  0.505344  0.494656  0.250000  1
  Fe  Fe49  1  0.005344  0.505344  0.750000  1
  Fe  Fe50  1  0.005344  0.994656  0.750000  1
  Fe  Fe51  1  0.250000  0.027921  1.000113  1
  Fe  Fe52  1  0.505344  0.005344  0.250000  1
  Fe  Fe53  1  0.527921  0.750000  0.499887  1
  Fe  Fe54  1  0.494656  0.994656  0.750000  1
  Fe  Fe55  1  0.027921  0.250000  0.500113  1
  Si  Si56  1  0.511954  0.750000  0.188370  1
  Si  Si57  1  0.488046  0.250000  0.811630  1
  Si  Si58  1  0.906832  0.250000  0.193372  1
  Si  Si59  1  0.111803  0.250000  0.970806  1
  Si  Si60  1  0.888197  0.750000  0.029194  1
  Si  Si61  1  0.250000  0.011954  0.311630  1
  Si  Si62  1  0.406832  0.750000  0.806628  1
  Si  Si63  1  0.388197  0.250000  0.970806  1
  Si  Si64  1  0.593168  0.250000  0.193372  1
  Si  Si65  1  0.750000  0.093168  0.306628  1
  Si  Si66  1  0.611803  0.750000  0.029194  1
  Si  Si67  1  0.250000  0.488046  0.311630  1
  Si  Si68  1  0.750000  0.511954  0.688370  1
  Si  Si69  1  0.750000  0.611803  0.529194  1
  Si  Si70  1  0.250000  0.388197  0.470806  1
  Si  Si71  1  0.093168  0.750000  0.806628  1
  Si  Si72  1  0.750000  0.988046  0.688370  1
  Si  Si73  1  0.750000  0.406832  0.306628  1
  Si  Si74  1  0.250000  0.111803  0.470806  1
  Si  Si75  1  0.011954  0.250000  0.811630  1
  Si  Si76  1  0.750000  0.888197  0.529194  1
  Si  Si77  1  0.250000  0.906832  0.693372  1
  Si  Si78  1  0.250000  0.593168  0.693372  1
  Si  Si79  1  0.988046  0.750000  0.188370  1
