# generated using pymatgen
data_HoSi2Ni
_symmetry_space_group_name_H-M   'P 1'
_cell_length_a   3.96324105
_cell_length_b   3.95274574
_cell_length_c   8.47275830
_cell_angle_alpha   103.48919798
_cell_angle_beta   90.00000000
_cell_angle_gamma   90.00000000
_symmetry_Int_Tables_number   1
_chemical_formula_structural   HoSi2Ni
_chemical_formula_sum   'Ho2 Si4 Ni2'
_cell_volume   129.07001166
_cell_formula_units_Z   2
loop_
 _symmetry_equiv_pos_site_id
 _symmetry_equiv_pos_as_xyz
  1  'x, y, z'
loop_
 _atom_site_type_symbol
 _atom_site_label
 _atom_site_symmetry_multiplicity
 _atom_site_fract_x
 _atom_site_fract_y
 _atom_site_fract_z
 _atom_site_occupancy
  Si  Si0  1  0.250000  0.250654  0.501307  1
  Si  Si1  1  0.750000  0.749346  0.498693  1
  Si  Si2  1  0.750000  0.460365  0.920729  1
  Si  Si3  1  0.250000  0.539635  0.079271  1
  Ni  Ni4  1  0.750000  0.323355  0.646710  1
  Ni  Ni5  1  0.250000  0.676645  0.353290  1
  Ho  Ho6  1  0.250000  0.894316  0.788633  1
  Ho  Ho7  1  0.750000  0.105684  0.211367  1
