# generated using pymatgen
data_Tb(BO2)3
_symmetry_space_group_name_H-M   'P 1'
_cell_length_a   6.16315934
_cell_length_b   7.81389313
_cell_length_c   8.34097347
_cell_angle_alpha   90.00000000
_cell_angle_beta   90.00000000
_cell_angle_gamma   90.03907753
_symmetry_Int_Tables_number   1
_chemical_formula_structural   Tb(BO2)3
_chemical_formula_sum   'Tb4 B12 O24'
_cell_volume   401.68674573
_cell_formula_units_Z   4
loop_
 _symmetry_equiv_pos_site_id
 _symmetry_equiv_pos_as_xyz
  1  'x, y, z'
loop_
 _atom_site_type_symbol
 _atom_site_label
 _atom_site_symmetry_multiplicity
 _atom_site_fract_x
 _atom_site_fract_y
 _atom_site_fract_z
 _atom_site_occupancy
  Tb  Tb0  1  0.491445  0.249956  0.499085  1
  Tb  Tb1  1  0.508555  0.750044  0.500915  1
  Tb  Tb2  1  0.008555  0.750044  0.999085  1
  Tb  Tb3  1  0.991445  0.249956  0.000915  1
  B  B4  1  0.883389  0.493627  0.683578  1
  B  B5  1  0.011287  0.750014  0.500537  1
  B  B6  1  0.511287  0.750014  0.999463  1
  B  B7  1  0.616323  0.994595  0.816341  1
  B  B8  1  0.616611  0.506373  0.183578  1
  B  B9  1  0.883677  0.005405  0.316341  1
  B  B10  1  0.383389  0.493627  0.816422  1
  B  B11  1  0.383677  0.005405  0.183659  1
  B  B12  1  0.988713  0.249986  0.499463  1
  B  B13  1  0.488713  0.249986  0.000537  1
  B  B14  1  0.116323  0.994595  0.683659  1
  B  B15  1  0.116611  0.506373  0.316422  1
  O  O16  1  0.941542  0.992496  0.161705  1
  O  O17  1  0.858396  0.865827  0.419433  1
  O  O18  1  0.358159  0.634249  0.918325  1
  O  O19  1  0.159682  0.832603  0.616134  1
  O  O20  1  0.641841  0.365751  0.081675  1
  O  O21  1  0.659682  0.832603  0.883866  1
  O  O22  1  0.160014  0.667610  0.385429  1
  O  O23  1  0.840318  0.167397  0.383866  1
  O  O24  1  0.340318  0.167397  0.116134  1
  O  O25  1  0.339986  0.332390  0.885429  1
  O  O26  1  0.141604  0.134173  0.580567  1
  O  O27  1  0.358396  0.865827  0.080567  1
  O  O28  1  0.941066  0.505599  0.838325  1
  O  O29  1  0.058458  0.007504  0.838295  1
  O  O30  1  0.441066  0.505599  0.661675  1
  O  O31  1  0.558934  0.494401  0.338325  1
  O  O32  1  0.839986  0.332390  0.614571  1
  O  O33  1  0.441542  0.992496  0.338295  1
  O  O34  1  0.058934  0.494401  0.161675  1
  O  O35  1  0.660014  0.667610  0.114571  1
  O  O36  1  0.141841  0.365751  0.418325  1
  O  O37  1  0.858159  0.634249  0.581675  1
  O  O38  1  0.641604  0.134173  0.919433  1
  O  O39  1  0.558458  0.007504  0.661705  1
