# generated using pymatgen
data_Tl2CO3
_symmetry_space_group_name_H-M   'P 1'
_cell_length_a   5.50409192
_cell_length_b   7.07001966
_cell_length_c   7.49020468
_cell_angle_alpha   64.04457299
_cell_angle_beta   68.47894655
_cell_angle_gamma   67.10348148
_symmetry_Int_Tables_number   1
_chemical_formula_structural   Tl2CO3
_chemical_formula_sum   'Tl4 C2 O6'
_cell_volume   234.52904816
_cell_formula_units_Z   2
loop_
 _symmetry_equiv_pos_site_id
 _symmetry_equiv_pos_as_xyz
  1  'x, y, z'
loop_
 _atom_site_type_symbol
 _atom_site_label
 _atom_site_symmetry_multiplicity
 _atom_site_fract_x
 _atom_site_fract_y
 _atom_site_fract_z
 _atom_site_occupancy
  Tl  Tl0  1  0.905339  0.882354  0.307257  1
  Tl  Tl1  1  0.094661  0.117646  0.692743  1
  Tl  Tl2  1  0.361092  0.505825  0.771872  1
  Tl  Tl3  1  0.638908  0.494175  0.228128  1
  C  C4  1  0.335038  0.135597  0.194520  1
  C  C5  1  0.664962  0.864403  0.805480  1
  O  O6  1  0.333213  0.970513  0.363438  1
  O  O7  1  0.666787  0.029487  0.636562  1
  O  O8  1  0.541675  0.220037  0.106871  1
  O  O9  1  0.868514  0.779841  0.893087  1
  O  O10  1  0.458325  0.779963  0.893129  1
  O  O11  1  0.131486  0.220159  0.106913  1
