# generated using pymatgen
data_KNa(BH4)2
_symmetry_space_group_name_H-M   'P 1'
_cell_length_a   7.87129484
_cell_length_b   7.87129473
_cell_length_c   7.87129491
_cell_angle_alpha   33.65614633
_cell_angle_beta   33.65614760
_cell_angle_gamma   33.65614762
_symmetry_Int_Tables_number   1
_chemical_formula_structural   KNa(BH4)2
_chemical_formula_sum   'K1 Na1 B2 H8'
_cell_volume   133.44335832
_cell_formula_units_Z   1
loop_
 _symmetry_equiv_pos_site_id
 _symmetry_equiv_pos_as_xyz
  1  'x, y, z'
loop_
 _atom_site_type_symbol
 _atom_site_label
 _atom_site_symmetry_multiplicity
 _atom_site_fract_x
 _atom_site_fract_y
 _atom_site_fract_z
 _atom_site_occupancy
  K  K0  1  0.352514  0.352514  0.352514  1
  Na  Na1  1  0.856466  0.856466  0.856466  1
  B  B2  1  0.592127  0.592127  0.592127  1
  B  B3  1  0.103746  0.103746  0.103746  1
  H  H4  1  0.365576  0.857194  0.141518  1
  H  H5  1  0.537082  0.537082  0.537082  1
  H  H6  1  0.857194  0.141518  0.365576  1
  H  H7  1  0.756364  0.318040  0.758380  1
  H  H8  1  0.141518  0.365576  0.857194  1
  H  H9  1  0.048372  0.048372  0.048372  1
  H  H10  1  0.318040  0.758380  0.756364  1
  H  H11  1  0.758380  0.756364  0.318040  1
