# generated using pymatgen
data_SrBiBrO2
_symmetry_space_group_name_H-M   'P 1'
_cell_length_a   5.73557009
_cell_length_b   5.85980666
_cell_length_c   7.21031788
_cell_angle_alpha   113.97681374
_cell_angle_beta   89.99998613
_cell_angle_gamma   90.00000435
_symmetry_Int_Tables_number   1
_chemical_formula_structural   SrBiBrO2
_chemical_formula_sum   'Sr2 Bi2 Br2 O4'
_cell_volume   221.42296351
_cell_formula_units_Z   2
loop_
 _symmetry_equiv_pos_site_id
 _symmetry_equiv_pos_as_xyz
  1  'x, y, z'
loop_
 _atom_site_type_symbol
 _atom_site_label
 _atom_site_symmetry_multiplicity
 _atom_site_fract_x
 _atom_site_fract_y
 _atom_site_fract_z
 _atom_site_occupancy
  Bi  Bi0  1  0.750000  0.077744  0.155366  1
  O  O1  1  0.000029  0.233916  0.999965  1
  O  O2  1  0.500030  0.766084  0.000035  1
  Sr  Sr3  1  0.250000  0.601018  0.202038  1
  Sr  Sr4  1  0.750000  0.398982  0.797961  1
  O  O5  1  0.999971  0.766084  0.000035  1
  Br  Br6  1  0.250000  0.254787  0.509399  1
  Br  Br7  1  0.750000  0.745213  0.490601  1
  Bi  Bi8  1  0.250000  0.922256  0.844634  1
  O  O9  1  0.499971  0.233916  0.999965  1
