# generated using pymatgen
data_Na6TlSb4
_symmetry_space_group_name_H-M   'P 1'
_cell_length_a   9.27675499
_cell_length_b   9.27479340
_cell_length_c   17.11271040
_cell_angle_alpha   99.90659471
_cell_angle_beta   101.26821358
_cell_angle_gamma   108.79011965
_symmetry_Int_Tables_number   1
_chemical_formula_structural   Na6TlSb4
_chemical_formula_sum   'Na24 Tl4 Sb16'
_cell_volume   1322.53003982
_cell_formula_units_Z   4
loop_
 _symmetry_equiv_pos_site_id
 _symmetry_equiv_pos_as_xyz
  1  'x, y, z'
loop_
 _atom_site_type_symbol
 _atom_site_label
 _atom_site_symmetry_multiplicity
 _atom_site_fract_x
 _atom_site_fract_y
 _atom_site_fract_z
 _atom_site_occupancy
  Tl  Tl0  1  0.411745  0.558771  0.669068  1
  Tl  Tl1  1  0.389641  0.742620  0.830994  1
  Tl  Tl2  1  0.588255  0.441229  0.330932  1
  Tl  Tl3  1  0.610359  0.257380  0.169006  1
  Sb  Sb4  1  0.075359  0.296295  0.572733  1
  Sb  Sb5  1  0.223544  0.502597  0.927290  1
  Sb  Sb6  1  0.924641  0.703705  0.427267  1
  Sb  Sb7  1  0.776456  0.497403  0.072710  1
  Sb  Sb8  1  0.555013  0.796131  0.571314  1
  Sb  Sb9  1  0.724806  0.983727  0.928681  1
  Sb  Sb10  1  0.444987  0.203869  0.428686  1
  Sb  Sb11  1  0.275194  0.016273  0.071319  1
  Sb  Sb12  1  0.631823  0.383213  0.729356  1
  Sb  Sb13  1  0.153989  0.902553  0.770554  1
  Sb  Sb14  1  0.368177  0.616787  0.270644  1
  Sb  Sb15  1  0.846011  0.097447  0.229446  1
  Sb  Sb16  1  0.681773  0.854550  0.414225  1
  Sb  Sb17  1  0.940262  0.267555  0.085775  1
  Sb  Sb18  1  0.318227  0.145450  0.585775  1
  Sb  Sb19  1  0.059738  0.732445  0.914225  1
  Na  Na20  1  0.697066  0.529234  0.553560  1
  Na  Na21  1  0.475844  0.143638  0.946454  1
  Na  Na22  1  0.302934  0.470766  0.446440  1
  Na  Na23  1  0.524156  0.856362  0.053546  1
  Na  Na24  1  0.946064  0.943345  0.599443  1
  Na  Na25  1  0.843974  0.346690  0.900510  1
  Na  Na26  1  0.053936  0.056655  0.400557  1
  Na  Na27  1  0.156026  0.653310  0.099490  1
  Na  Na28  1  0.784434  0.784687  0.761957  1
  Na  Na29  1  0.522652  0.022210  0.738110  1
  Na  Na30  1  0.215566  0.215313  0.238043  1
  Na  Na31  1  0.477348  0.977790  0.261890  1
  Na  Na32  1  0.005534  0.493706  0.734640  1
  Na  Na33  1  0.258872  0.271123  0.765336  1
  Na  Na34  1  0.994466  0.506294  0.265360  1
  Na  Na35  1  0.741128  0.728877  0.234664  1
  Na  Na36  1  0.692609  0.157080  0.577195  1
  Na  Na37  1  0.079930  0.115539  0.922770  1
  Na  Na38  1  0.307391  0.842920  0.422805  1
  Na  Na39  1  0.920070  0.884461  0.077230  1
  Na  Na40  1  0.173154  0.717103  0.591885  1
  Na  Na41  1  0.625625  0.581362  0.907983  1
  Na  Na42  1  0.826846  0.282897  0.408115  1
  Na  Na43  1  0.374375  0.418638  0.092017  1
