# generated using pymatgen
data_KCe(PO3)4
_symmetry_space_group_name_H-M   'P 1'
_cell_length_a   7.52332482
_cell_length_b   10.26556269
_cell_length_c   13.50802383
_cell_angle_alpha   90.00000000
_cell_angle_beta   90.00000000
_cell_angle_gamma   90.03793565
_symmetry_Int_Tables_number   1
_chemical_formula_structural   KCe(PO3)4
_chemical_formula_sum   'K4 Ce4 P16 O48'
_cell_volume   1043.24015540
_cell_formula_units_Z   4
loop_
 _symmetry_equiv_pos_site_id
 _symmetry_equiv_pos_as_xyz
  1  'x, y, z'
loop_
 _atom_site_type_symbol
 _atom_site_label
 _atom_site_symmetry_multiplicity
 _atom_site_fract_x
 _atom_site_fract_y
 _atom_site_fract_z
 _atom_site_occupancy
  Ce  Ce0  1  0.508490  0.977727  0.779614  1
  Ce  Ce1  1  0.991510  0.522273  0.279614  1
  Ce  Ce2  1  0.491510  0.022273  0.220386  1
  Ce  Ce3  1  0.008490  0.477727  0.720386  1
  P  P4  1  0.764994  0.752898  0.598726  1
  P  P5  1  0.735006  0.747102  0.098726  1
  P  P6  1  0.235006  0.247102  0.401274  1
  P  P7  1  0.264994  0.252898  0.901274  1
  P  P8  1  0.862724  0.758757  0.887318  1
  P  P9  1  0.637276  0.741243  0.387318  1
  P  P10  1  0.137276  0.241243  0.112682  1
  P  P11  1  0.362724  0.258757  0.612682  1
  P  P12  1  0.152981  0.798590  0.623647  1
  P  P13  1  0.347019  0.701410  0.123647  1
  P  P14  1  0.847019  0.201410  0.376353  1
  P  P15  1  0.652981  0.298590  0.876353  1
  P  P16  1  0.252904  0.795164  0.408928  1
  P  P17  1  0.247096  0.704836  0.908928  1
  P  P18  1  0.747096  0.204836  0.591072  1
  P  P19  1  0.752904  0.295164  0.091072  1
  K  K20  1  0.997705  0.932629  0.225197  1
  K  K21  1  0.502295  0.567371  0.725197  1
  K  K22  1  0.002295  0.067371  0.774803  1
  K  K23  1  0.497705  0.432629  0.274803  1
  O  O24  1  0.230222  0.885606  0.701906  1
  O  O25  1  0.269778  0.614394  0.201906  1
  O  O26  1  0.769778  0.114394  0.298094  1
  O  O27  1  0.730222  0.385606  0.798094  1
  O  O28  1  0.066323  0.790546  0.919352  1
  O  O29  1  0.433677  0.709454  0.419352  1
  O  O30  1  0.933677  0.209454  0.080648  1
  O  O31  1  0.566323  0.290546  0.580648  1
  O  O32  1  0.642973  0.850448  0.313709  1
  O  O33  1  0.857027  0.649552  0.813709  1
  O  O34  1  0.357027  0.149552  0.686291  1
  O  O35  1  0.142973  0.350448  0.186291  1
  O  O36  1  0.781774  0.886988  0.858722  1
  O  O37  1  0.718226  0.613012  0.358722  1
  O  O38  1  0.218226  0.113012  0.141278  1
  O  O39  1  0.281774  0.386988  0.641278  1
  O  O40  1  0.943723  0.836722  0.618471  1
  O  O41  1  0.556277  0.663278  0.118471  1
  O  O42  1  0.056277  0.163278  0.381529  1
  O  O43  1  0.443723  0.336722  0.881529  1
  O  O44  1  0.619125  0.808502  0.662316  1
  O  O45  1  0.880875  0.691498  0.162316  1
  O  O46  1  0.380875  0.191498  0.337684  1
  O  O47  1  0.119125  0.308502  0.837684  1
  O  O48  1  0.228508  0.851611  0.519686  1
  O  O49  1  0.271492  0.648389  0.019686  1
  O  O50  1  0.771492  0.148389  0.480314  1
  O  O51  1  0.728508  0.351611  0.980314  1
  O  O52  1  0.726140  0.797276  0.486347  1
  O  O53  1  0.773860  0.702724  0.986347  1
  O  O54  1  0.273860  0.202724  0.513653  1
  O  O55  1  0.226140  0.297276  0.013653  1
  O  O56  1  0.283957  0.911381  0.343852  1
  O  O57  1  0.216043  0.588619  0.843852  1
  O  O58  1  0.716043  0.088619  0.656148  1
  O  O59  1  0.783957  0.411381  0.156148  1
  O  O60  1  0.700764  0.891247  0.106183  1
  O  O61  1  0.799236  0.608753  0.606183  1
  O  O62  1  0.299236  0.108753  0.893817  1
  O  O63  1  0.200764  0.391247  0.393817  1
  O  O64  1  0.325010  0.846168  0.132783  1
  O  O65  1  0.174990  0.653832  0.632783  1
  O  O66  1  0.674990  0.153832  0.867217  1
  O  O67  1  0.825010  0.346168  0.367217  1
  O  O68  1  0.397691  0.795417  0.884179  1
  O  O69  1  0.102309  0.704583  0.384179  1
  O  O70  1  0.602309  0.204583  0.115821  1
  O  O71  1  0.897691  0.295417  0.615821  1
