# generated using pymatgen
data_CeSmI4
_symmetry_space_group_name_H-M   'P 1'
_cell_length_a   7.63020095
_cell_length_b   8.06815184
_cell_length_c   8.88060232
_cell_angle_alpha   112.78806055
_cell_angle_beta   110.70360163
_cell_angle_gamma   99.77957716
_symmetry_Int_Tables_number   1
_chemical_formula_structural   CeSmI4
_chemical_formula_sum   'Ce2 Sm2 I8'
_cell_volume   440.63978562
_cell_formula_units_Z   2
loop_
 _symmetry_equiv_pos_site_id
 _symmetry_equiv_pos_as_xyz
  1  'x, y, z'
loop_
 _atom_site_type_symbol
 _atom_site_label
 _atom_site_symmetry_multiplicity
 _atom_site_fract_x
 _atom_site_fract_y
 _atom_site_fract_z
 _atom_site_occupancy
  Ce  Ce0  1  0.245980  0.494881  0.992378  1
  Ce  Ce1  1  0.754020  0.505119  0.007622  1
  Sm  Sm2  1  0.119838  0.869847  0.736490  1
  Sm  Sm3  1  0.880162  0.130153  0.263510  1
  I  I4  1  0.128424  0.875537  0.122026  1
  I  I5  1  0.494170  0.247215  0.121621  1
  I  I6  1  0.281637  0.189040  0.634806  1
  I  I7  1  0.146010  0.554109  0.365204  1
  I  I8  1  0.853990  0.445891  0.634796  1
  I  I9  1  0.505830  0.752785  0.878379  1
  I  I10  1  0.718363  0.810960  0.365194  1
  I  I11  1  0.871576  0.124463  0.877974  1
