# generated using pymatgen
data_Lu11Te4
_symmetry_space_group_name_H-M   'P 1'
_cell_length_a   3.94650576
_cell_length_b   15.44275943
_cell_length_c   21.27051979
_cell_angle_alpha   102.69055102
_cell_angle_beta   90.00000000
_cell_angle_gamma   97.34124003
_symmetry_Int_Tables_number   1
_chemical_formula_structural   Lu11Te4
_chemical_formula_sum   'Lu33 Te12'
_cell_volume   1253.76744506
_cell_formula_units_Z   3
loop_
 _symmetry_equiv_pos_site_id
 _symmetry_equiv_pos_as_xyz
  1  'x, y, z'
loop_
 _atom_site_type_symbol
 _atom_site_label
 _atom_site_symmetry_multiplicity
 _atom_site_fract_x
 _atom_site_fract_y
 _atom_site_fract_z
 _atom_site_occupancy
  Lu  Lu0  1  0.254970  0.509940  0.072995  1
  Lu  Lu1  1  0.967980  0.935960  0.165312  1
  Lu  Lu2  1  0.032020  0.064040  0.834688  1
  Lu  Lu3  1  0.827876  0.655752  0.434921  1
  Lu  Lu4  1  0.425802  0.851605  0.037852  1
  Lu  Lu5  1  0.285691  0.571382  0.543948  1
  Lu  Lu6  1  0.606190  0.212380  0.778957  1
  Lu  Lu7  1  0.242573  0.485145  0.345687  1
  Lu  Lu8  1  0.438578  0.877156  0.413708  1
  Lu  Lu9  1  0.463962  0.927924  0.692077  1
  Lu  Lu10  1  0.574198  0.148395  0.962148  1
  Lu  Lu11  1  0.126900  0.253799  0.092201  1
  Lu  Lu12  1  0.869289  0.738577  0.630920  1
  Lu  Lu13  1  0.393810  0.787620  0.221043  1
  Lu  Lu14  1  0.873100  0.746201  0.907799  1
  Lu  Lu15  1  0.172124  0.344248  0.565079  1
  Lu  Lu16  1  0.561422  0.122844  0.586292  1
  Lu  Lu17  1  0.745030  0.490060  0.927005  1
  Lu  Lu18  1  0.031876  0.063751  0.444901  1
  Lu  Lu19  1  0.796107  0.592215  0.218870  1
  Lu  Lu20  1  0.714309  0.428618  0.456052  1
  Lu  Lu21  1  0.130711  0.261423  0.369080  1
  Lu  Lu22  1  0.000000  0.000000  0.000000  1
  Lu  Lu23  1  0.203893  0.407785  0.781130  1
  Lu  Lu24  1  0.536038  0.072076  0.307923  1
  Lu  Lu25  1  0.340870  0.681740  0.745117  1
  Lu  Lu26  1  0.659130  0.318260  0.254883  1
  Lu  Lu27  1  0.456512  0.913025  0.882219  1
  Lu  Lu28  1  0.849119  0.698238  0.096029  1
  Lu  Lu29  1  0.150881  0.301762  0.903971  1
  Lu  Lu30  1  0.543488  0.086975  0.117781  1
  Lu  Lu31  1  0.968124  0.936249  0.555099  1
  Lu  Lu32  1  0.757427  0.514855  0.654313  1
  Te  Te33  1  0.215958  0.431915  0.194378  1
  Te  Te34  1  0.041897  0.083794  0.689232  1
  Te  Te35  1  0.387365  0.774730  0.527440  1
  Te  Te36  1  0.784042  0.568085  0.805622  1
  Te  Te37  1  0.920014  0.840029  0.774610  1
  Te  Te38  1  0.612635  0.225270  0.472560  1
  Te  Te39  1  0.958103  0.916206  0.310768  1
  Te  Te40  1  0.341807  0.683614  0.328288  1
  Te  Te41  1  0.079986  0.159971  0.225390  1
  Te  Te42  1  0.321775  0.643551  0.979980  1
  Te  Te43  1  0.678225  0.356449  0.020020  1
  Te  Te44  1  0.658193  0.316386  0.671712  1
