# generated using pymatgen
data_Li4Mn3Cl10
_symmetry_space_group_name_H-M   'P 1'
_cell_length_a   7.45668988
_cell_length_b   7.45668988
_cell_length_c   37.31604213
_cell_angle_alpha   60.07411757
_cell_angle_beta   60.07411759
_cell_angle_gamma   60.53251037
_symmetry_Int_Tables_number   1
_chemical_formula_structural   Li4Mn3Cl10
_chemical_formula_sum   'Li16 Mn12 Cl40'
_cell_volume   1474.61849609
_cell_formula_units_Z   4
loop_
 _symmetry_equiv_pos_site_id
 _symmetry_equiv_pos_as_xyz
  1  'x, y, z'
loop_
 _atom_site_type_symbol
 _atom_site_label
 _atom_site_symmetry_multiplicity
 _atom_site_fract_x
 _atom_site_fract_y
 _atom_site_fract_z
 _atom_site_occupancy
  Cl  Cl0  1  0.252976  0.252976  0.051076  1
  Cl  Cl1  1  0.254587  0.725093  0.050744  1
  Cl  Cl2  1  0.253250  0.253250  0.144969  1
  Cl  Cl3  1  0.725093  0.254587  0.050744  1
  Cl  Cl4  1  0.252317  0.252317  0.252296  1
  Cl  Cl5  1  0.277695  0.741435  0.148963  1
  Cl  Cl6  1  0.251487  0.251487  0.347538  1
  Cl  Cl7  1  0.251733  0.718238  0.251955  1
  Cl  Cl8  1  0.741435  0.277695  0.148963  1
  Cl  Cl9  1  0.743775  0.743775  0.055377  1
  Cl  Cl10  1  0.718238  0.251733  0.251955  1
  Cl  Cl11  1  0.745016  0.745016  0.148777  1
  Cl  Cl12  1  0.252779  0.252779  0.452223  1
  Cl  Cl13  1  0.276690  0.748673  0.347335  1
  Cl  Cl14  1  0.251832  0.723292  0.452549  1
  Cl  Cl15  1  0.744434  0.744434  0.253929  1
  Cl  Cl16  1  0.252901  0.252901  0.546798  1
  Cl  Cl17  1  0.748673  0.276690  0.347335  1
  Cl  Cl18  1  0.723292  0.251832  0.452549  1
  Cl  Cl19  1  0.748226  0.748226  0.347216  1
  Cl  Cl20  1  0.252429  0.252429  0.652230  1
  Cl  Cl21  1  0.276543  0.748207  0.547597  1
  Cl  Cl22  1  0.747409  0.747409  0.453200  1
  Cl  Cl23  1  0.253707  0.253707  0.746437  1
  Cl  Cl24  1  0.251870  0.723900  0.652516  1
  Cl  Cl25  1  0.748207  0.276543  0.547597  1
  Cl  Cl26  1  0.723900  0.251870  0.652516  1
  Cl  Cl27  1  0.747073  0.747073  0.547987  1
  Cl  Cl28  1  0.252427  0.252427  0.851303  1
  Cl  Cl29  1  0.275732  0.747835  0.747810  1
  Cl  Cl30  1  0.747835  0.275732  0.747810  1
  Cl  Cl31  1  0.746873  0.746873  0.653348  1
  Cl  Cl32  1  0.255163  0.255163  0.943997  1
  Cl  Cl33  1  0.254447  0.728643  0.851571  1
  Cl  Cl34  1  0.728643  0.254447  0.851571  1
  Cl  Cl35  1  0.747186  0.747186  0.748057  1
  Cl  Cl36  1  0.276906  0.742260  0.948855  1
  Cl  Cl37  1  0.742260  0.276906  0.948855  1
  Cl  Cl38  1  0.746663  0.746663  0.854547  1
  Cl  Cl39  1  0.745378  0.745378  0.948885  1
  Li  Li40  1  0.495179  0.495179  0.099078  1
  Li  Li41  1  0.113710  0.113710  0.427419  1
  Li  Li42  1  0.498817  0.498817  0.299843  1
  Li  Li43  1  0.882302  0.882302  0.175209  1
  Li  Li44  1  0.114181  0.114181  0.627103  1
  Li  Li45  1  0.500556  0.500556  0.399928  1
  Li  Li46  1  0.500159  0.500159  0.499948  1
  Li  Li47  1  0.886266  0.886266  0.372383  1
  Li  Li48  1  0.116482  0.116482  0.825657  1
  Li  Li49  1  0.500013  0.500013  0.599901  1
  Li  Li50  1  0.500323  0.500323  0.699770  1
  Li  Li51  1  0.885969  0.885969  0.572829  1
  Li  Li52  1  0.502269  0.502269  0.798805  1
  Li  Li53  1  0.496579  0.496579  0.899247  1
  Li  Li54  1  0.885101  0.885101  0.773303  1
  Li  Li55  1  0.880676  0.880676  0.976506  1
  Mn  Mn56  1  0.495205  0.495205  0.002916  1
  Mn  Mn57  1  0.000965  0.496875  0.300158  1
  Mn  Mn58  1  0.493618  0.493618  0.203515  1
  Mn  Mn59  1  0.495100  0.012487  0.099284  1
  Mn  Mn60  1  0.012487  0.495100  0.099284  1
  Mn  Mn61  1  -0.000053  0.500053  0.500049  1
  Mn  Mn62  1  0.500053  -0.000053  0.500049  1
  Mn  Mn63  1  0.496875  0.000965  0.300158  1
  Mn  Mn64  1  0.000161  0.500429  0.699861  1
  Mn  Mn65  1  0.500429  0.000161  0.699861  1
  Mn  Mn66  1  0.011372  0.498127  0.898979  1
  Mn  Mn67  1  0.498127  0.011372  0.898979  1
