# generated using pymatgen
data_GaP(H2O3)2
_symmetry_space_group_name_H-M   'P 1'
_cell_length_a   8.68908583
_cell_length_b   9.83454729
_cell_length_c   10.13449043
_cell_angle_alpha   90.00000000
_cell_angle_beta   90.00000000
_cell_angle_gamma   90.00000000
_symmetry_Int_Tables_number   1
_chemical_formula_structural   GaP(H2O3)2
_chemical_formula_sum   'Ga8 P8 H32 O48'
_cell_volume   866.02489606
_cell_formula_units_Z   8
loop_
 _symmetry_equiv_pos_site_id
 _symmetry_equiv_pos_as_xyz
  1  'x, y, z'
loop_
 _atom_site_type_symbol
 _atom_site_label
 _atom_site_symmetry_multiplicity
 _atom_site_fract_x
 _atom_site_fract_y
 _atom_site_fract_z
 _atom_site_occupancy
  Ga  Ga0  1  0.151975  0.171348  0.132376  1
  Ga  Ga1  1  0.651975  0.328652  0.867624  1
  Ga  Ga2  1  0.848025  0.671348  0.367624  1
  Ga  Ga3  1  0.348025  0.828652  0.632376  1
  Ga  Ga4  1  0.848025  0.828652  0.867624  1
  Ga  Ga5  1  0.348025  0.671348  0.132376  1
  Ga  Ga6  1  0.151975  0.328652  0.632376  1
  Ga  Ga7  1  0.651975  0.171348  0.367624  1
  P  P8  1  0.470063  0.355856  0.148767  1
  P  P9  1  0.970063  0.144144  0.851233  1
  P  P10  1  0.529937  0.855856  0.351233  1
  P  P11  1  0.029937  0.644144  0.648767  1
  P  P12  1  0.529937  0.644144  0.851233  1
  P  P13  1  0.029937  0.855856  0.148767  1
  P  P14  1  0.470063  0.144144  0.648767  1
  P  P15  1  0.970063  0.355856  0.351233  1
  O  O16  1  0.298933  0.327591  0.111233  1
  O  O17  1  0.798933  0.172409  0.888767  1
  O  O18  1  0.701067  0.827591  0.388767  1
  O  O19  1  0.201067  0.672409  0.611233  1
  O  O20  1  0.701067  0.672409  0.888767  1
  O  O21  1  0.201067  0.827591  0.111233  1
  O  O22  1  0.298933  0.172409  0.611233  1
  O  O23  1  0.798933  0.327591  0.388767  1
  O  O24  1  0.582536  0.287737  0.048077  1
  O  O25  1  0.082536  0.212263  0.951923  1
  O  O26  1  0.417464  0.787737  0.451923  1
  O  O27  1  0.917464  0.712263  0.548077  1
  O  O28  1  0.417464  0.712263  0.951923  1
  O  O29  1  0.917464  0.787737  0.048077  1
  O  O30  1  0.582536  0.212263  0.548077  1
  O  O31  1  0.082536  0.287737  0.451923  1
  O  O32  1  0.503802  0.296328  0.286711  1
  O  O33  1  0.003802  0.203672  0.713289  1
  O  O34  1  0.496198  0.796328  0.213289  1
  O  O35  1  0.996198  0.703672  0.786711  1
  O  O36  1  0.496198  0.703672  0.713289  1
  O  O37  1  0.996198  0.796328  0.286711  1
  O  O38  1  0.503802  0.203672  0.786711  1
  O  O39  1  0.003802  0.296328  0.213289  1
  O  O40  1  0.493702  0.512580  0.144888  1
  O  O41  1  0.993702  0.987420  0.855112  1
  O  O42  1  0.506298  0.012580  0.355112  1
  O  O43  1  0.006298  0.487420  0.644888  1
  O  O44  1  0.506298  0.487420  0.855112  1
  O  O45  1  0.006298  0.012580  0.144888  1
  O  O46  1  0.493702  0.987420  0.644888  1
  O  O47  1  0.993702  0.512580  0.355112  1
  O  O48  1  0.328760  0.056346  0.059678  1
  O  O49  1  0.828760  0.443654  0.940322  1
  O  O50  1  0.671240  0.556346  0.440322  1
  O  O51  1  0.171240  0.943654  0.559678  1
  O  O52  1  0.671240  0.943654  0.940322  1
  O  O53  1  0.171240  0.556346  0.059678  1
  O  O54  1  0.328760  0.443654  0.559678  1
  O  O55  1  0.828760  0.056346  0.440322  1
  O  O56  1  0.226410  0.107605  0.308918  1
  O  O57  1  0.726410  0.392395  0.691082  1
  O  O58  1  0.773590  0.607605  0.191082  1
  O  O59  1  0.273590  0.892395  0.808918  1
  O  O60  1  0.773590  0.892395  0.691082  1
  O  O61  1  0.273590  0.607605  0.308918  1
  O  O62  1  0.226410  0.392395  0.808918  1
  O  O63  1  0.726410  0.107605  0.191082  1
  H  H64  1  0.293453  0.958575  0.070145  1
  H  H65  1  0.793453  0.541425  0.929855  1
  H  H66  1  0.706547  0.458575  0.429855  1
  H  H67  1  0.206547  0.041425  0.570145  1
  H  H68  1  0.706547  0.041425  0.929855  1
  H  H69  1  0.206547  0.458575  0.070145  1
  H  H70  1  0.293453  0.541425  0.570145  1
  H  H71  1  0.793453  0.958575  0.429855  1
  H  H72  1  0.354523  0.072826  0.967025  1
  H  H73  1  0.854523  0.427174  0.032974  1
  H  H74  1  0.645477  0.572826  0.532975  1
  H  H75  1  0.145477  0.927174  0.467025  1
  H  H76  1  0.645477  0.927174  0.032974  1
  H  H77  1  0.145477  0.572826  0.967025  1
  H  H78  1  0.354523  0.427174  0.467025  1
  H  H79  1  0.854523  0.072826  0.532975  1
  H  H80  1  0.337204  0.081714  0.322551  1
  H  H81  1  0.837204  0.418286  0.677449  1
  H  H82  1  0.662796  0.581714  0.177449  1
  H  H83  1  0.162796  0.918286  0.822551  1
  H  H84  1  0.662796  0.918286  0.677449  1
  H  H85  1  0.162796  0.581714  0.322551  1
  H  H86  1  0.337204  0.418286  0.822551  1
  H  H87  1  0.837204  0.081714  0.177449  1
  H  H88  1  0.190214  0.174844  0.376909  1
  H  H89  1  0.690214  0.325156  0.623091  1
  H  H90  1  0.809786  0.674844  0.123091  1
  H  H91  1  0.309786  0.825156  0.876909  1
  H  H92  1  0.809786  0.825156  0.623091  1
  H  H93  1  0.309786  0.674844  0.376909  1
  H  H94  1  0.190214  0.325156  0.876909  1
  H  H95  1  0.690214  0.174844  0.123091  1
