# generated using pymatgen
data_Tc2O5F4
_symmetry_space_group_name_H-M   'P 1'
_cell_length_a   5.48703128
_cell_length_b   8.63694714
_cell_length_c   15.40851985
_cell_angle_alpha   90.00000000
_cell_angle_beta   90.00000000
_cell_angle_gamma   90.42823697
_symmetry_Int_Tables_number   1
_chemical_formula_structural   Tc2O5F4
_chemical_formula_sum   'Tc8 O20 F16'
_cell_volume   730.20783632
_cell_formula_units_Z   4
loop_
 _symmetry_equiv_pos_site_id
 _symmetry_equiv_pos_as_xyz
  1  'x, y, z'
loop_
 _atom_site_type_symbol
 _atom_site_label
 _atom_site_symmetry_multiplicity
 _atom_site_fract_x
 _atom_site_fract_y
 _atom_site_fract_z
 _atom_site_occupancy
  Tc  Tc0  1  0.676173  0.626038  0.875841  1
  Tc  Tc1  1  0.176173  0.626038  0.624159  1
  Tc  Tc2  1  0.823827  0.373962  0.375841  1
  Tc  Tc3  1  0.517060  0.126534  0.646728  1
  Tc  Tc4  1  0.982940  0.873466  0.146728  1
  Tc  Tc5  1  0.323827  0.373962  0.124159  1
  Tc  Tc6  1  0.482940  0.873466  0.353272  1
  Tc  Tc7  1  0.017060  0.126534  0.853272  1
  O  O8  1  0.288140  0.116086  0.904349  1
  O  O9  1  0.681743  0.887572  0.436543  1
  O  O10  1  0.211860  0.883914  0.404349  1
  O  O11  1  0.076559  0.358706  0.057654  1
  O  O12  1  0.996054  0.782392  0.605352  1
  O  O13  1  0.517909  0.462395  0.903054  1
  O  O14  1  0.181743  0.887572  0.063457  1
  O  O15  1  0.503946  0.217608  0.105352  1
  O  O16  1  0.711860  0.883914  0.095651  1
  O  O17  1  0.576559  0.358706  0.442346  1
  O  O18  1  0.423441  0.641294  0.557654  1
  O  O19  1  0.496054  0.782392  0.894648  1
  O  O20  1  0.923441  0.641294  0.942346  1
  O  O21  1  0.982091  0.537605  0.403054  1
  O  O22  1  0.003946  0.217608  0.394648  1
  O  O23  1  0.017909  0.462395  0.596946  1
  O  O24  1  0.318257  0.112428  0.563457  1
  O  O25  1  0.818257  0.112428  0.936543  1
  O  O26  1  0.482091  0.537605  0.096946  1
  O  O27  1  0.788140  0.116086  0.595651  1
  F  F28  1  0.494442  0.920973  0.684616  1
  F  F29  1  0.226149  0.381049  0.240098  1
  F  F30  1  0.005558  0.079027  0.184616  1
  F  F31  1  0.007897  0.341011  0.837370  1
  F  F32  1  0.992103  0.658989  0.162630  1
  F  F33  1  0.787513  0.855198  0.266628  1
  F  F34  1  0.492103  0.658989  0.337370  1
  F  F35  1  0.773851  0.618951  0.759902  1
  F  F36  1  0.273851  0.618951  0.740098  1
  F  F37  1  0.212487  0.144802  0.733372  1
  F  F38  1  0.507897  0.341011  0.662630  1
  F  F39  1  0.287513  0.855198  0.233372  1
  F  F40  1  0.712487  0.144802  0.766628  1
  F  F41  1  0.994442  0.920973  0.815384  1
  F  F42  1  0.726149  0.381049  0.259902  1
  F  F43  1  0.505558  0.079027  0.315384  1
