# generated using pymatgen
data_MgH8C2S2(NO2)2
_symmetry_space_group_name_H-M   'P 1'
_cell_length_a   7.59296628
_cell_length_b   7.97918094
_cell_length_c   9.09245343
_cell_angle_alpha   90.00000000
_cell_angle_beta   90.00000000
_cell_angle_gamma   115.30937653
_symmetry_Int_Tables_number   1
_chemical_formula_structural   MgH8C2S2(NO2)2
_chemical_formula_sum   'Mg2 H16 C4 S4 N4 O8'
_cell_volume   497.99542534
_cell_formula_units_Z   2
loop_
 _symmetry_equiv_pos_site_id
 _symmetry_equiv_pos_as_xyz
  1  'x, y, z'
loop_
 _atom_site_type_symbol
 _atom_site_label
 _atom_site_symmetry_multiplicity
 _atom_site_fract_x
 _atom_site_fract_y
 _atom_site_fract_z
 _atom_site_occupancy
  Mg  Mg0  1  0.000000  0.000000  0.000000  1
  Mg  Mg1  1  0.500000  0.000000  0.500000  1
  H  H2  1  0.844567  0.246167  0.942439  1
  H  H3  1  0.655433  0.753833  0.442439  1
  H  H4  1  0.892504  0.208526  0.537529  1
  H  H5  1  0.607496  0.791474  0.037529  1
  H  H6  1  0.155433  0.753833  0.057561  1
  H  H7  1  0.945124  0.674772  0.120533  1
  H  H8  1  0.679972  0.875903  0.194190  1
  H  H9  1  0.445124  0.674772  0.379467  1
  H  H10  1  0.179972  0.875903  0.305810  1
  H  H11  1  0.107496  0.791474  0.462471  1
  H  H12  1  0.820028  0.124097  0.694190  1
  H  H13  1  0.554876  0.325228  0.620533  1
  H  H14  1  0.392504  0.208526  0.962471  1
  H  H15  1  0.320028  0.124097  0.805810  1
  H  H16  1  0.054876  0.325228  0.879467  1
  H  H17  1  0.344567  0.246167  0.557561  1
  C  C18  1  0.859227  0.730967  0.709201  1
  C  C19  1  0.140773  0.269033  0.290799  1
  C  C20  1  0.640773  0.269033  0.209201  1
  C  C21  1  0.359227  0.730967  0.790799  1
  S  S22  1  0.810831  0.603503  0.560567  1
  S  S23  1  0.189169  0.396497  0.439433  1
  S  S24  1  0.689169  0.396497  0.060567  1
  S  S25  1  0.310831  0.603503  0.939433  1
  N  N26  1  0.897195  0.823548  0.816112  1
  N  N27  1  0.397195  0.823548  0.683888  1
  N  N28  1  0.102805  0.176452  0.183888  1
  N  N29  1  0.602805  0.176452  0.316112  1
  O  O30  1  0.434117  0.208227  0.613792  1
  O  O31  1  0.779603  0.115244  0.590371  1
  O  O32  1  0.065883  0.791773  0.113792  1
  O  O33  1  0.720397  0.884756  0.090371  1
  O  O34  1  0.279603  0.115244  0.909629  1
  O  O35  1  0.220397  0.884756  0.409629  1
  O  O36  1  0.565883  0.791773  0.386208  1
  O  O37  1  0.934117  0.208227  0.886208  1
