# generated using pymatgen
data_Li4Ca(BO3)2
_symmetry_space_group_name_H-M   'P 1'
_cell_length_a   3.52785083
_cell_length_b   8.14827317
_cell_length_c   9.31001785
_cell_angle_alpha   90.00000000
_cell_angle_beta   90.00000000
_cell_angle_gamma   90.00000000
_symmetry_Int_Tables_number   1
_chemical_formula_structural   Li4Ca(BO3)2
_chemical_formula_sum   'Li8 Ca2 B4 O12'
_cell_volume   267.62477011
_cell_formula_units_Z   2
loop_
 _symmetry_equiv_pos_site_id
 _symmetry_equiv_pos_as_xyz
  1  'x, y, z'
loop_
 _atom_site_type_symbol
 _atom_site_label
 _atom_site_symmetry_multiplicity
 _atom_site_fract_x
 _atom_site_fract_y
 _atom_site_fract_z
 _atom_site_occupancy
  Li  Li0  1  0.500000  0.827864  0.951494  1
  Li  Li1  1  0.000000  0.327864  0.548506  1
  Li  Li2  1  0.500000  0.487699  0.695827  1
  Li  Li3  1  0.000000  0.012301  0.195827  1
  Li  Li4  1  0.500000  0.512301  0.304173  1
  Li  Li5  1  0.000000  0.672136  0.451494  1
  Li  Li6  1  0.500000  0.172136  0.048506  1
  Li  Li7  1  0.000000  0.987699  0.804173  1
  Ca  Ca8  1  0.000000  0.500000  0.000000  1
  Ca  Ca9  1  0.500000  0.000000  0.500000  1
  B  B10  1  0.500000  0.771726  0.209552  1
  B  B11  1  0.000000  0.728274  0.709552  1
  B  B12  1  0.500000  0.228274  0.790448  1
  B  B13  1  0.000000  0.271726  0.290448  1
  O  O14  1  0.000000  0.572964  0.649061  1
  O  O15  1  0.000000  0.248079  0.141925  1
  O  O16  1  0.500000  0.365826  0.880662  1
  O  O17  1  0.500000  0.748079  0.358075  1
  O  O18  1  0.500000  0.251921  0.641925  1
  O  O19  1  0.000000  0.865826  0.619338  1
  O  O20  1  0.000000  0.134174  0.380662  1
  O  O21  1  0.500000  0.927036  0.149061  1
  O  O22  1  0.000000  0.751921  0.858075  1
  O  O23  1  0.500000  0.072964  0.850939  1
  O  O24  1  0.000000  0.427036  0.350939  1
  O  O25  1  0.500000  0.634174  0.119338  1
