# generated using pymatgen
data_NaP2H5O8
_symmetry_space_group_name_H-M   'P 1'
_cell_length_a   7.82523017
_cell_length_b   8.68703371
_cell_length_c   10.50566577
_cell_angle_alpha   89.80122425
_cell_angle_beta   90.00000000
_cell_angle_gamma   90.00000000
_symmetry_Int_Tables_number   1
_chemical_formula_structural   NaP2H5O8
_chemical_formula_sum   'Na4 P8 H20 O32'
_cell_volume   714.15025190
_cell_formula_units_Z   4
loop_
 _symmetry_equiv_pos_site_id
 _symmetry_equiv_pos_as_xyz
  1  'x, y, z'
loop_
 _atom_site_type_symbol
 _atom_site_label
 _atom_site_symmetry_multiplicity
 _atom_site_fract_x
 _atom_site_fract_y
 _atom_site_fract_z
 _atom_site_occupancy
  Na  Na0  1  0.412158  0.778924  0.337755  1
  Na  Na1  1  0.912158  0.221076  0.162245  1
  Na  Na2  1  0.587842  0.221076  0.662245  1
  Na  Na3  1  0.087842  0.778924  0.837755  1
  P  P4  1  0.987144  0.585843  0.307603  1
  P  P5  1  0.487144  0.414157  0.192397  1
  P  P6  1  0.012856  0.414157  0.692397  1
  P  P7  1  0.512856  0.585843  0.807603  1
  P  P8  1  0.259870  0.960873  0.071237  1
  P  P9  1  0.759870  0.039127  0.428763  1
  P  P10  1  0.740130  0.039127  0.928763  1
  P  P11  1  0.240130  0.960873  0.571237  1
  O  O12  1  0.843075  0.514703  0.385977  1
  O  O13  1  0.343075  0.485297  0.114023  1
  O  O14  1  0.156925  0.485297  0.614023  1
  O  O15  1  0.656925  0.514703  0.885977  1
  O  O16  1  0.937940  0.739817  0.245992  1
  O  O17  1  0.437940  0.260183  0.254008  1
  O  O18  1  0.062060  0.260183  0.754008  1
  O  O19  1  0.562060  0.739817  0.745992  1
  O  O20  1  0.152344  0.613876  0.391920  1
  O  O21  1  0.652344  0.386124  0.108080  1
  O  O22  1  0.847656  0.386124  0.608080  1
  O  O23  1  0.347656  0.613876  0.891920  1
  O  O24  1  0.040026  0.466616  0.200617  1
  O  O25  1  0.540026  0.533384  0.299383  1
  O  O26  1  0.959974  0.533384  0.799383  1
  O  O27  1  0.459974  0.466616  0.700617  1
  O  O28  1  0.417192  0.896213  0.135306  1
  O  O29  1  0.917192  0.103787  0.364694  1
  O  O30  1  0.582808  0.103787  0.864694  1
  O  O31  1  0.082808  0.896213  0.635306  1
  O  O32  1  0.103313  0.849881  0.062874  1
  O  O33  1  0.603313  0.150119  0.437126  1
  O  O34  1  0.896687  0.150119  0.937126  1
  O  O35  1  0.396687  0.849881  0.562874  1
  O  O36  1  0.196426  0.110922  0.142019  1
  O  O37  1  0.696426  0.889078  0.357981  1
  O  O38  1  0.803574  0.889078  0.857981  1
  O  O39  1  0.303574  0.110922  0.642019  1
  O  O40  1  0.286031  0.996554  0.925455  1
  O  O41  1  0.786031  0.003446  0.574545  1
  O  O42  1  0.713969  0.003446  0.074545  1
  O  O43  1  0.213969  0.996554  0.425455  1
  H  H44  1  0.152654  0.559865  0.478926  1
  H  H45  1  0.652654  0.440135  0.021074  1
  H  H46  1  0.847346  0.440135  0.521074  1
  H  H47  1  0.347346  0.559865  0.978926  1
  H  H48  1  0.163229  0.477281  0.165206  1
  H  H49  1  0.663229  0.522719  0.334794  1
  H  H50  1  0.836771  0.522719  0.834794  1
  H  H51  1  0.336771  0.477281  0.665206  1
  H  H52  1  0.036428  0.808720  0.143184  1
  H  H53  1  0.536428  0.191280  0.356816  1
  H  H54  1  0.963572  0.191280  0.856816  1
  H  H55  1  0.463572  0.808720  0.643184  1
  H  H56  1  0.293184  0.167931  0.189572  1
  H  H57  1  0.793184  0.832069  0.310428  1
  H  H58  1  0.706816  0.832069  0.810428  1
  H  H59  1  0.206816  0.167931  0.689572  1
  H  H60  1  0.403605  0.040470  0.900157  1
  H  H61  1  0.903605  0.959530  0.599843  1
  H  H62  1  0.596395  0.959530  0.099843  1
  H  H63  1  0.096395  0.040470  0.400157  1
