# generated using pymatgen
data_ZnFe2(SeO3)4
_symmetry_space_group_name_H-M   'P 1'
_cell_length_a   8.18853985
_cell_length_b   8.19255046
_cell_length_c   8.33685565
_cell_angle_alpha   92.24032294
_cell_angle_beta   90.00000000
_cell_angle_gamma   90.00000000
_symmetry_Int_Tables_number   1
_chemical_formula_structural   ZnFe2(SeO3)4
_chemical_formula_sum   'Zn2 Fe4 Se8 O24'
_cell_volume   558.85069487
_cell_formula_units_Z   2
loop_
 _symmetry_equiv_pos_site_id
 _symmetry_equiv_pos_as_xyz
  1  'x, y, z'
loop_
 _atom_site_type_symbol
 _atom_site_label
 _atom_site_symmetry_multiplicity
 _atom_site_fract_x
 _atom_site_fract_y
 _atom_site_fract_z
 _atom_site_occupancy
  Zn  Zn0  1  0.398459  0.655503  0.163139  1
  Zn  Zn1  1  0.601541  0.155503  0.163139  1
  Fe  Fe2  1  0.239392  0.249578  0.000217  1
  Fe  Fe3  1  0.260078  0.756106  0.508525  1
  Fe  Fe4  1  0.760608  0.749578  0.000217  1
  Fe  Fe5  1  0.739922  0.256106  0.508525  1
  Se  Se6  1  0.904514  0.450232  0.191225  1
  Se  Se7  1  0.095486  0.950232  0.191225  1
  Se  Se8  1  0.428070  0.549304  0.820634  1
  Se  Se9  1  0.675481  0.832891  0.414562  1
  Se  Se10  1  0.942955  0.580760  0.680059  1
  Se  Se11  1  0.571930  0.049304  0.820634  1
  Se  Se12  1  0.324519  0.332891  0.414562  1
  Se  Se13  1  0.057045  0.080760  0.680059  1
  O  O14  1  0.036616  0.301659  0.119495  1
  O  O15  1  0.690274  0.990609  0.987727  1
  O  O16  1  0.838208  0.743019  0.776048  1
  O  O17  1  0.333488  0.540405  0.366869  1
  O  O18  1  0.248266  0.823168  0.269004  1
  O  O19  1  0.807466  0.508986  0.019756  1
  O  O20  1  0.781121  0.487390  0.578639  1
  O  O21  1  0.373463  0.241688  0.226272  1
  O  O22  1  0.280747  0.651552  0.721544  1
  O  O23  1  0.666512  0.040405  0.366869  1
  O  O24  1  0.027441  0.684326  0.521064  1
  O  O25  1  0.517584  0.706276  0.938476  1
  O  O26  1  0.161792  0.243019  0.776048  1
  O  O27  1  0.497022  0.305849  0.522646  1
  O  O28  1  0.719253  0.151552  0.721544  1
  O  O29  1  0.751734  0.323168  0.269004  1
  O  O30  1  0.626537  0.741688  0.226272  1
  O  O31  1  0.963384  0.801659  0.119495  1
  O  O32  1  0.972559  0.184326  0.521064  1
  O  O33  1  0.482416  0.206276  0.938476  1
  O  O34  1  0.309726  0.490609  0.987727  1
  O  O35  1  0.218879  0.987390  0.578639  1
  O  O36  1  0.502978  0.805849  0.522646  1
  O  O37  1  0.192534  0.008986  0.019756  1
