# generated using pymatgen
data_MgH2(CO2)2
_symmetry_space_group_name_H-M   'P 1'
_cell_length_a   10.06299481
_cell_length_b   11.50996519
_cell_length_c   14.86817065
_cell_angle_alpha   91.42253495
_cell_angle_beta   90.00000000
_cell_angle_gamma   90.00000000
_symmetry_Int_Tables_number   1
_chemical_formula_structural   MgH2(CO2)2
_chemical_formula_sum   'Mg12 H24 C24 O48'
_cell_volume   1721.57095599
_cell_formula_units_Z   12
loop_
 _symmetry_equiv_pos_site_id
 _symmetry_equiv_pos_as_xyz
  1  'x, y, z'
loop_
 _atom_site_type_symbol
 _atom_site_label
 _atom_site_symmetry_multiplicity
 _atom_site_fract_x
 _atom_site_fract_y
 _atom_site_fract_z
 _atom_site_occupancy
  Mg  Mg0  1  0.886762  0.739998  0.308797  1
  Mg  Mg1  1  0.613238  0.239998  0.808797  1
  Mg  Mg2  1  0.577856  0.744037  0.365196  1
  Mg  Mg3  1  0.113238  0.260002  0.691203  1
  Mg  Mg4  1  0.500000  0.000000  0.500000  1
  Mg  Mg5  1  0.422144  0.255963  0.634804  1
  Mg  Mg6  1  0.386762  0.760002  0.191203  1
  Mg  Mg7  1  0.077856  0.755963  0.134804  1
  Mg  Mg8  1  0.922144  0.244037  0.865196  1
  Mg  Mg9  1  0.000000  0.500000  0.000000  1
  Mg  Mg10  1  0.500000  0.500000  0.500000  1
  Mg  Mg11  1  0.000000  0.000000  0.000000  1
  H  H12  1  0.959602  0.471319  0.269955  1
  H  H13  1  0.253613  0.365331  0.872867  1
  H  H14  1  0.246387  0.865331  0.372867  1
  H  H15  1  0.837008  0.691380  0.924952  1
  H  H16  1  0.797574  0.982889  0.234918  1
  H  H17  1  0.892622  0.936267  0.459123  1
  H  H18  1  0.162992  0.308620  0.075048  1
  H  H19  1  0.540398  0.971319  0.769955  1
  H  H20  1  0.107378  0.063733  0.540877  1
  H  H21  1  0.662992  0.191380  0.424952  1
  H  H22  1  0.040398  0.528681  0.730045  1
  H  H23  1  0.702426  0.482889  0.734918  1
  H  H24  1  0.295110  0.999891  0.009746  1
  H  H25  1  0.392622  0.563733  0.040877  1
  H  H26  1  0.202426  0.017111  0.765082  1
  H  H27  1  0.607378  0.436267  0.959123  1
  H  H28  1  0.746387  0.634669  0.127133  1
  H  H29  1  0.337008  0.808620  0.575048  1
  H  H30  1  0.204890  0.499891  0.509746  1
  H  H31  1  0.459602  0.028681  0.230045  1
  H  H32  1  0.795110  0.500109  0.490254  1
  H  H33  1  0.297574  0.517111  0.265082  1
  H  H34  1  0.753613  0.134669  0.627133  1
  H  H35  1  0.704890  0.000109  0.990254  1
  C  C36  1  0.284891  0.579249  0.050589  1
  C  C37  1  0.869776  0.951575  0.183420  1
  C  C38  1  0.130224  0.048425  0.816580  1
  C  C39  1  0.400868  0.756936  0.528772  1
  C  C40  1  0.774708  0.570915  0.443380  1
  C  C41  1  0.167056  0.828976  0.329088  1
  C  C42  1  0.483371  0.980129  0.291393  1
  C  C43  1  0.516629  0.019871  0.708607  1
  C  C44  1  0.832944  0.171024  0.670912  1
  C  C45  1  0.983371  0.519871  0.208607  1
  C  C46  1  0.215109  0.079249  0.550589  1
  C  C47  1  0.900868  0.743064  0.971228  1
  C  C48  1  0.667056  0.671024  0.170912  1
  C  C49  1  0.715109  0.420751  0.949411  1
  C  C50  1  0.274708  0.929085  0.056620  1
  C  C51  1  0.099132  0.256936  0.028772  1
  C  C52  1  0.332944  0.328976  0.829088  1
  C  C53  1  0.630224  0.451575  0.683420  1
  C  C54  1  0.784891  0.920751  0.449411  1
  C  C55  1  0.599132  0.243064  0.471228  1
  C  C56  1  0.369776  0.548425  0.316580  1
  C  C57  1  0.225292  0.429085  0.556620  1
  C  C58  1  0.016629  0.480129  0.791393  1
  C  C59  1  0.725292  0.070915  0.943380  1
  O  O60  1  0.525772  0.184338  0.525011  1
  O  O61  1  0.795271  0.478309  0.996839  1
  O  O62  1  0.500500  0.035873  0.363660  1
  O  O63  1  0.395593  0.648763  0.532024  1
  O  O64  1  0.301416  0.305315  0.746793  1
  O  O65  1  0.652266  0.602494  0.436605  1
  O  O66  1  0.704729  0.978309  0.496839  1
  O  O67  1  0.499500  0.964127  0.636340  1
  O  O68  1  0.581199  0.349887  0.695829  1
  O  O69  1  0.081199  0.150113  0.804171  1
  O  O70  1  0.895593  0.851237  0.967976  1
  O  O71  1  0.991004  0.631032  0.218652  1
  O  O72  1  0.604562  0.516571  0.619755  1
  O  O73  1  0.347734  0.397506  0.563395  1
  O  O74  1  0.104562  0.983429  0.880245  1
  O  O75  1  0.204729  0.521691  0.003161  1
  O  O76  1  0.974228  0.684338  0.025011  1
  O  O77  1  0.000500  0.464127  0.136340  1
  O  O78  1  0.395438  0.483429  0.380245  1
  O  O79  1  0.295271  0.021691  0.503161  1
  O  O80  1  0.604407  0.351237  0.467976  1
  O  O81  1  0.745897  0.343505  0.888566  1
  O  O82  1  0.445568  0.314761  0.863383  1
  O  O83  1  0.371080  0.887047  0.098249  1
  O  O84  1  0.754103  0.843505  0.388566  1
  O  O85  1  0.245897  0.156495  0.611434  1
  O  O86  1  0.847734  0.102494  0.936605  1
  O  O87  1  0.418801  0.650113  0.304171  1
  O  O88  1  0.999500  0.535873  0.863660  1
  O  O89  1  0.198584  0.805315  0.246793  1
  O  O90  1  0.871080  0.612953  0.401751  1
  O  O91  1  0.628920  0.112953  0.901751  1
  O  O92  1  0.508996  0.131032  0.718652  1
  O  O93  1  0.474228  0.815662  0.474989  1
  O  O94  1  0.008996  0.368968  0.781348  1
  O  O95  1  0.895438  0.016571  0.119755  1
  O  O96  1  0.491004  0.868968  0.281348  1
  O  O97  1  0.554432  0.685239  0.136617  1
  O  O98  1  0.104407  0.148763  0.032024  1
  O  O99  1  0.025772  0.315662  0.974989  1
  O  O100  1  0.152266  0.897506  0.063395  1
  O  O101  1  0.801416  0.194685  0.753207  1
  O  O102  1  0.918801  0.849887  0.195829  1
  O  O103  1  0.254103  0.656495  0.111434  1
  O  O104  1  0.128920  0.387047  0.598249  1
  O  O105  1  0.054432  0.814761  0.363383  1
  O  O106  1  0.945568  0.185239  0.636617  1
  O  O107  1  0.698584  0.694685  0.253207  1
