# generated using pymatgen
data_S5N2ClO6
_symmetry_space_group_name_H-M   'P 1'
_cell_length_a   6.85133417
_cell_length_b   7.89040548
_cell_length_c   10.96954484
_cell_angle_alpha   91.49684520
_cell_angle_beta   100.57041285
_cell_angle_gamma   113.79502060
_symmetry_Int_Tables_number   1
_chemical_formula_structural   S5N2ClO6
_chemical_formula_sum   'S10 N4 Cl2 O12'
_cell_volume   530.07882535
_cell_formula_units_Z   2
loop_
 _symmetry_equiv_pos_site_id
 _symmetry_equiv_pos_as_xyz
  1  'x, y, z'
loop_
 _atom_site_type_symbol
 _atom_site_label
 _atom_site_symmetry_multiplicity
 _atom_site_fract_x
 _atom_site_fract_y
 _atom_site_fract_z
 _atom_site_occupancy
  S  S0  1  0.574087  0.831217  0.211162  1
  S  S1  1  0.001512  0.231631  0.977598  1
  S  S2  1  0.967596  0.696670  0.769188  1
  S  S3  1  0.795702  0.640723  0.380507  1
  S  S4  1  0.740585  0.827877  0.901950  1
  S  S5  1  0.425913  0.168783  0.788838  1
  S  S6  1  0.204298  0.359277  0.619493  1
  S  S7  1  0.998488  0.768369  0.022402  1
  S  S8  1  0.032405  0.303330  0.230812  1
  S  S9  1  0.259415  0.172123  0.098050  1
  N  N10  1  0.076060  0.698407  0.909755  1
  N  N11  1  0.923940  0.301593  0.090245  1
  N  N12  1  0.218907  0.235138  0.227212  1
  N  N13  1  0.781093  0.764862  0.772788  1
  Cl  Cl14  1  0.889045  0.164708  0.595485  1
  Cl  Cl15  1  0.110955  0.835292  0.404515  1
  O  O16  1  0.754546  0.518488  0.270311  1
  O  O17  1  0.245454  0.481512  0.729689  1
  O  O18  1  0.662996  0.764004  0.360022  1
  O  O19  1  0.770874  0.569751  0.498207  1
  O  O20  1  0.536471  0.986299  0.256420  1
  O  O21  1  0.229126  0.430249  0.501793  1
  O  O22  1  0.337004  0.235996  0.639978  1
  O  O23  1  0.614297  0.335512  0.846974  1
  O  O24  1  0.463529  0.013701  0.743580  1
  O  O25  1  0.763870  0.881894  0.153586  1
  O  O26  1  0.236130  0.118106  0.846414  1
  O  O27  1  0.385703  0.664488  0.153026  1
