# generated using pymatgen
data_Ba(RuO2)6
_symmetry_space_group_name_H-M   'P 1'
_cell_length_a   9.50200296
_cell_length_b   9.96699968
_cell_length_c   9.96699968
_cell_angle_alpha   90.00000000
_cell_angle_beta   90.00000000
_cell_angle_gamma   90.00000000
_symmetry_Int_Tables_number   1
_chemical_formula_structural   Ba(RuO2)6
_chemical_formula_sum   'Ba4 Ru24 O48'
_cell_volume   943.93926112
_cell_formula_units_Z   4
loop_
 _symmetry_equiv_pos_site_id
 _symmetry_equiv_pos_as_xyz
  1  'x, y, z'
loop_
 _atom_site_type_symbol
 _atom_site_label
 _atom_site_symmetry_multiplicity
 _atom_site_fract_x
 _atom_site_fract_y
 _atom_site_fract_z
 _atom_site_occupancy
  Ba  Ba0  1  0.875017  0.250000  0.250000  1
  Ba  Ba1  1  0.704710  0.750000  0.750000  1
  Ba  Ba2  1  0.295290  0.250000  0.250000  1
  Ba  Ba3  1  0.124983  0.750000  0.750000  1
  Ru  Ru4  1  0.416971  0.604068  0.418586  1
  Ru  Ru5  1  0.249129  0.583587  0.102779  1
  Ru  Ru6  1  0.081202  0.903355  0.081392  1
  Ru  Ru7  1  0.249129  0.916413  0.397221  1
  Ru  Ru8  1  0.583029  0.104068  0.918586  1
  Ru  Ru9  1  0.249129  0.102779  0.916413  1
  Ru  Ru10  1  0.750871  0.083587  0.602779  1
  Ru  Ru11  1  0.081202  0.418608  0.903355  1
  Ru  Ru12  1  0.918798  0.918608  0.403355  1
  Ru  Ru13  1  0.583029  0.918586  0.395932  1
  Ru  Ru14  1  0.918798  0.403355  0.581392  1
  Ru  Ru15  1  0.416971  0.895932  0.081414  1
  Ru  Ru16  1  0.750871  0.602779  0.416413  1
  Ru  Ru17  1  0.583029  0.395932  0.581414  1
  Ru  Ru18  1  0.081202  0.596645  0.418608  1
  Ru  Ru19  1  0.416971  0.081414  0.604068  1
  Ru  Ru20  1  0.416971  0.418586  0.895932  1
  Ru  Ru21  1  0.750871  0.897221  0.083587  1
  Ru  Ru22  1  0.918798  0.096645  0.918608  1
  Ru  Ru23  1  0.750871  0.416413  0.897221  1
  Ru  Ru24  1  0.249129  0.397221  0.583587  1
  Ru  Ru25  1  0.081202  0.081392  0.596645  1
  Ru  Ru26  1  0.583029  0.581414  0.104068  1
  Ru  Ru27  1  0.918798  0.581392  0.096645  1
  O  O28  1  0.249562  0.297967  0.908723  1
  O  O29  1  0.084419  0.443184  0.108836  1
  O  O30  1  0.750438  0.408723  0.702033  1
  O  O31  1  0.584577  0.899691  0.949397  1
  O  O32  1  0.916358  0.293756  0.910369  1
  O  O33  1  0.415423  0.050603  0.399691  1
  O  O34  1  0.083642  0.793756  0.410369  1
  O  O35  1  0.416468  0.797878  0.406024  1
  O  O36  1  0.249269  0.899768  0.948838  1
  O  O37  1  0.415423  0.399691  0.449397  1
  O  O38  1  0.249562  0.202033  0.591277  1
  O  O39  1  0.584577  0.550603  0.899691  1
  O  O40  1  0.083642  0.410369  0.706244  1
  O  O41  1  0.416468  0.702122  0.093976  1
  O  O42  1  0.750731  0.399768  0.448838  1
  O  O43  1  0.915581  0.943184  0.608836  1
  O  O44  1  0.249562  0.908723  0.202033  1
  O  O45  1  0.584577  0.600309  0.550603  1
  O  O46  1  0.084419  0.108836  0.056816  1
  O  O47  1  0.083642  0.089631  0.793756  1
  O  O48  1  0.915581  0.556816  0.891164  1
  O  O49  1  0.750731  0.448838  0.100232  1
  O  O50  1  0.249269  0.948838  0.600232  1
  O  O51  1  0.916358  0.910369  0.206244  1
  O  O52  1  0.916358  0.589631  0.293756  1
  O  O53  1  0.415423  0.100309  0.050603  1
  O  O54  1  0.084419  0.391164  0.443184  1
  O  O55  1  0.583532  0.297878  0.906024  1
  O  O56  1  0.249562  0.591277  0.297967  1
  O  O57  1  0.915581  0.608836  0.556816  1
  O  O58  1  0.416468  0.093976  0.797878  1
  O  O59  1  0.750731  0.100232  0.051162  1
  O  O60  1  0.583532  0.202122  0.593976  1
  O  O61  1  0.915581  0.891164  0.943184  1
  O  O62  1  0.084419  0.056816  0.391164  1
  O  O63  1  0.584577  0.949397  0.600309  1
  O  O64  1  0.415423  0.449397  0.100309  1
  O  O65  1  0.583532  0.906024  0.202122  1
  O  O66  1  0.750731  0.051162  0.399768  1
  O  O67  1  0.249269  0.551162  0.899768  1
  O  O68  1  0.583532  0.593976  0.297878  1
  O  O69  1  0.083642  0.706244  0.089631  1
  O  O70  1  0.416468  0.406024  0.702122  1
  O  O71  1  0.750438  0.702033  0.091277  1
  O  O72  1  0.750438  0.091277  0.797967  1
  O  O73  1  0.750438  0.797967  0.408723  1
  O  O74  1  0.249269  0.600232  0.551162  1
  O  O75  1  0.916358  0.206244  0.589631  1
