# generated using pymatgen
data_Na2Te4MoO12
_symmetry_space_group_name_H-M   'P 1'
_cell_length_a   5.94990089
_cell_length_b   9.25685498
_cell_length_c   11.47201957
_cell_angle_alpha   104.39674639
_cell_angle_beta   90.00000000
_cell_angle_gamma   108.74628685
_symmetry_Int_Tables_number   1
_chemical_formula_structural   Na2Te4MoO12
_chemical_formula_sum   'Na4 Te8 Mo2 O24'
_cell_volume   577.33710831
_cell_formula_units_Z   2
loop_
 _symmetry_equiv_pos_site_id
 _symmetry_equiv_pos_as_xyz
  1  'x, y, z'
loop_
 _atom_site_type_symbol
 _atom_site_label
 _atom_site_symmetry_multiplicity
 _atom_site_fract_x
 _atom_site_fract_y
 _atom_site_fract_z
 _atom_site_occupancy
  Na  Na0  1  0.983188  0.420410  0.263948  1
  Na  Na1  1  0.562778  0.579590  0.236052  1
  Na  Na2  1  0.016812  0.579590  0.736052  1
  Na  Na3  1  0.437222  0.420410  0.763948  1
  Te  Te4  1  0.130430  0.810647  0.403613  1
  Te  Te5  1  0.319784  0.189353  0.096387  1
  Te  Te6  1  0.869570  0.189353  0.596387  1
  Te  Te7  1  0.680216  0.810647  0.903613  1
  Te  Te8  1  0.170747  0.686884  0.066551  1
  Te  Te9  1  0.483864  0.313116  0.433449  1
  Te  Te10  1  0.829253  0.313116  0.933449  1
  Te  Te11  1  0.516136  0.686884  0.566551  1
  Mo  Mo12  1  0.661997  0.000000  0.250000  1
  Mo  Mo13  1  0.338003  0.000000  0.750000  1
  O  O14  1  0.713458  0.222168  0.338040  1
  O  O15  1  0.491289  0.777832  0.161960  1
  O  O16  1  0.286542  0.777832  0.661960  1
  O  O17  1  0.508711  0.222168  0.838040  1
  O  O18  1  0.165953  0.482048  0.070941  1
  O  O19  1  0.683905  0.517952  0.429059  1
  O  O20  1  0.834047  0.517952  0.929060  1
  O  O21  1  0.316095  0.482048  0.570940  1
  O  O22  1  0.326447  0.675289  0.410657  1
  O  O23  1  0.651159  0.324711  0.089343  1
  O  O24  1  0.673553  0.324711  0.589343  1
  O  O25  1  0.348841  0.675289  0.910657  1
  O  O26  1  0.995390  0.681701  0.247015  1
  O  O27  1  0.313688  0.318299  0.252985  1
  O  O28  1  0.004611  0.318299  0.752985  1
  O  O29  1  0.686312  0.681701  0.747015  1
  O  O30  1  0.366141  0.978516  0.365937  1
  O  O31  1  0.387624  0.021484  0.134063  1
  O  O32  1  0.633859  0.021484  0.634063  1
  O  O33  1  0.612376  0.978516  0.865937  1
  O  O34  1  0.872047  0.046844  0.143732  1
  O  O35  1  0.825204  0.953156  0.356268  1
  O  O36  1  0.127953  0.953156  0.856268  1
  O  O37  1  0.174796  0.046844  0.643732  1
