# generated using pymatgen
data_K2MoC2O9
_symmetry_space_group_name_H-M   'P 1'
_cell_length_a   7.18438909
_cell_length_b   9.01365574
_cell_length_c   13.97625250
_cell_angle_alpha   90.00000000
_cell_angle_beta   92.08871469
_cell_angle_gamma   90.00000000
_symmetry_Int_Tables_number   1
_chemical_formula_structural   K2MoC2O9
_chemical_formula_sum   'K8 Mo4 C8 O36'
_cell_volume   904.46737390
_cell_formula_units_Z   4
loop_
 _symmetry_equiv_pos_site_id
 _symmetry_equiv_pos_as_xyz
  1  'x, y, z'
loop_
 _atom_site_type_symbol
 _atom_site_label
 _atom_site_symmetry_multiplicity
 _atom_site_fract_x
 _atom_site_fract_y
 _atom_site_fract_z
 _atom_site_occupancy
  K  K0  1  0.759656  0.928925  0.273247  1
  K  K1  1  0.737210  0.649952  0.523950  1
  K  K2  1  0.740344  0.428925  0.226753  1
  K  K3  1  0.240344  0.071075  0.726753  1
  K  K4  1  0.262790  0.350048  0.476050  1
  K  K5  1  0.259656  0.571075  0.773247  1
  K  K6  1  0.237210  0.850048  0.023950  1
  K  K7  1  0.762790  0.149952  0.976050  1
  Mo  Mo8  1  0.759763  0.298821  0.668083  1
  Mo  Mo9  1  0.259763  0.201179  0.168083  1
  Mo  Mo10  1  0.740237  0.798821  0.831917  1
  Mo  Mo11  1  0.240237  0.701179  0.331917  1
  C  C12  1  0.749340  0.714030  0.045081  1
  C  C13  1  0.750660  0.214030  0.454919  1
  C  C14  1  0.249340  0.785970  0.545081  1
  C  C15  1  0.262518  0.431487  0.015631  1
  C  C16  1  0.762518  0.068513  0.515631  1
  C  C17  1  0.737482  0.568513  0.984369  1
  C  C18  1  0.250660  0.285970  0.954919  1
  C  C19  1  0.237482  0.931487  0.484369  1
  O  O20  1  0.940761  0.463558  0.665707  1
  O  O21  1  0.220273  0.764278  0.215412  1
  O  O22  1  0.059239  0.536442  0.334293  1
  O  O23  1  0.227303  0.911935  0.391527  1
  O  O24  1  0.747034  0.705514  0.133790  1
  O  O25  1  0.971540  0.676840  0.362338  1
  O  O26  1  0.738181  0.445252  0.023140  1
  O  O27  1  0.272697  0.411935  0.108473  1
  O  O28  1  0.279727  0.264278  0.284588  1
  O  O29  1  0.559239  0.963558  0.834293  1
  O  O30  1  0.515942  0.708130  0.356248  1
  O  O31  1  0.261819  0.554748  0.976860  1
  O  O32  1  0.247034  0.794486  0.633790  1
  O  O33  1  0.028460  0.323160  0.637662  1
  O  O34  1  0.720273  0.735722  0.715412  1
  O  O35  1  0.238478  0.166543  0.005170  1
  O  O36  1  0.051952  0.058204  0.168616  1
  O  O37  1  0.727303  0.588065  0.891527  1
  O  O38  1  0.948048  0.941796  0.831384  1
  O  O39  1  0.738478  0.333457  0.505170  1
  O  O40  1  0.238181  0.054748  0.523140  1
  O  O41  1  0.761522  0.833457  0.994830  1
  O  O42  1  0.984058  0.208130  0.143752  1
  O  O43  1  0.761819  0.945252  0.476860  1
  O  O44  1  0.471540  0.823160  0.862338  1
  O  O45  1  0.772697  0.088065  0.608473  1
  O  O46  1  0.440761  0.036442  0.165707  1
  O  O47  1  0.484058  0.291870  0.643752  1
  O  O48  1  0.779727  0.235722  0.784588  1
  O  O49  1  0.448048  0.558204  0.331384  1
  O  O50  1  0.752966  0.205514  0.366210  1
  O  O51  1  0.252966  0.294486  0.866210  1
  O  O52  1  0.551952  0.441796  0.668616  1
  O  O53  1  0.261522  0.666543  0.494830  1
  O  O54  1  0.015942  0.791870  0.856248  1
  O  O55  1  0.528460  0.176840  0.137662  1
