# generated using pymatgen
data_Ag4TeO5
_symmetry_space_group_name_H-M   'P 1'
_cell_length_a   6.31474497
_cell_length_b   8.81618133
_cell_length_c   11.55659452
_cell_angle_alpha   105.28953895
_cell_angle_beta   90.00000000
_cell_angle_gamma   110.98563015
_symmetry_Int_Tables_number   1
_chemical_formula_structural   Ag4TeO5
_chemical_formula_sum   'Ag16 Te4 O20'
_cell_volume   576.24695941
_cell_formula_units_Z   4
loop_
 _symmetry_equiv_pos_site_id
 _symmetry_equiv_pos_as_xyz
  1  'x, y, z'
loop_
 _atom_site_type_symbol
 _atom_site_label
 _atom_site_symmetry_multiplicity
 _atom_site_fract_x
 _atom_site_fract_y
 _atom_site_fract_z
 _atom_site_occupancy
  Ag  Ag0  1  0.294849  0.121845  0.519894  1
  Ag  Ag1  1  0.925421  0.000000  0.250000  1
  Ag  Ag2  1  0.074579  0.000000  0.750000  1
  Ag  Ag3  1  0.532629  0.817813  0.750543  1
  Ag  Ag4  1  0.714816  0.182187  0.749457  1
  Ag  Ag5  1  0.467371  0.182187  0.249457  1
  Ag  Ag6  1  0.699456  0.604925  0.269326  1
  Ag  Ag7  1  0.285184  0.817813  0.250543  1
  Ag  Ag8  1  0.094531  0.395075  0.230674  1
  Ag  Ag9  1  0.000000  0.500000  0.000000  1
  Ag  Ag10  1  0.826995  0.121845  0.019894  1
  Ag  Ag11  1  0.905469  0.604925  0.769326  1
  Ag  Ag12  1  0.173005  0.878155  0.980106  1
  Ag  Ag13  1  0.300544  0.395075  0.730674  1
  Ag  Ag14  1  0.500000  0.500000  0.500000  1
  Ag  Ag15  1  0.705151  0.878155  0.480106  1
  Te  Te16  1  0.125033  0.697842  0.504737  1
  Te  Te17  1  0.874967  0.302158  0.495263  1
  Te  Te18  1  0.427191  0.302158  0.995263  1
  Te  Te19  1  0.572809  0.697842  0.004737  1
  O  O20  1  0.390831  0.524039  0.093869  1
  O  O21  1  0.151952  0.246412  0.889923  1
  O  O22  1  0.377266  0.881944  0.608484  1
  O  O23  1  0.336140  0.633205  0.395822  1
  O  O24  1  0.866792  0.475961  0.406131  1
  O  O25  1  0.133208  0.524039  0.593869  1
  O  O26  1  0.094459  0.246412  0.389923  1
  O  O27  1  0.622734  0.118056  0.391516  1
  O  O28  1  0.609169  0.475961  0.906131  1
  O  O29  1  0.495322  0.118056  0.891516  1
  O  O30  1  0.759042  0.818130  0.898781  1
  O  O31  1  0.240958  0.181870  0.101219  1
  O  O32  1  0.702935  0.366795  0.104178  1
  O  O33  1  0.663860  0.366795  0.604178  1
  O  O34  1  0.504678  0.881944  0.108484  1
  O  O35  1  0.940912  0.181870  0.601219  1
  O  O36  1  0.297065  0.633205  0.895822  1
  O  O37  1  0.059088  0.818130  0.398781  1
  O  O38  1  0.848048  0.753588  0.110077  1
  O  O39  1  0.905541  0.753588  0.610077  1
