# generated using pymatgen
data_TeH12AuC4S3N
_symmetry_space_group_name_H-M   'P 1'
_cell_length_a   6.79445098
_cell_length_b   9.40777762
_cell_length_c   19.45886679
_cell_angle_alpha   90.00000000
_cell_angle_beta   90.00000000
_cell_angle_gamma   100.88279314
_symmetry_Int_Tables_number   1
_chemical_formula_structural   TeH12AuC4S3N
_chemical_formula_sum   'Te4 H48 Au4 C16 S12 N4'
_cell_volume   1221.45446484
_cell_formula_units_Z   4
loop_
 _symmetry_equiv_pos_site_id
 _symmetry_equiv_pos_as_xyz
  1  'x, y, z'
loop_
 _atom_site_type_symbol
 _atom_site_label
 _atom_site_symmetry_multiplicity
 _atom_site_fract_x
 _atom_site_fract_y
 _atom_site_fract_z
 _atom_site_occupancy
  Te  Te0  1  0.989476  0.628326  0.856362  1
  Te  Te1  1  0.010524  0.371674  0.143638  1
  Te  Te2  1  0.010524  0.871674  0.356362  1
  Te  Te3  1  0.989476  0.128326  0.643638  1
  H  H4  1  0.138494  0.286728  0.374303  1
  H  H5  1  0.352718  0.706250  0.203976  1
  H  H6  1  0.707501  0.735129  0.552535  1
  H  H7  1  0.727907  0.559576  0.718983  1
  H  H8  1  0.463725  0.478416  0.721454  1
  H  H9  1  0.861506  0.213272  0.874303  1
  H  H10  1  0.319038  0.439937  0.609645  1
  H  H11  1  0.861506  0.713272  0.625697  1
  H  H12  1  0.580318  0.945289  0.039408  1
  H  H13  1  0.383180  0.216532  0.792523  1
  H  H14  1  0.352718  0.206250  0.296024  1
  H  H15  1  0.707501  0.235129  0.947465  1
  H  H16  1  0.481146  0.826902  0.635646  1
  H  H17  1  0.647282  0.293750  0.796024  1
  H  H18  1  0.616820  0.283468  0.292523  1
  H  H19  1  0.536275  0.521584  0.278546  1
  H  H20  1  0.647282  0.793750  0.703976  1
  H  H21  1  0.616820  0.783468  0.207477  1
  H  H22  1  0.742587  0.384478  0.400146  1
  H  H23  1  0.223573  0.437241  0.430300  1
  H  H24  1  0.371303  0.086431  0.161649  1
  H  H25  1  0.419682  0.054711  0.960592  1
  H  H26  1  0.776427  0.562759  0.569700  1
  H  H27  1  0.319038  0.939937  0.890355  1
  H  H28  1  0.257413  0.615522  0.599854  1
  H  H29  1  0.272093  0.440424  0.281017  1
  H  H30  1  0.138494  0.786728  0.125697  1
  H  H31  1  0.628697  0.913569  0.838351  1
  H  H32  1  0.580318  0.445289  0.460592  1
  H  H33  1  0.518854  0.173098  0.364354  1
  H  H34  1  0.292499  0.264871  0.447465  1
  H  H35  1  0.272093  0.940424  0.218983  1
  H  H36  1  0.680962  0.060063  0.109645  1
  H  H37  1  0.776427  0.062759  0.930300  1
  H  H38  1  0.383180  0.716532  0.707477  1
  H  H39  1  0.518854  0.673098  0.135646  1
  H  H40  1  0.292499  0.764871  0.052535  1
  H  H41  1  0.628697  0.413569  0.661649  1
  H  H42  1  0.371303  0.586431  0.338351  1
  H  H43  1  0.680962  0.560063  0.390355  1
  H  H44  1  0.742587  0.884478  0.099854  1
  H  H45  1  0.536275  0.021584  0.221454  1
  H  H46  1  0.481146  0.326902  0.864354  1
  H  H47  1  0.223573  0.937241  0.069700  1
  H  H48  1  0.463725  0.978416  0.778546  1
  H  H49  1  0.727907  0.059576  0.781017  1
  H  H50  1  0.257413  0.115522  0.900146  1
  H  H51  1  0.419682  0.554711  0.539408  1
  Au  Au52  1  0.763834  0.559846  0.024674  1
  Au  Au53  1  0.236167  0.440154  0.975326  1
  Au  Au54  1  0.763834  0.059846  0.475326  1
  Au  Au55  1  0.236167  0.940154  0.524674  1
  C  C56  1  0.596857  0.008628  0.811047  1
  C  C57  1  0.403143  0.991372  0.188953  1
  C  C58  1  0.513599  0.748578  0.673802  1
  C  C59  1  0.261675  0.839501  0.092644  1
  C  C60  1  0.625179  0.448393  0.406615  1
  C  C61  1  0.625179  0.948393  0.093385  1
  C  C62  1  0.374821  0.551607  0.593385  1
  C  C63  1  0.486401  0.251422  0.326198  1
  C  C64  1  0.486401  0.751422  0.173802  1
  C  C65  1  0.738325  0.160499  0.907356  1
  C  C66  1  0.738325  0.660499  0.592644  1
  C  C67  1  0.596857  0.508628  0.688953  1
  C  C68  1  0.403143  0.491372  0.311047  1
  C  C69  1  0.513599  0.248578  0.826198  1
  C  C70  1  0.261675  0.339501  0.407356  1
  C  C71  1  0.374821  0.051607  0.906615  1
  S  S72  1  0.957983  0.196819  0.228388  1
  S  S73  1  0.139390  0.746343  0.450931  1
  S  S74  1  0.671800  0.876287  0.395566  1
  S  S75  1  0.328200  0.123713  0.604434  1
  S  S76  1  0.042017  0.303181  0.728388  1
  S  S77  1  0.139390  0.246343  0.049069  1
  S  S78  1  0.328200  0.623713  0.895566  1
  S  S79  1  0.671800  0.376287  0.104434  1
  S  S80  1  0.957983  0.696819  0.271612  1
  S  S81  1  0.860610  0.253657  0.549069  1
  S  S82  1  0.042017  0.803181  0.771612  1
  S  S83  1  0.860610  0.753657  0.950931  1
  N  N84  1  0.445022  0.882884  0.136856  1
  N  N85  1  0.445022  0.382884  0.363144  1
  N  N86  1  0.554978  0.117116  0.863144  1
  N  N87  1  0.554978  0.617116  0.636856  1
