# generated using pymatgen
data_Ho4CdCo
_symmetry_space_group_name_H-M   'P 1'
_cell_length_a   9.45412729
_cell_length_b   9.45412712
_cell_length_c   9.45412665
_cell_angle_alpha   60.00000161
_cell_angle_beta   60.00000219
_cell_angle_gamma   60.00000292
_symmetry_Int_Tables_number   1
_chemical_formula_structural   Ho4CdCo
_chemical_formula_sum   'Ho16 Cd4 Co4'
_cell_volume   597.51570229
_cell_formula_units_Z   4
loop_
 _symmetry_equiv_pos_site_id
 _symmetry_equiv_pos_as_xyz
  1  'x, y, z'
loop_
 _atom_site_type_symbol
 _atom_site_label
 _atom_site_symmetry_multiplicity
 _atom_site_fract_x
 _atom_site_fract_y
 _atom_site_fract_z
 _atom_site_occupancy
  Ho  Ho0  1  0.061755  0.438245  0.438245  1
  Ho  Ho1  1  0.188316  0.188316  0.811684  1
  Ho  Ho2  1  0.061755  0.061755  0.438245  1
  Ho  Ho3  1  0.061755  0.438245  0.061755  1
  Ho  Ho4  1  0.188316  0.811684  0.811684  1
  Ho  Ho5  1  0.653642  0.039073  0.653642  1
  Ho  Ho6  1  0.438245  0.438245  0.061755  1
  Ho  Ho7  1  0.438245  0.061755  0.438245  1
  Ho  Ho8  1  0.811684  0.811684  0.188316  1
  Ho  Ho9  1  0.811684  0.188316  0.188316  1
  Ho  Ho10  1  0.653642  0.653642  0.039073  1
  Ho  Ho11  1  0.653642  0.653642  0.653642  1
  Ho  Ho12  1  0.188316  0.811684  0.188316  1
  Ho  Ho13  1  0.438245  0.061755  0.061755  1
  Ho  Ho14  1  0.811684  0.188316  0.811684  1
  Ho  Ho15  1  0.039073  0.653642  0.653642  1
  Cd  Cd16  1  0.419424  0.419424  0.741727  1
  Cd  Cd17  1  0.741727  0.419424  0.419424  1
  Cd  Cd18  1  0.419424  0.741727  0.419424  1
  Cd  Cd19  1  0.419424  0.419424  0.419424  1
  Co  Co20  1  0.423134  0.858955  0.858955  1
  Co  Co21  1  0.858955  0.423134  0.858955  1
  Co  Co22  1  0.858955  0.858955  0.858955  1
  Co  Co23  1  0.858955  0.858955  0.423134  1
