# generated using pymatgen
data_Ti4CoBi2
_symmetry_space_group_name_H-M   'P 1'
_cell_length_a   4.86983445
_cell_length_b   7.87819390
_cell_length_c   7.87819417
_cell_angle_alpha   84.51848702
_cell_angle_beta   71.99677601
_cell_angle_gamma   71.99678103
_symmetry_Int_Tables_number   1
_chemical_formula_structural   Ti4CoBi2
_chemical_formula_sum   'Ti8 Co2 Bi4'
_cell_volume   273.37848041
_cell_formula_units_Z   2
loop_
 _symmetry_equiv_pos_site_id
 _symmetry_equiv_pos_as_xyz
  1  'x, y, z'
loop_
 _atom_site_type_symbol
 _atom_site_label
 _atom_site_symmetry_multiplicity
 _atom_site_fract_x
 _atom_site_fract_y
 _atom_site_fract_z
 _atom_site_occupancy
  Ti  Ti0  1  0.419608  0.273237  0.887548  1
  Ti  Ti1  1  0.692845  0.887548  0.726763  1
  Ti  Ti2  1  0.807155  0.273237  0.112452  1
  Ti  Ti3  1  0.192845  0.726763  0.887548  1
  Ti  Ti4  1  0.080392  0.112452  0.726763  1
  Ti  Ti5  1  0.919608  0.887548  0.273237  1
  Ti  Ti6  1  0.580392  0.726763  0.112452  1
  Ti  Ti7  1  0.307155  0.112452  0.273237  1
  Co  Co8  1  0.250000  0.000000  0.000000  1
  Co  Co9  1  0.750000  0.000000  0.000000  1
  Bi  Bi10  1  0.360835  0.778331  0.500000  1
  Bi  Bi11  1  0.860835  0.500000  0.778331  1
  Bi  Bi12  1  0.139165  0.500000  0.221669  1
  Bi  Bi13  1  0.639165  0.221669  0.500000  1
