# generated using pymatgen
data_SrHg2(ClO)2
_symmetry_space_group_name_H-M   'P 1'
_cell_length_a   7.16406124
_cell_length_b   8.45403614
_cell_length_c   10.22218918
_cell_angle_alpha   102.38491547
_cell_angle_beta   90.00000000
_cell_angle_gamma   90.00000000
_symmetry_Int_Tables_number   1
_chemical_formula_structural   SrHg2(ClO)2
_chemical_formula_sum   'Sr4 Hg8 Cl8 O8'
_cell_volume   604.70183726
_cell_formula_units_Z   4
loop_
 _symmetry_equiv_pos_site_id
 _symmetry_equiv_pos_as_xyz
  1  'x, y, z'
loop_
 _atom_site_type_symbol
 _atom_site_label
 _atom_site_symmetry_multiplicity
 _atom_site_fract_x
 _atom_site_fract_y
 _atom_site_fract_z
 _atom_site_occupancy
  Sr  Sr0  1  0.623648  0.723915  0.375414  1
  Sr  Sr1  1  0.376352  0.276085  0.624586  1
  Sr  Sr2  1  0.876352  0.223915  0.875414  1
  Sr  Sr3  1  0.123648  0.776085  0.124586  1
  Hg  Hg4  1  0.330221  0.972456  0.867822  1
  Hg  Hg5  1  0.063340  0.871606  0.606608  1
  Hg  Hg6  1  0.563340  0.628394  0.893392  1
  Hg  Hg7  1  0.169779  0.472456  0.367822  1
  Hg  Hg8  1  0.669779  0.027544  0.132178  1
  Hg  Hg9  1  0.830221  0.527544  0.632178  1
  Hg  Hg10  1  0.936660  0.128394  0.393392  1
  Hg  Hg11  1  0.436660  0.371606  0.106608  1
  Cl  Cl12  1  0.399960  0.657932  0.612483  1
  Cl  Cl13  1  0.819008  0.539024  0.126868  1
  Cl  Cl14  1  0.600040  0.342068  0.387517  1
  Cl  Cl15  1  0.899960  0.842068  0.887517  1
  Cl  Cl16  1  0.100040  0.157932  0.112483  1
  Cl  Cl17  1  0.319008  0.960976  0.373132  1
  Cl  Cl18  1  0.180992  0.460976  0.873132  1
  Cl  Cl19  1  0.680992  0.039024  0.626868  1
  O  O20  1  0.681930  0.421087  0.770184  1
  O  O21  1  0.921401  0.670336  0.496888  1
  O  O22  1  0.818070  0.921087  0.270184  1
  O  O23  1  0.078599  0.329664  0.503112  1
  O  O24  1  0.181930  0.078913  0.729816  1
  O  O25  1  0.578599  0.170336  0.996888  1
  O  O26  1  0.318070  0.578913  0.229816  1
  O  O27  1  0.421401  0.829664  0.003112  1
