# generated using pymatgen
data_SiO2
_symmetry_space_group_name_H-M   'P 1'
_cell_length_a   5.28555321
_cell_length_b   11.39567636
_cell_length_c   11.39567566
_cell_angle_alpha   103.67206611
_cell_angle_beta   90.00000000
_cell_angle_gamma   90.00000000
_symmetry_Int_Tables_number   1
_chemical_formula_structural   SiO2
_chemical_formula_sum   'Si12 O24'
_cell_volume   666.94029825
_cell_formula_units_Z   12
loop_
 _symmetry_equiv_pos_site_id
 _symmetry_equiv_pos_as_xyz
  1  'x, y, z'
loop_
 _atom_site_type_symbol
 _atom_site_label
 _atom_site_symmetry_multiplicity
 _atom_site_fract_x
 _atom_site_fract_y
 _atom_site_fract_z
 _atom_site_occupancy
  Si  Si0  1  0.750000  0.754720  0.659221  1
  Si  Si1  1  0.250000  0.659221  0.754720  1
  Si  Si2  1  0.750000  0.417292  0.994411  1
  Si  Si3  1  0.750000  0.276742  0.723258  1
  Si  Si4  1  0.750000  0.618530  0.381470  1
  Si  Si5  1  0.250000  0.723258  0.276742  1
  Si  Si6  1  0.250000  0.582708  0.005589  1
  Si  Si7  1  0.250000  0.381470  0.618530  1
  Si  Si8  1  0.250000  0.245280  0.340779  1
  Si  Si9  1  0.250000  0.994411  0.417292  1
  Si  Si10  1  0.750000  0.005589  0.582708  1
  Si  Si11  1  0.750000  0.340779  0.245280  1
  O  O12  1  0.000000  0.265944  0.265944  1
  O  O13  1  0.499256  0.670561  0.329439  1
  O  O14  1  0.000000  0.734056  0.734056  1
  O  O15  1  0.250000  0.527842  0.659244  1
  O  O16  1  0.750000  0.352949  0.106512  1
  O  O17  1  0.250000  0.647051  0.893488  1
  O  O18  1  0.250000  0.686010  0.130544  1
  O  O19  1  0.250000  0.340756  0.472158  1
  O  O20  1  0.750000  0.893488  0.647051  1
  O  O21  1  0.000744  0.670561  0.329439  1
  O  O22  1  0.500744  0.329439  0.670561  1
  O  O23  1  0.500000  0.000000  0.500000  1
  O  O24  1  0.500000  0.734056  0.734056  1
  O  O25  1  0.750000  0.659244  0.527842  1
  O  O26  1  0.250000  0.106512  0.352949  1
  O  O27  1  0.000000  0.000000  0.500000  1
  O  O28  1  0.750000  0.472158  0.340756  1
  O  O29  1  0.750000  0.313990  0.869456  1
  O  O30  1  0.500000  0.265944  0.265944  1
  O  O31  1  0.000000  0.500000  0.000000  1
  O  O32  1  0.999256  0.329439  0.670561  1
  O  O33  1  0.750000  0.130544  0.686010  1
  O  O34  1  0.250000  0.869456  0.313990  1
  O  O35  1  0.500000  0.500000  0.000000  1
