# generated using pymatgen
data_La6Ti2S8O5
_symmetry_space_group_name_H-M   'P 1'
_cell_length_a   4.02037123
_cell_length_b   12.77072018
_cell_length_c   16.48571478
_cell_angle_alpha   97.03775422
_cell_angle_beta   90.00000000
_cell_angle_gamma   90.00000000
_symmetry_Int_Tables_number   1
_chemical_formula_structural   La6Ti2S8O5
_chemical_formula_sum   'La12 Ti4 S16 O10'
_cell_volume   840.04935727
_cell_formula_units_Z   2
loop_
 _symmetry_equiv_pos_site_id
 _symmetry_equiv_pos_as_xyz
  1  'x, y, z'
loop_
 _atom_site_type_symbol
 _atom_site_label
 _atom_site_symmetry_multiplicity
 _atom_site_fract_x
 _atom_site_fract_y
 _atom_site_fract_z
 _atom_site_occupancy
  La  La0  1  0.750000  0.319952  0.648745  1
  La  La1  1  0.750000  0.604098  0.126164  1
  La  La2  1  0.750000  0.931846  0.117450  1
  La  La3  1  0.250000  0.395902  0.873836  1
  La  La4  1  0.250000  0.680048  0.351255  1
  La  La5  1  0.250000  0.615172  0.601578  1
  La  La6  1  0.250000  0.001582  0.619504  1
  La  La7  1  0.250000  0.068154  0.882550  1
  La  La8  1  0.750000  0.384828  0.398422  1
  La  La9  1  0.750000  0.998418  0.380496  1
  La  La10  1  0.750000  0.269106  0.102291  1
  La  La11  1  0.250000  0.730894  0.897709  1
  Ti  Ti12  1  0.750000  0.558872  0.774011  1
  Ti  Ti13  1  0.750000  0.846664  0.767578  1
  Ti  Ti14  1  0.250000  0.153336  0.232422  1
  Ti  Ti15  1  0.250000  0.441128  0.225989  1
  S  S16  1  0.750000  0.569674  0.938898  1
  S  S17  1  0.250000  0.764425  0.076320  1
  S  S18  1  0.250000  0.086589  0.067815  1
  S  S19  1  0.250000  0.225595  0.730824  1
  S  S20  1  0.250000  0.195526  0.373435  1
  S  S21  1  0.750000  0.607928  0.464925  1
  S  S22  1  0.250000  0.392072  0.535075  1
  S  S23  1  0.250000  0.430326  0.061102  1
  S  S24  1  0.750000  0.235575  0.923680  1
  S  S25  1  0.750000  0.030659  0.754292  1
  S  S26  1  0.750000  0.113377  0.545629  1
  S  S27  1  0.750000  0.804474  0.626565  1
  S  S28  1  0.250000  0.886623  0.454371  1
  S  S29  1  0.750000  0.774405  0.269176  1
  S  S30  1  0.250000  0.969341  0.245708  1
  S  S31  1  0.750000  0.913411  0.932185  1
  O  O32  1  0.750000  0.712852  0.808061  1
  O  O33  1  0.250000  0.850391  0.782784  1
  O  O34  1  0.750000  0.547189  0.660613  1
  O  O35  1  0.250000  0.452811  0.339387  1
  O  O36  1  0.250000  0.584589  0.213043  1
  O  O37  1  0.750000  0.149609  0.217216  1
  O  O38  1  0.750000  0.415411  0.786957  1
  O  O39  1  0.250000  0.287148  0.191939  1
  O  O40  1  0.750000  0.433109  0.217245  1
  O  O41  1  0.250000  0.566891  0.782755  1
