# generated using pymatgen
data_H9C2(NO)3
_symmetry_space_group_name_H-M   'P 1'
_cell_length_a   5.79118438
_cell_length_b   7.85733512
_cell_length_c   14.10742668
_cell_angle_alpha   90.00000000
_cell_angle_beta   90.00000000
_cell_angle_gamma   90.00000000
_symmetry_Int_Tables_number   1
_chemical_formula_structural   H9C2(NO)3
_chemical_formula_sum   'H36 C8 N12 O12'
_cell_volume   641.93413573
_cell_formula_units_Z   4
loop_
 _symmetry_equiv_pos_site_id
 _symmetry_equiv_pos_as_xyz
  1  'x, y, z'
loop_
 _atom_site_type_symbol
 _atom_site_label
 _atom_site_symmetry_multiplicity
 _atom_site_fract_x
 _atom_site_fract_y
 _atom_site_fract_z
 _atom_site_occupancy
  H  H0  1  0.432682  0.831949  0.050201  1
  H  H1  1  0.665533  0.207745  0.145644  1
  H  H2  1  0.192589  0.209927  0.434810  1
  H  H3  1  0.361820  0.409887  0.258611  1
  H  H4  1  0.980937  0.765213  0.666718  1
  H  H5  1  0.025412  0.834585  0.140428  1
  H  H6  1  0.861820  0.909887  0.241389  1
  H  H7  1  0.519063  0.765213  0.166718  1
  H  H8  1  0.165533  0.707745  0.354356  1
  H  H9  1  0.567318  0.331949  0.949799  1
  H  H10  1  0.138180  0.409887  0.758611  1
  H  H11  1  0.834467  0.207745  0.645644  1
  H  H12  1  0.932682  0.331949  0.449799  1
  H  H13  1  0.982707  0.064721  0.709081  1
  H  H14  1  0.307411  0.209927  0.934810  1
  H  H15  1  0.334467  0.707745  0.854356  1
  H  H16  1  0.476309  0.056890  0.669994  1
  H  H17  1  0.517293  0.064721  0.209081  1
  H  H18  1  0.019063  0.265213  0.333282  1
  H  H19  1  0.807411  0.709927  0.565190  1
  H  H20  1  0.270172  0.501123  0.460370  1
  H  H21  1  0.525412  0.334585  0.359572  1
  H  H22  1  0.023691  0.056890  0.169994  1
  H  H23  1  0.976309  0.556890  0.830006  1
  H  H24  1  0.480937  0.265213  0.833282  1
  H  H25  1  0.482707  0.564721  0.790919  1
  H  H26  1  0.729828  0.001123  0.539630  1
  H  H27  1  0.229828  0.501123  0.960370  1
  H  H28  1  0.974588  0.334585  0.859572  1
  H  H29  1  0.474588  0.834585  0.640428  1
  H  H30  1  0.638180  0.909887  0.741389  1
  H  H31  1  0.692589  0.709927  0.065190  1
  H  H32  1  0.770172  0.001123  0.039630  1
  H  H33  1  0.017293  0.564721  0.290919  1
  H  H34  1  0.067318  0.831949  0.550201  1
  H  H35  1  0.523691  0.556890  0.330006  1
  C  C36  1  0.579445  0.805874  0.096762  1
  C  C37  1  0.420555  0.305874  0.903238  1
  C  C38  1  0.920555  0.805874  0.596762  1
  C  C39  1  0.079445  0.305874  0.403238  1
  C  C40  1  0.577281  0.939197  0.669668  1
  C  C41  1  0.422719  0.439197  0.330332  1
  C  C42  1  0.077281  0.439197  0.830332  1
  C  C43  1  0.922719  0.939197  0.169668  1
  N  N44  1  0.063825  0.600426  0.358805  1
  N  N45  1  0.505475  0.919195  0.395550  1
  N  N46  1  0.936175  0.100426  0.641195  1
  N  N47  1  0.494525  0.419195  0.604450  1
  N  N48  1  0.436175  0.600426  0.858805  1
  N  N49  1  0.563825  0.100426  0.141195  1
  N  N50  1  0.715394  0.965819  0.108059  1
  N  N51  1  0.284606  0.465819  0.891941  1
  N  N52  1  0.784606  0.965819  0.608059  1
  N  N53  1  0.215394  0.465819  0.391941  1
  N  N54  1  0.005475  0.419195  0.104450  1
  N  N55  1  0.994525  0.919195  0.895550  1
  O  O56  1  0.671118  0.022183  0.410480  1
  O  O57  1  0.402830  0.918848  0.315594  1
  O  O58  1  0.942152  0.317018  0.040358  1
  O  O59  1  0.597170  0.418848  0.684406  1
  O  O60  1  0.097170  0.918848  0.815594  1
  O  O61  1  0.057848  0.817018  0.959642  1
  O  O62  1  0.828882  0.022183  0.910480  1
  O  O63  1  0.442152  0.817018  0.459642  1
  O  O64  1  0.328882  0.522183  0.589520  1
  O  O65  1  0.902830  0.418848  0.184406  1
  O  O66  1  0.171118  0.522183  0.089520  1
  O  O67  1  0.557848  0.317018  0.540358  1
