# generated using pymatgen
data_K4CO4
_symmetry_space_group_name_H-M   'P 1'
_cell_length_a   5.47200343
_cell_length_b   5.47212385
_cell_length_c   5.47217673
_cell_angle_alpha   84.59302825
_cell_angle_beta   84.59602754
_cell_angle_gamma   84.59535614
_symmetry_Int_Tables_number   1
_chemical_formula_structural   K4CO4
_chemical_formula_sum   'K4 C1 O4'
_cell_volume   161.79913332
_cell_formula_units_Z   1
loop_
 _symmetry_equiv_pos_site_id
 _symmetry_equiv_pos_as_xyz
  1  'x, y, z'
loop_
 _atom_site_type_symbol
 _atom_site_label
 _atom_site_symmetry_multiplicity
 _atom_site_fract_x
 _atom_site_fract_y
 _atom_site_fract_z
 _atom_site_occupancy
  K  K0  1  0.838084  0.390603  0.390572  1
  O  O1  1  0.244294  0.921173  0.921178  1
  K  K2  1  0.390585  0.838081  0.390596  1
  C  C3  1  0.073882  0.073888  0.073889  1
  O  O4  1  0.212844  0.212849  0.212849  1
  O  O5  1  0.921160  0.244296  0.921167  1
  K  K6  1  0.390624  0.390572  0.838093  1
  K  K7  1  0.815703  0.815715  0.815703  1
  O  O8  1  0.921163  0.921163  0.244295  1
