# generated using pymatgen
data_Rb3As11
_symmetry_space_group_name_H-M   'P 1'
_cell_length_a   11.00387452
_cell_length_b   11.52504121
_cell_length_c   15.72088542
_cell_angle_alpha   90.00000000
_cell_angle_beta   90.00000000
_cell_angle_gamma   90.00000000
_symmetry_Int_Tables_number   1
_chemical_formula_structural   Rb3As11
_chemical_formula_sum   'Rb12 As44'
_cell_volume   1993.72437601
_cell_formula_units_Z   4
loop_
 _symmetry_equiv_pos_site_id
 _symmetry_equiv_pos_as_xyz
  1  'x, y, z'
loop_
 _atom_site_type_symbol
 _atom_site_label
 _atom_site_symmetry_multiplicity
 _atom_site_fract_x
 _atom_site_fract_y
 _atom_site_fract_z
 _atom_site_occupancy
  Rb  Rb0  1  0.250000  0.000000  0.804781  1
  Rb  Rb1  1  0.750000  0.500000  0.695219  1
  Rb  Rb2  1  0.750000  0.000000  0.195219  1
  Rb  Rb3  1  0.250000  0.500000  0.304781  1
  Rb  Rb4  1  0.401681  0.279431  0.018466  1
  Rb  Rb5  1  0.901681  0.220569  0.481534  1
  Rb  Rb6  1  0.598319  0.779431  0.481534  1
  Rb  Rb7  1  0.098319  0.720569  0.018466  1
  Rb  Rb8  1  0.598319  0.720569  0.981534  1
  Rb  Rb9  1  0.098319  0.779431  0.518466  1
  Rb  Rb10  1  0.401681  0.220569  0.518466  1
  Rb  Rb11  1  0.901681  0.279431  0.981534  1
  As  As12  1  0.221635  0.182150  0.242291  1
  As  As13  1  0.721635  0.317850  0.257709  1
  As  As14  1  0.778365  0.682150  0.257709  1
  As  As15  1  0.278365  0.817850  0.242291  1
  As  As16  1  0.778365  0.817850  0.757709  1
  As  As17  1  0.278365  0.682150  0.742291  1
  As  As18  1  0.221635  0.317850  0.742291  1
  As  As19  1  0.721635  0.182150  0.757709  1
  As  As20  1  0.434765  0.114343  0.214743  1
  As  As21  1  0.934765  0.385657  0.285257  1
  As  As22  1  0.565235  0.614343  0.285257  1
  As  As23  1  0.065235  0.885657  0.214743  1
  As  As24  1  0.565235  0.885657  0.785257  1
  As  As25  1  0.065235  0.614343  0.714743  1
  As  As26  1  0.434765  0.385657  0.714743  1
  As  As27  1  0.934765  0.114343  0.785257  1
  As  As28  1  0.171705  0.077778  0.377715  1
  As  As29  1  0.671705  0.422222  0.122285  1
  As  As30  1  0.828295  0.577778  0.122285  1
  As  As31  1  0.328295  0.922222  0.377715  1
  As  As32  1  0.828295  0.922222  0.622285  1
  As  As33  1  0.328295  0.577778  0.877715  1
  As  As34  1  0.171705  0.422222  0.877715  1
  As  As35  1  0.671705  0.077778  0.622285  1
  As  As36  1  0.100189  0.069489  0.135683  1
  As  As37  1  0.600189  0.430511  0.364317  1
  As  As38  1  0.899811  0.569489  0.364317  1
  As  As39  1  0.399811  0.930511  0.135683  1
  As  As40  1  0.899811  0.930511  0.864317  1
  As  As41  1  0.399811  0.569489  0.635683  1
  As  As42  1  0.100189  0.430511  0.635683  1
  As  As43  1  0.600189  0.069489  0.864317  1
  As  As44  1  0.007288  0.461620  0.150802  1
  As  As45  1  0.507288  0.038380  0.349198  1
  As  As46  1  0.992712  0.961620  0.349198  1
  As  As47  1  0.492712  0.538380  0.150802  1
  As  As48  1  0.992712  0.538380  0.849198  1
  As  As49  1  0.492712  0.961620  0.650802  1
  As  As50  1  0.007288  0.038380  0.650802  1
  As  As51  1  0.507288  0.461620  0.849198  1
  As  As52  1  0.250000  0.000000  0.034312  1
  As  As53  1  0.750000  0.500000  0.465688  1
  As  As54  1  0.750000  0.000000  0.965688  1
  As  As55  1  0.250000  0.500000  0.534312  1
