# generated using pymatgen
data_VZnSe2O7
_symmetry_space_group_name_H-M   'P 1'
_cell_length_a   7.57613257
_cell_length_b   7.61738524
_cell_length_c   12.79743242
_cell_angle_alpha   90.00000000
_cell_angle_beta   90.00000000
_cell_angle_gamma   117.55648301
_symmetry_Int_Tables_number   1
_chemical_formula_structural   VZnSe2O7
_chemical_formula_sum   'V4 Zn4 Se8 O28'
_cell_volume   654.75996034
_cell_formula_units_Z   4
loop_
 _symmetry_equiv_pos_site_id
 _symmetry_equiv_pos_as_xyz
  1  'x, y, z'
loop_
 _atom_site_type_symbol
 _atom_site_label
 _atom_site_symmetry_multiplicity
 _atom_site_fract_x
 _atom_site_fract_y
 _atom_site_fract_z
 _atom_site_occupancy
  V  V0  1  0.739701  0.776749  0.245582  1
  V  V1  1  0.760299  0.723251  0.745582  1
  V  V2  1  0.239701  0.276749  0.254418  1
  V  V3  1  0.260299  0.223251  0.754418  1
  Zn  Zn4  1  0.797217  0.513180  0.007647  1
  Zn  Zn5  1  0.297217  0.013180  0.492353  1
  Zn  Zn6  1  0.702783  0.986820  0.507647  1
  Zn  Zn7  1  0.202783  0.486820  0.992353  1
  Se  Se8  1  0.177688  0.339166  0.511687  1
  Se  Se9  1  0.677688  0.839166  0.988313  1
  Se  Se10  1  0.322312  0.160834  0.011687  1
  Se  Se11  1  0.928072  0.391643  0.769589  1
  Se  Se12  1  0.822312  0.660834  0.488313  1
  Se  Se13  1  0.071928  0.608357  0.230411  1
  Se  Se14  1  0.428072  0.891643  0.730411  1
  Se  Se15  1  0.571928  0.108357  0.269589  1
  O  O16  1  0.229230  0.287304  0.095375  1
  O  O17  1  0.457497  0.119410  0.771548  1
  O  O18  1  0.547912  0.514325  0.731003  1
  O  O19  1  0.042503  0.380590  0.271548  1
  O  O20  1  0.931741  0.248000  0.536805  1
  O  O21  1  0.452088  0.485675  0.268997  1
  O  O22  1  0.431741  0.748000  0.963195  1
  O  O23  1  0.544283  0.076814  0.406529  1
  O  O24  1  0.542503  0.880590  0.228452  1
  O  O25  1  0.163147  0.427223  0.736723  1
  O  O26  1  0.952088  0.985675  0.231003  1
  O  O27  1  0.044283  0.576814  0.093471  1
  O  O28  1  0.336853  0.072777  0.236724  1
  O  O29  1  0.568259  0.252000  0.036805  1
  O  O30  1  0.068259  0.752000  0.463195  1
  O  O31  1  0.663147  0.927223  0.763277  1
  O  O32  1  0.270770  0.212696  0.595375  1
  O  O33  1  0.729230  0.787304  0.404625  1
  O  O34  1  0.957497  0.619410  0.728452  1
  O  O35  1  0.690258  0.693503  0.092043  1
  O  O36  1  0.455717  0.923186  0.593471  1
  O  O37  1  0.836853  0.572777  0.263277  1
  O  O38  1  0.770770  0.712696  0.904625  1
  O  O39  1  0.309742  0.306497  0.907957  1
  O  O40  1  0.047912  0.014325  0.768997  1
  O  O41  1  0.190258  0.193503  0.407957  1
  O  O42  1  0.809742  0.806497  0.592043  1
  O  O43  1  0.955717  0.423186  0.906529  1
