# generated using pymatgen
data_ZnS
_symmetry_space_group_name_H-M   'P 1'
_cell_length_a   3.85306083
_cell_length_b   3.85306072
_cell_length_c   75.56413146
_cell_angle_alpha   90.00000000
_cell_angle_beta   90.00000000
_cell_angle_gamma   120.00000084
_symmetry_Int_Tables_number   1
_chemical_formula_structural   ZnS
_chemical_formula_sum   'Zn24 S24'
_cell_volume   971.53408481
_cell_formula_units_Z   24
loop_
 _symmetry_equiv_pos_site_id
 _symmetry_equiv_pos_as_xyz
  1  'x, y, z'
loop_
 _atom_site_type_symbol
 _atom_site_label
 _atom_site_symmetry_multiplicity
 _atom_site_fract_x
 _atom_site_fract_y
 _atom_site_fract_z
 _atom_site_occupancy
  Zn  Zn0  1  0.666667  0.333333  0.583333  1
  Zn  Zn1  1  0.333333  0.666667  0.666669  1
  Zn  Zn2  1  0.666667  0.333333  0.333334  1
  Zn  Zn3  1  0.333333  0.666667  0.291672  1
  Zn  Zn4  1  0.000000  0.000000  0.375002  1
  Zn  Zn5  1  0.666667  0.333333  0.083333  1
  Zn  Zn6  1  0.000000  0.000000  0.833331  1
  Zn  Zn7  1  0.666667  0.333333  0.208334  1
  Zn  Zn8  1  0.000000  0.000000  0.708344  1
  Zn  Zn9  1  0.333333  0.666667  0.541672  1
  Zn  Zn10  1  0.333333  0.666667  0.041682  1
  Zn  Zn11  1  0.666667  0.333333  0.458333  1
  Zn  Zn12  1  0.000000  0.000000  0.125002  1
  Zn  Zn13  1  0.333333  0.666667  0.166672  1
  Zn  Zn14  1  0.333333  0.666667  0.416672  1
  Zn  Zn15  1  0.000000  0.000000  0.500002  1
  Zn  Zn16  1  0.333333  0.666667  0.791668  1
  Zn  Zn17  1  0.333333  0.666667  0.958339  1
  Zn  Zn18  1  0.000000  0.000000  0.250002  1
  Zn  Zn19  1  0.666667  0.333333  0.916669  1
  Zn  Zn20  1  0.666667  0.333333  0.750002  1
  Zn  Zn21  1  0.000000  0.000000  0.624997  1
  Zn  Zn22  1  0.333333  0.666667  0.875007  1
  Zn  Zn23  1  0.000000  0.000000  0.999998  1
  S  S24  1  0.333333  0.666667  0.197916  1
  S  S25  1  0.000000  0.000000  0.406248  1
  S  S26  1  0.000000  0.000000  0.531248  1
  S  S27  1  0.333333  0.666667  0.447916  1
  S  S28  1  0.666667  0.333333  0.239578  1
  S  S29  1  0.333333  0.666667  0.989553  1
  S  S30  1  0.000000  0.000000  0.739578  1
  S  S31  1  0.000000  0.000000  0.031273  1
  S  S32  1  0.000000  0.000000  0.864604  1
  S  S33  1  0.333333  0.666667  0.822891  1
  S  S34  1  0.666667  0.333333  0.614578  1
  S  S35  1  0.666667  0.333333  0.947940  1
  S  S36  1  0.000000  0.000000  0.156248  1
  S  S37  1  0.666667  0.333333  0.781247  1
  S  S38  1  0.333333  0.666667  0.697941  1
  S  S39  1  0.666667  0.333333  0.489578  1
  S  S40  1  0.000000  0.000000  0.656223  1
  S  S41  1  0.000000  0.000000  0.281248  1
  S  S42  1  0.666667  0.333333  0.364578  1
  S  S43  1  0.333333  0.666667  0.572916  1
  S  S44  1  0.333333  0.666667  0.072914  1
  S  S45  1  0.666667  0.333333  0.114578  1
  S  S46  1  0.333333  0.666667  0.906223  1
  S  S47  1  0.333333  0.666667  0.322916  1
