# generated using pymatgen
data_Sm(C2N3)3
_symmetry_space_group_name_H-M   'P 1'
_cell_length_a   7.10072556
_cell_length_b   7.10072626
_cell_length_c   10.59271687
_cell_angle_alpha   90.00000000
_cell_angle_beta   90.00000000
_cell_angle_gamma   113.80040844
_symmetry_Int_Tables_number   1
_chemical_formula_structural   Sm(C2N3)3
_chemical_formula_sum   'Sm2 C12 N18'
_cell_volume   488.66749008
_cell_formula_units_Z   2
loop_
 _symmetry_equiv_pos_site_id
 _symmetry_equiv_pos_as_xyz
  1  'x, y, z'
loop_
 _atom_site_type_symbol
 _atom_site_label
 _atom_site_symmetry_multiplicity
 _atom_site_fract_x
 _atom_site_fract_y
 _atom_site_fract_z
 _atom_site_occupancy
  Sm  Sm0  1  0.283666  0.716334  0.750000  1
  Sm  Sm1  1  0.716334  0.283666  0.250000  1
  C  C2  1  0.267847  0.441705  0.250000  1
  C  C3  1  0.558295  0.732153  0.250000  1
  C  C4  1  -0.000193  0.707945  0.054038  1
  C  C5  1  0.707945  -0.000193  0.554038  1
  C  C6  1  0.441705  0.267847  0.750000  1
  C  C7  1  1.000193  0.292055  0.945962  1
  C  C8  1  -0.000193  0.707945  0.445962  1
  C  C9  1  0.732153  0.558295  0.750000  1
  C  C10  1  1.000193  0.292055  0.554038  1
  C  C11  1  0.707945  -0.000193  0.945962  1
  C  C12  1  0.292055  1.000193  0.054038  1
  C  C13  1  0.292055  1.000193  0.445962  1
  N  N14  1  0.857827  0.574871  0.100842  1
  N  N15  1  0.087564  0.352027  0.250000  1
  N  N16  1  0.142173  0.425129  0.899158  1
  N  N17  1  0.857827  0.574871  0.399158  1
  N  N18  1  0.154138  0.845862  0.505441  1
  N  N19  1  0.468016  0.531984  0.250000  1
  N  N20  1  0.142173  0.425129  0.600842  1
  N  N21  1  0.912436  0.647973  0.750000  1
  N  N22  1  0.647973  0.912436  0.250000  1
  N  N23  1  0.352027  0.087564  0.750000  1
  N  N24  1  0.425129  0.142173  0.100842  1
  N  N25  1  0.845862  0.154138  0.005441  1
  N  N26  1  0.154138  0.845862  0.994559  1
  N  N27  1  0.425129  0.142173  0.399158  1
  N  N28  1  0.845862  0.154138  0.494559  1
  N  N29  1  0.531984  0.468016  0.750000  1
  N  N30  1  0.574871  0.857827  0.600842  1
  N  N31  1  0.574871  0.857827  0.899158  1
