# generated using pymatgen
data_KUCrO6
_symmetry_space_group_name_H-M   'P 1'
_cell_length_a   6.85106138
_cell_length_b   8.41684811
_cell_length_c   10.54754882
_cell_angle_alpha   90.00000000
_cell_angle_beta   103.69122540
_cell_angle_gamma   90.00000000
_symmetry_Int_Tables_number   1
_chemical_formula_structural   KUCrO6
_chemical_formula_sum   'K4 U4 Cr4 O24'
_cell_volume   590.93520450
_cell_formula_units_Z   4
loop_
 _symmetry_equiv_pos_site_id
 _symmetry_equiv_pos_as_xyz
  1  'x, y, z'
loop_
 _atom_site_type_symbol
 _atom_site_label
 _atom_site_symmetry_multiplicity
 _atom_site_fract_x
 _atom_site_fract_y
 _atom_site_fract_z
 _atom_site_occupancy
  K  K0  1  0.963442  0.735964  0.149497  1
  K  K1  1  0.036558  0.235964  0.350503  1
  K  K2  1  0.036558  0.264036  0.850503  1
  K  K3  1  0.963442  0.764036  0.649497  1
  U  U4  1  0.486289  0.021062  0.177302  1
  U  U5  1  0.513711  0.521062  0.322698  1
  U  U6  1  0.513711  0.978938  0.822698  1
  U  U7  1  0.486289  0.478938  0.677302  1
  Cr  Cr8  1  0.616600  0.356926  0.052785  1
  Cr  Cr9  1  0.383400  0.856926  0.447215  1
  Cr  Cr10  1  0.383400  0.643074  0.947215  1
  Cr  Cr11  1  0.616600  0.143074  0.552785  1
  O  O12  1  0.454327  0.437464  0.895394  1
  O  O13  1  0.545673  0.937464  0.604606  1
  O  O14  1  0.545673  0.562536  0.104606  1
  O  O15  1  0.454327  0.062536  0.395394  1
  O  O16  1  0.581587  0.290716  0.212819  1
  O  O17  1  0.418413  0.790716  0.287181  1
  O  O18  1  0.418413  0.709284  0.787181  1
  O  O19  1  0.581587  0.209284  0.712819  1
  O  O20  1  0.757324  0.980280  0.233378  1
  O  O21  1  0.242676  0.480280  0.266622  1
  O  O22  1  0.242676  0.019720  0.766621  1
  O  O23  1  0.757324  0.519720  0.733379  1
  O  O24  1  0.529726  0.156532  0.992050  1
  O  O25  1  0.470274  0.656532  0.507950  1
  O  O26  1  0.470274  0.843468  0.007950  1
  O  O27  1  0.529726  0.343468  0.492050  1
  O  O28  1  0.215341  0.062745  0.126952  1
  O  O29  1  0.784659  0.562745  0.373048  1
  O  O30  1  0.784659  0.937255  0.873048  1
  O  O31  1  0.215341  0.437255  0.626952  1
  O  O32  1  0.852923  0.366213  0.056802  1
  O  O33  1  0.147077  0.866213  0.443198  1
  O  O34  1  0.147077  0.633787  0.943198  1
  O  O35  1  0.852923  0.133787  0.556802  1
