# generated using pymatgen
data_BaFe2(SeO3)4
_symmetry_space_group_name_H-M   'P 1'
_cell_length_a   5.30941987
_cell_length_b   10.34760081
_cell_length_c   10.79873676
_cell_angle_alpha   95.71806482
_cell_angle_beta   90.00000000
_cell_angle_gamma   90.00000000
_symmetry_Int_Tables_number   1
_chemical_formula_structural   BaFe2(SeO3)4
_chemical_formula_sum   'Ba2 Fe4 Se8 O24'
_cell_volume   590.32793824
_cell_formula_units_Z   2
loop_
 _symmetry_equiv_pos_site_id
 _symmetry_equiv_pos_as_xyz
  1  'x, y, z'
loop_
 _atom_site_type_symbol
 _atom_site_label
 _atom_site_symmetry_multiplicity
 _atom_site_fract_x
 _atom_site_fract_y
 _atom_site_fract_z
 _atom_site_occupancy
  Ba  Ba0  1  0.938686  0.250000  0.250000  1
  Ba  Ba1  1  0.061314  0.750000  0.750000  1
  Fe  Fe2  1  0.000000  0.000000  0.500000  1
  Fe  Fe3  1  0.500000  0.000000  0.000000  1
  Fe  Fe4  1  0.500000  0.500000  0.500000  1
  Fe  Fe5  1  0.000000  0.500000  0.000000  1
  Se  Se6  1  0.502942  0.475701  0.816603  1
  Se  Se7  1  0.992180  0.659204  0.405945  1
  Se  Se8  1  0.992180  0.840796  0.094055  1
  Se  Se9  1  0.007820  0.340796  0.594055  1
  Se  Se10  1  0.497058  0.975701  0.316603  1
  Se  Se11  1  0.497058  0.524299  0.183397  1
  Se  Se12  1  0.502942  0.024299  0.683397  1
  Se  Se13  1  0.007820  0.159204  0.905945  1
  O  O14  1  0.787996  0.947155  0.650251  1
  O  O15  1  0.706652  0.156525  0.967596  1
  O  O16  1  0.212004  0.447155  0.150251  1
  O  O17  1  0.185804  0.119909  0.033429  1
  O  O18  1  0.293348  0.656525  0.467596  1
  O  O19  1  0.697338  0.068205  0.416608  1
  O  O20  1  0.814196  0.880091  0.966571  1
  O  O21  1  0.302662  0.568205  0.916608  1
  O  O22  1  0.212004  0.052845  0.349749  1
  O  O23  1  0.414128  0.546916  0.683537  1
  O  O24  1  0.302662  0.931795  0.583392  1
  O  O25  1  0.706652  0.343475  0.532404  1
  O  O26  1  0.414128  0.953084  0.816463  1
  O  O27  1  0.185804  0.380091  0.466571  1
  O  O28  1  0.585872  0.046916  0.183537  1
  O  O29  1  0.944969  0.676456  0.095351  1
  O  O30  1  0.293348  0.843475  0.032404  1
  O  O31  1  0.055031  0.176456  0.595351  1
  O  O32  1  0.944969  0.823544  0.404649  1
  O  O33  1  0.585872  0.453084  0.316463  1
  O  O34  1  0.697338  0.431795  0.083392  1
  O  O35  1  0.814196  0.619909  0.533429  1
  O  O36  1  0.055031  0.323544  0.904649  1
  O  O37  1  0.787996  0.552845  0.849749  1
