# generated using pymatgen
data_RbH3WO7
_symmetry_space_group_name_H-M   'P 1'
_cell_length_a   6.54002007
_cell_length_b   8.28285992
_cell_length_c   12.67097131
_cell_angle_alpha   106.72170059
_cell_angle_beta   92.93648961
_cell_angle_gamma   104.70559717
_symmetry_Int_Tables_number   1
_chemical_formula_structural   RbH3WO7
_chemical_formula_sum   'Rb4 H12 W4 O28'
_cell_volume   630.08210271
_cell_formula_units_Z   4
loop_
 _symmetry_equiv_pos_site_id
 _symmetry_equiv_pos_as_xyz
  1  'x, y, z'
loop_
 _atom_site_type_symbol
 _atom_site_label
 _atom_site_symmetry_multiplicity
 _atom_site_fract_x
 _atom_site_fract_y
 _atom_site_fract_z
 _atom_site_occupancy
  Rb  Rb0  1  0.215961  0.242398  0.860777  1
  Rb  Rb1  1  0.098622  0.262318  0.539144  1
  Rb  Rb2  1  0.784039  0.757602  0.139223  1
  Rb  Rb3  1  0.901378  0.737682  0.460856  1
  H  H4  1  0.397358  0.006707  0.082076  1
  H  H5  1  0.603022  0.574368  0.666185  1
  H  H6  1  0.362293  0.691867  0.275242  1
  H  H7  1  0.672890  0.491237  0.812431  1
  H  H8  1  0.327110  0.508763  0.187569  1
  H  H9  1  0.780778  0.749081  0.727822  1
  H  H10  1  0.602642  0.993293  0.917924  1
  H  H11  1  0.219222  0.250919  0.272178  1
  H  H12  1  0.637707  0.308133  0.724758  1
  H  H13  1  0.164545  0.023151  0.065527  1
  H  H14  1  0.396978  0.425632  0.333815  1
  H  H15  1  0.835455  0.976849  0.934473  1
  W  W16  1  0.184116  0.706840  0.875198  1
  W  W17  1  0.560669  0.125163  0.342544  1
  W  W18  1  0.439331  0.874837  0.657456  1
  W  W19  1  0.815884  0.293160  0.124802  1
  O  O20  1  0.762530  0.363882  0.411907  1
  O  O21  1  0.573922  0.325729  0.040704  1
  O  O22  1  0.783586  0.397661  0.004505  1
  O  O23  1  0.714466  0.059023  0.731021  1
  O  O24  1  0.644104  0.292817  0.494712  1
  O  O25  1  0.355896  0.707183  0.505288  1
  O  O26  1  0.334777  0.305145  0.337090  1
  O  O27  1  0.237470  0.636118  0.588093  1
  O  O28  1  0.113881  0.299946  0.090517  1
  O  O29  1  0.572942  0.404909  0.748378  1
  O  O30  1  0.265871  0.963767  0.027157  1
  O  O31  1  0.427058  0.595091  0.251622  1
  O  O32  1  0.665223  0.694855  0.662910  1
  O  O33  1  0.887196  0.487299  0.238358  1
  O  O34  1  0.734960  0.994280  0.349107  1
  O  O35  1  0.305295  0.997039  0.393656  1
  O  O36  1  0.112804  0.512701  0.761642  1
  O  O37  1  0.610737  0.142588  0.190400  1
  O  O38  1  0.285534  0.940977  0.268979  1
  O  O39  1  0.265040  0.005720  0.650893  1
  O  O40  1  0.694705  0.002961  0.606344  1
  O  O41  1  0.216414  0.602339  0.995495  1
  O  O42  1  0.734129  0.036233  0.972843  1
  O  O43  1  0.957169  0.826692  0.845382  1
  O  O44  1  0.886119  0.700054  0.909483  1
  O  O45  1  0.389263  0.857412  0.809600  1
  O  O46  1  0.042831  0.173308  0.154618  1
  O  O47  1  0.426078  0.674271  0.959296  1
