# generated using pymatgen
data_Tl9SbSe6
_symmetry_space_group_name_H-M   'P 1'
_cell_length_a   14.94125756
_cell_length_b   10.56506454
_cell_length_c   16.39341497
_cell_angle_alpha   90.00000000
_cell_angle_beta   90.00000000
_cell_angle_gamma   45.00000004
_symmetry_Int_Tables_number   1
_chemical_formula_structural   Tl9SbSe6
_chemical_formula_sum   'Tl36 Sb4 Se24'
_cell_volume   1829.84263184
_cell_formula_units_Z   4
loop_
 _symmetry_equiv_pos_site_id
 _symmetry_equiv_pos_as_xyz
  1  'x, y, z'
loop_
 _atom_site_type_symbol
 _atom_site_label
 _atom_site_symmetry_multiplicity
 _atom_site_fract_x
 _atom_site_fract_y
 _atom_site_fract_z
 _atom_site_occupancy
  Sb  Sb0  1  0.250000  0.000000  0.747309  1
  Sb  Sb1  1  0.250000  0.500000  0.250246  1
  Sb  Sb2  1  0.750000  0.000000  0.747309  1
  Sb  Sb3  1  0.750000  0.500000  0.781534  1
  Se  Se4  1  0.004446  0.323454  0.781710  1
  Se  Se5  1  0.250000  0.000000  0.945499  1
  Se  Se6  1  0.178964  0.316411  0.267542  1
  Se  Se7  1  0.337156  0.157579  0.731630  1
  Se  Se8  1  -0.004626  0.825662  0.267542  1
  Se  Se9  1  0.250000  0.500000  0.450007  1
  Se  Se10  1  0.250000  0.500000  0.083854  1
  Se  Se11  1  0.504626  0.174338  0.267542  1
  Se  Se12  1  0.162844  0.842421  0.731630  1
  Se  Se13  1  0.321036  0.683589  0.267542  1
  Se  Se14  1  0.505265  0.331892  0.731630  1
  Se  Se15  1  0.750000  0.000000  0.945499  1
  Se  Se16  1  0.250000  0.000000  0.574131  1
  Se  Se17  1  0.495554  0.676546  0.781710  1
  Se  Se18  1  0.660117  0.347564  0.221567  1
  Se  Se19  1  0.827900  0.167655  0.781710  1
  Se  Se20  1  0.507681  0.832202  0.221567  1
  Se  Se21  1  0.750000  0.500000  0.479120  1
  Se  Se22  1  0.750000  0.500000  0.948399  1
  Se  Se23  1  0.992319  0.167798  0.221567  1
  Se  Se24  1  0.672100  0.832345  0.781710  1
  Se  Se25  1  0.839883  0.652436  0.221567  1
  Se  Se26  1  0.750000  0.000000  0.574131  1
  Se  Se27  1  0.994735  0.668108  0.731630  1
  Tl  Tl28  1  -0.029091  0.197118  0.618840  1
  Tl  Tl29  1  0.046060  0.313666  0.105203  1
  Tl  Tl30  1  0.146885  0.368066  0.581129  1
  Tl  Tl31  1  0.008939  0.607707  0.396099  1
  Tl  Tl32  1  0.190740  0.341496  0.893587  1
  Tl  Tl33  1  0.329432  0.136909  0.104533  1
  Tl  Tl34  1  0.383354  0.125585  0.396099  1
  Tl  Tl35  1  0.032236  0.777025  0.893587  1
  Tl  Tl36  1  0.250000  0.500000  0.687093  1
  Tl  Tl37  1  0.467764  0.222975  0.893587  1
  Tl  Tl38  1  0.116646  0.874415  0.396099  1
  Tl  Tl39  1  0.485049  0.161835  0.581129  1
  Tl  Tl40  1  0.170568  0.863091  0.104533  1
  Tl  Tl41  1  0.309260  0.658504  0.893587  1
  Tl  Tl42  1  0.491061  0.392293  0.396099  1
  Tl  Tl43  1  0.353115  0.631934  0.581129  1
  Tl  Tl44  1  0.533659  0.295774  0.104533  1
  Tl  Tl45  1  0.250000  0.000000  0.348793  1
  Tl  Tl46  1  0.453940  0.686334  0.105203  1
  Tl  Tl47  1  0.668027  0.361064  0.618840  1
  Tl  Tl48  1  0.534664  0.644968  0.372833  1
  Tl  Tl49  1  0.617215  0.375889  0.913559  1
  Tl  Tl50  1  0.859727  0.094213  0.105203  1
  Tl  Tl51  1  0.529091  0.802882  0.618840  1
  Tl  Tl52  1  0.820368  0.214296  0.372833  1
  Tl  Tl53  1  0.493104  0.889681  0.913559  1
  Tl  Tl54  1  0.750000  0.500000  0.135356  1
  Tl  Tl55  1  1.006896  0.110319  0.913559  1
  Tl  Tl56  1  0.679632  0.785704  0.372833  1
  Tl  Tl57  1  0.640273  0.905787  0.105203  1
  Tl  Tl58  1  0.882785  0.624111  0.913559  1
  Tl  Tl59  1  0.965336  0.355032  0.372833  1
  Tl  Tl60  1  0.831973  0.638936  0.618840  1
  Tl  Tl61  1  0.750000  0.000000  0.348793  1
  Tl  Tl62  1  0.966341  0.704226  0.104533  1
  Tl  Tl63  1  1.014951  0.838165  0.581129  1
