# generated using pymatgen
data_BaCuTe2O7
_symmetry_space_group_name_H-M   'P 1'
_cell_length_a   5.56078029
_cell_length_b   7.29755148
_cell_length_c   8.74940661
_cell_angle_alpha   114.64729698
_cell_angle_beta   90.00000000
_cell_angle_gamma   90.00000000
_symmetry_Int_Tables_number   1
_chemical_formula_structural   BaCuTe2O7
_chemical_formula_sum   'Ba2 Cu2 Te4 O14'
_cell_volume   322.70363914
_cell_formula_units_Z   2
loop_
 _symmetry_equiv_pos_site_id
 _symmetry_equiv_pos_as_xyz
  1  'x, y, z'
loop_
 _atom_site_type_symbol
 _atom_site_label
 _atom_site_symmetry_multiplicity
 _atom_site_fract_x
 _atom_site_fract_y
 _atom_site_fract_z
 _atom_site_occupancy
  Ba  Ba0  1  0.250000  0.216775  0.419043  1
  Ba  Ba1  1  0.750000  0.797731  0.580957  1
  Cu  Cu2  1  0.250000  0.628840  0.262057  1
  Cu  Cu3  1  0.750000  0.366783  0.737943  1
  Te  Te4  1  0.750000  0.325486  0.154782  1
  Te  Te5  1  0.750000  0.822125  0.142175  1
  Te  Te6  1  0.250000  0.679950  0.857825  1
  Te  Te7  1  0.250000  0.170705  0.845218  1
  O  O8  1  0.250000  0.463436  0.962420  1
  O  O9  1  0.997690  0.475295  0.313480  1
  O  O10  1  0.502310  0.475295  0.313480  1
  O  O11  1  0.750000  0.501015  0.037580  1
  O  O12  1  0.500000  0.137884  1.000000  1
  O  O13  1  0.002310  0.161815  0.686520  1
  O  O14  1  0.491633  0.840842  0.289559  1
  O  O15  1  0.008367  0.840842  0.289559  1
  O  O16  1  0.750000  0.139683  0.267049  1
  O  O17  1  0.508367  0.551283  0.710441  1
  O  O18  1  0.991633  0.551283  0.710441  1
  O  O19  1  0.497690  0.161815  0.686520  1
  O  O20  1  0.250000  0.872634  0.732951  1
  O  O21  1  0.000000  0.137884  1.000000  1
