# generated using pymatgen
data_SiO2
_symmetry_space_group_name_H-M   'P 1'
_cell_length_a   10.86160671
_cell_length_b   10.86160700
_cell_length_c   10.86160704
_cell_angle_alpha   115.17906182
_cell_angle_beta   115.17906267
_cell_angle_gamma   115.17906387
_symmetry_Int_Tables_number   1
_chemical_formula_structural   SiO2
_chemical_formula_sum   'Si12 O24'
_cell_volume   705.30450623
_cell_formula_units_Z   12
loop_
 _symmetry_equiv_pos_site_id
 _symmetry_equiv_pos_as_xyz
  1  'x, y, z'
loop_
 _atom_site_type_symbol
 _atom_site_label
 _atom_site_symmetry_multiplicity
 _atom_site_fract_x
 _atom_site_fract_y
 _atom_site_fract_z
 _atom_site_occupancy
  Si  Si0  1  0.789094  0.628471  0.229184  1
  Si  Si1  1  0.229184  0.789094  0.628471  1
  Si  Si2  1  0.628471  0.789094  0.229184  1
  Si  Si3  1  0.770816  0.371529  0.210906  1
  Si  Si4  1  0.789094  0.229184  0.628471  1
  Si  Si5  1  0.371529  0.770816  0.210906  1
  Si  Si6  1  0.628471  0.229184  0.789094  1
  Si  Si7  1  0.770816  0.210906  0.371529  1
  Si  Si8  1  0.210906  0.770816  0.371529  1
  Si  Si9  1  0.229184  0.628471  0.789094  1
  Si  Si10  1  0.210906  0.371529  0.770816  1
  Si  Si11  1  0.371529  0.210906  0.770816  1
  O  O12  1  0.675496  0.188166  0.188166  1
  O  O13  1  0.715817  0.284183  1.000000  1
  O  O14  1  0.284183  0.000000  0.715817  1
  O  O15  1  0.563975  0.436025  1.000000  1
  O  O16  1  1.000000  0.715817  0.284183  1
  O  O17  1  0.188166  0.675496  0.188166  1
  O  O18  1  0.811834  0.324504  0.811834  1
  O  O19  1  0.724389  0.275611  0.500000  1
  O  O20  1  0.500000  0.724389  0.275611  1
  O  O21  1  0.811834  0.811834  0.324504  1
  O  O22  1  0.324504  0.811834  0.811834  1
  O  O23  1  0.563975  1.000000  0.436025  1
  O  O24  1  0.436025  0.563975  0.000000  1
  O  O25  1  0.275611  0.724389  0.500000  1
  O  O26  1  0.000000  0.436025  0.563975  1
  O  O27  1  0.000000  0.284183  0.715817  1
  O  O28  1  0.724389  0.500000  0.275611  1
  O  O29  1  1.000000  0.563975  0.436025  1
  O  O30  1  0.275611  0.500000  0.724389  1
  O  O31  1  0.188166  0.188166  0.675496  1
  O  O32  1  0.284183  0.715817  0.000000  1
  O  O33  1  0.715817  1.000000  0.284183  1
  O  O34  1  0.500000  0.275611  0.724389  1
  O  O35  1  0.436025  0.000000  0.563975  1
