# generated using pymatgen
data_CuWO4
_symmetry_space_group_name_H-M   'P 1'
_cell_length_a   4.80299678
_cell_length_b   4.98874084
_cell_length_c   6.02616329
_cell_angle_alpha   86.35520033
_cell_angle_beta   81.27963288
_cell_angle_gamma   85.40532057
_symmetry_Int_Tables_number   1
_chemical_formula_structural   CuWO4
_chemical_formula_sum   'Cu2 W2 O8'
_cell_volume   142.07058093
_cell_formula_units_Z   2
loop_
 _symmetry_equiv_pos_site_id
 _symmetry_equiv_pos_as_xyz
  1  'x, y, z'
loop_
 _atom_site_type_symbol
 _atom_site_label
 _atom_site_symmetry_multiplicity
 _atom_site_fract_x
 _atom_site_fract_y
 _atom_site_fract_z
 _atom_site_occupancy
  O  O0  1  0.214175  0.050332  0.083022  1
  O  O1  1  0.785824  0.949667  0.916978  1
  O  O2  1  0.271319  0.093810  0.617395  1
  O  O3  1  0.728682  0.906191  0.382604  1
  O  O4  1  0.246724  0.567456  0.345823  1
  O  O5  1  0.753275  0.432544  0.654177  1
  O  O6  1  0.786416  0.430835  0.122947  1
  O  O7  1  0.213583  0.569164  0.877055  1
  Cu  Cu8  1  0.493280  0.744841  0.655618  1
  Cu  Cu9  1  0.506719  0.255160  0.344382  1
  W  W10  1  0.011579  0.744866  0.166188  1
  W  W11  1  0.988422  0.255133  0.833812  1
