# generated using pymatgen
data_H6NO2F
_symmetry_space_group_name_H-M   'P 1'
_cell_length_a   4.52588304
_cell_length_b   8.24473455
_cell_length_c   9.05309738
_cell_angle_alpha   90.00000000
_cell_angle_beta   90.00000000
_cell_angle_gamma   90.00000000
_symmetry_Int_Tables_number   1
_chemical_formula_structural   H6NO2F
_chemical_formula_sum   'H24 N4 O8 F4'
_cell_volume   337.81365145
_cell_formula_units_Z   4
loop_
 _symmetry_equiv_pos_site_id
 _symmetry_equiv_pos_as_xyz
  1  'x, y, z'
loop_
 _atom_site_type_symbol
 _atom_site_label
 _atom_site_symmetry_multiplicity
 _atom_site_fract_x
 _atom_site_fract_y
 _atom_site_fract_z
 _atom_site_occupancy
  H  H0  1  0.280930  0.033192  0.096522  1
  H  H1  1  0.087147  0.783687  0.750000  1
  H  H2  1  0.587147  0.716313  0.250000  1
  H  H3  1  0.280930  0.033192  0.403477  1
  H  H4  1  0.464465  0.770299  0.750000  1
  H  H5  1  0.756192  0.868961  0.156197  1
  H  H6  1  0.719070  0.966808  0.596522  1
  H  H7  1  0.780930  0.466808  0.903478  1
  H  H8  1  0.219070  0.533192  0.403477  1
  H  H9  1  0.412853  0.283687  0.750000  1
  H  H10  1  0.256192  0.631039  0.656197  1
  H  H11  1  0.535535  0.229701  0.250000  1
  H  H12  1  0.243808  0.131039  0.843803  1
  H  H13  1  0.243808  0.131039  0.656197  1
  H  H14  1  0.743808  0.368961  0.343803  1
  H  H15  1  0.743808  0.368961  0.156197  1
  H  H16  1  0.256192  0.631039  0.843803  1
  H  H17  1  0.780930  0.466808  0.596522  1
  H  H18  1  0.035535  0.270299  0.750000  1
  H  H19  1  0.912853  0.216313  0.250000  1
  H  H20  1  0.219070  0.533192  0.096522  1
  H  H21  1  0.719070  0.966808  0.903478  1
  H  H22  1  0.964465  0.729701  0.250000  1
  H  H23  1  0.756192  0.868961  0.343803  1
  N  N24  1  0.768057  0.795881  0.250000  1
  N  N25  1  0.231943  0.204119  0.750000  1
  N  N26  1  0.731943  0.295881  0.250000  1
  N  N27  1  0.268057  0.704119  0.750000  1
  O  O28  1  0.161882  0.488060  0.995783  1
  O  O29  1  0.838118  0.511940  0.495783  1
  O  O30  1  0.338118  0.988060  0.504217  1
  O  O31  1  0.661882  0.011940  0.004217  1
  O  O32  1  0.338118  0.988060  0.995783  1
  O  O33  1  0.838118  0.511940  0.004217  1
  O  O34  1  0.661882  0.011940  0.495783  1
  O  O35  1  0.161882  0.488060  0.504217  1
  F  F36  1  0.278588  0.603741  0.250000  1
  F  F37  1  0.778588  0.896259  0.750000  1
  F  F38  1  0.721412  0.396259  0.750000  1
  F  F39  1  0.221412  0.103741  0.250000  1
