# generated using pymatgen
data_DyMoClO4
_symmetry_space_group_name_H-M   'P 1'
_cell_length_a   6.32669052
_cell_length_b   6.32669064
_cell_length_c   6.92254102
_cell_angle_alpha   76.00690432
_cell_angle_beta   76.00690406
_cell_angle_gamma   70.80983341
_symmetry_Int_Tables_number   1
_chemical_formula_structural   DyMoClO4
_chemical_formula_sum   'Dy2 Mo2 Cl2 O8'
_cell_volume   249.91068599
_cell_formula_units_Z   2
loop_
 _symmetry_equiv_pos_site_id
 _symmetry_equiv_pos_as_xyz
  1  'x, y, z'
loop_
 _atom_site_type_symbol
 _atom_site_label
 _atom_site_symmetry_multiplicity
 _atom_site_fract_x
 _atom_site_fract_y
 _atom_site_fract_z
 _atom_site_occupancy
  Dy  Dy0  1  0.778342  0.778342  0.112364  1
  Dy  Dy1  1  0.221658  0.221658  0.887636  1
  Mo  Mo2  1  0.362370  0.362370  0.268941  1
  Mo  Mo3  1  0.637630  0.637630  0.731059  1
  Cl  Cl4  1  0.010354  0.010354  0.233364  1
  Cl  Cl5  1  0.989646  0.989646  0.766636  1
  O  O6  1  0.491577  0.110059  0.152911  1
  O  O7  1  0.110059  0.491577  0.152911  1
  O  O8  1  0.293605  0.293605  0.535691  1
  O  O9  1  0.889941  0.508422  0.847089  1
  O  O10  1  0.706395  0.706395  0.464309  1
  O  O11  1  0.508422  0.889941  0.847089  1
  O  O12  1  0.542888  0.542888  0.202554  1
  O  O13  1  0.457112  0.457112  0.797446  1
