# generated using pymatgen
data_NiP2H24(C2O7)2
_symmetry_space_group_name_H-M   'P 1'
_cell_length_a   7.18702740
_cell_length_b   9.86267485
_cell_length_c   12.65070530
_cell_angle_alpha   110.69078939
_cell_angle_beta   90.00000000
_cell_angle_gamma   90.00000000
_symmetry_Int_Tables_number   1
_chemical_formula_structural   NiP2H24(C2O7)2
_chemical_formula_sum   'Ni2 P4 H48 C8 O28'
_cell_volume   838.88598309
_cell_formula_units_Z   2
loop_
 _symmetry_equiv_pos_site_id
 _symmetry_equiv_pos_as_xyz
  1  'x, y, z'
loop_
 _atom_site_type_symbol
 _atom_site_label
 _atom_site_symmetry_multiplicity
 _atom_site_fract_x
 _atom_site_fract_y
 _atom_site_fract_z
 _atom_site_occupancy
  Ni  Ni0  1  0.000000  0.500000  0.500000  1
  Ni  Ni1  1  0.500000  0.000000  0.500000  1
  P  P2  1  0.480994  0.530630  0.756099  1
  P  P3  1  0.519006  0.469370  0.243901  1
  P  P4  1  0.980994  0.969370  0.243901  1
  P  P5  1  0.019006  0.030630  0.756099  1
  H  H6  1  0.257510  0.286895  0.853995  1
  H  H7  1  0.281582  0.796721  0.996731  1
  H  H8  1  0.607636  0.960511  0.694975  1
  H  H9  1  0.302848  0.357021  0.394306  1
  H  H10  1  0.275910  0.770739  0.472183  1
  H  H11  1  0.670839  0.753478  0.377268  1
  H  H12  1  0.718418  0.203279  0.003269  1
  H  H13  1  0.892364  0.460511  0.694975  1
  H  H14  1  0.660013  0.854904  0.099115  1
  H  H15  1  0.862392  0.942014  0.933219  1
  H  H16  1  0.107636  0.539489  0.305025  1
  H  H17  1  0.606638  0.282268  0.809003  1
  H  H18  1  0.173375  0.127257  0.590572  1
  H  H19  1  0.137608  0.057986  0.066781  1
  H  H20  1  0.393362  0.717732  0.190997  1
  H  H21  1  0.339987  0.145096  0.900885  1
  H  H22  1  0.618881  0.055202  0.312614  1
  H  H23  1  0.118881  0.444798  0.687386  1
  H  H24  1  0.329161  0.246522  0.622732  1
  H  H25  1  0.164812  0.648287  0.148749  1
  H  H26  1  0.242490  0.786895  0.853995  1
  H  H27  1  0.826625  0.872743  0.409428  1
  H  H28  1  0.775910  0.729261  0.527817  1
  H  H29  1  0.160013  0.645096  0.900885  1
  H  H30  1  0.839987  0.354904  0.099115  1
  H  H31  1  0.326625  0.627257  0.590572  1
  H  H32  1  0.673375  0.372743  0.409428  1
  H  H33  1  0.106638  0.217732  0.190997  1
  H  H34  1  0.637608  0.442014  0.933219  1
  H  H35  1  0.362392  0.557986  0.066781  1
  H  H36  1  0.802848  0.142979  0.605694  1
  H  H37  1  0.881119  0.555202  0.312614  1
  H  H38  1  0.197152  0.857021  0.394306  1
  H  H39  1  0.335188  0.148287  0.148749  1
  H  H40  1  0.170839  0.746522  0.622732  1
  H  H41  1  0.697152  0.642979  0.605694  1
  H  H42  1  0.835188  0.351713  0.851251  1
  H  H43  1  0.392364  0.039489  0.305025  1
  H  H44  1  0.757510  0.213105  0.146005  1
  H  H45  1  0.218418  0.296721  0.996731  1
  H  H46  1  0.781582  0.703279  0.003269  1
  H  H47  1  0.724090  0.229261  0.527817  1
  H  H48  1  0.224090  0.270739  0.472183  1
  H  H49  1  0.893362  0.782268  0.809003  1
  H  H50  1  0.381119  0.944798  0.687386  1
  H  H51  1  0.664812  0.851713  0.851251  1
  H  H52  1  0.742490  0.713105  0.146005  1
  H  H53  1  0.829161  0.253478  0.377268  1
  C  C54  1  0.271959  0.723965  0.908505  1
  C  C55  1  0.189053  0.119000  0.152146  1
  C  C56  1  0.310947  0.619000  0.152146  1
  C  C57  1  0.771959  0.776035  0.091495  1
  C  C58  1  0.228041  0.223965  0.908505  1
  C  C59  1  0.689053  0.381000  0.847854  1
  C  C60  1  0.810947  0.881000  0.847854  1
  C  C61  1  0.728041  0.276035  0.091495  1
  O  O62  1  0.319143  0.529715  0.221923  1
  O  O63  1  0.831860  0.084816  0.266784  1
  O  O64  1  0.496545  0.961616  0.650121  1
  O  O65  1  0.010781  0.900792  0.331910  1
  O  O66  1  0.189127  0.335345  0.430779  1
  O  O67  1  0.180857  0.029715  0.221923  1
  O  O68  1  0.214506  0.659634  0.558719  1
  O  O69  1  0.510781  0.599208  0.668090  1
  O  O70  1  0.949499  0.848775  0.119810  1
  O  O71  1  0.680857  0.470285  0.778077  1
  O  O72  1  0.550501  0.348775  0.119810  1
  O  O73  1  0.996545  0.538384  0.349879  1
  O  O74  1  0.714506  0.840366  0.441281  1
  O  O75  1  0.689127  0.164655  0.569221  1
  O  O76  1  0.310873  0.835345  0.430779  1
  O  O77  1  0.003455  0.461616  0.650121  1
  O  O78  1  0.668140  0.584816  0.266784  1
  O  O79  1  0.168140  0.915184  0.733216  1
  O  O80  1  0.989219  0.099208  0.668090  1
  O  O81  1  0.050501  0.151225  0.880190  1
  O  O82  1  0.819143  0.970285  0.778077  1
  O  O83  1  0.489219  0.400792  0.331910  1
  O  O84  1  0.331860  0.415184  0.733216  1
  O  O85  1  0.785494  0.340366  0.441281  1
  O  O86  1  0.449499  0.651225  0.880190  1
  O  O87  1  0.285494  0.159634  0.558719  1
  O  O88  1  0.810873  0.664655  0.569221  1
  O  O89  1  0.503455  0.038384  0.349879  1
