# generated using pymatgen
data_K2FeF5
_symmetry_space_group_name_H-M   'P 1'
_cell_length_a   7.55017651
_cell_length_b   13.06642296
_cell_length_c   20.76641838
_cell_angle_alpha   90.00000000
_cell_angle_beta   90.00000000
_cell_angle_gamma   90.00000000
_symmetry_Int_Tables_number   1
_chemical_formula_structural   K2FeF5
_chemical_formula_sum   'K32 Fe16 F80'
_cell_volume   2048.68607940
_cell_formula_units_Z   16
loop_
 _symmetry_equiv_pos_site_id
 _symmetry_equiv_pos_as_xyz
  1  'x, y, z'
loop_
 _atom_site_type_symbol
 _atom_site_label
 _atom_site_symmetry_multiplicity
 _atom_site_fract_x
 _atom_site_fract_y
 _atom_site_fract_z
 _atom_site_occupancy
  K  K0  1  0.000000  0.074038  0.250000  1
  K  K1  1  0.500000  0.425962  0.750000  1
  K  K2  1  0.000000  0.925962  0.750000  1
  K  K3  1  0.500000  0.574038  0.250000  1
  K  K4  1  0.000000  0.535883  0.250000  1
  K  K5  1  0.500000  0.964117  0.750000  1
  K  K6  1  0.000000  0.464117  0.750000  1
  K  K7  1  0.500000  0.035883  0.250000  1
  K  K8  1  0.159022  0.019261  0.416582  1
  K  K9  1  0.659022  0.480739  0.583418  1
  K  K10  1  0.840978  0.019261  0.083418  1
  K  K11  1  0.340978  0.480739  0.916582  1
  K  K12  1  0.840978  0.980739  0.583418  1
  K  K13  1  0.340978  0.519261  0.416582  1
  K  K14  1  0.159022  0.980739  0.916582  1
  K  K15  1  0.659022  0.519261  0.083418  1
  K  K16  1  0.149126  0.787614  0.162747  1
  K  K17  1  0.649126  0.712386  0.837253  1
  K  K18  1  0.850874  0.787614  0.337253  1
  K  K19  1  0.350874  0.712386  0.662747  1
  K  K20  1  0.850874  0.212386  0.837253  1
  K  K21  1  0.350874  0.287614  0.162747  1
  K  K22  1  0.149126  0.212386  0.662747  1
  K  K23  1  0.649126  0.287614  0.337253  1
  K  K24  1  0.487635  0.230738  0.993006  1
  K  K25  1  0.987635  0.269262  0.006994  1
  K  K26  1  0.512365  0.230738  0.506994  1
  K  K27  1  0.012365  0.269262  0.493006  1
  K  K28  1  0.512365  0.769262  0.006994  1
  K  K29  1  0.012365  0.730738  0.993006  1
  K  K30  1  0.487635  0.769262  0.493006  1
  K  K31  1  0.987635  0.730738  0.506994  1
  Fe  Fe32  1  0.669592  0.001089  0.422243  1
  Fe  Fe33  1  0.169592  0.498911  0.577757  1
  Fe  Fe34  1  0.330408  0.001089  0.077757  1
  Fe  Fe35  1  0.830408  0.498911  0.922243  1
  Fe  Fe36  1  0.330408  0.998911  0.577757  1
  Fe  Fe37  1  0.830408  0.501089  0.422243  1
  Fe  Fe38  1  0.669592  0.998911  0.922243  1
  Fe  Fe39  1  0.169592  0.501089  0.077757  1
  Fe  Fe40  1  0.336018  0.803237  0.328328  1
  Fe  Fe41  1  0.836018  0.696763  0.671672  1
  Fe  Fe42  1  0.663982  0.803237  0.171672  1
  Fe  Fe43  1  0.163982  0.696763  0.828328  1
  Fe  Fe44  1  0.663982  0.196763  0.671672  1
  Fe  Fe45  1  0.163982  0.303237  0.328328  1
  Fe  Fe46  1  0.336018  0.196763  0.828328  1
  Fe  Fe47  1  0.836018  0.303237  0.171672  1
  F  F48  1  0.990009  0.197660  0.140218  1
  F  F49  1  0.490009  0.302340  0.859782  1
  F  F50  1  0.009991  0.197660  0.359782  1
  F  F51  1  0.509991  0.302340  0.640218  1
  F  F52  1  0.009991  0.802340  0.859782  1
  F  F53  1  0.509991  0.697660  0.140218  1
  F  F54  1  0.990009  0.802340  0.640218  1
  F  F55  1  0.490009  0.697660  0.359782  1
  F  F56  1  0.495822  0.904508  0.376900  1
  F  F57  1  0.995822  0.595492  0.623100  1
  F  F58  1  0.504178  0.904508  0.123100  1
  F  F59  1  0.004178  0.595492  0.876900  1
  F  F60  1  0.504178  0.095492  0.623100  1
  F  F61  1  0.004178  0.404508  0.376900  1
  F  F62  1  0.495822  0.095492  0.876900  1
  F  F63  1  0.995822  0.404508  0.123100  1
  F  F64  1  0.000000  0.500000  0.000000  1
  F  F65  1  0.500000  0.000000  0.000000  1
  F  F66  1  0.000000  0.500000  0.500000  1
  F  F67  1  0.500000  0.000000  0.500000  1
  F  F68  1  0.000000  0.321765  0.250000  1
  F  F69  1  0.500000  0.178235  0.750000  1
  F  F70  1  0.000000  0.678235  0.750000  1
  F  F71  1  0.500000  0.821765  0.250000  1
  F  F72  1  0.299005  0.205873  0.277882  1
  F  F73  1  0.799005  0.294127  0.722118  1
  F  F74  1  0.700995  0.205873  0.222118  1
  F  F75  1  0.200995  0.294127  0.777882  1
  F  F76  1  0.700995  0.794127  0.722118  1
  F  F77  1  0.200995  0.705873  0.277882  1
  F  F78  1  0.299005  0.794127  0.777882  1
  F  F79  1  0.799005  0.705873  0.222118  1
  F  F80  1  0.223442  0.878023  0.039551  1
  F  F81  1  0.723442  0.621977  0.960449  1
  F  F82  1  0.776558  0.878023  0.460449  1
  F  F83  1  0.276558  0.621977  0.539551  1
  F  F84  1  0.776558  0.121977  0.960449  1
  F  F85  1  0.276558  0.378023  0.039551  1
  F  F86  1  0.223442  0.121977  0.539551  1
  F  F87  1  0.723442  0.378023  0.460449  1
  F  F88  1  0.468156  0.111164  0.111925  1
  F  F89  1  0.968156  0.388836  0.888075  1
  F  F90  1  0.531844  0.111164  0.388075  1
  F  F91  1  0.031844  0.388836  0.611925  1
  F  F92  1  0.531844  0.888836  0.888075  1
  F  F93  1  0.031844  0.611164  0.111925  1
  F  F94  1  0.468156  0.888836  0.611925  1
  F  F95  1  0.968156  0.611164  0.388075  1
  F  F96  1  0.178177  0.991196  0.151324  1
  F  F97  1  0.678177  0.508804  0.848676  1
  F  F98  1  0.821823  0.991196  0.348676  1
  F  F99  1  0.321823  0.508804  0.651324  1
  F  F100  1  0.821823  0.008804  0.848676  1
  F  F101  1  0.321823  0.491196  0.151324  1
  F  F102  1  0.178177  0.008804  0.651324  1
  F  F103  1  0.678177  0.491196  0.348676  1
  F  F104  1  0.175506  0.911560  0.529451  1
  F  F105  1  0.675506  0.588440  0.470549  1
  F  F106  1  0.824494  0.911560  0.970549  1
  F  F107  1  0.324494  0.588440  0.029451  1
  F  F108  1  0.824494  0.088440  0.470549  1
  F  F109  1  0.324494  0.411560  0.529451  1
  F  F110  1  0.175506  0.088440  0.029451  1
  F  F111  1  0.675506  0.411560  0.970549  1
  F  F112  1  0.207956  0.921807  0.296578  1
  F  F113  1  0.707956  0.578193  0.703422  1
  F  F114  1  0.792044  0.921807  0.203422  1
  F  F115  1  0.292044  0.578193  0.796578  1
  F  F116  1  0.792044  0.078193  0.703422  1
  F  F117  1  0.292044  0.421807  0.296578  1
  F  F118  1  0.207956  0.078193  0.796578  1
  F  F119  1  0.707956  0.421807  0.203422  1
  F  F120  1  0.312949  0.299132  0.403197  1
  F  F121  1  0.812949  0.200868  0.596803  1
  F  F122  1  0.687051  0.299132  0.096803  1
  F  F123  1  0.187051  0.200868  0.903197  1
  F  F124  1  0.687051  0.700868  0.596803  1
  F  F125  1  0.187051  0.799132  0.403197  1
  F  F126  1  0.312949  0.700868  0.903197  1
  F  F127  1  0.812949  0.799132  0.096803  1
