# generated using pymatgen
data_Np5Ge4
_symmetry_space_group_name_H-M   'P 1'
_cell_length_a   8.42958161
_cell_length_b   8.42958164
_cell_length_c   5.68740992
_cell_angle_alpha   90.00000000
_cell_angle_beta   90.00000000
_cell_angle_gamma   119.99999986
_symmetry_Int_Tables_number   1
_chemical_formula_structural   Np5Ge4
_chemical_formula_sum   'Np10 Ge8'
_cell_volume   349.99126378
_cell_formula_units_Z   2
loop_
 _symmetry_equiv_pos_site_id
 _symmetry_equiv_pos_as_xyz
  1  'x, y, z'
loop_
 _atom_site_type_symbol
 _atom_site_label
 _atom_site_symmetry_multiplicity
 _atom_site_fract_x
 _atom_site_fract_y
 _atom_site_fract_z
 _atom_site_occupancy
  Np  Np0  1  0.333333  0.666667  0.000000  1
  Np  Np1  1  0.666667  0.333333  0.500000  1
  Np  Np2  1  0.666667  0.333333  0.000000  1
  Np  Np3  1  0.333333  0.666667  0.500000  1
  Np  Np4  1  0.299853  0.000000  0.250000  1
  Np  Np5  1  0.299853  0.299853  0.750000  1
  Np  Np6  1  1.000000  0.700147  0.750000  1
  Np  Np7  1  0.000000  0.299853  0.250000  1
  Np  Np8  1  0.700147  0.700147  0.250000  1
  Np  Np9  1  0.700147  0.000000  0.750000  1
  Ge  Ge10  1  0.634062  0.000000  0.250000  1
  Ge  Ge11  1  0.634062  0.634062  0.750000  1
  Ge  Ge12  1  1.000000  0.365938  0.750000  1
  Ge  Ge13  1  0.000000  0.634062  0.250000  1
  Ge  Ge14  1  0.365938  0.365938  0.250000  1
  Ge  Ge15  1  0.365938  0.000000  0.750000  1
  Ge  Ge16  1  0.000000  0.000000  0.000000  1
  Ge  Ge17  1  0.000000  0.000000  0.500000  1
