# generated using pymatgen
data_CaSO4
_symmetry_space_group_name_H-M   'P 1'
_cell_length_a   6.35805929
_cell_length_b   7.04505642
_cell_length_c   7.05653040
_cell_angle_alpha   119.94623159
_cell_angle_beta   90.00000000
_cell_angle_gamma   90.00000000
_symmetry_Int_Tables_number   1
_chemical_formula_structural   CaSO4
_chemical_formula_sum   'Ca3 S3 O12'
_cell_volume   273.88354845
_cell_formula_units_Z   3
loop_
 _symmetry_equiv_pos_site_id
 _symmetry_equiv_pos_as_xyz
  1  'x, y, z'
loop_
 _atom_site_type_symbol
 _atom_site_label
 _atom_site_symmetry_multiplicity
 _atom_site_fract_x
 _atom_site_fract_y
 _atom_site_fract_z
 _atom_site_occupancy
  Ca  Ca0  1  0.333731  0.500000  0.500000  1
  Ca  Ca1  1  0.666269  0.000000  0.500000  1
  Ca  Ca2  1  0.000000  0.000000  0.000000  1
  S  S3  1  0.166150  0.000000  0.500000  1
  S  S4  1  0.833850  0.500000  0.500000  1
  S  S5  1  0.500000  0.000000  0.000000  1
  O  O6  1  0.641107  0.053285  0.864490  1
  O  O7  1  0.974817  0.634458  0.689098  1
  O  O8  1  0.974817  0.365542  0.310902  1
  O  O9  1  0.307343  0.188233  0.550822  1
  O  O10  1  0.307343  0.811767  0.449178  1
  O  O11  1  0.641107  0.946715  0.135510  1
  O  O12  1  0.692657  0.637410  0.449178  1
  O  O13  1  0.025183  0.945360  0.310902  1
  O  O14  1  0.358893  0.188795  0.135510  1
  O  O15  1  0.358893  0.811205  0.864490  1
  O  O16  1  0.025183  0.054640  0.689098  1
  O  O17  1  0.692657  0.362590  0.550822  1
