# generated using pymatgen
data_KCrF3
_symmetry_space_group_name_H-M   'P 1'
_cell_length_a   6.04566756
_cell_length_b   6.04567052
_cell_length_c   6.06462232
_cell_angle_alpha   121.03671140
_cell_angle_beta   121.01707051
_cell_angle_gamma   88.04604740
_symmetry_Int_Tables_number   1
_chemical_formula_structural   KCrF3
_chemical_formula_sum   'K2 Cr2 F6'
_cell_volume   154.46519095
_cell_formula_units_Z   2
loop_
 _symmetry_equiv_pos_site_id
 _symmetry_equiv_pos_as_xyz
  1  'x, y, z'
loop_
 _atom_site_type_symbol
 _atom_site_label
 _atom_site_symmetry_multiplicity
 _atom_site_fract_x
 _atom_site_fract_y
 _atom_site_fract_z
 _atom_site_occupancy
  K  K0  1  0.750019  0.750020  0.000006  1
  K  K1  1  0.249981  0.249980  0.999994  1
  Cr  Cr2  1  0.000000  0.500000  0.500000  1
  Cr  Cr3  1  0.500000  0.000000  0.500000  1
  F  F4  1  0.269497  0.769499  0.500001  1
  F  F5  1  0.730503  0.230501  0.499999  1
  F  F6  1  0.251058  0.266961  0.518017  1
  F  F7  1  0.748942  0.733039  0.481983  1
  F  F8  1  0.769079  0.251072  0.020153  1
  F  F9  1  0.230921  0.748928  0.979847  1
