# generated using pymatgen
data_BaNaCr2F9
_symmetry_space_group_name_H-M   'P 1'
_cell_length_a   5.54092773
_cell_length_b   7.44801832
_cell_length_c   17.67530173
_cell_angle_alpha   90.00000000
_cell_angle_beta   90.00000000
_cell_angle_gamma   91.51881463
_symmetry_Int_Tables_number   1
_chemical_formula_structural   BaNaCr2F9
_chemical_formula_sum   'Ba4 Na4 Cr8 F36'
_cell_volume   729.18454143
_cell_formula_units_Z   4
loop_
 _symmetry_equiv_pos_site_id
 _symmetry_equiv_pos_as_xyz
  1  'x, y, z'
loop_
 _atom_site_type_symbol
 _atom_site_label
 _atom_site_symmetry_multiplicity
 _atom_site_fract_x
 _atom_site_fract_y
 _atom_site_fract_z
 _atom_site_occupancy
  F  F0  1  0.082577  0.904952  0.067658  1
  F  F1  1  0.417423  0.595048  0.567658  1
  F  F2  1  0.917423  0.095048  0.932342  1
  F  F3  1  0.582577  0.404952  0.432342  1
  F  F4  1  0.318282  0.937955  0.208043  1
  F  F5  1  0.181718  0.562045  0.708043  1
  F  F6  1  0.681718  0.062045  0.791957  1
  F  F7  1  0.818282  0.437955  0.291957  1
  F  F8  1  0.747311  0.745721  0.468262  1
  F  F9  1  0.752689  0.754279  0.968262  1
  F  F10  1  0.252689  0.254279  0.531738  1
  F  F11  1  0.247311  0.245721  0.031738  1
  F  F12  1  0.501558  0.698263  0.336494  1
  F  F13  1  0.998442  0.801737  0.836494  1
  F  F14  1  0.498442  0.301737  0.663506  1
  F  F15  1  0.001558  0.198263  0.163506  1
  F  F16  1  0.968922  0.139031  0.418069  1
  F  F17  1  0.531078  0.360969  0.918069  1
  F  F18  1  0.031078  0.860969  0.581931  1
  F  F19  1  0.468922  0.639031  0.081931  1
  F  F20  1  0.413429  0.998032  0.924265  1
  F  F21  1  0.086571  0.501968  0.424265  1
  F  F22  1  0.586571  0.001968  0.075735  1
  F  F23  1  0.913429  0.498032  0.575735  1
  F  F24  1  0.294822  0.285968  0.312556  1
  F  F25  1  0.205178  0.214032  0.812556  1
  F  F26  1  0.705178  0.714032  0.687444  1
  F  F27  1  0.794822  0.785968  0.187444  1
  F  F28  1  0.051798  0.440150  0.917479  1
  F  F29  1  0.448202  0.059850  0.417479  1
  F  F30  1  0.948202  0.559850  0.082521  1
  F  F31  1  0.551798  0.940150  0.582521  1
  F  F32  1  0.485738  0.274155  0.164574  1
  F  F33  1  0.014262  0.225845  0.664574  1
  F  F34  1  0.514262  0.725845  0.835426  1
  F  F35  1  0.985738  0.774155  0.335426  1
  Na  Na36  1  0.747110  0.311245  0.040225  1
  Na  Na37  1  0.752890  0.188755  0.540225  1
  Na  Na38  1  0.247110  0.811245  0.459775  1
  Na  Na39  1  0.252890  0.688755  0.959775  1
  Cr  Cr40  1  0.266050  0.274386  0.419913  1
  Cr  Cr41  1  0.720062  0.910085  0.878404  1
  Cr  Cr42  1  0.279938  0.089915  0.121596  1
  Cr  Cr43  1  0.220062  0.410085  0.621596  1
  Cr  Cr44  1  0.766050  0.774386  0.080087  1
  Cr  Cr45  1  0.733950  0.725614  0.580087  1
  Cr  Cr46  1  0.779938  0.589915  0.378404  1
  Cr  Cr47  1  0.233950  0.225614  0.919913  1
  Ba  Ba48  1  0.724291  0.068475  0.284977  1
  Ba  Ba49  1  0.775709  0.431525  0.784977  1
  Ba  Ba50  1  0.275709  0.931525  0.715023  1
  Ba  Ba51  1  0.224291  0.568475  0.215023  1
