# generated using pymatgen
data_SrCu2(PO4)2
_symmetry_space_group_name_H-M   'P 1'
_cell_length_a   8.05597000
_cell_length_b   10.54893129
_cell_length_c   15.55133664
_cell_angle_alpha   90.00000000
_cell_angle_beta   90.00000000
_cell_angle_gamma   90.00000000
_symmetry_Int_Tables_number   1
_chemical_formula_structural   SrCu2(PO4)2
_chemical_formula_sum   'Sr8 Cu16 P16 O64'
_cell_volume   1321.58173094
_cell_formula_units_Z   8
loop_
 _symmetry_equiv_pos_site_id
 _symmetry_equiv_pos_as_xyz
  1  'x, y, z'
loop_
 _atom_site_type_symbol
 _atom_site_label
 _atom_site_symmetry_multiplicity
 _atom_site_fract_x
 _atom_site_fract_y
 _atom_site_fract_z
 _atom_site_occupancy
  Sr  Sr0  1  0.972137  0.086130  0.124003  1
  Sr  Sr1  1  0.472137  0.913870  0.624003  1
  Sr  Sr2  1  0.027863  0.413870  0.624003  1
  Sr  Sr3  1  0.527863  0.086130  0.375997  1
  Sr  Sr4  1  0.527863  0.586130  0.124003  1
  Sr  Sr5  1  0.972137  0.586130  0.375997  1
  Sr  Sr6  1  0.027863  0.913870  0.875997  1
  Sr  Sr7  1  0.472137  0.413870  0.875997  1
  Cu  Cu8  1  0.082422  0.949372  0.327378  1
  Cu  Cu9  1  0.917578  0.050628  0.672622  1
  Cu  Cu10  1  0.906098  0.709845  0.076690  1
  Cu  Cu11  1  0.082422  0.449372  0.172622  1
  Cu  Cu12  1  0.917578  0.550628  0.827378  1
  Cu  Cu13  1  0.593902  0.209845  0.076690  1
  Cu  Cu14  1  0.093902  0.290155  0.923310  1
  Cu  Cu15  1  0.406098  0.790155  0.923310  1
  Cu  Cu16  1  0.406098  0.290155  0.576690  1
  Cu  Cu17  1  0.593902  0.709845  0.423310  1
  Cu  Cu18  1  0.417578  0.449372  0.327378  1
  Cu  Cu19  1  0.417578  0.949372  0.172622  1
  Cu  Cu20  1  0.582422  0.550628  0.672622  1
  Cu  Cu21  1  0.582422  0.050628  0.827378  1
  Cu  Cu22  1  0.093902  0.790155  0.576690  1
  Cu  Cu23  1  0.906098  0.209845  0.423310  1
  P  P24  1  0.250000  0.672184  0.750000  1
  P  P25  1  0.750000  0.295724  0.750000  1
  P  P26  1  0.795403  0.430313  0.006645  1
  P  P27  1  0.250000  0.172184  0.750000  1
  P  P28  1  0.204597  0.069687  0.506645  1
  P  P29  1  0.295403  0.069687  0.993355  1
  P  P30  1  0.250000  0.704276  0.250000  1
  P  P31  1  0.704597  0.930313  0.006645  1
  P  P32  1  0.750000  0.795724  0.750000  1
  P  P33  1  0.750000  0.327816  0.250000  1
  P  P34  1  0.204597  0.569687  0.993355  1
  P  P35  1  0.704597  0.430313  0.493355  1
  P  P36  1  0.750000  0.827816  0.250000  1
  P  P37  1  0.795403  0.930313  0.493355  1
  P  P38  1  0.250000  0.204276  0.250000  1
  P  P39  1  0.295403  0.569687  0.506645  1
  O  O40  1  0.653462  0.526145  0.421232  1
  O  O41  1  0.767826  0.497186  0.919175  1
  O  O42  1  0.086294  0.184917  0.503927  1
  O  O43  1  0.913706  0.315083  0.003927  1
  O  O44  1  0.591535  0.911494  0.257895  1
  O  O45  1  0.267826  0.002814  0.080825  1
  O  O46  1  0.758781  0.241958  0.168666  1
  O  O47  1  0.615012  0.884989  0.468215  1
  O  O48  1  0.741219  0.241958  0.331334  1
  O  O49  1  0.241219  0.258042  0.668666  1
  O  O50  1  0.903731  0.379575  0.773762  1
  O  O51  1  0.758781  0.741958  0.331334  1
  O  O52  1  0.096269  0.120425  0.273762  1
  O  O53  1  0.096269  0.620425  0.226238  1
  O  O54  1  0.908465  0.411494  0.257895  1
  O  O55  1  0.653462  0.026145  0.078768  1
  O  O56  1  0.741219  0.741958  0.168666  1
  O  O57  1  0.308582  0.281205  0.329341  1
  O  O58  1  0.191418  0.281205  0.170659  1
  O  O59  1  0.258781  0.758042  0.668666  1
  O  O60  1  0.115012  0.615011  0.531785  1
  O  O61  1  0.403731  0.120425  0.226238  1
  O  O62  1  0.091535  0.088506  0.757895  1
  O  O63  1  0.232174  0.502814  0.080825  1
  O  O64  1  0.591535  0.411494  0.242105  1
  O  O65  1  0.153462  0.473855  0.921232  1
  O  O66  1  0.732174  0.997186  0.919175  1
  O  O67  1  0.091535  0.588506  0.742105  1
  O  O68  1  0.884988  0.384989  0.468215  1
  O  O69  1  0.913706  0.815083  0.496073  1
  O  O70  1  0.086294  0.684917  0.996073  1
  O  O71  1  0.258781  0.258042  0.831334  1
  O  O72  1  0.241219  0.758042  0.831334  1
  O  O73  1  0.413706  0.684917  0.503927  1
  O  O74  1  0.267826  0.502814  0.419175  1
  O  O75  1  0.408465  0.588506  0.757895  1
  O  O76  1  0.403731  0.620425  0.273762  1
  O  O77  1  0.767826  0.997186  0.580825  1
  O  O78  1  0.808582  0.218795  0.670659  1
  O  O79  1  0.808582  0.718795  0.829341  1
  O  O80  1  0.903731  0.879575  0.726238  1
  O  O81  1  0.346538  0.973855  0.921232  1
  O  O82  1  0.596269  0.379575  0.726238  1
  O  O83  1  0.384988  0.115011  0.531785  1
  O  O84  1  0.586294  0.815083  0.003927  1
  O  O85  1  0.191418  0.781205  0.329341  1
  O  O86  1  0.408465  0.088506  0.742105  1
  O  O87  1  0.586294  0.315083  0.496073  1
  O  O88  1  0.384988  0.615011  0.968215  1
  O  O89  1  0.846538  0.026145  0.421232  1
  O  O90  1  0.732174  0.497186  0.580825  1
  O  O91  1  0.232174  0.002814  0.419175  1
  O  O92  1  0.908465  0.911494  0.242105  1
  O  O93  1  0.413706  0.184917  0.996073  1
  O  O94  1  0.153462  0.973855  0.578768  1
  O  O95  1  0.308582  0.781205  0.170659  1
  O  O96  1  0.115012  0.115011  0.968215  1
  O  O97  1  0.691418  0.718795  0.670659  1
  O  O98  1  0.615012  0.384989  0.031785  1
  O  O99  1  0.846538  0.526145  0.078768  1
  O  O100  1  0.596269  0.879575  0.773762  1
  O  O101  1  0.346538  0.473855  0.578768  1
  O  O102  1  0.884988  0.884989  0.031785  1
  O  O103  1  0.691418  0.218795  0.829341  1
