# generated using pymatgen
data_Tl2Cr3O12
_symmetry_space_group_name_H-M   'P 1'
_cell_length_a   8.97906403
_cell_length_b   8.99104072
_cell_length_c   13.17414822
_cell_angle_alpha   90.00000000
_cell_angle_beta   90.00000000
_cell_angle_gamma   90.00000000
_symmetry_Int_Tables_number   1
_chemical_formula_structural   Tl2Cr3O12
_chemical_formula_sum   'Tl8 Cr12 O48'
_cell_volume   1063.56387682
_cell_formula_units_Z   4
loop_
 _symmetry_equiv_pos_site_id
 _symmetry_equiv_pos_as_xyz
  1  'x, y, z'
loop_
 _atom_site_type_symbol
 _atom_site_label
 _atom_site_symmetry_multiplicity
 _atom_site_fract_x
 _atom_site_fract_y
 _atom_site_fract_z
 _atom_site_occupancy
  Tl  Tl0  1  0.602694  0.746136  0.592808  1
  Tl  Tl1  1  0.102694  0.753864  0.907192  1
  Tl  Tl2  1  0.897306  0.746136  0.407192  1
  Tl  Tl3  1  0.397306  0.753864  0.092808  1
  Tl  Tl4  1  0.397306  0.253864  0.407192  1
  Tl  Tl5  1  0.897306  0.246136  0.092808  1
  Tl  Tl6  1  0.102694  0.253864  0.592808  1
  Tl  Tl7  1  0.602694  0.246136  0.907192  1
  Cr  Cr8  1  0.750000  0.102205  0.500000  1
  Cr  Cr9  1  0.250000  0.397795  0.000000  1
  Cr  Cr10  1  0.250000  0.897795  0.500000  1
  Cr  Cr11  1  0.750000  0.602205  0.000000  1
  Cr  Cr12  1  0.966355  0.114419  0.831389  1
  Cr  Cr13  1  0.466355  0.385581  0.668611  1
  Cr  Cr14  1  0.533645  0.114419  0.168611  1
  Cr  Cr15  1  0.033645  0.385581  0.331389  1
  Cr  Cr16  1  0.033645  0.885581  0.168611  1
  Cr  Cr17  1  0.533645  0.614419  0.331389  1
  Cr  Cr18  1  0.466355  0.885581  0.831389  1
  Cr  Cr19  1  0.966355  0.614419  0.668611  1
  O  O20  1  0.647789  0.495341  0.924648  1
  O  O21  1  0.147789  0.004659  0.575352  1
  O  O22  1  0.852211  0.495341  0.075352  1
  O  O23  1  0.352211  0.004659  0.424648  1
  O  O24  1  0.352211  0.504659  0.075352  1
  O  O25  1  0.852211  0.995341  0.424648  1
  O  O26  1  0.147789  0.504659  0.924648  1
  O  O27  1  0.647789  0.995341  0.575352  1
  O  O28  1  0.421213  0.002602  0.102102  1
  O  O29  1  0.921213  0.497398  0.397898  1
  O  O30  1  0.078787  0.002602  0.897898  1
  O  O31  1  0.578787  0.497398  0.602102  1
  O  O32  1  0.578787  0.997398  0.897898  1
  O  O33  1  0.078787  0.502602  0.602102  1
  O  O34  1  0.921213  0.997398  0.102102  1
  O  O35  1  0.421213  0.502602  0.397898  1
  O  O36  1  0.639584  0.712567  0.069502  1
  O  O37  1  0.360416  0.287433  0.930498  1
  O  O38  1  0.139584  0.287433  0.069502  1
  O  O39  1  0.639584  0.212567  0.430498  1
  O  O40  1  0.644190  0.717395  0.416519  1
  O  O41  1  0.144190  0.782605  0.083481  1
  O  O42  1  0.855810  0.717395  0.583481  1
  O  O43  1  0.355810  0.782605  0.916519  1
  O  O44  1  0.355810  0.282605  0.583481  1
  O  O45  1  0.855810  0.217395  0.916519  1
  O  O46  1  0.144190  0.282605  0.416519  1
  O  O47  1  0.644190  0.217395  0.083481  1
  O  O48  1  0.639040  0.017943  0.239796  1
  O  O49  1  0.139040  0.482057  0.260204  1
  O  O50  1  0.860960  0.017943  0.760204  1
  O  O51  1  0.360960  0.482057  0.739796  1
  O  O52  1  0.360960  0.982057  0.760204  1
  O  O53  1  0.860960  0.517943  0.739796  1
  O  O54  1  0.139040  0.982057  0.239796  1
  O  O55  1  0.639040  0.517943  0.260204  1
  O  O56  1  0.428285  0.728847  0.260583  1
  O  O57  1  0.928285  0.771153  0.239417  1
  O  O58  1  0.071715  0.728847  0.739417  1
  O  O59  1  0.571715  0.771153  0.760583  1
  O  O60  1  0.571715  0.271153  0.739417  1
  O  O61  1  0.071715  0.228847  0.760583  1
  O  O62  1  0.928285  0.271153  0.260583  1
  O  O63  1  0.428285  0.228847  0.239417  1
  O  O64  1  0.360416  0.787433  0.569502  1
  O  O65  1  0.860416  0.712567  0.930498  1
  O  O66  1  0.139584  0.787433  0.430498  1
  O  O67  1  0.860416  0.212567  0.569502  1
