# generated using pymatgen
data_PICl8
_symmetry_space_group_name_H-M   'P 1'
_cell_length_a   12.29507509
_cell_length_b   12.29507544
_cell_length_c   12.29507486
_cell_angle_alpha   93.89789544
_cell_angle_beta   117.24832479
_cell_angle_gamma   118.30554777
_symmetry_Int_Tables_number   1
_chemical_formula_structural   PICl8
_chemical_formula_sum   'P4 I4 Cl32'
_cell_volume   1354.88771337
_cell_formula_units_Z   4
loop_
 _symmetry_equiv_pos_site_id
 _symmetry_equiv_pos_as_xyz
  1  'x, y, z'
loop_
 _atom_site_type_symbol
 _atom_site_label
 _atom_site_symmetry_multiplicity
 _atom_site_fract_x
 _atom_site_fract_y
 _atom_site_fract_z
 _atom_site_occupancy
  P  P0  1  0.500000  0.746484  0.746484  1
  P  P1  1  1.000000  0.253516  0.753516  1
  P  P2  1  0.000000  0.746484  0.246484  1
  P  P3  1  0.500000  0.253516  0.253516  1
  I  I4  1  0.060377  0.310377  0.250000  1
  I  I5  1  0.571557  0.821557  0.250000  1
  I  I6  1  0.428443  0.178443  0.750000  1
  I  I7  1  0.939623  0.689623  0.750000  1
  Cl  Cl8  1  0.824173  0.241306  0.726237  1
  Cl  Cl9  1  0.771098  0.021098  0.250000  1
  Cl  Cl10  1  0.677053  0.912605  0.893089  1
  Cl  Cl11  1  0.019516  0.283964  0.606911  1
  Cl  Cl12  1  0.431189  0.332093  0.900904  1
  Cl  Cl13  1  0.677053  0.283964  0.264448  1
  Cl  Cl14  1  0.431189  0.030285  0.599096  1
  Cl  Cl15  1  0.228902  0.978902  0.750000  1
  Cl  Cl16  1  0.824173  0.597936  0.082867  1
  Cl  Cl17  1  0.941038  0.539895  0.598856  1
  Cl  Cl18  1  0.322947  0.716036  0.735552  1
  Cl  Cl19  1  0.860560  0.307723  0.052837  1
  Cl  Cl20  1  0.631117  0.381117  0.750000  1
  Cl  Cl21  1  0.175827  0.758694  0.273763  1
  Cl  Cl22  1  0.058962  0.157818  0.098856  1
  Cl  Cl23  1  0.254886  0.307723  0.447163  1
  Cl  Cl24  1  0.484931  0.402064  0.226237  1
  Cl  Cl25  1  0.568811  0.969715  0.400904  1
  Cl  Cl26  1  0.058962  0.460105  0.401144  1
  Cl  Cl27  1  0.980484  0.087395  0.764448  1
  Cl  Cl28  1  0.745114  0.692277  0.552837  1
  Cl  Cl29  1  0.175827  0.402064  0.917133  1
  Cl  Cl30  1  0.019516  0.912605  0.235552  1
  Cl  Cl31  1  0.484931  0.758694  0.582867  1
  Cl  Cl32  1  0.368883  0.618883  0.250000  1
  Cl  Cl33  1  0.515069  0.597936  0.773763  1
  Cl  Cl34  1  0.941038  0.842182  0.901144  1
  Cl  Cl35  1  0.322947  0.087395  0.106911  1
  Cl  Cl36  1  0.515069  0.241306  0.417133  1
  Cl  Cl37  1  0.980484  0.716036  0.393089  1
  Cl  Cl38  1  0.568811  0.667907  0.099096  1
  Cl  Cl39  1  0.139440  0.692277  0.947163  1
