# generated using pymatgen
data_Al8C3N4
_symmetry_space_group_name_H-M   'P 1'
_cell_length_a   18.62713956
_cell_length_b   18.62713953
_cell_length_c   18.62714053
_cell_angle_alpha   9.95994517
_cell_angle_beta   9.95994576
_cell_angle_gamma   9.95994466
_symmetry_Int_Tables_number   1
_chemical_formula_structural   Al8C3N4
_chemical_formula_sum   'Al8 C3 N4'
_cell_volume   167.86149419
_cell_formula_units_Z   1
loop_
 _symmetry_equiv_pos_site_id
 _symmetry_equiv_pos_as_xyz
  1  'x, y, z'
loop_
 _atom_site_type_symbol
 _atom_site_label
 _atom_site_symmetry_multiplicity
 _atom_site_fract_x
 _atom_site_fract_y
 _atom_site_fract_z
 _atom_site_occupancy
  Al  Al0  1  0.684364  0.684364  0.684364  1
  Al  Al1  1  0.062680  0.062680  0.062680  1
  Al  Al2  1  0.774748  0.774748  0.774748  1
  Al  Al3  1  0.150236  0.150236  0.150236  1
  Al  Al4  1  0.850383  0.850383  0.850383  1
  Al  Al5  1  0.225877  0.225877  0.225877  1
  Al  Al6  1  0.937888  0.937888  0.937888  1
  Al  Al7  1  0.316157  0.316157  0.316157  1
  C  C8  1  0.000274  0.000274  0.000274  1
  C  C9  1  0.810172  0.810172  0.810172  1
  C  C10  1  0.190450  0.190450  0.190450  1
  N  N11  1  0.717736  0.717736  0.717736  1
  N  N12  1  0.096102  0.096102  0.096102  1
  N  N13  1  0.904487  0.904487  0.904487  1
  N  N14  1  0.282844  0.282844  0.282844  1
