# generated using pymatgen
data_CeMnSi2
_symmetry_space_group_name_H-M   'P 1'
_cell_length_a   3.98481839
_cell_length_b   4.06704444
_cell_length_c   8.82170036
_cell_angle_alpha   103.32731349
_cell_angle_beta   90.00000000
_cell_angle_gamma   90.00000000
_symmetry_Int_Tables_number   1
_chemical_formula_structural   CeMnSi2
_chemical_formula_sum   'Ce2 Mn2 Si4'
_cell_volume   139.11803443
_cell_formula_units_Z   2
loop_
 _symmetry_equiv_pos_site_id
 _symmetry_equiv_pos_as_xyz
  1  'x, y, z'
loop_
 _atom_site_type_symbol
 _atom_site_label
 _atom_site_symmetry_multiplicity
 _atom_site_fract_x
 _atom_site_fract_y
 _atom_site_fract_z
 _atom_site_occupancy
  Si  Si0  1  0.250000  0.677321  0.354641  1
  Si  Si1  1  0.750000  0.322679  0.645359  1
  Si  Si2  1  0.750000  0.464233  0.928465  1
  Si  Si3  1  0.250000  0.535767  0.071535  1
  Mn  Mn4  1  0.750000  0.751274  0.502548  1
  Mn  Mn5  1  0.250000  0.248726  0.497452  1
  Ce  Ce6  1  0.250000  0.896910  0.793820  1
  Ce  Ce7  1  0.750000  0.103090  0.206180  1
