# generated using pymatgen
data_Zn2P2O7
_symmetry_space_group_name_H-M   'P 1'
_cell_length_a   8.38908581
_cell_length_b   9.23807303
_cell_length_c   10.80499618
_cell_angle_alpha   98.75067798
_cell_angle_beta   112.84279795
_cell_angle_gamma   90.00000167
_symmetry_Int_Tables_number   1
_chemical_formula_structural   Zn2P2O7
_chemical_formula_sum   'Zn12 P12 O42'
_cell_volume   761.11583574
_cell_formula_units_Z   6
loop_
 _symmetry_equiv_pos_site_id
 _symmetry_equiv_pos_as_xyz
  1  'x, y, z'
loop_
 _atom_site_type_symbol
 _atom_site_label
 _atom_site_symmetry_multiplicity
 _atom_site_fract_x
 _atom_site_fract_y
 _atom_site_fract_z
 _atom_site_occupancy
  Zn  Zn0  1  0.701888  0.040606  0.028433  1
  Zn  Zn1  1  0.673455  0.459394  0.971567  1
  Zn  Zn2  1  0.298112  0.959394  0.971567  1
  Zn  Zn3  1  0.326545  0.540606  0.028433  1
  P  P4  1  0.045923  0.861323  0.130880  1
  P  P5  1  0.915043  0.638677  0.869120  1
  P  P6  1  0.954077  0.138677  0.869120  1
  P  P7  1  0.084957  0.361323  0.130880  1
  O  O8  1  0.913717  0.750000  0.000000  1
  O  O9  1  0.086283  0.250000  1.000000  1
  O  O10  1  0.869638  0.731682  0.753548  1
  O  O11  1  0.116090  0.768318  0.246452  1
  O  O12  1  0.130362  0.268318  0.246452  1
  O  O13  1  0.883910  0.231682  0.753548  1
  O  O14  1  0.762681  0.525521  0.836230  1
  O  O15  1  0.926451  0.974479  0.163770  1
  O  O16  1  0.237319  0.474479  0.163770  1
  O  O17  1  0.073549  0.025521  0.836230  1
  O  O18  1  0.188866  0.927104  0.100465  1
  O  O19  1  0.088401  0.572896  0.899535  1
  O  O20  1  0.811134  0.072896  0.899535  1
  O  O21  1  0.911599  0.427104  0.100465  1
  Zn  Zn22  1  0.981975  0.161830  0.326281  1
  Zn  Zn23  1  0.655694  0.338170  0.673719  1
  Zn  Zn24  1  0.018025  0.838170  0.673719  1
  Zn  Zn25  1  0.344306  0.661830  0.326281  1
  Zn  Zn26  1  0.372508  0.210361  0.367173  1
  Zn  Zn27  1  0.005335  0.289639  0.632827  1
  Zn  Zn28  1  0.627492  0.789639  0.632827  1
  Zn  Zn29  1  0.994665  0.710361  0.367173  1
  P  P30  1  0.595506  0.819125  0.205703  1
  P  P31  1  0.389803  0.680875  0.794297  1
  P  P32  1  0.404494  0.180875  0.794297  1
  P  P33  1  0.610197  0.319125  0.205703  1
  P  P34  1  0.720156  0.036997  0.476608  1
  P  P35  1  0.243548  0.463003  0.523392  1
  P  P36  1  0.279844  0.963003  0.523392  1
  P  P37  1  0.756452  0.536997  0.476608  1
  O  O38  1  0.607274  0.947029  0.329351  1
  O  O39  1  0.277923  0.552971  0.670649  1
  O  O40  1  0.392726  0.052971  0.670649  1
  O  O41  1  0.722077  0.447029  0.329351  1
  O  O42  1  0.545983  0.900239  0.081983  1
  O  O43  1  0.464000  0.599761  0.918017  1
  O  O44  1  0.454017  0.099761  0.918017  1
  O  O45  1  0.536000  0.400239  0.081983  1
  O  O46  1  0.779141  0.928019  0.577993  1
  O  O47  1  0.201148  0.571981  0.422007  1
  O  O48  1  0.220859  0.071981  0.422007  1
  O  O49  1  0.798852  0.428019  0.577993  1
  O  O50  1  0.443297  0.713630  0.189710  1
  O  O51  1  0.253587  0.786370  0.810290  1
  O  O52  1  0.556703  0.286370  0.810290  1
  O  O53  1  0.746413  0.213630  0.189710  1
  O  O54  1  0.594334  0.143768  0.506296  1
  O  O55  1  0.088038  0.356232  0.493704  1
  O  O56  1  0.405666  0.856232  0.493704  1
  O  O57  1  0.911962  0.643768  0.506296  1
  O  O58  1  0.762864  0.744665  0.236308  1
  O  O59  1  0.526556  0.755335  0.763692  1
  O  O60  1  0.237136  0.255335  0.763692  1
  O  O61  1  0.473444  0.244665  0.236308  1
  O  O62  1  0.877222  0.116942  0.469512  1
  O  O63  1  0.407710  0.383058  0.530488  1
  O  O64  1  0.122778  0.883058  0.530488  1
  O  O65  1  0.592290  0.616942  0.469512  1
