# generated using pymatgen
data_Rb2Mo2H4C4O15
_symmetry_space_group_name_H-M   'P 1'
_cell_length_a   7.03023005
_cell_length_b   7.80941348
_cell_length_c   14.53349074
_cell_angle_alpha   90.00000000
_cell_angle_beta   90.00000000
_cell_angle_gamma   94.47768637
_symmetry_Int_Tables_number   1
_chemical_formula_structural   Rb2Mo2H4C4O15
_chemical_formula_sum   'Rb4 Mo4 H8 C8 O30'
_cell_volume   795.48192851
_cell_formula_units_Z   2
loop_
 _symmetry_equiv_pos_site_id
 _symmetry_equiv_pos_as_xyz
  1  'x, y, z'
loop_
 _atom_site_type_symbol
 _atom_site_label
 _atom_site_symmetry_multiplicity
 _atom_site_fract_x
 _atom_site_fract_y
 _atom_site_fract_z
 _atom_site_occupancy
  Rb  Rb0  1  0.872842  0.191587  0.362804  1
  Rb  Rb1  1  0.627158  0.808413  0.862804  1
  Rb  Rb2  1  0.127158  0.808413  0.637196  1
  Rb  Rb3  1  0.372842  0.191587  0.137196  1
  Mo  Mo4  1  0.616106  0.105541  0.606930  1
  Mo  Mo5  1  0.883894  0.894459  0.106930  1
  Mo  Mo6  1  0.116106  0.105541  0.893070  1
  Mo  Mo7  1  0.383894  0.894459  0.393070  1
  H  H8  1  0.274220  0.289659  0.564525  1
  H  H9  1  0.773599  0.260312  0.824932  1
  H  H10  1  0.226401  0.739688  0.175068  1
  H  H11  1  0.273599  0.260312  0.675068  1
  H  H12  1  0.726401  0.739688  0.324931  1
  H  H13  1  0.774220  0.289659  0.935475  1
  H  H14  1  0.725780  0.710341  0.435475  1
  H  H15  1  0.225780  0.710341  0.064525  1
  C  C16  1  0.239836  0.479681  0.929986  1
  C  C17  1  0.251987  0.456876  0.823788  1
  C  C18  1  0.260164  0.520319  0.429986  1
  C  C19  1  0.751987  0.456876  0.676212  1
  C  C20  1  0.248013  0.543124  0.323788  1
  C  C21  1  0.760164  0.520319  0.070014  1
  C  C22  1  0.748013  0.543124  0.176212  1
  C  C23  1  0.739836  0.479681  0.570014  1
  O  O24  1  0.530904  0.969823  0.695260  1
  O  O25  1  0.349545  0.056516  0.910214  1
  O  O26  1  0.185319  0.426318  0.272721  1
  O  O27  1  0.150455  0.943484  0.410214  1
  O  O28  1  0.799972  0.618287  0.534436  1
  O  O29  1  0.814681  0.573682  0.727279  1
  O  O30  1  0.179451  0.781798  0.115824  1
  O  O31  1  0.650455  0.943484  0.089786  1
  O  O32  1  0.314681  0.573682  0.772721  1
  O  O33  1  0.849545  0.056516  0.589786  1
  O  O34  1  0.832968  0.655001  0.027446  1
  O  O35  1  0.309142  0.697663  0.295526  1
  O  O36  1  0.190858  0.302337  0.795526  1
  O  O37  1  0.969096  0.030177  0.195260  1
  O  O38  1  0.700028  0.381713  0.034436  1
  O  O39  1  0.167032  0.344999  0.972554  1
  O  O40  1  0.299972  0.618287  0.965564  1
  O  O41  1  0.332968  0.655001  0.472554  1
  O  O42  1  0.820549  0.218202  0.884176  1
  O  O43  1  0.809142  0.697663  0.204474  1
  O  O44  1  0.000000  0.000000  0.000000  1
  O  O45  1  0.679451  0.781798  0.384176  1
  O  O46  1  0.685319  0.426318  0.227279  1
  O  O47  1  0.667032  0.344999  0.527446  1
  O  O48  1  0.200028  0.381713  0.465564  1
  O  O49  1  0.030904  0.969823  0.804740  1
  O  O50  1  0.690858  0.302337  0.704474  1
  O  O51  1  0.320549  0.218202  0.615824  1
  O  O52  1  0.469096  0.030177  0.304740  1
  O  O53  1  0.500000  0.000000  0.500000  1
