# generated using pymatgen
data_Sr(PO3)2
_symmetry_space_group_name_H-M   'P 1'
_cell_length_a   7.50022998
_cell_length_b   7.49566802
_cell_length_c   18.88910117
_cell_angle_alpha   90.00000000
_cell_angle_beta   90.00000000
_cell_angle_gamma   90.25156702
_symmetry_Int_Tables_number   1
_chemical_formula_structural   Sr(PO3)2
_chemical_formula_sum   'Sr8 P16 O48'
_cell_volume   1061.92056316
_cell_formula_units_Z   8
loop_
 _symmetry_equiv_pos_site_id
 _symmetry_equiv_pos_as_xyz
  1  'x, y, z'
loop_
 _atom_site_type_symbol
 _atom_site_label
 _atom_site_symmetry_multiplicity
 _atom_site_fract_x
 _atom_site_fract_y
 _atom_site_fract_z
 _atom_site_occupancy
  Sr  Sr0  1  0.991925  0.001798  0.731893  1
  Sr  Sr1  1  0.008075  0.998202  0.231893  1
  Sr  Sr2  1  0.509246  0.992600  0.106576  1
  Sr  Sr3  1  0.500703  0.491799  0.980491  1
  Sr  Sr4  1  0.997258  0.497551  0.355345  1
  Sr  Sr5  1  0.490754  0.007400  0.606576  1
  Sr  Sr6  1  0.499297  0.508201  0.480491  1
  Sr  Sr7  1  0.002742  0.502449  0.855345  1
  P  P8  1  0.486294  0.951571  0.777773  1
  P  P9  1  0.486909  0.552267  0.807268  1
  P  P10  1  0.513091  0.447733  0.307268  1
  P  P11  1  0.054338  0.494869  0.182781  1
  P  P12  1  0.983804  0.445885  0.028530  1
  P  P13  1  0.009884  0.955894  0.558623  1
  P  P14  1  0.016196  0.554115  0.528530  1
  P  P15  1  0.449104  0.008561  0.933332  1
  P  P16  1  0.453650  0.490411  0.152169  1
  P  P17  1  0.990116  0.044106  0.058623  1
  P  P18  1  0.550896  0.991439  0.433332  1
  P  P19  1  0.949732  0.991987  0.403196  1
  P  P20  1  0.050268  0.008013  0.903196  1
  P  P21  1  0.546350  0.509589  0.652169  1
  P  P22  1  0.513706  0.048429  0.277773  1
  P  P23  1  0.945662  0.505131  0.682781  1
  O  O24  1  0.654612  0.532648  0.352875  1
  O  O25  1  0.672567  0.551800  0.836555  1
  O  O26  1  0.958189  0.165639  0.870709  1
  O  O27  1  0.974882  0.957582  0.980591  1
  O  O28  1  0.476219  0.459244  0.730274  1
  O  O29  1  0.452372  0.822069  0.961801  1
  O  O30  1  0.345388  0.467352  0.852875  1
  O  O31  1  0.046751  0.840015  0.859749  1
  O  O32  1  0.166919  0.454632  0.996801  1
  O  O33  1  0.418982  0.750733  0.791049  1
  O  O34  1  0.953249  0.159985  0.359749  1
  O  O35  1  0.461669  0.978532  0.355750  1
  O  O36  1  0.848573  0.959737  0.104230  1
  O  O37  1  0.176605  0.037130  0.086940  1
  O  O38  1  0.975494  0.539924  0.105352  1
  O  O39  1  0.523781  0.540756  0.230274  1
  O  O40  1  0.041811  0.834361  0.370709  1
  O  O41  1  0.547628  0.177931  0.461801  1
  O  O42  1  0.539037  0.341966  0.608417  1
  O  O43  1  0.671558  0.954032  0.246804  1
  O  O44  1  0.037300  0.661258  0.717267  1
  O  O45  1  0.837492  0.523125  0.983627  1
  O  O46  1  0.025118  0.042418  0.480591  1
  O  O47  1  0.823395  0.962870  0.586940  1
  O  O48  1  0.055264  0.664811  0.224987  1
  O  O49  1  0.924884  0.245076  0.046034  1
  O  O50  1  0.327433  0.448200  0.336555  1
  O  O51  1  0.538331  0.021468  0.855750  1
  O  O52  1  0.534664  0.149559  0.978895  1
  O  O53  1  0.944736  0.335189  0.724987  1
  O  O54  1  0.750503  0.923743  0.418959  1
  O  O55  1  0.962700  0.338742  0.217267  1
  O  O56  1  0.581018  0.249267  0.291049  1
  O  O57  1  0.465336  0.850441  0.478895  1
  O  O58  1  0.151427  0.040263  0.604230  1
  O  O59  1  0.249497  0.076257  0.918959  1
  O  O60  1  0.075116  0.754924  0.546034  1
  O  O61  1  0.328442  0.045968  0.746804  1
  O  O62  1  0.454151  0.668362  0.620919  1
  O  O63  1  0.251988  0.425966  0.165460  1
  O  O64  1  0.545849  0.331638  0.120919  1
  O  O65  1  0.024506  0.460076  0.605352  1
  O  O66  1  0.162508  0.476875  0.483627  1
  O  O67  1  0.748012  0.574034  0.665460  1
  O  O68  1  0.653807  0.957590  0.733957  1
  O  O69  1  0.460963  0.658034  0.108417  1
  O  O70  1  0.346193  0.042410  0.233957  1
  O  O71  1  0.833081  0.545368  0.496801  1
