# generated using pymatgen
data_LiBH2
_symmetry_space_group_name_H-M   'P 1'
_cell_length_a   3.03507219
_cell_length_b   5.62219353
_cell_length_c   8.21698826
_cell_angle_alpha   90.00000000
_cell_angle_beta   90.00000000
_cell_angle_gamma   90.00000000
_symmetry_Int_Tables_number   1
_chemical_formula_structural   LiBH2
_chemical_formula_sum   'Li4 B4 H8'
_cell_volume   140.21274213
_cell_formula_units_Z   4
loop_
 _symmetry_equiv_pos_site_id
 _symmetry_equiv_pos_as_xyz
  1  'x, y, z'
loop_
 _atom_site_type_symbol
 _atom_site_label
 _atom_site_symmetry_multiplicity
 _atom_site_fract_x
 _atom_site_fract_y
 _atom_site_fract_z
 _atom_site_occupancy
  Li  Li0  1  0.750000  0.850176  0.761809  1
  Li  Li1  1  0.750000  0.649824  0.261809  1
  Li  Li2  1  0.250000  0.350176  0.738191  1
  Li  Li3  1  0.250000  0.149824  0.238191  1
  B  B4  1  0.250000  0.422252  0.455554  1
  B  B5  1  0.250000  0.077748  0.955554  1
  B  B6  1  0.750000  0.922252  0.044446  1
  B  B7  1  0.750000  0.577748  0.544446  1
  H  H8  1  0.750000  0.432669  0.410529  1
  H  H9  1  0.750000  0.720275  0.986781  1
  H  H10  1  0.250000  0.279725  0.013219  1
  H  H11  1  0.250000  0.220275  0.513219  1
  H  H12  1  0.250000  0.567331  0.589471  1
  H  H13  1  0.750000  0.779725  0.486781  1
  H  H14  1  0.250000  0.932669  0.089471  1
  H  H15  1  0.750000  0.067331  0.910529  1
