# generated using pymatgen
data_SiO2
_symmetry_space_group_name_H-M   'P 1'
_cell_length_a   9.95923679
_cell_length_b   15.80455013
_cell_length_c   15.80455013
_cell_angle_alpha   90.00000000
_cell_angle_beta   90.00000000
_cell_angle_gamma   90.00000000
_symmetry_Int_Tables_number   1
_chemical_formula_structural   SiO2
_chemical_formula_sum   'Si32 O64'
_cell_volume   2487.65605843
_cell_formula_units_Z   32
loop_
 _symmetry_equiv_pos_site_id
 _symmetry_equiv_pos_as_xyz
  1  'x, y, z'
loop_
 _atom_site_type_symbol
 _atom_site_label
 _atom_site_symmetry_multiplicity
 _atom_site_fract_x
 _atom_site_fract_y
 _atom_site_fract_z
 _atom_site_occupancy
  Si  Si0  1  0.642349  0.081362  0.707642  1
  Si  Si1  1  0.156386  0.071992  0.571992  1
  Si  Si2  1  0.843614  0.571992  0.928008  1
  Si  Si3  1  0.156386  0.428008  0.071992  1
  Si  Si4  1  0.642349  0.918638  0.292358  1
  Si  Si5  1  0.642349  0.581362  0.792358  1
  Si  Si6  1  0.357651  0.081362  0.707642  1
  Si  Si7  1  0.357651  0.581362  0.792358  1
  Si  Si8  1  0.500000  0.133830  0.048331  1
  Si  Si9  1  0.500000  0.866170  0.951669  1
  Si  Si10  1  0.642349  0.707642  0.918638  1
  Si  Si11  1  0.357651  0.918638  0.292358  1
  Si  Si12  1  0.843614  0.071992  0.571992  1
  Si  Si13  1  0.357651  0.418638  0.207642  1
  Si  Si14  1  0.357651  0.292358  0.081362  1
  Si  Si15  1  0.500000  0.366170  0.548331  1
  Si  Si16  1  0.357651  0.207642  0.581362  1
  Si  Si17  1  0.156386  0.571992  0.928008  1
  Si  Si18  1  0.500000  0.048331  0.866170  1
  Si  Si19  1  0.357651  0.792358  0.418638  1
  Si  Si20  1  0.500000  0.451669  0.366170  1
  Si  Si21  1  0.642349  0.418638  0.207642  1
  Si  Si22  1  0.500000  0.951669  0.133830  1
  Si  Si23  1  0.642349  0.207642  0.581362  1
  Si  Si24  1  0.642349  0.292358  0.081362  1
  Si  Si25  1  0.357651  0.707642  0.918638  1
  Si  Si26  1  0.156386  0.928008  0.428008  1
  Si  Si27  1  0.843614  0.428008  0.071992  1
  Si  Si28  1  0.500000  0.633830  0.451669  1
  Si  Si29  1  0.843614  0.928008  0.428008  1
  Si  Si30  1  0.642349  0.792358  0.418638  1
  Si  Si31  1  0.500000  0.548331  0.633830  1
  O  O32  1  0.500000  0.828105  0.458670  1
  O  O33  1  0.363697  0.431291  0.310232  1
  O  O34  1  0.636303  0.068709  0.810232  1
  O  O35  1  0.500000  0.458670  0.171895  1
  O  O36  1  0.168192  0.500000  0.000000  1
  O  O37  1  0.636303  0.568709  0.689768  1
  O  O38  1  0.500000  0.541330  0.828105  1
  O  O39  1  0.770059  0.659211  0.961949  1
  O  O40  1  0.831808  0.500000  0.000000  1
  O  O41  1  0.229941  0.538051  0.840789  1
  O  O42  1  0.648588  0.317165  0.182835  1
  O  O43  1  0.229941  0.461949  0.159211  1
  O  O44  1  0.363697  0.810232  0.931291  1
  O  O45  1  0.229941  0.659211  0.961949  1
  O  O46  1  0.351412  0.182835  0.682835  1
  O  O47  1  0.351412  0.817165  0.317165  1
  O  O48  1  0.229941  0.840789  0.461949  1
  O  O49  1  0.500000  0.550790  0.392230  1
  O  O50  1  0.500000  0.449210  0.607770  1
  O  O51  1  0.363697  0.689768  0.431291  1
  O  O52  1  0.351412  0.317165  0.182835  1
  O  O53  1  0.229941  0.159211  0.538051  1
  O  O54  1  0.168192  0.000000  0.500000  1
  O  O55  1  0.363697  0.310232  0.568709  1
  O  O56  1  0.229941  0.340789  0.038051  1
  O  O57  1  0.770059  0.538051  0.840789  1
  O  O58  1  0.500000  0.949210  0.892230  1
  O  O59  1  0.770059  0.461949  0.159211  1
  O  O60  1  0.770059  0.159211  0.538051  1
  O  O61  1  0.500000  0.392230  0.449210  1
  O  O62  1  0.229941  0.961949  0.340789  1
  O  O63  1  0.229941  0.038051  0.659211  1
  O  O64  1  0.648588  0.682835  0.817165  1
  O  O65  1  0.500000  0.050790  0.107770  1
  O  O66  1  0.770059  0.961949  0.340789  1
  O  O67  1  0.363697  0.068709  0.810232  1
  O  O68  1  0.500000  0.892230  0.050790  1
  O  O69  1  0.831808  0.000000  0.500000  1
  O  O70  1  0.636303  0.189768  0.068709  1
  O  O71  1  0.770059  0.840789  0.461949  1
  O  O72  1  0.000000  0.907831  0.407831  1
  O  O73  1  0.000000  0.092169  0.592169  1
  O  O74  1  0.636303  0.931291  0.189768  1
  O  O75  1  0.636303  0.310232  0.568709  1
  O  O76  1  0.000000  0.592169  0.907831  1
  O  O77  1  0.636303  0.810232  0.931291  1
  O  O78  1  0.636303  0.689768  0.431291  1
  O  O79  1  0.648588  0.182835  0.682835  1
  O  O80  1  0.636303  0.431291  0.310232  1
  O  O81  1  0.363697  0.189768  0.068709  1
  O  O82  1  0.770059  0.038051  0.659211  1
  O  O83  1  0.363697  0.931291  0.189768  1
  O  O84  1  0.500000  0.328105  0.041330  1
  O  O85  1  0.770059  0.340789  0.038051  1
  O  O86  1  0.500000  0.958670  0.328105  1
  O  O87  1  0.000000  0.407831  0.092169  1
  O  O88  1  0.648588  0.817165  0.317165  1
  O  O89  1  0.500000  0.107770  0.949210  1
  O  O90  1  0.500000  0.041330  0.671895  1
  O  O91  1  0.363697  0.568709  0.689768  1
  O  O92  1  0.500000  0.171895  0.541330  1
  O  O93  1  0.351412  0.682835  0.817165  1
  O  O94  1  0.500000  0.607770  0.550790  1
  O  O95  1  0.500000  0.671895  0.958670  1
