# generated using pymatgen
data_KEuPdO3
_symmetry_space_group_name_H-M   'P 1'
_cell_length_a   3.98394866
_cell_length_b   6.91814420
_cell_length_c   7.62940810
_cell_angle_alpha   104.17585939
_cell_angle_beta   90.00000000
_cell_angle_gamma   106.73435466
_symmetry_Int_Tables_number   1
_chemical_formula_structural   KEuPdO3
_chemical_formula_sum   'K2 Eu2 Pd2 O6'
_cell_volume   194.67694377
_cell_formula_units_Z   2
loop_
 _symmetry_equiv_pos_site_id
 _symmetry_equiv_pos_as_xyz
  1  'x, y, z'
loop_
 _atom_site_type_symbol
 _atom_site_label
 _atom_site_symmetry_multiplicity
 _atom_site_fract_x
 _atom_site_fract_y
 _atom_site_fract_z
 _atom_site_occupancy
  Eu  Eu0  1  0.650957  0.301914  0.075627  1
  Eu  Eu1  1  0.349043  0.698086  0.924373  1
  K  K2  1  0.355354  0.710707  0.435109  1
  K  K3  1  0.644646  0.289293  0.564891  1
  Pd  Pd4  1  0.992685  0.985370  0.218783  1
  Pd  Pd5  1  0.007315  0.014630  0.781217  1
  O  O6  1  0.829606  0.659212  0.130284  1
  O  O7  1  0.848007  0.696014  0.727751  1
  O  O8  1  0.493739  0.987478  0.183845  1
  O  O9  1  0.506261  0.012522  0.816155  1
  O  O10  1  0.170394  0.340788  0.869716  1
  O  O11  1  0.151993  0.303986  0.272249  1
