# generated using pymatgen
data_Na2HoMoPO8
_symmetry_space_group_name_H-M   'P 1'
_cell_length_a   6.93204992
_cell_length_b   11.48085866
_cell_length_c   11.48085851
_cell_angle_alpha   64.11985781
_cell_angle_beta   72.42848440
_cell_angle_gamma   72.42848633
_symmetry_Int_Tables_number   1
_chemical_formula_structural   Na2HoMoPO8
_chemical_formula_sum   'Na8 Ho4 Mo4 P4 O32'
_cell_volume   768.14986168
_cell_formula_units_Z   4
loop_
 _symmetry_equiv_pos_site_id
 _symmetry_equiv_pos_as_xyz
  1  'x, y, z'
loop_
 _atom_site_type_symbol
 _atom_site_label
 _atom_site_symmetry_multiplicity
 _atom_site_fract_x
 _atom_site_fract_y
 _atom_site_fract_z
 _atom_site_occupancy
  Na  Na0  1  0.642266  0.290608  0.903101  1
  Na  Na1  1  0.142266  0.403101  0.790608  1
  Na  Na2  1  0.164025  0.790608  0.403101  1
  Na  Na3  1  0.357734  0.709392  0.096899  1
  Na  Na4  1  0.335975  0.096899  0.709392  1
  Na  Na5  1  0.664025  0.903101  0.290608  1
  Na  Na6  1  0.857734  0.596899  0.209392  1
  Na  Na7  1  0.835975  0.209392  0.596899  1
  Ho  Ho8  1  0.250000  0.177986  0.322014  1
  Ho  Ho9  1  0.750000  0.822014  0.677986  1
  Ho  Ho10  1  0.250000  0.677986  0.822014  1
  Ho  Ho11  1  0.750000  0.322014  0.177986  1
  Mo  Mo12  1  0.822145  0.927855  0.927855  1
  Mo  Mo13  1  0.322145  0.427855  0.427855  1
  Mo  Mo14  1  0.177855  0.072145  0.072145  1
  Mo  Mo15  1  0.677855  0.572145  0.572145  1
  P  P16  1  0.250000  0.430928  0.069072  1
  P  P17  1  0.750000  0.569072  0.930928  1
  P  P18  1  0.750000  0.069072  0.430928  1
  P  P19  1  0.250000  0.930928  0.569072  1
  O  O20  1  0.669144  0.061083  0.574989  1
  O  O21  1  0.410609  0.604372  0.654183  1
  O  O22  1  0.725967  0.861965  0.101700  1
  O  O23  1  0.067073  0.359395  0.156672  1
  O  O24  1  0.169144  0.074989  0.561083  1
  O  O25  1  0.194784  0.574989  0.061083  1
  O  O26  1  0.274033  0.138035  0.898300  1
  O  O27  1  0.805216  0.425011  0.938917  1
  O  O28  1  0.330856  0.938917  0.425011  1
  O  O29  1  0.669163  0.895628  0.845817  1
  O  O30  1  0.583140  0.140605  0.343328  1
  O  O31  1  0.432927  0.343328  0.140605  1
  O  O32  1  0.225967  0.601700  0.361965  1
  O  O33  1  0.169163  0.345817  0.395628  1
  O  O34  1  0.567073  0.656672  0.859395  1
  O  O35  1  0.689632  0.638035  0.398300  1
  O  O36  1  0.310368  0.361965  0.601700  1
  O  O37  1  0.305216  0.438917  0.925011  1
  O  O38  1  0.916860  0.156672  0.359395  1
  O  O39  1  0.774033  0.398300  0.638035  1
  O  O40  1  0.830856  0.925011  0.438917  1
  O  O41  1  0.910609  0.154183  0.104372  1
  O  O42  1  0.416860  0.859395  0.656672  1
  O  O43  1  0.083140  0.843328  0.640605  1
  O  O44  1  0.330837  0.104372  0.154183  1
  O  O45  1  0.589391  0.395628  0.345817  1
  O  O46  1  0.694784  0.561083  0.074989  1
  O  O47  1  0.830837  0.654183  0.604372  1
  O  O48  1  0.810368  0.101700  0.861965  1
  O  O49  1  0.089391  0.845817  0.895628  1
  O  O50  1  0.932927  0.640605  0.843328  1
  O  O51  1  0.189632  0.898300  0.138035  1
