# generated using pymatgen
data_Ag4HgGe2S7
_symmetry_space_group_name_H-M   'P 1'
_cell_length_a   6.94876600
_cell_length_b   9.56909021
_cell_length_c   10.66264863
_cell_angle_alpha   92.88282450
_cell_angle_beta   90.00000000
_cell_angle_gamma   111.28971273
_symmetry_Int_Tables_number   1
_chemical_formula_structural   Ag4HgGe2S7
_chemical_formula_sum   'Ag8 Hg2 Ge4 S14'
_cell_volume   659.64799176
_cell_formula_units_Z   2
loop_
 _symmetry_equiv_pos_site_id
 _symmetry_equiv_pos_as_xyz
  1  'x, y, z'
loop_
 _atom_site_type_symbol
 _atom_site_label
 _atom_site_symmetry_multiplicity
 _atom_site_fract_x
 _atom_site_fract_y
 _atom_site_fract_z
 _atom_site_occupancy
  Ag  Ag0  1  0.820389  0.991444  1.000707  1
  Ag  Ag1  1  0.171055  0.991444  0.500707  1
  Ag  Ag2  1  0.738778  0.128770  0.387050  1
  Ag  Ag3  1  0.389992  0.128770  0.887050  1
  Ag  Ag4  1  0.894207  0.423855  0.097782  1
  Ag  Ag5  1  0.529647  0.423855  0.597782  1
  Ag  Ag6  1  0.148061  0.548823  0.445353  1
  Ag  Ag7  1  0.400762  0.548823  0.945353  1
  Hg  Hg8  1  0.665542  0.698841  0.287133  1
  Hg  Hg9  1  0.033299  0.698841  0.787133  1
  Ge  Ge10  1  0.254794  0.854336  0.170540  1
  Ge  Ge11  1  0.599542  0.854336  0.670540  1
  Ge  Ge12  1  0.309848  0.273703  0.244511  1
  Ge  Ge13  1  0.963855  0.273703  0.744511  1
  S  S14  1  0.861647  0.061575  0.596519  1
  S  S15  1  0.199929  0.061575  0.096519  1
  S  S16  1  0.032603  0.330936  0.282879  1
  S  S17  1  0.298333  0.330936  0.782879  1
  S  S18  1  0.547657  0.459761  0.141057  1
  S  S19  1  0.912104  0.459761  0.641057  1
  S  S20  1  0.142979  0.669724  0.018619  1
  S  S21  1  0.526744  0.669724  0.518619  1
  S  S22  1  0.064849  0.770320  0.341103  1
  S  S23  1  0.705471  0.770320  0.841103  1
  S  S24  1  0.327026  0.925165  0.704542  1
  S  S25  1  0.598140  0.925165  0.204542  1
  S  S26  1  0.440512  0.222947  0.417605  1
  S  S27  1  0.782434  0.222947  0.917605  1
