# generated using pymatgen
data_Ag4S(NO)2
_symmetry_space_group_name_H-M   'P 1'
_cell_length_a   5.87395542
_cell_length_b   9.19776999
_cell_length_c   10.52191691
_cell_angle_alpha   90.00000000
_cell_angle_beta   90.00000000
_cell_angle_gamma   90.00000000
_symmetry_Int_Tables_number   1
_chemical_formula_structural   Ag4S(NO)2
_chemical_formula_sum   'Ag16 S4 N8 O8'
_cell_volume   568.47066556
_cell_formula_units_Z   4
loop_
 _symmetry_equiv_pos_site_id
 _symmetry_equiv_pos_as_xyz
  1  'x, y, z'
loop_
 _atom_site_type_symbol
 _atom_site_label
 _atom_site_symmetry_multiplicity
 _atom_site_fract_x
 _atom_site_fract_y
 _atom_site_fract_z
 _atom_site_occupancy
  Ag  Ag0  1  0.425256  0.539463  0.859789  1
  Ag  Ag1  1  0.925256  0.039463  0.640211  1
  Ag  Ag2  1  0.199860  0.774398  0.554472  1
  Ag  Ag3  1  0.404879  0.063213  0.399001  1
  Ag  Ag4  1  0.521609  0.216422  0.692509  1
  Ag  Ag5  1  0.300140  0.774398  0.054472  1
  Ag  Ag6  1  0.574744  0.039463  0.140211  1
  Ag  Ag7  1  0.074744  0.539463  0.359789  1
  Ag  Ag8  1  0.699860  0.274398  0.945528  1
  Ag  Ag9  1  0.978391  0.216422  0.192509  1
  Ag  Ag10  1  0.595121  0.563213  0.600999  1
  Ag  Ag11  1  0.800140  0.274398  0.445528  1
  Ag  Ag12  1  0.904879  0.563213  0.100999  1
  Ag  Ag13  1  0.478391  0.716422  0.307491  1
  Ag  Ag14  1  0.021609  0.716422  0.807491  1
  Ag  Ag15  1  0.095121  0.063213  0.899001  1
  S  S16  1  0.901823  0.937393  0.358931  1
  S  S17  1  0.401823  0.437393  0.141069  1
  S  S18  1  0.098177  0.437393  0.641069  1
  S  S19  1  0.598177  0.937393  0.858931  1
  N  N20  1  0.753963  0.084751  0.319331  1
  N  N21  1  0.246037  0.584751  0.680669  1
  N  N22  1  0.746037  0.084751  0.819331  1
  N  N23  1  0.913677  0.476745  0.535277  1
  N  N24  1  0.253963  0.584751  0.180669  1
  N  N25  1  0.413677  0.976745  0.964723  1
  N  N26  1  0.086323  0.976745  0.464723  1
  N  N27  1  0.586323  0.476745  0.035277  1
  O  O28  1  0.736183  0.830855  0.418972  1
  O  O29  1  0.503825  0.377759  0.257846  1
  O  O30  1  0.496175  0.877759  0.742154  1
  O  O31  1  0.003825  0.877759  0.242154  1
  O  O32  1  0.236183  0.330855  0.081028  1
  O  O33  1  0.763817  0.830855  0.918972  1
  O  O34  1  0.996175  0.377759  0.757846  1
  O  O35  1  0.263817  0.330855  0.581028  1
