# generated using pymatgen
data_LiBH15C5NO3
_symmetry_space_group_name_H-M   'P 1'
_cell_length_a   9.49999605
_cell_length_b   9.98284734
_cell_length_c   10.55959287
_cell_angle_alpha   90.00000000
_cell_angle_beta   107.95137689
_cell_angle_gamma   90.00000000
_symmetry_Int_Tables_number   1
_chemical_formula_structural   LiBH15C5NO3
_chemical_formula_sum   'Li4 B4 H60 C20 N4 O12'
_cell_volume   952.68852132
_cell_formula_units_Z   4
loop_
 _symmetry_equiv_pos_site_id
 _symmetry_equiv_pos_as_xyz
  1  'x, y, z'
loop_
 _atom_site_type_symbol
 _atom_site_label
 _atom_site_symmetry_multiplicity
 _atom_site_fract_x
 _atom_site_fract_y
 _atom_site_fract_z
 _atom_site_occupancy
  Li  Li0  1  0.856103  0.678975  0.817266  1
  Li  Li1  1  0.643897  0.178975  0.182734  1
  Li  Li2  1  0.143897  0.321025  0.182734  1
  Li  Li3  1  0.356103  0.821025  0.817266  1
  B  B4  1  0.403946  0.334045  0.215653  1
  B  B5  1  0.096054  0.834045  0.784347  1
  B  B6  1  0.903946  0.165955  0.215653  1
  B  B7  1  0.596054  0.665955  0.784347  1
  H  H8  1  0.227933  0.582606  0.334312  1
  H  H9  1  0.727933  0.917394  0.334312  1
  H  H10  1  0.772067  0.417394  0.665688  1
  H  H11  1  0.335338  0.397136  0.281389  1
  H  H12  1  0.474391  0.710268  0.507950  1
  H  H13  1  0.996542  0.638140  0.601792  1
  H  H14  1  0.095815  0.903753  0.880398  1
  H  H15  1  0.895996  0.994370  0.597854  1
  H  H16  1  0.550685  0.847940  0.336496  1
  H  H17  1  0.065365  0.188718  0.827682  1
  H  H18  1  0.934635  0.811282  0.172318  1
  H  H19  1  0.356692  0.018817  0.034273  1
  H  H20  1  0.971337  0.142404  0.948373  1
  H  H21  1  0.503458  0.138140  0.398208  1
  H  H22  1  0.733859  0.904811  0.600897  1
  H  H23  1  0.848559  0.982972  0.748226  1
  H  H24  1  0.904185  0.096247  0.119602  1
  H  H25  1  0.815208  0.701037  0.520329  1
  H  H26  1  0.161689  0.404457  0.837082  1
  H  H27  1  0.338311  0.904457  0.162918  1
  H  H28  1  0.164662  0.897136  0.718611  1
  H  H29  1  0.663492  0.771753  0.823901  1
  H  H30  1  0.664662  0.602864  0.718611  1
  H  H31  1  0.449315  0.152060  0.663504  1
  H  H32  1  0.651441  0.482972  0.251774  1
  H  H33  1  0.104004  0.005630  0.402146  1
  H  H34  1  0.233859  0.595189  0.600897  1
  H  H35  1  0.404185  0.403753  0.119602  1
  H  H36  1  0.050685  0.652060  0.336496  1
  H  H37  1  0.661689  0.095543  0.837082  1
  H  H38  1  0.525609  0.289732  0.492050  1
  H  H39  1  0.595815  0.596247  0.880398  1
  H  H40  1  0.272067  0.082606  0.665688  1
  H  H41  1  0.974391  0.789732  0.507950  1
  H  H42  1  0.184792  0.298963  0.479671  1
  H  H43  1  0.838311  0.595543  0.162918  1
  H  H44  1  0.143308  0.518817  0.965727  1
  H  H45  1  0.496542  0.861860  0.601792  1
  H  H46  1  0.028663  0.857596  0.051627  1
  H  H47  1  0.025609  0.210268  0.492050  1
  H  H48  1  0.471337  0.357596  0.948373  1
  H  H49  1  0.336508  0.228247  0.176099  1
  H  H50  1  0.835338  0.102864  0.281389  1
  H  H51  1  0.266141  0.095189  0.399103  1
  H  H52  1  0.348559  0.517028  0.748226  1
  H  H53  1  0.163492  0.728247  0.823901  1
  H  H54  1  0.604004  0.494370  0.402146  1
  H  H55  1  0.684792  0.201037  0.479671  1
  H  H56  1  0.836508  0.271753  0.176099  1
  H  H57  1  0.395996  0.505630  0.597854  1
  H  H58  1  0.856692  0.481183  0.034273  1
  H  H59  1  0.949315  0.347940  0.663504  1
  H  H60  1  0.766141  0.404811  0.399103  1
  H  H61  1  0.528663  0.642404  0.051627  1
  H  H62  1  0.003458  0.361860  0.398208  1
  H  H63  1  0.151441  0.017028  0.251774  1
  H  H64  1  0.565365  0.311282  0.827682  1
  H  H65  1  0.315208  0.798963  0.520329  1
  H  H66  1  0.643308  0.981183  0.965727  1
  H  H67  1  0.434635  0.688718  0.172318  1
  C  C68  1  0.379979  0.120822  0.725619  1
  C  C69  1  0.591819  0.062159  0.897552  1
  C  C70  1  0.650608  0.427134  0.341071  1
  C  C71  1  0.070178  0.270188  0.424040  1
  C  C72  1  0.620021  0.879178  0.274381  1
  C  C73  1  0.570178  0.229812  0.424040  1
  C  C74  1  0.429822  0.770188  0.575960  1
  C  C75  1  0.908181  0.562159  0.102448  1
  C  C76  1  0.929822  0.729812  0.575960  1
  C  C77  1  0.120021  0.620822  0.274381  1
  C  C78  1  0.408181  0.937841  0.102448  1
  C  C79  1  0.150608  0.072866  0.341071  1
  C  C80  1  0.493880  0.277429  0.886628  1
  C  C81  1  0.506120  0.722571  0.113372  1
  C  C82  1  0.993880  0.222571  0.886628  1
  C  C83  1  0.349392  0.572866  0.658929  1
  C  C84  1  0.849392  0.927134  0.658929  1
  C  C85  1  0.879979  0.379178  0.725619  1
  C  C86  1  0.006120  0.777429  0.113372  1
  C  C87  1  0.091819  0.437841  0.897552  1
  N  N88  1  0.935719  0.804188  0.696713  1
  N  N89  1  0.435719  0.695812  0.696713  1
  N  N90  1  0.564281  0.304188  0.303287  1
  N  N91  1  0.064281  0.195812  0.303287  1
  O  O92  1  0.453383  0.014279  0.811702  1
  O  O93  1  0.644160  0.768935  0.199035  1
  O  O94  1  0.567510  0.172300  0.974615  1
  O  O95  1  0.546617  0.985721  0.188298  1
  O  O96  1  0.067510  0.327700  0.974615  1
  O  O97  1  0.953383  0.485721  0.811702  1
  O  O98  1  0.432490  0.827700  0.025385  1
  O  O99  1  0.855840  0.268935  0.800965  1
  O  O100  1  0.355840  0.231065  0.800965  1
  O  O101  1  0.932490  0.672300  0.025385  1
  O  O102  1  0.144160  0.731065  0.199035  1
  O  O103  1  0.046617  0.514279  0.188298  1
