# generated using pymatgen
data_Ni(NF7)2
_symmetry_space_group_name_H-M   'P 1'
_cell_length_a   6.78832221
_cell_length_b   6.78832222
_cell_length_c   6.78832222
_cell_angle_alpha   91.57549062
_cell_angle_beta   119.09459712
_cell_angle_gamma   119.09459711
_symmetry_Int_Tables_number   1
_chemical_formula_structural   Ni(NF7)2
_chemical_formula_sum   'Ni1 N2 F14'
_cell_volume   224.12886570
_cell_formula_units_Z   1
loop_
 _symmetry_equiv_pos_site_id
 _symmetry_equiv_pos_as_xyz
  1  'x, y, z'
loop_
 _atom_site_type_symbol
 _atom_site_label
 _atom_site_symmetry_multiplicity
 _atom_site_fract_x
 _atom_site_fract_y
 _atom_site_fract_z
 _atom_site_occupancy
  N  N0  1  0.500000  0.750000  0.250000  1
  N  N1  1  0.500000  0.250000  0.750000  1
  F  F2  1  0.714525  0.404882  0.972387  1
  F  F3  1  0.359959  0.228193  0.131766  1
  F  F4  1  0.903573  0.131766  0.771807  1
  F  F5  1  0.096427  0.868234  0.228193  1
  F  F6  1  0.640041  0.771807  0.868234  1
  F  F7  1  0.000000  0.190636  0.190636  1
  F  F8  1  0.000000  0.809364  0.809364  1
  F  F9  1  0.714525  0.742139  0.309643  1
  F  F10  1  0.567505  0.309643  0.595118  1
  F  F11  1  0.432495  0.027613  0.742139  1
  F  F12  1  0.285475  0.595118  0.027613  1
  F  F13  1  0.285475  0.257861  0.690357  1
  F  F14  1  0.432495  0.690357  0.404882  1
  F  F15  1  0.567505  0.972387  0.257861  1
  Ni  Ni16  1  0.000000  0.000000  0.000000  1
