# generated using pymatgen
data_K2PtC4(IN2)2
_symmetry_space_group_name_H-M   'P 1'
_cell_length_a   7.41999026
_cell_length_b   9.06048556
_cell_length_c   9.50645669
_cell_angle_alpha   90.00000000
_cell_angle_beta   90.00000000
_cell_angle_gamma   107.55768127
_symmetry_Int_Tables_number   1
_chemical_formula_structural   K2PtC4(IN2)2
_chemical_formula_sum   'K4 Pt2 C8 I4 N8'
_cell_volume   609.33326406
_cell_formula_units_Z   2
loop_
 _symmetry_equiv_pos_site_id
 _symmetry_equiv_pos_as_xyz
  1  'x, y, z'
loop_
 _atom_site_type_symbol
 _atom_site_label
 _atom_site_symmetry_multiplicity
 _atom_site_fract_x
 _atom_site_fract_y
 _atom_site_fract_z
 _atom_site_occupancy
  K  K0  1  0.530593  0.882764  0.292989  1
  K  K1  1  0.469407  0.617236  0.792989  1
  K  K2  1  0.530593  0.382764  0.207011  1
  K  K3  1  0.469407  0.117236  0.707011  1
  Pt  Pt4  1  0.000000  0.500000  0.500000  1
  Pt  Pt5  1  0.000000  0.000000  0.000000  1
  C  C6  1  0.196494  0.203126  0.957874  1
  C  C7  1  0.197945  0.893957  0.960580  1
  C  C8  1  0.803506  0.296874  0.457874  1
  C  C9  1  0.802055  0.106043  0.039420  1
  C  C10  1  0.802055  0.606043  0.460580  1
  C  C11  1  0.197945  0.393957  0.539420  1
  C  C12  1  0.803506  0.796874  0.042126  1
  C  C13  1  0.196494  0.703126  0.542126  1
  I  I14  1  0.894797  0.467985  0.775835  1
  I  I15  1  0.894797  0.967985  0.724165  1
  I  I16  1  0.105203  0.532015  0.224165  1
  I  I17  1  0.105203  0.032015  0.275835  1
  N  N18  1  0.683228  0.682041  0.066716  1
  N  N19  1  0.683228  0.182041  0.433284  1
  N  N20  1  0.316772  0.317959  0.933284  1
  N  N21  1  0.316772  0.817959  0.566716  1
  N  N22  1  0.683268  0.662292  0.433823  1
  N  N23  1  0.316732  0.337708  0.566177  1
  N  N24  1  0.316732  0.837708  0.933823  1
  N  N25  1  0.683268  0.162292  0.066177  1
