# generated using pymatgen
data_CaTa2Bi2O9
_symmetry_space_group_name_H-M   'P 1'
_cell_length_a   5.49368803
_cell_length_b   5.54975604
_cell_length_c   12.95415458
_cell_angle_alpha   90.00000000
_cell_angle_beta   102.24213095
_cell_angle_gamma   90.00000000
_symmetry_Int_Tables_number   1
_chemical_formula_structural   CaTa2Bi2O9
_chemical_formula_sum   'Ca2 Ta4 Bi4 O18'
_cell_volume   385.97323492
_cell_formula_units_Z   2
loop_
 _symmetry_equiv_pos_site_id
 _symmetry_equiv_pos_as_xyz
  1  'x, y, z'
loop_
 _atom_site_type_symbol
 _atom_site_label
 _atom_site_symmetry_multiplicity
 _atom_site_fract_x
 _atom_site_fract_y
 _atom_site_fract_z
 _atom_site_occupancy
  Ca  Ca0  1  0.755193  0.501272  0.000000  1
  Ca  Ca1  1  0.244807  0.001272  1.000000  1
  Ta  Ta2  1  0.829210  0.966301  0.162913  1
  Ta  Ta3  1  0.170790  0.466301  0.837087  1
  Ta  Ta4  1  0.333703  0.466301  0.162913  1
  Ta  Ta5  1  0.666297  0.966301  0.837087  1
  Bi  Bi6  1  0.020746  0.038853  0.601594  1
  Bi  Bi7  1  0.419152  0.038853  0.398406  1
  Bi  Bi8  1  0.580848  0.538853  0.601594  1
  Bi  Bi9  1  0.979254  0.538853  0.398406  1
  O  O10  1  0.676817  0.950512  0.691743  1
  O  O11  1  0.537458  0.154529  0.172787  1
  O  O12  1  0.671437  0.929135  1.000000  1
  O  O13  1  0.328563  0.429135  0.000000  1
  O  O14  1  0.364671  0.154529  0.827213  1
  O  O15  1  0.261772  0.765401  0.501317  1
  O  O16  1  0.014926  0.450512  0.691743  1
  O  O17  1  0.975536  0.734251  0.877203  1
  O  O18  1  0.098333  0.734251  0.122797  1
  O  O19  1  0.635329  0.654529  0.172787  1
  O  O20  1  0.323183  0.450512  0.308257  1
  O  O21  1  0.024464  0.234251  0.122797  1
  O  O22  1  0.738228  0.265401  0.498683  1
  O  O23  1  0.462542  0.654529  0.827213  1
  O  O24  1  0.239545  0.265401  0.501317  1
  O  O25  1  0.901667  0.234251  0.877203  1
  O  O26  1  0.985074  0.950512  0.308257  1
  O  O27  1  0.760455  0.765401  0.498683  1
