# generated using pymatgen
data_Na2FeNiF7
_symmetry_space_group_name_H-M   'P 1'
_cell_length_a   7.30180053
_cell_length_b   7.40564805
_cell_length_c   7.40564785
_cell_angle_alpha   61.43138822
_cell_angle_beta   60.46279838
_cell_angle_gamma   60.46279381
_symmetry_Int_Tables_number   1
_chemical_formula_structural   Na2FeNiF7
_chemical_formula_sum   'Na4 Fe2 Ni2 F14'
_cell_volume   288.13039685
_cell_formula_units_Z   2
loop_
 _symmetry_equiv_pos_site_id
 _symmetry_equiv_pos_as_xyz
  1  'x, y, z'
loop_
 _atom_site_type_symbol
 _atom_site_label
 _atom_site_symmetry_multiplicity
 _atom_site_fract_x
 _atom_site_fract_y
 _atom_site_fract_z
 _atom_site_occupancy
  Na  Na0  1  0.249598  0.489853  0.510147  1
  Na  Na1  1  0.753703  0.995437  0.497158  1
  Na  Na2  1  0.750402  0.489853  0.510147  1
  Na  Na3  1  0.246297  0.502842  0.004563  1
  Fe  Fe4  1  0.250135  0.997619  0.502111  1
  Fe  Fe5  1  0.749865  0.497889  0.002381  1
  Ni  Ni6  1  0.250537  0.998191  0.001809  1
  Ni  Ni7  1  0.749463  0.998191  0.001809  1
  F  F8  1  0.065107  0.318331  0.950440  1
  F  F9  1  0.842717  0.634121  0.680444  1
  F  F10  1  0.500000  0.100937  0.899063  1
  F  F11  1  0.166324  0.947818  0.321566  1
  F  F12  1  0.658720  0.359246  0.323315  1
  F  F13  1  0.333878  0.049560  0.681669  1
  F  F14  1  0.564291  0.947818  0.321566  1
  F  F15  1  0.934893  0.049560  0.681669  1
  F  F16  1  0.666122  0.318331  0.950440  1
  F  F17  1  0.157283  0.319556  0.365879  1
  F  F18  1  0.341280  0.676685  0.640754  1
  F  F19  1  1.000000  0.896693  0.103307  1
  F  F20  1  0.833676  0.678434  0.052182  1
  F  F21  1  0.435709  0.678434  0.052182  1
