# generated using pymatgen
data_Cs2Zr(Si2O5)3
_symmetry_space_group_name_H-M   'P 1'
_cell_length_a   7.61301258
_cell_length_b   11.78537955
_cell_length_c   14.03168651
_cell_angle_alpha   106.69329026
_cell_angle_beta   105.74147729
_cell_angle_gamma   90.00021169
_symmetry_Int_Tables_number   1
_chemical_formula_structural   Cs2Zr(Si2O5)3
_chemical_formula_sum   'Cs6 Zr3 Si18 O45'
_cell_volume   1156.51636057
_cell_formula_units_Z   3
loop_
 _symmetry_equiv_pos_site_id
 _symmetry_equiv_pos_as_xyz
  1  'x, y, z'
loop_
 _atom_site_type_symbol
 _atom_site_label
 _atom_site_symmetry_multiplicity
 _atom_site_fract_x
 _atom_site_fract_y
 _atom_site_fract_z
 _atom_site_occupancy
  Cs  Cs0  1  0.102651  0.629144  0.205162  1
  Cs  Cs1  1  0.423963  0.987470  0.847947  1
  Cs  Cs2  1  0.752776  0.361730  0.505450  1
  Cs  Cs3  1  0.247224  0.638270  0.494550  1
  Cs  Cs4  1  0.576037  0.012530  0.152053  1
  Cs  Cs5  1  0.897349  0.370856  0.794838  1
  Zr  Zr6  1  0.000000  0.000000  0.000000  1
  Zr  Zr7  1  0.679445  0.641897  0.358893  1
  Zr  Zr8  1  0.320555  0.358103  0.641108  1
  Si  Si9  1  0.430344  0.370949  0.256241  1
  Si  Si10  1  0.183129  0.267817  0.366199  1
  Si  Si11  1  0.136996  0.998195  0.274082  1
  Si  Si12  1  0.891527  0.907921  0.388031  1
  Si  Si13  1  0.569656  0.629051  0.743759  1
  Si  Si14  1  0.791126  0.731918  0.974887  1
  Si  Si15  1  0.183702  0.731894  0.974876  1
  Si  Si16  1  0.108473  0.092079  0.611969  1
  Si  Si17  1  0.816871  0.732183  0.633801  1
  Si  Si18  1  0.541616  0.632448  0.083237  1
  Si  Si19  1  0.458384  0.367552  0.916763  1
  Si  Si20  1  0.503534  0.092079  0.611974  1
  Si  Si21  1  0.816298  0.268106  0.025124  1
  Si  Si22  1  0.174018  0.629020  0.743759  1
  Si  Si23  1  0.208874  0.268082  0.025113  1
  Si  Si24  1  0.863004  0.001805  0.725918  1
  Si  Si25  1  0.825982  0.370980  0.256241  1
  Si  Si26  1  0.496466  0.907921  0.388026  1
  O  O27  1  0.181357  0.128300  0.362732  1
  O  O28  1  0.467354  0.506932  0.329236  1
  O  O29  1  0.078698  0.005224  0.157366  1
  O  O30  1  0.672034  0.712921  0.697136  1
  O  O31  1  0.507677  0.229064  0.611640  1
  O  O32  1  0.500000  0.000000  0.500000  1
  O  O33  1  0.000000  0.000000  0.500000  1
  O  O34  1  0.625412  0.310099  0.250720  1
  O  O35  1  0.818643  0.871700  0.637268  1
  O  O36  1  0.532646  0.493068  0.670764  1
  O  O37  1  0.921302  0.994776  0.842634  1
  O  O38  1  0.170537  0.635908  0.861337  1
  O  O39  1  0.357925  0.706039  0.061873  1
  O  O40  1  0.138062  0.493049  0.670740  1
  O  O41  1  0.896057  0.770937  0.388361  1
  O  O42  1  0.321893  0.925858  0.296118  1
  O  O43  1  0.758344  0.645070  0.516681  1
  O  O44  1  0.642075  0.293961  0.938127  1
  O  O45  1  0.025006  0.712908  0.697173  1
  O  O46  1  0.321179  0.054474  0.642331  1
  O  O47  1  0.861938  0.506950  0.329260  1
  O  O48  1  0.309299  0.364051  0.138656  1
  O  O49  1  0.996409  0.305262  0.992758  1
  O  O50  1  0.025905  0.074115  0.703902  1
  O  O51  1  0.003591  0.694738  0.007242  1
  O  O52  1  0.399383  0.369328  0.798735  1
  O  O53  1  0.103943  0.229063  0.611639  1
  O  O54  1  0.784999  0.868076  0.973398  1
  O  O55  1  0.690701  0.635949  0.861344  1
  O  O56  1  0.296062  0.293950  0.938112  1
  O  O57  1  0.703938  0.706050  0.061888  1
  O  O58  1  0.241656  0.354930  0.483319  1
  O  O59  1  0.600617  0.630672  0.201265  1
  O  O60  1  0.374588  0.689901  0.749280  1
  O  O61  1  0.811671  0.131946  0.026613  1
  O  O62  1  0.492323  0.770936  0.388360  1
  O  O63  1  0.215001  0.131924  0.026602  1
  O  O64  1  0.500000  0.500000  0.000000  1
  O  O65  1  0.678107  0.074142  0.703882  1
  O  O66  1  0.327966  0.287079  0.302864  1
  O  O67  1  0.829463  0.364092  0.138663  1
  O  O68  1  0.974095  0.925885  0.296098  1
  O  O69  1  0.188329  0.868054  0.973387  1
  O  O70  1  0.974994  0.287092  0.302827  1
  O  O71  1  0.678821  0.945526  0.357669  1
