# generated using pymatgen
data_Tb3CuSiS7
_symmetry_space_group_name_H-M   'P 1'
_cell_length_a   9.94491872
_cell_length_b   9.94491834
_cell_length_c   5.70554136
_cell_angle_alpha   90.00000000
_cell_angle_beta   90.00000000
_cell_angle_gamma   120.00000124
_symmetry_Int_Tables_number   1
_chemical_formula_structural   Tb3CuSiS7
_chemical_formula_sum   'Tb6 Si2 Cu2 S14'
_cell_volume   488.68605175
_cell_formula_units_Z   2
loop_
 _symmetry_equiv_pos_site_id
 _symmetry_equiv_pos_as_xyz
  1  'x, y, z'
loop_
 _atom_site_type_symbol
 _atom_site_label
 _atom_site_symmetry_multiplicity
 _atom_site_fract_x
 _atom_site_fract_y
 _atom_site_fract_z
 _atom_site_occupancy
  Tb  Tb0  1  0.874738  0.643647  0.248125  1
  Tb  Tb1  1  0.356353  0.231091  0.248125  1
  Tb  Tb2  1  0.231091  0.874738  0.748124  1
  Tb  Tb3  1  0.125262  0.356353  0.748124  1
  Tb  Tb4  1  0.643647  0.768909  0.748124  1
  Tb  Tb5  1  0.768909  0.125262  0.248125  1
  Si  Si6  1  0.333333  0.666667  0.336673  1
  Cu  Cu7  1  0.000000  0.000000  0.200502  1
  Si  Si8  1  0.666667  0.333333  0.836673  1
  Cu  Cu9  1  0.000000  0.000000  0.700528  1
  S  S10  1  0.666667  0.333333  0.466744  1
  S  S11  1  0.892063  0.413962  0.986575  1
  S  S12  1  0.908728  0.743248  0.723423  1
  S  S13  1  0.521899  0.107937  0.986575  1
  S  S14  1  0.478100  0.892063  0.486573  1
  S  S15  1  0.743246  0.834519  0.223425  1
  S  S16  1  0.107937  0.586037  0.486573  1
  S  S17  1  0.586038  0.478101  0.986575  1
  S  S18  1  0.165481  0.908727  0.223425  1
  S  S19  1  0.834520  0.091272  0.723423  1
  S  S20  1  0.091273  0.256754  0.223425  1
  S  S21  1  0.333333  0.666667  0.966743  1
  S  S22  1  0.413963  0.521900  0.486573  1
  S  S23  1  0.256752  0.165480  0.723423  1
