# generated using pymatgen
data_Ce3(Si4Ni)2
_symmetry_space_group_name_H-M   'P 1'
_cell_length_a   4.09328942
_cell_length_b   4.19367943
_cell_length_c   13.16820156
_cell_angle_alpha   90.00000000
_cell_angle_beta   98.94134609
_cell_angle_gamma   90.00000000
_symmetry_Int_Tables_number   1
_chemical_formula_structural   Ce3(Si4Ni)2
_chemical_formula_sum   'Ce3 Si8 Ni2'
_cell_volume   223.29770406
_cell_formula_units_Z   1
loop_
 _symmetry_equiv_pos_site_id
 _symmetry_equiv_pos_as_xyz
  1  'x, y, z'
loop_
 _atom_site_type_symbol
 _atom_site_label
 _atom_site_symmetry_multiplicity
 _atom_site_fract_x
 _atom_site_fract_y
 _atom_site_fract_z
 _atom_site_occupancy
  Ce  Ce0  1  0.000000  0.000000  0.000000  1
  Ce  Ce1  1  0.687900  0.500000  0.375801  1
  Ce  Ce2  1  0.312100  0.500000  0.624199  1
  Ni  Ni3  1  0.866005  0.000000  0.732011  1
  Ni  Ni4  1  0.133995  0.000000  0.267989  1
  Si  Si5  1  0.595244  0.000000  0.190488  1
  Si  Si6  1  0.404756  0.000000  0.809512  1
  Si  Si7  1  0.775674  0.000000  0.551347  1
  Si  Si8  1  0.224326  0.000000  0.448653  1
  Si  Si9  1  0.902862  0.500000  0.805725  1
  Si  Si10  1  0.097138  0.500000  0.194275  1
  Si  Si11  1  0.545265  0.500000  0.090530  1
  Si  Si12  1  0.454735  0.500000  0.909470  1
