# generated using pymatgen
data_Cr3SiNi2
_symmetry_space_group_name_H-M   'P 1'
_cell_length_a   7.33282334
_cell_length_b   7.33282355
_cell_length_c   7.33282355
_cell_angle_alpha   60.00000005
_cell_angle_beta   59.99999911
_cell_angle_gamma   60.00000274
_symmetry_Int_Tables_number   1
_chemical_formula_structural   Cr3SiNi2
_chemical_formula_sum   'Cr12 Si4 Ni8'
_cell_volume   278.80380735
_cell_formula_units_Z   4
loop_
 _symmetry_equiv_pos_site_id
 _symmetry_equiv_pos_as_xyz
  1  'x, y, z'
loop_
 _atom_site_type_symbol
 _atom_site_label
 _atom_site_symmetry_multiplicity
 _atom_site_fract_x
 _atom_site_fract_y
 _atom_site_fract_z
 _atom_site_occupancy
  Cr  Cr0  1  0.703543  0.046457  0.046457  1
  Cr  Cr1  1  0.953543  0.953543  0.296457  1
  Cr  Cr2  1  0.296457  0.296457  0.953543  1
  Cr  Cr3  1  0.953543  0.296457  0.296457  1
  Cr  Cr4  1  0.953543  0.296457  0.953543  1
  Cr  Cr5  1  0.296457  0.953543  0.296457  1
  Cr  Cr6  1  0.046457  0.703543  0.046457  1
  Cr  Cr7  1  0.046457  0.046457  0.703543  1
  Cr  Cr8  1  0.703543  0.703543  0.046457  1
  Cr  Cr9  1  0.703543  0.046457  0.703543  1
  Cr  Cr10  1  0.296457  0.953543  0.953543  1
  Cr  Cr11  1  0.046457  0.703543  0.703543  1
  Ni  Ni12  1  0.709588  0.709588  0.709588  1
  Ni  Ni13  1  0.290412  0.290412  0.628763  1
  Ni  Ni14  1  0.628763  0.290412  0.290412  1
  Ni  Ni15  1  0.290412  0.628763  0.290412  1
  Ni  Ni16  1  0.371237  0.709588  0.709588  1
  Ni  Ni17  1  0.709588  0.371237  0.709588  1
  Ni  Ni18  1  0.709588  0.709588  0.371237  1
  Ni  Ni19  1  0.290412  0.290412  0.290412  1
  Si  Si20  1  0.500000  0.500000  0.500000  1
  Si  Si21  1  0.500000  0.500000  0.000000  1
  Si  Si22  1  0.000000  0.500000  0.500000  1
  Si  Si23  1  0.500000  0.000000  0.500000  1
