# generated using pymatgen
data_Ba2Ni2ClF7
_symmetry_space_group_name_H-M   'P 1'
_cell_length_a   5.85283970
_cell_length_b   7.75338070
_cell_length_c   8.94401686
_cell_angle_alpha   106.77675669
_cell_angle_beta   90.00000000
_cell_angle_gamma   90.00000000
_symmetry_Int_Tables_number   1
_chemical_formula_structural   Ba2Ni2ClF7
_chemical_formula_sum   'Ba4 Ni4 Cl2 F14'
_cell_volume   388.59786033
_cell_formula_units_Z   2
loop_
 _symmetry_equiv_pos_site_id
 _symmetry_equiv_pos_as_xyz
  1  'x, y, z'
loop_
 _atom_site_type_symbol
 _atom_site_label
 _atom_site_symmetry_multiplicity
 _atom_site_fract_x
 _atom_site_fract_y
 _atom_site_fract_z
 _atom_site_occupancy
  Ba  Ba0  1  0.250000  0.330013  0.587515  1
  Ba  Ba1  1  0.250000  0.295851  0.072120  1
  Ba  Ba2  1  0.750000  0.669987  0.412485  1
  Ba  Ba3  1  0.750000  0.704149  0.927880  1
  Ni  Ni4  1  0.250000  0.825008  0.733566  1
  Ni  Ni5  1  0.750000  0.181478  0.825116  1
  Ni  Ni6  1  0.750000  0.174992  0.266434  1
  Ni  Ni7  1  0.250000  0.818522  0.174884  1
  Cl  Cl8  1  0.750000  0.116990  0.529670  1
  Cl  Cl9  1  0.250000  0.883010  0.470330  1
  F  F10  1  0.990426  0.368049  0.839687  1
  F  F11  1  0.750000  0.249003  0.064621  1
  F  F12  1  0.000842  0.002928  0.826311  1
  F  F13  1  0.494987  0.638715  0.655014  1
  F  F14  1  0.250000  0.750997  0.935379  1
  F  F15  1  0.005013  0.638715  0.655014  1
  F  F16  1  0.509574  0.368049  0.839687  1
  F  F17  1  0.009574  0.631951  0.160313  1
  F  F18  1  0.999158  0.997072  0.173689  1
  F  F19  1  0.505013  0.361285  0.344986  1
  F  F20  1  0.490426  0.631951  0.160313  1
  F  F21  1  0.499158  0.002928  0.826311  1
  F  F22  1  0.994987  0.361285  0.344986  1
  F  F23  1  0.500842  0.997072  0.173689  1
