# generated using pymatgen
data_Sn2P2O7
_symmetry_space_group_name_H-M   'P 1'
_cell_length_a   5.47199109
_cell_length_b   7.19654670
_cell_length_c   9.74364193
_cell_angle_alpha   90.00000000
_cell_angle_beta   90.00000000
_cell_angle_gamma   106.57652999
_symmetry_Int_Tables_number   1
_chemical_formula_structural   Sn2P2O7
_chemical_formula_sum   'Sn4 P4 O14'
_cell_volume   367.75243636
_cell_formula_units_Z   2
loop_
 _symmetry_equiv_pos_site_id
 _symmetry_equiv_pos_as_xyz
  1  'x, y, z'
loop_
 _atom_site_type_symbol
 _atom_site_label
 _atom_site_symmetry_multiplicity
 _atom_site_fract_x
 _atom_site_fract_y
 _atom_site_fract_z
 _atom_site_occupancy
  Sn  Sn0  1  0.795992  0.151559  0.619211  1
  Sn  Sn1  1  0.704008  0.348441  0.119211  1
  Sn  Sn2  1  0.204008  0.848441  0.380789  1
  Sn  Sn3  1  0.295992  0.651559  0.880789  1
  P  P4  1  0.712169  0.611088  0.607560  1
  P  P5  1  0.287831  0.388912  0.392440  1
  P  P6  1  0.787831  0.888912  0.107560  1
  P  P7  1  0.212169  0.111088  0.892440  1
  O  O8  1  0.652684  0.034584  0.159041  1
  O  O9  1  0.152684  0.534584  0.340959  1
  O  O10  1  0.108769  0.216202  0.468817  1
  O  O11  1  0.424775  0.309455  0.279666  1
  O  O12  1  0.347316  0.965416  0.840959  1
  O  O13  1  0.575225  0.690545  0.720333  1
  O  O14  1  0.075225  0.190545  0.779667  1
  O  O15  1  0.891231  0.783798  0.531183  1
  O  O16  1  0.000000  0.000000  0.000000  1
  O  O17  1  0.847316  0.465416  0.659041  1
  O  O18  1  0.391231  0.283798  0.968817  1
  O  O19  1  0.500000  0.500000  0.500000  1
  O  O20  1  0.924775  0.809455  0.220333  1
  O  O21  1  0.608769  0.716202  0.031183  1
