# generated using pymatgen
data_Na2Ca(PO3)4
_symmetry_space_group_name_H-M   'P 1'
_cell_length_a   5.00971491
_cell_length_b   9.77702684
_cell_length_c   9.77702684
_cell_angle_alpha   90.00000000
_cell_angle_beta   90.00000000
_cell_angle_gamma   90.00000000
_symmetry_Int_Tables_number   1
_chemical_formula_structural   Na2Ca(PO3)4
_chemical_formula_sum   'Na4 Ca2 P8 O24'
_cell_volume   478.87991986
_cell_formula_units_Z   2
loop_
 _symmetry_equiv_pos_site_id
 _symmetry_equiv_pos_as_xyz
  1  'x, y, z'
loop_
 _atom_site_type_symbol
 _atom_site_label
 _atom_site_symmetry_multiplicity
 _atom_site_fract_x
 _atom_site_fract_y
 _atom_site_fract_z
 _atom_site_occupancy
  Ca  Ca0  1  0.500000  0.250000  0.250000  1
  Ca  Ca1  1  0.500000  0.750000  0.750000  1
  Na  Na2  1  0.500000  0.000000  0.000000  1
  Na  Na3  1  0.500000  0.500000  0.000000  1
  Na  Na4  1  0.500000  0.000000  0.500000  1
  Na  Na5  1  0.500000  0.500000  0.500000  1
  P  P6  1  0.000000  0.532528  0.250000  1
  P  P7  1  0.000000  0.250000  0.532528  1
  P  P8  1  0.000000  0.250000  0.967472  1
  P  P9  1  0.000000  0.967472  0.250000  1
  P  P10  1  0.000000  0.467472  0.750000  1
  P  P11  1  0.000000  0.750000  0.467472  1
  P  P12  1  0.000000  0.750000  0.032528  1
  P  P13  1  0.000000  0.032528  0.750000  1
  O  O14  1  0.128155  0.637037  0.362963  1
  O  O15  1  0.128155  0.137037  0.637037  1
  O  O16  1  0.128155  0.362963  0.862963  1
  O  O17  1  0.128155  0.862963  0.137037  1
  O  O18  1  0.871845  0.637037  0.137037  1
  O  O19  1  0.871845  0.862963  0.362963  1
  O  O20  1  0.871845  0.362963  0.637037  1
  O  O21  1  0.871845  0.137037  0.862963  1
  O  O22  1  0.232838  0.190260  0.042726  1
  O  O23  1  0.232838  0.457274  0.190260  1
  O  O24  1  0.232838  0.042726  0.309740  1
  O  O25  1  0.232838  0.309740  0.457274  1
  O  O26  1  0.767162  0.190260  0.457274  1
  O  O27  1  0.767162  0.309740  0.042726  1
  O  O28  1  0.767162  0.042726  0.190260  1
  O  O29  1  0.767162  0.457274  0.309740  1
  O  O30  1  0.767162  0.809740  0.957274  1
  O  O31  1  0.767162  0.542726  0.809740  1
  O  O32  1  0.767162  0.957274  0.690260  1
  O  O33  1  0.767162  0.690260  0.542726  1
  O  O34  1  0.232838  0.809740  0.542726  1
  O  O35  1  0.232838  0.690260  0.957274  1
  O  O36  1  0.232838  0.957274  0.809740  1
  O  O37  1  0.232838  0.542726  0.690260  1
