# generated using pymatgen
data_Li2V(PO4)2
_symmetry_space_group_name_H-M   'P 1'
_cell_length_a   5.04674889
_cell_length_b   8.34251345
_cell_length_c   7.00399319
_cell_angle_alpha   90.00000000
_cell_angle_beta   98.20454290
_cell_angle_gamma   90.00000000
_symmetry_Int_Tables_number   1
_chemical_formula_structural   Li2V(PO4)2
_chemical_formula_sum   'Li4 V2 P4 O16'
_cell_volume   291.86793358
_cell_formula_units_Z   2
loop_
 _symmetry_equiv_pos_site_id
 _symmetry_equiv_pos_as_xyz
  1  'x, y, z'
loop_
 _atom_site_type_symbol
 _atom_site_label
 _atom_site_symmetry_multiplicity
 _atom_site_fract_x
 _atom_site_fract_y
 _atom_site_fract_z
 _atom_site_occupancy
  Li  Li0  1  0.000092  0.511726  0.000278  1
  Li  Li1  1  0.499908  0.011726  0.499722  1
  Li  Li2  1  0.514257  0.351506  0.140724  1
  Li  Li3  1  0.985743  0.851506  0.359276  1
  V  V4  1  0.491138  0.998548  0.987590  1
  V  V5  1  0.008862  0.498548  0.512410  1
  P  P6  1  0.455282  0.677599  0.272145  1
  P  P7  1  0.937538  0.819764  0.770536  1
  P  P8  1  0.044718  0.177599  0.227855  1
  P  P9  1  0.562462  0.319764  0.729464  1
  O  O10  1  0.145564  0.070938  0.396390  1
  O  O11  1  0.712318  0.353638  0.553980  1
  O  O12  1  0.280278  0.664435  0.438916  1
  O  O13  1  0.219722  0.164435  0.061084  1
  O  O14  1  0.687059  0.396028  0.915136  1
  O  O15  1  0.812941  0.896028  0.584864  1
  O  O16  1  0.354436  0.570938  0.103610  1
  O  O17  1  0.963852  0.635554  0.745230  1
  O  O18  1  0.787682  0.853638  0.946020  1
  O  O19  1  0.536148  0.135554  0.754770  1
  O  O20  1  0.454525  0.860160  0.220416  1
  O  O21  1  0.045475  0.360160  0.279584  1
  O  O22  1  0.268313  0.385617  0.666261  1
  O  O23  1  0.231687  0.885617  0.833739  1
  O  O24  1  0.756959  0.632328  0.345420  1
  O  O25  1  0.743041  0.132328  0.154580  1
