# generated using pymatgen
data_AgBF5
_symmetry_space_group_name_H-M   'P 1'
_cell_length_a   4.11244702
_cell_length_b   6.83424001
_cell_length_c   6.83424001
_cell_angle_alpha   90.00000000
_cell_angle_beta   90.00000000
_cell_angle_gamma   90.00000000
_symmetry_Int_Tables_number   1
_chemical_formula_structural   AgBF5
_chemical_formula_sum   'Ag2 B2 F10'
_cell_volume   192.07939064
_cell_formula_units_Z   2
loop_
 _symmetry_equiv_pos_site_id
 _symmetry_equiv_pos_as_xyz
  1  'x, y, z'
loop_
 _atom_site_type_symbol
 _atom_site_label
 _atom_site_symmetry_multiplicity
 _atom_site_fract_x
 _atom_site_fract_y
 _atom_site_fract_z
 _atom_site_occupancy
  B  B0  1  0.000000  0.750000  0.250000  1
  B  B1  1  0.000000  0.250000  0.750000  1
  F  F2  1  0.680114  0.250000  0.250000  1
  F  F3  1  0.319886  0.750000  0.750000  1
  F  F4  1  0.802215  0.407275  0.814894  1
  F  F5  1  0.802215  0.814894  0.092725  1
  F  F6  1  0.197785  0.314894  0.592725  1
  F  F7  1  0.197785  0.907275  0.314894  1
  F  F8  1  0.197785  0.592725  0.185106  1
  F  F9  1  0.197785  0.185106  0.907275  1
  F  F10  1  0.802215  0.685106  0.407275  1
  F  F11  1  0.802215  0.092725  0.685106  1
  Ag  Ag12  1  0.820315  0.750000  0.750000  1
  Ag  Ag13  1  0.179685  0.250000  0.250000  1
