# generated using pymatgen
data_Sb4RuC6(O3F11)2
_symmetry_space_group_name_H-M   'P 1'
_cell_length_a   9.99189137
_cell_length_b   10.77875276
_cell_length_c   12.78376824
_cell_angle_alpha   90.00000000
_cell_angle_beta   90.00000000
_cell_angle_gamma   110.79486203
_symmetry_Int_Tables_number   1
_chemical_formula_structural   Sb4RuC6(O3F11)2
_chemical_formula_sum   'Sb8 Ru2 C12 O12 F44'
_cell_volume   1287.12441135
_cell_formula_units_Z   2
loop_
 _symmetry_equiv_pos_site_id
 _symmetry_equiv_pos_as_xyz
  1  'x, y, z'
loop_
 _atom_site_type_symbol
 _atom_site_label
 _atom_site_symmetry_multiplicity
 _atom_site_fract_x
 _atom_site_fract_y
 _atom_site_fract_z
 _atom_site_occupancy
  Sb  Sb0  1  0.403344  0.003511  0.700215  1
  Sb  Sb1  1  0.096656  0.496489  0.200215  1
  Sb  Sb2  1  0.485276  0.726526  0.868378  1
  Sb  Sb3  1  0.014724  0.773474  0.368378  1
  Sb  Sb4  1  0.903344  0.503511  0.799785  1
  Sb  Sb5  1  0.985276  0.226526  0.631622  1
  Sb  Sb6  1  0.514724  0.273474  0.131622  1
  Sb  Sb7  1  0.596656  0.996489  0.299785  1
  Ru  Ru8  1  0.000000  0.000000  0.000000  1
  Ru  Ru9  1  0.500000  0.500000  0.500000  1
  C  C10  1  0.656654  0.426211  0.476914  1
  C  C11  1  0.357399  0.327545  0.446685  1
  C  C12  1  0.976417  0.926452  0.853313  1
  C  C13  1  0.343346  0.573789  0.523086  1
  C  C14  1  0.523583  0.573548  0.353313  1
  C  C15  1  0.642601  0.672455  0.553315  1
  C  C16  1  0.476417  0.426452  0.646687  1
  C  C17  1  0.843346  0.073789  0.976914  1
  C  C18  1  0.142601  0.172455  0.946685  1
  C  C19  1  0.156654  0.926211  0.023086  1
  C  C20  1  0.857399  0.827545  0.053315  1
  C  C21  1  0.023583  0.073548  0.146687  1
  O  O22  1  0.034050  0.116114  0.228836  1
  O  O23  1  0.465950  0.383886  0.728836  1
  O  O24  1  0.534050  0.616114  0.271164  1
  O  O25  1  0.757076  0.118623  0.966514  1
  O  O26  1  0.257076  0.618623  0.533486  1
  O  O27  1  0.722124  0.770007  0.583196  1
  O  O28  1  0.965950  0.883886  0.771164  1
  O  O29  1  0.277876  0.229993  0.416804  1
  O  O30  1  0.742924  0.381377  0.466514  1
  O  O31  1  0.777876  0.729993  0.083196  1
  O  O32  1  0.242924  0.881377  0.033486  1
  O  O33  1  0.222124  0.270007  0.916804  1
  F  F34  1  0.924822  0.389959  0.266208  1
  F  F35  1  0.473285  0.175688  0.004436  1
  F  F36  1  0.497058  0.079330  0.384803  1
  F  F37  1  0.101070  0.637060  0.315797  1
  F  F38  1  0.553172  0.347438  0.270082  1
  F  F39  1  0.564246  0.598754  0.910800  1
  F  F40  1  0.446828  0.652562  0.729918  1
  F  F41  1  0.772328  0.120602  0.347508  1
  F  F42  1  0.601070  0.137060  0.184203  1
  F  F43  1  0.064246  0.098754  0.589200  1
  F  F44  1  0.833491  0.655181  0.318218  1
  F  F45  1  0.409408  0.140620  0.603930  1
  F  F46  1  0.946828  0.152562  0.770082  1
  F  F47  1  0.703541  0.371902  0.088966  1
  F  F48  1  0.795003  0.558796  0.697401  1
  F  F49  1  0.333491  0.155181  0.181782  1
  F  F50  1  0.909408  0.640620  0.896070  1
  F  F51  1  0.435754  0.401245  0.089200  1
  F  F52  1  0.002942  0.420670  0.884803  1
  F  F53  1  0.997058  0.579330  0.115197  1
  F  F54  1  0.398930  0.862940  0.815797  1
  F  F55  1  0.704997  0.941204  0.197401  1
  F  F56  1  0.973285  0.675688  0.495564  1
  F  F57  1  0.026715  0.324312  0.504436  1
  F  F58  1  0.166509  0.344819  0.681782  1
  F  F59  1  0.424822  0.889959  0.233792  1
  F  F60  1  0.796459  0.128098  0.588966  1
  F  F61  1  0.053172  0.847438  0.229918  1
  F  F62  1  0.295003  0.058796  0.802599  1
  F  F63  1  0.203541  0.871902  0.411034  1
  F  F64  1  0.727672  0.379398  0.847508  1
  F  F65  1  0.575178  0.110041  0.766208  1
  F  F66  1  0.526715  0.824312  0.995564  1
  F  F67  1  0.935754  0.901246  0.410800  1
  F  F68  1  0.204997  0.441204  0.302599  1
  F  F69  1  0.898930  0.362940  0.684203  1
  F  F70  1  0.296459  0.628098  0.911034  1
  F  F71  1  0.590592  0.859380  0.396070  1
  F  F72  1  0.075178  0.610041  0.733792  1
  F  F73  1  0.666509  0.844819  0.818218  1
  F  F74  1  0.090592  0.359380  0.103930  1
  F  F75  1  0.227672  0.879398  0.652492  1
  F  F76  1  0.502942  0.920670  0.615197  1
  F  F77  1  0.272328  0.620602  0.152492  1
