# generated using pymatgen
data_Ag3F8
_symmetry_space_group_name_H-M   'P 1'
_cell_length_a   5.23278420
_cell_length_b   5.57565381
_cell_length_c   11.40149332
_cell_angle_alpha   90.00000000
_cell_angle_beta   90.00000000
_cell_angle_gamma   96.95877237
_symmetry_Int_Tables_number   1
_chemical_formula_structural   Ag3F8
_chemical_formula_sum   'Ag6 F16'
_cell_volume   330.20171783
_cell_formula_units_Z   2
loop_
 _symmetry_equiv_pos_site_id
 _symmetry_equiv_pos_as_xyz
  1  'x, y, z'
loop_
 _atom_site_type_symbol
 _atom_site_label
 _atom_site_symmetry_multiplicity
 _atom_site_fract_x
 _atom_site_fract_y
 _atom_site_fract_z
 _atom_site_occupancy
  Ag  Ag0  1  0.270641  0.025231  0.683923  1
  Ag  Ag1  1  0.729359  0.974769  0.316077  1
  Ag  Ag2  1  0.229359  0.474769  0.183923  1
  Ag  Ag3  1  0.770641  0.525231  0.816077  1
  Ag  Ag4  1  0.500000  0.000000  0.000000  1
  Ag  Ag5  1  0.000000  0.500000  0.500000  1
  F  F6  1  0.216515  0.173257  0.087615  1
  F  F7  1  0.214070  0.759790  0.282566  1
  F  F8  1  0.783485  0.826743  0.912385  1
  F  F9  1  0.716515  0.673257  0.412385  1
  F  F10  1  0.755042  0.166458  0.465122  1
  F  F11  1  0.799522  0.714684  0.670848  1
  F  F12  1  0.200478  0.285316  0.329152  1
  F  F13  1  0.785930  0.240210  0.717434  1
  F  F14  1  0.299522  0.214684  0.829152  1
  F  F15  1  0.714070  0.259790  0.217434  1
  F  F16  1  0.744958  0.333542  0.965122  1
  F  F17  1  0.244958  0.833542  0.534878  1
  F  F18  1  0.285930  0.740210  0.782566  1
  F  F19  1  0.255042  0.666458  0.034878  1
  F  F20  1  0.283485  0.326743  0.587615  1
  F  F21  1  0.700478  0.785316  0.170848  1
