# generated using pymatgen
data_Rb2TiO3
_symmetry_space_group_name_H-M   'P 1'
_cell_length_a   6.09130058
_cell_length_b   6.78508117
_cell_length_c   13.53612155
_cell_angle_alpha   90.00000000
_cell_angle_beta   90.00000000
_cell_angle_gamma   116.67149945
_symmetry_Int_Tables_number   1
_chemical_formula_structural   Rb2TiO3
_chemical_formula_sum   'Rb8 Ti4 O12'
_cell_volume   499.91935101
_cell_formula_units_Z   4
loop_
 _symmetry_equiv_pos_site_id
 _symmetry_equiv_pos_as_xyz
  1  'x, y, z'
loop_
 _atom_site_type_symbol
 _atom_site_label
 _atom_site_symmetry_multiplicity
 _atom_site_fract_x
 _atom_site_fract_y
 _atom_site_fract_z
 _atom_site_occupancy
  O  O0  1  0.524935  0.549870  0.750000  1
  O  O1  1  0.975065  0.450130  0.250000  1
  O  O2  1  0.475065  0.450130  0.250000  1
  O  O3  1  0.024935  0.549870  0.750000  1
  O  O4  1  0.602437  0.204873  0.863161  1
  O  O5  1  0.397563  0.795127  0.136839  1
  O  O6  1  0.897563  0.795127  0.363161  1
  O  O7  1  0.332109  0.664218  0.564435  1
  O  O8  1  0.832109  0.664218  0.935565  1
  O  O9  1  0.167891  0.335782  0.064435  1
  O  O10  1  0.667891  0.335782  0.435565  1
  O  O11  1  0.102437  0.204873  0.636839  1
  Ti  Ti12  1  0.244886  0.489772  0.670642  1
  Ti  Ti13  1  0.255114  0.510228  0.170642  1
  Ti  Ti14  1  0.755114  0.510228  0.329358  1
  Ti  Ti15  1  0.744886  0.489772  0.829358  1
  Rb  Rb16  1  0.632785  0.265571  0.073440  1
  Rb  Rb17  1  0.132785  0.265571  0.426560  1
  Rb  Rb18  1  0.867215  0.734429  0.573440  1
  Rb  Rb19  1  0.367215  0.734429  0.926560  1
  Rb  Rb20  1  0.557697  0.115393  0.636881  1
  Rb  Rb21  1  0.442303  0.884607  0.363119  1
  Rb  Rb22  1  0.942303  0.884607  0.136881  1
  Rb  Rb23  1  0.057697  0.115393  0.863119  1
