# generated using pymatgen
data_Dy7(TeIr)2
_symmetry_space_group_name_H-M   'P 1'
_cell_length_a   3.95465199
_cell_length_b   9.42943496
_cell_length_c   9.42943479
_cell_angle_alpha   60.18087161
_cell_angle_beta   77.89539813
_cell_angle_gamma   77.89539613
_symmetry_Int_Tables_number   1
_chemical_formula_structural   Dy7(TeIr)2
_chemical_formula_sum   'Dy7 Te2 Ir2'
_cell_volume   295.97445678
_cell_formula_units_Z   1
loop_
 _symmetry_equiv_pos_site_id
 _symmetry_equiv_pos_as_xyz
  1  'x, y, z'
loop_
 _atom_site_type_symbol
 _atom_site_label
 _atom_site_symmetry_multiplicity
 _atom_site_fract_x
 _atom_site_fract_y
 _atom_site_fract_z
 _atom_site_occupancy
  Dy  Dy0  1  0.183700  0.713612  0.918988  1
  Dy  Dy1  1  0.147797  0.109803  0.594603  1
  Dy  Dy2  1  0.500000  0.023459  0.976541  1
  Dy  Dy3  1  0.368727  0.737554  0.524992  1
  Dy  Dy4  1  0.631273  0.475008  0.262446  1
  Dy  Dy5  1  0.816300  0.081012  0.286388  1
  Dy  Dy6  1  0.852203  0.405397  0.890197  1
  Te  Te7  1  0.000000  0.759986  0.240014  1
  Te  Te8  1  0.500000  0.359038  0.640962  1
  Ir  Ir9  1  0.260988  0.333518  0.144506  1
  Ir  Ir10  1  0.739012  0.855494  0.666482  1
