# generated using pymatgen
data_EuI2
_symmetry_space_group_name_H-M   'P 1'
_cell_length_a   7.92581124
_cell_length_b   8.26041688
_cell_length_c   15.31075424
_cell_angle_alpha   90.00000000
_cell_angle_beta   90.00000000
_cell_angle_gamma   90.00000000
_symmetry_Int_Tables_number   1
_chemical_formula_structural   EuI2
_chemical_formula_sum   'Eu8 I16'
_cell_volume   1002.40281133
_cell_formula_units_Z   8
loop_
 _symmetry_equiv_pos_site_id
 _symmetry_equiv_pos_as_xyz
  1  'x, y, z'
loop_
 _atom_site_type_symbol
 _atom_site_label
 _atom_site_symmetry_multiplicity
 _atom_site_fract_x
 _atom_site_fract_y
 _atom_site_fract_z
 _atom_site_occupancy
  Eu  Eu0  1  0.222815  0.448020  0.609771  1
  Eu  Eu1  1  0.277185  0.948020  0.390229  1
  Eu  Eu2  1  0.777185  0.551980  0.390229  1
  Eu  Eu3  1  0.222815  0.948020  0.890229  1
  Eu  Eu4  1  0.722815  0.051980  0.609771  1
  Eu  Eu5  1  0.722815  0.551980  0.890229  1
  Eu  Eu6  1  0.277185  0.448020  0.109771  1
  Eu  Eu7  1  0.777185  0.051980  0.109771  1
  I  I8  1  0.662651  0.393046  0.202431  1
  I  I9  1  0.993762  0.231471  0.466371  1
  I  I10  1  0.506238  0.231471  0.966371  1
  I  I11  1  0.506238  0.731471  0.533629  1
  I  I12  1  0.162651  0.106954  0.202431  1
  I  I13  1  0.162651  0.606954  0.297569  1
  I  I14  1  0.837349  0.393046  0.702431  1
  I  I15  1  0.993762  0.731471  0.033629  1
  I  I16  1  0.493762  0.268529  0.466371  1
  I  I17  1  0.493762  0.768529  0.033629  1
  I  I18  1  0.337349  0.106954  0.702431  1
  I  I19  1  0.662651  0.893046  0.297569  1
  I  I20  1  0.006238  0.768529  0.533629  1
  I  I21  1  0.006238  0.268529  0.966371  1
  I  I22  1  0.337349  0.606954  0.797569  1
  I  I23  1  0.837349  0.893046  0.797569  1
