# generated using pymatgen
data_K3AlAs2
_symmetry_space_group_name_H-M   'P 1'
_cell_length_a   9.16589365
_cell_length_b   12.29254829
_cell_length_c   15.70399513
_cell_angle_alpha   96.89276478
_cell_angle_beta   107.00157036
_cell_angle_gamma   108.01649823
_symmetry_Int_Tables_number   1
_chemical_formula_structural   K3AlAs2
_chemical_formula_sum   'K24 Al8 As16'
_cell_volume   1565.43038042
_cell_formula_units_Z   8
loop_
 _symmetry_equiv_pos_site_id
 _symmetry_equiv_pos_as_xyz
  1  'x, y, z'
loop_
 _atom_site_type_symbol
 _atom_site_label
 _atom_site_symmetry_multiplicity
 _atom_site_fract_x
 _atom_site_fract_y
 _atom_site_fract_z
 _atom_site_occupancy
  K  K0  1  0.964517  0.917381  0.308604  1
  K  K1  1  0.035483  0.082619  0.691396  1
  K  K2  1  0.484925  0.399465  0.307785  1
  K  K3  1  0.515075  0.600535  0.692215  1
  K  K4  1  0.513310  0.760268  0.318022  1
  K  K5  1  0.486690  0.239732  0.681978  1
  K  K6  1  0.164318  0.751716  0.383294  1
  K  K7  1  0.835682  0.248284  0.616706  1
  K  K8  1  0.079623  0.425016  0.243062  1
  K  K9  1  0.920377  0.574984  0.756938  1
  K  K10  1  0.429661  0.108066  0.412996  1
  K  K11  1  0.570339  0.891934  0.587004  1
  K  K12  1  0.714030  0.078566  0.255279  1
  K  K13  1  0.285970  0.921434  0.744721  1
  K  K14  1  0.678176  0.573234  0.158441  1
  K  K15  1  0.321824  0.426766  0.841559  1
  K  K16  1  0.120678  0.098115  0.149508  1
  K  K17  1  0.879322  0.901885  0.850492  1
  K  K18  1  0.902256  0.376165  0.415334  1
  K  K19  1  0.097744  0.623835  0.584666  1
  K  K20  1  0.661172  0.082377  0.978580  1
  K  K21  1  0.338828  0.917623  0.021420  1
  K  K22  1  0.204776  0.625996  0.024126  1
  K  K23  1  0.795224  0.374004  0.975874  1
  Al  Al24  1  0.333108  0.387998  0.489896  1
  Al  Al25  1  0.666892  0.612002  0.510104  1
  Al  Al26  1  0.083821  0.142547  0.491117  1
  Al  Al27  1  0.916179  0.857453  0.508883  1
  Al  Al28  1  0.927922  0.779875  0.076546  1
  Al  Al29  1  0.072078  0.220125  0.923454  1
  Al  Al30  1  0.412670  0.268900  0.053786  1
  Al  Al31  1  0.587330  0.731100  0.946214  1
  As  As32  1  0.136029  0.219050  0.354836  1
  As  As33  1  0.863971  0.780950  0.645164  1
  As  As34  1  0.212487  0.987765  0.538977  1
  As  As35  1  0.787513  0.012235  0.461023  1
  As  As36  1  0.805909  0.660048  0.393646  1
  As  As37  1  0.194091  0.339952  0.606354  1
  As  As38  1  0.365287  0.591039  0.459118  1
  As  As39  1  0.634713  0.408961  0.540882  1
  As  As40  1  0.195600  0.832955  0.184564  1
  As  As41  1  0.804400  0.167045  0.815436  1
  As  As42  1  0.670181  0.292665  0.158847  1
  As  As43  1  0.329819  0.707335  0.841153  1
  As  As44  1  0.222743  0.370134  0.069214  1
  As  As45  1  0.777257  0.629866  0.930786  1
  As  As46  1  0.726738  0.869733  0.094537  1
  As  As47  1  0.273262  0.130267  0.905463  1
