# generated using pymatgen
data_TlBi25O39
_symmetry_space_group_name_H-M   'P 1'
_cell_length_a   9.01872155
_cell_length_b   9.01738900
_cell_length_c   17.95458979
_cell_angle_alpha   109.39943854
_cell_angle_beta   109.34355442
_cell_angle_gamma   109.62967098
_symmetry_Int_Tables_number   1
_chemical_formula_structural   TlBi25O39
_chemical_formula_sum   'Tl1 Bi25 O39'
_cell_volume   1124.59627804
_cell_formula_units_Z   1
loop_
 _symmetry_equiv_pos_site_id
 _symmetry_equiv_pos_as_xyz
  1  'x, y, z'
loop_
 _atom_site_type_symbol
 _atom_site_label
 _atom_site_symmetry_multiplicity
 _atom_site_fract_x
 _atom_site_fract_y
 _atom_site_fract_z
 _atom_site_occupancy
  Bi  Bi0  1  0.157866  0.856777  0.832652  1
  Bi  Bi1  1  0.136868  0.297130  0.902950  1
  Bi  Bi2  1  0.189981  0.498749  0.665866  1
  Bi  Bi3  1  0.313246  0.813166  0.571924  1
  Bi  Bi4  1  0.169727  0.867163  0.336960  1
  Bi  Bi5  1  0.495588  0.689465  0.916867  1
  Bi  Bi6  1  0.137471  0.307549  0.403636  1
  Bi  Bi7  1  0.329016  0.191376  0.746697  1
  Bi  Bi8  1  0.698049  0.836676  0.752863  1
  Bi  Bi9  1  0.192521  0.500234  0.168592  1
  Bi  Bi10  1  0.303255  0.803507  0.071111  1
  Bi  Bi11  1  0.497393  0.330059  0.594011  1
  Bi  Bi12  1  0.657320  0.149777  0.923602  1
  Bi  Bi13  1  0.506480  0.694991  0.418198  1
  Bi  Bi14  1  0.833756  0.499326  0.845612  1
  Bi  Bi15  1  0.353864  0.197652  0.259804  1
  Bi  Bi16  1  0.698533  0.833066  0.251659  1
  Bi  Bi17  1  0.859662  0.672972  0.584753  1
  Bi  Bi18  1  0.475732  0.323060  0.090792  1
  Bi  Bi19  1  0.813318  0.141435  0.654186  1
  Bi  Bi20  1  0.687149  0.167986  0.434014  1
  Bi  Bi21  1  0.844827  0.525522  0.352544  1
  Bi  Bi22  1  0.846270  0.640242  0.079169  1
  Bi  Bi23  1  0.795845  0.153510  0.157646  1
  Bi  Bi24  1  0.993801  -0.002356  0.013609  1
  O  O25  1  0.113858  0.751935  0.688975  1
  O  O26  1  0.264062  0.642202  0.942828  1
  O  O27  1  1.000649  0.633624  0.499929  1
  O  O28  1  0.249829  0.364299  0.813510  1
  O  O29  1  0.002786  0.003251  0.623271  1
  O  O30  1  0.994490  0.240131  0.497770  1
  O  O31  1  0.376378  0.737706  0.811375  1
  O  O32  1  0.359419  0.625809  0.622820  1
  O  O33  1  0.109787  0.750298  0.186324  1
  O  O34  1  0.377217  0.111950  0.879173  1
  O  O35  1  0.265859  0.640173  0.442886  1
  O  O36  1  0.370100  0.370449  0.684086  1
  O  O37  1  0.000471  0.627401  -0.000202  1
  O  O38  1  0.000313  0.999543  0.310798  1
  O  O39  1  0.246963  1.005379  0.497329  1
  O  O40  1  0.245861  0.354862  0.309823  1
  O  O41  1  0.623710  0.376503  0.869682  1
  O  O42  1  0.781956  0.778072  0.882950  1
  O  O43  1  0.635888  0.886423  0.630371  1
  O  O44  1  0.377312  0.733622  0.310076  1
  O  O45  1  0.356956  0.620361  0.121104  1
  O  O46  1  0.739054  0.624271  0.688145  1
  O  O47  1  0.624632  0.246195  0.679735  1
  O  O48  1  0.381813  0.116859  0.373746  1
  O  O49  1  0.366902  0.367765  0.184195  1
  O  O50  1  0.220714  0.006517  0.998332  1
  O  O51  1  0.626506  0.385762  0.369242  1
  O  O52  1  0.885105  0.261556  0.819245  1
  O  O53  1  0.764910  0.756810  0.379314  1
  O  O54  1  0.757647  0.379648  0.557817  1
  O  O55  1  0.645565  0.889759  0.133018  1
  O  O56  1  0.633619  0.999833  0.499246  1
  O  O57  1  0.729387  0.614197  0.182418  1
  O  O58  1  0.608700  0.237753  0.175820  1
  O  O59  1  0.999850  0.999654  0.804801  1
  O  O60  1  0.884638  0.267756  0.317115  1
  O  O61  1  0.757551  0.368719  0.055285  1
  O  O62  1  0.629023  -0.000618  0.000447  1
  O  O63  1  -0.004070  0.215930  0.992717  1
  Tl  Tl64  1  0.007050  1.003606  0.502765  1
