# generated using pymatgen
data_La2Fe2Se2O3
_symmetry_space_group_name_H-M   'P 1'
_cell_length_a   4.13767088
_cell_length_b   4.13657754
_cell_length_c   9.97990431
_cell_angle_alpha   101.93683953
_cell_angle_beta   101.94006182
_cell_angle_gamma   90.12338181
_symmetry_Int_Tables_number   1
_chemical_formula_structural   La2Fe2Se2O3
_chemical_formula_sum   'La2 Fe2 Se2 O3'
_cell_volume   163.32430368
_cell_formula_units_Z   1
loop_
 _symmetry_equiv_pos_site_id
 _symmetry_equiv_pos_as_xyz
  1  'x, y, z'
loop_
 _atom_site_type_symbol
 _atom_site_label
 _atom_site_symmetry_multiplicity
 _atom_site_fract_x
 _atom_site_fract_y
 _atom_site_fract_z
 _atom_site_occupancy
  La  La0  1  0.313209  0.313222  0.626466  1
  La  La1  1  0.686789  0.686781  0.373534  1
  Fe  Fe2  1  0.000002  0.500001  0.000000  1
  Fe  Fe3  1  0.500001  -0.000004  0.999999  1
  Se  Se4  1  0.901350  0.901355  0.802323  1
  Se  Se5  1  0.098650  0.098645  0.197676  1
  O  O6  1  0.500001  0.500000  0.000000  1
  O  O7  1  0.749970  0.249961  0.499928  1
  O  O8  1  0.250028  0.750040  0.500073  1
