# generated using pymatgen
data_SiC
_symmetry_space_group_name_H-M   'P 1'
_cell_length_a   32.90377935
_cell_length_b   32.90377930
_cell_length_c   32.90377946
_cell_angle_alpha   5.39747670
_cell_angle_beta   5.39747771
_cell_angle_gamma   5.39747767
_symmetry_Int_Tables_number   1
_chemical_formula_structural   SiC
_chemical_formula_sum   'Si13 C13'
_cell_volume   273.17462777
_cell_formula_units_Z   13
loop_
 _symmetry_equiv_pos_site_id
 _symmetry_equiv_pos_as_xyz
  1  'x, y, z'
loop_
 _atom_site_type_symbol
 _atom_site_label
 _atom_site_symmetry_multiplicity
 _atom_site_fract_x
 _atom_site_fract_y
 _atom_site_fract_z
 _atom_site_occupancy
  Si  Si0  1  0.615365  0.615365  0.615365  1
  Si  Si1  1  0.153830  0.153830  0.153830  1
  Si  Si2  1  0.923071  0.923071  0.923071  1
  Si  Si3  1  0.769217  0.769217  0.769217  1
  Si  Si4  1  0.717913  0.717913  0.717913  1
  Si  Si5  1  0.076902  0.076902  0.076902  1
  Si  Si6  1  0.358961  0.358961  0.358961  1
  Si  Si7  1  0.999980  0.999980  0.999980  1
  Si  Si8  1  0.307655  0.307655  0.307655  1
  Si  Si9  1  0.461505  0.461505  0.461505  1
  Si  Si10  1  0.230756  0.230756  0.230756  1
  Si  Si11  1  0.871763  0.871763  0.871763  1
  Si  Si12  1  0.512810  0.512810  0.512810  1
  C  C13  1  0.532067  0.532067  0.532067  1
  C  C14  1  0.326904  0.326904  0.326904  1
  C  C15  1  0.173142  0.173142  0.173142  1
  C  C16  1  0.891011  0.891011  0.891011  1
  C  C17  1  0.096221  0.096221  0.096221  1
  C  C18  1  0.942329  0.942329  0.942329  1
  C  C19  1  0.019296  0.019296  0.019296  1
  C  C20  1  0.480753  0.480753  0.480753  1
  C  C21  1  0.634618  0.634618  0.634618  1
  C  C22  1  0.788478  0.788478  0.788478  1
  C  C23  1  0.250069  0.250069  0.250069  1
  C  C24  1  0.378216  0.378216  0.378216  1
  C  C25  1  0.737158  0.737158  0.737158  1
