# generated using pymatgen
data_CsFe2S3
_symmetry_space_group_name_H-M   'P 1'
_cell_length_a   5.17950005
_cell_length_b   7.62950248
_cell_length_c   7.62950210
_cell_angle_alpha   103.26549631
_cell_angle_beta   90.00000000
_cell_angle_gamma   90.00000000
_symmetry_Int_Tables_number   1
_chemical_formula_structural   CsFe2S3
_chemical_formula_sum   'Cs2 Fe4 S6'
_cell_volume   293.45037566
_cell_formula_units_Z   2
loop_
 _symmetry_equiv_pos_site_id
 _symmetry_equiv_pos_as_xyz
  1  'x, y, z'
loop_
 _atom_site_type_symbol
 _atom_site_label
 _atom_site_symmetry_multiplicity
 _atom_site_fract_x
 _atom_site_fract_y
 _atom_site_fract_z
 _atom_site_occupancy
  Cs  Cs0  1  0.750000  0.673607  0.326393  1
  Cs  Cs1  1  0.250000  0.326393  0.673607  1
  Fe  Fe2  1  0.000000  0.865604  0.865604  1
  Fe  Fe3  1  0.500000  0.134396  0.134396  1
  Fe  Fe4  1  0.000000  0.134396  0.134396  1
  Fe  Fe5  1  0.500000  0.865604  0.865604  1
  S  S6  1  0.750000  0.101268  0.898732  1
  S  S7  1  0.250000  0.898732  0.101268  1
  S  S8  1  0.750000  0.640705  0.838887  1
  S  S9  1  0.250000  0.359295  0.161113  1
  S  S10  1  0.250000  0.838887  0.640705  1
  S  S11  1  0.750000  0.161113  0.359295  1
