# generated using pymatgen
data_In5(BiS4)3
_symmetry_space_group_name_H-M   'P 1'
_cell_length_a   3.92123008
_cell_length_b   14.56597532
_cell_length_c   16.87288990
_cell_angle_alpha   90.57303007
_cell_angle_beta   96.67279065
_cell_angle_gamma   90.00000128
_symmetry_Int_Tables_number   1
_chemical_formula_structural   In5(BiS4)3
_chemical_formula_sum   'In10 Bi6 S24'
_cell_volume   957.14427365
_cell_formula_units_Z   2
loop_
 _symmetry_equiv_pos_site_id
 _symmetry_equiv_pos_as_xyz
  1  'x, y, z'
loop_
 _atom_site_type_symbol
 _atom_site_label
 _atom_site_symmetry_multiplicity
 _atom_site_fract_x
 _atom_site_fract_y
 _atom_site_fract_z
 _atom_site_occupancy
  Bi  Bi0  1  0.865039  0.014666  0.730079  1
  Bi  Bi1  1  0.134961  0.985334  0.269921  1
  Bi  Bi2  1  0.680204  0.732802  0.360408  1
  Bi  Bi3  1  0.319796  0.267198  0.639592  1
  Bi  Bi4  1  0.447149  0.790065  0.894298  1
  Bi  Bi5  1  0.552851  0.209935  0.105702  1
  In  In6  1  0.000000  0.000000  0.000000  1
  In  In7  1  0.000000  0.500000  0.000000  1
  In  In8  1  0.783228  0.582248  0.566456  1
  In  In9  1  0.216772  0.417752  0.433544  1
  In  In10  1  0.597636  0.496455  0.195273  1
  In  In11  1  0.402364  0.503545  0.804727  1
  In  In12  1  0.326578  0.780282  0.653157  1
  In  In13  1  0.673422  0.219718  0.346843  1
  In  In14  1  0.071618  0.721838  0.143236  1
  In  In15  1  0.928382  0.278162  0.856764  1
  S  S16  1  0.005976  0.818359  0.011953  1
  S  S17  1  0.994024  0.181641  0.988047  1
  S  S18  1  0.937886  0.598584  0.875771  1
  S  S19  1  0.062114  0.401416  0.124229  1
  S  S20  1  0.885588  0.819119  0.771176  1
  S  S21  1  0.114412  0.180881  0.228824  1
  S  S22  1  0.777907  0.760920  0.555814  1
  S  S23  1  0.222093  0.239080  0.444186  1
  S  S24  1  0.604989  0.812899  0.209977  1
  S  S25  1  0.395011  0.187101  0.790023  1
  S  S26  1  0.534567  0.606346  0.069133  1
  S  S27  1  0.465433  0.393654  0.930867  1
  S  S28  1  0.446867  0.972905  0.893733  1
  S  S29  1  0.553133  0.027095  0.106267  1
  S  S30  1  0.338048  0.601809  0.676095  1
  S  S31  1  0.661952  0.398191  0.323905  1
  S  S32  1  0.195326  0.852243  0.390652  1
  S  S33  1  0.804674  0.147757  0.609348  1
  S  S34  1  0.126741  0.604480  0.253483  1
  S  S35  1  0.873259  0.395520  0.746517  1
  S  S36  1  0.227987  0.591157  0.455975  1
  S  S37  1  0.772013  0.408843  0.544025  1
  S  S38  1  0.317392  0.958444  0.634784  1
  S  S39  1  0.682608  0.041556  0.365216  1
