# generated using pymatgen
data_Na(CO)2
_symmetry_space_group_name_H-M   'P 1'
_cell_length_a   3.56214072
_cell_length_b   6.90581553
_cell_length_c   10.47102425
_cell_angle_alpha   90.00000000
_cell_angle_beta   92.14429251
_cell_angle_gamma   90.00000000
_symmetry_Int_Tables_number   1
_chemical_formula_structural   Na(CO)2
_chemical_formula_sum   'Na4 C8 O8'
_cell_volume   257.40145486
_cell_formula_units_Z   4
loop_
 _symmetry_equiv_pos_site_id
 _symmetry_equiv_pos_as_xyz
  1  'x, y, z'
loop_
 _atom_site_type_symbol
 _atom_site_label
 _atom_site_symmetry_multiplicity
 _atom_site_fract_x
 _atom_site_fract_y
 _atom_site_fract_z
 _atom_site_occupancy
  Na  Na0  1  0.706040  0.441549  0.849328  1
  Na  Na1  1  0.293960  0.558451  0.150672  1
  Na  Na2  1  0.706040  0.058451  0.349328  1
  Na  Na3  1  0.293960  0.941549  0.650672  1
  C  C4  1  0.107245  0.140623  0.999438  1
  C  C5  1  0.097835  0.516777  0.594544  1
  C  C6  1  0.892755  0.859377  0.000562  1
  C  C7  1  0.892755  0.640623  0.500562  1
  C  C8  1  0.902165  0.016777  0.905456  1
  C  C9  1  0.902165  0.483223  0.405456  1
  C  C10  1  0.107245  0.359377  0.499438  1
  C  C11  1  0.097835  0.983223  0.094544  1
  O  O12  1  0.787368  0.044733  0.791062  1
  O  O13  1  0.212632  0.955267  0.208938  1
  O  O14  1  0.769217  0.688026  0.005824  1
  O  O15  1  0.787368  0.455267  0.291062  1
  O  O16  1  0.212632  0.544733  0.708938  1
  O  O17  1  0.230783  0.188026  0.494176  1
  O  O18  1  0.769217  0.811974  0.505824  1
  O  O19  1  0.230783  0.311974  0.994176  1
