# generated using pymatgen
data_SiO2
_symmetry_space_group_name_H-M   'P 1'
_cell_length_a   17.17723028
_cell_length_b   17.17723009
_cell_length_c   12.88105441
_cell_angle_alpha   90.00000000
_cell_angle_beta   90.00000000
_cell_angle_gamma   120.00000038
_symmetry_Int_Tables_number   1
_chemical_formula_structural   SiO2
_chemical_formula_sum   'Si54 O108'
_cell_volume   3291.45798532
_cell_formula_units_Z   54
loop_
 _symmetry_equiv_pos_site_id
 _symmetry_equiv_pos_as_xyz
  1  'x, y, z'
loop_
 _atom_site_type_symbol
 _atom_site_label
 _atom_site_symmetry_multiplicity
 _atom_site_fract_x
 _atom_site_fract_y
 _atom_site_fract_z
 _atom_site_occupancy
  O  O0  1  0.410840  0.339932  0.811488  1
  O  O1  1  0.410840  0.339932  0.188512  1
  O  O2  1  0.070908  0.410840  0.811488  1
  O  O3  1  0.070908  0.410840  0.188512  1
  O  O4  1  0.444340  0.859634  0.838672  1
  O  O5  1  0.444340  0.859634  0.161328  1
  O  O6  1  0.642720  0.121442  0.000000  1
  O  O7  1  0.541459  0.859029  0.000000  1
  O  O8  1  0.731524  0.245396  0.145508  1
  O  O9  1  0.731524  0.245396  0.854492  1
  O  O10  1  0.486128  0.731524  0.145508  1
  O  O11  1  0.486128  0.731524  0.854492  1
  O  O12  1  0.859634  0.415294  0.161328  1
  O  O13  1  0.859634  0.415294  0.838672  1
  O  O14  1  0.613935  0.898422  0.186756  1
  O  O15  1  0.613935  0.898422  0.813244  1
  O  O16  1  0.521278  0.642720  0.000000  1
  O  O17  1  0.859029  0.317570  0.000000  1
  O  O18  1  0.745195  0.013500  0.307173  1
  O  O19  1  0.745195  0.013500  0.692827  1
  O  O20  1  0.770259  0.021801  0.896770  1
  O  O21  1  0.770259  0.021801  0.103230  1
  O  O22  1  0.898422  0.284488  0.186756  1
  O  O23  1  0.898422  0.284488  0.813244  1
  O  O24  1  0.792449  0.011167  0.500000  1
  O  O25  1  0.731695  0.745195  0.692827  1
  O  O26  1  0.731695  0.745195  0.307173  1
  O  O27  1  0.823936  0.918686  0.645000  1
  O  O28  1  0.823936  0.918686  0.355000  1
  O  O29  1  0.748458  0.770259  0.896770  1
  O  O30  1  0.748458  0.770259  0.103230  1
  O  O31  1  0.584706  0.444340  0.838672  1
  O  O32  1  0.584706  0.444340  0.161328  1
  O  O33  1  0.824090  0.922958  0.000000  1
  O  O34  1  0.918686  0.094751  0.645000  1
  O  O35  1  0.918686  0.094751  0.355000  1
  O  O36  1  0.922958  0.098867  0.000000  1
  O  O37  1  0.339932  0.929092  0.811488  1
  O  O38  1  0.339932  0.929092  0.188512  1
  O  O39  1  0.781281  0.792449  0.500000  1
  O  O40  1  0.013500  0.268305  0.692827  1
  O  O41  1  0.013500  0.268305  0.307173  1
  O  O42  1  0.121442  0.478722  0.000000  1
  O  O43  1  0.021801  0.251542  0.103230  1
  O  O44  1  0.021801  0.251542  0.896770  1
  O  O45  1  0.011167  0.218719  0.500000  1
  O  O46  1  0.715512  0.613935  0.813244  1
  O  O47  1  0.715512  0.613935  0.186756  1
  O  O48  1  0.682430  0.541459  0.000000  1
  O  O49  1  0.245396  0.513872  0.145508  1
  O  O50  1  0.245396  0.513872  0.854492  1
  O  O51  1  0.901133  0.824090  0.000000  1
  O  O52  1  0.905249  0.823936  0.645000  1
  O  O53  1  0.905249  0.823936  0.355000  1
  O  O54  1  0.094751  0.176064  0.645000  1
  O  O55  1  0.094751  0.176064  0.355000  1
  O  O56  1  0.098867  0.175910  0.000000  1
  O  O57  1  0.754604  0.486128  0.145508  1
  O  O58  1  0.754604  0.486128  0.854492  1
  O  O59  1  0.317570  0.458541  0.000000  1
  O  O60  1  0.284488  0.386065  0.813244  1
  O  O61  1  0.284488  0.386065  0.186756  1
  O  O62  1  0.988833  0.781281  0.500000  1
  O  O63  1  0.978199  0.748458  0.103230  1
  O  O64  1  0.978199  0.748458  0.896770  1
  O  O65  1  0.878558  0.521278  0.000000  1
  O  O66  1  0.986500  0.731695  0.692827  1
  O  O67  1  0.986500  0.731695  0.307173  1
  O  O68  1  0.218719  0.207551  0.500000  1
  O  O69  1  0.660068  0.070908  0.811488  1
  O  O70  1  0.660068  0.070908  0.188512  1
  O  O71  1  0.077042  0.901133  0.000000  1
  O  O72  1  0.081314  0.905249  0.645000  1
  O  O73  1  0.081314  0.905249  0.355000  1
  O  O74  1  0.175910  0.077042  0.000000  1
  O  O75  1  0.415294  0.555660  0.838672  1
  O  O76  1  0.415294  0.555660  0.161328  1
  O  O77  1  0.251542  0.229741  0.896770  1
  O  O78  1  0.251542  0.229741  0.103230  1
  O  O79  1  0.176064  0.081314  0.645000  1
  O  O80  1  0.176064  0.081314  0.355000  1
  O  O81  1  0.268305  0.254805  0.692827  1
  O  O82  1  0.268305  0.254805  0.307173  1
  O  O83  1  0.207551  0.988833  0.500000  1
  O  O84  1  0.101578  0.715512  0.186756  1
  O  O85  1  0.101578  0.715512  0.813244  1
  O  O86  1  0.229741  0.978199  0.896770  1
  O  O87  1  0.229741  0.978199  0.103230  1
  O  O88  1  0.254805  0.986500  0.307173  1
  O  O89  1  0.254805  0.986500  0.692827  1
  O  O90  1  0.140971  0.682430  0.000000  1
  O  O91  1  0.478722  0.357280  0.000000  1
  O  O92  1  0.386065  0.101578  0.186756  1
  O  O93  1  0.386065  0.101578  0.813244  1
  O  O94  1  0.140366  0.584706  0.161328  1
  O  O95  1  0.140366  0.584706  0.838672  1
  O  O96  1  0.513872  0.268476  0.145508  1
  O  O97  1  0.513872  0.268476  0.854492  1
  O  O98  1  0.268476  0.754604  0.145508  1
  O  O99  1  0.268476  0.754604  0.854492  1
  O  O100  1  0.458541  0.140971  0.000000  1
  O  O101  1  0.357280  0.878558  0.000000  1
  O  O102  1  0.555660  0.140366  0.838672  1
  O  O103  1  0.555660  0.140366  0.161328  1
  O  O104  1  0.929092  0.589160  0.811488  1
  O  O105  1  0.929092  0.589160  0.188512  1
  O  O106  1  0.589160  0.660068  0.811488  1
  O  O107  1  0.589160  0.660068  0.188512  1
  Si  Si108  1  0.179147  0.984567  0.000000  1
  Si  Si109  1  0.180055  0.990582  0.379560  1
  Si  Si110  1  0.180055  0.990582  0.620440  1
  Si  Si111  1  0.302310  0.998814  0.195047  1
  Si  Si112  1  0.302310  0.998814  0.804953  1
  Si  Si113  1  0.162962  0.684088  0.123395  1
  Si  Si114  1  0.162962  0.684088  0.876605  1
  Si  Si115  1  0.001186  0.303496  0.195047  1
  Si  Si116  1  0.001186  0.303496  0.804953  1
  Si  Si117  1  0.144722  0.496745  0.123442  1
  Si  Si118  1  0.144722  0.496745  0.876558  1
  Si  Si119  1  0.009418  0.189474  0.620440  1
  Si  Si120  1  0.009418  0.189474  0.379560  1
  Si  Si121  1  0.015433  0.194580  0.000000  1
  Si  Si122  1  0.352023  0.855278  0.876558  1
  Si  Si123  1  0.352023  0.855278  0.123442  1
  Si  Si124  1  0.315912  0.478875  0.123395  1
  Si  Si125  1  0.315912  0.478875  0.876605  1
  Si  Si126  1  0.189474  0.180055  0.379560  1
  Si  Si127  1  0.189474  0.180055  0.620440  1
  Si  Si128  1  0.194580  0.179147  0.000000  1
  Si  Si129  1  0.521125  0.837038  0.876605  1
  Si  Si130  1  0.521125  0.837038  0.123395  1
  Si  Si131  1  0.303496  0.302310  0.195047  1
  Si  Si132  1  0.303496  0.302310  0.804953  1
  Si  Si133  1  0.503255  0.647977  0.123442  1
  Si  Si134  1  0.503255  0.647977  0.876558  1
  Si  Si135  1  0.496745  0.352023  0.123442  1
  Si  Si136  1  0.496745  0.352023  0.876558  1
  Si  Si137  1  0.696504  0.697690  0.195047  1
  Si  Si138  1  0.696504  0.697690  0.804953  1
  Si  Si139  1  0.478875  0.162962  0.876605  1
  Si  Si140  1  0.478875  0.162962  0.123395  1
  Si  Si141  1  0.805420  0.820853  0.000000  1
  Si  Si142  1  0.810526  0.819945  0.379560  1
  Si  Si143  1  0.810526  0.819945  0.620440  1
  Si  Si144  1  0.684088  0.521125  0.876605  1
  Si  Si145  1  0.684088  0.521125  0.123395  1
  Si  Si146  1  0.647977  0.144722  0.123442  1
  Si  Si147  1  0.647977  0.144722  0.876558  1
  Si  Si148  1  0.984567  0.805420  0.000000  1
  Si  Si149  1  0.990582  0.810526  0.379560  1
  Si  Si150  1  0.990582  0.810526  0.620440  1
  Si  Si151  1  0.855278  0.503255  0.123442  1
  Si  Si152  1  0.855278  0.503255  0.876558  1
  Si  Si153  1  0.998814  0.696504  0.195047  1
  Si  Si154  1  0.998814  0.696504  0.804953  1
  Si  Si155  1  0.837038  0.315912  0.123395  1
  Si  Si156  1  0.837038  0.315912  0.876605  1
  Si  Si157  1  0.697690  0.001186  0.804953  1
  Si  Si158  1  0.697690  0.001186  0.195047  1
  Si  Si159  1  0.819945  0.009418  0.620440  1
  Si  Si160  1  0.819945  0.009418  0.379560  1
  Si  Si161  1  0.820853  0.015433  0.000000  1
