# generated using pymatgen
data_Ba6Ti5S15O
_symmetry_space_group_name_H-M   'P 1'
_cell_length_a   6.77247694
_cell_length_b   8.60278174
_cell_length_c   24.01205587
_cell_angle_alpha   90.00000000
_cell_angle_beta   90.00000000
_cell_angle_gamma   113.18001822
_symmetry_Int_Tables_number   1
_chemical_formula_structural   Ba6Ti5S15O
_chemical_formula_sum   'Ba12 Ti10 S30 O2'
_cell_volume   1286.05675092
_cell_formula_units_Z   2
loop_
 _symmetry_equiv_pos_site_id
 _symmetry_equiv_pos_as_xyz
  1  'x, y, z'
loop_
 _atom_site_type_symbol
 _atom_site_label
 _atom_site_symmetry_multiplicity
 _atom_site_fract_x
 _atom_site_fract_y
 _atom_site_fract_z
 _atom_site_occupancy
  Ba  Ba0  1  0.181097  0.801666  0.322127  1
  Ba  Ba1  1  0.818903  0.198334  0.822127  1
  Ba  Ba2  1  0.314754  0.216868  0.163843  1
  Ba  Ba3  1  0.444608  0.289262  0.482886  1
  Ba  Ba4  1  0.620569  0.801666  0.177873  1
  Ba  Ba5  1  0.555392  0.710738  0.982886  1
  Ba  Ba6  1  0.844653  0.289262  0.017114  1
  Ba  Ba7  1  0.379431  0.198334  0.677873  1
  Ba  Ba8  1  0.685246  0.783132  0.663843  1
  Ba  Ba9  1  0.097885  0.783132  0.836157  1
  Ba  Ba10  1  0.155347  0.710738  0.517114  1
  Ba  Ba11  1  0.902115  0.216868  0.336157  1
  Ti  Ti12  1  0.111001  0.743358  0.094620  1
  Ti  Ti13  1  0.448902  0.513649  0.804979  1
  Ti  Ti14  1  0.064747  0.513649  0.695021  1
  Ti  Ti15  1  0.173928  0.000000  0.000000  1
  Ti  Ti16  1  0.367644  0.256642  0.905380  1
  Ti  Ti17  1  0.888999  0.256642  0.594620  1
  Ti  Ti18  1  0.632356  0.743358  0.405380  1
  Ti  Ti19  1  0.826072  0.000000  0.500000  1
  Ti  Ti20  1  0.935253  0.486351  0.195021  1
  Ti  Ti21  1  0.551098  0.486351  0.304979  1
  S  S22  1  0.949281  0.305266  0.493603  1
  S  S23  1  0.692279  0.474447  0.890183  1
  S  S24  1  0.215229  0.476268  0.884335  1
  S  S25  1  0.050719  0.694734  0.993603  1
  S  S26  1  0.738960  0.523732  0.115665  1
  S  S27  1  0.609306  0.801184  0.803848  1
  S  S28  1  0.063773  0.034753  0.573628  1
  S  S29  1  0.808122  0.198816  0.196152  1
  S  S30  1  0.439494  0.971858  0.072552  1
  S  S31  1  0.355985  0.305266  0.006397  1
  S  S32  1  0.307721  0.525553  0.390183  1
  S  S33  1  0.782168  0.474447  0.609817  1
  S  S34  1  0.744273  0.488545  0.750000  1
  S  S35  1  0.970980  0.034753  0.926372  1
  S  S36  1  0.696946  0.823387  0.309222  1
  S  S37  1  0.873559  0.176613  0.690778  1
  S  S38  1  0.784771  0.523732  0.384335  1
  S  S39  1  0.936227  0.965247  0.073628  1
  S  S40  1  0.390694  0.198816  0.303848  1
  S  S41  1  0.532364  0.971858  0.427448  1
  S  S42  1  0.255727  0.511455  0.250000  1
  S  S43  1  0.191878  0.801184  0.696152  1
  S  S44  1  0.644015  0.694734  0.506397  1
  S  S45  1  0.029020  0.965247  0.426372  1
  S  S46  1  0.217832  0.525553  0.109817  1
  S  S47  1  0.303054  0.176613  0.809222  1
  S  S48  1  0.467636  0.028142  0.927448  1
  S  S49  1  0.560506  0.028142  0.572552  1
  S  S50  1  0.261040  0.476268  0.615665  1
  S  S51  1  0.126441  0.823387  0.190778  1
  O  O52  1  0.243780  0.487560  0.750000  1
  O  O53  1  0.756220  0.512440  0.250000  1
