# generated using pymatgen
data_KNaZnP2O7
_symmetry_space_group_name_H-M   'P 1'
_cell_length_a   7.37343188
_cell_length_b   7.54654158
_cell_length_c   12.77157493
_cell_angle_alpha   89.95842860
_cell_angle_beta   90.00000000
_cell_angle_gamma   90.00000000
_symmetry_Int_Tables_number   1
_chemical_formula_structural   KNaZnP2O7
_chemical_formula_sum   'K4 Na4 Zn4 P8 O28'
_cell_volume   710.66018300
_cell_formula_units_Z   4
loop_
 _symmetry_equiv_pos_site_id
 _symmetry_equiv_pos_as_xyz
  1  'x, y, z'
loop_
 _atom_site_type_symbol
 _atom_site_label
 _atom_site_symmetry_multiplicity
 _atom_site_fract_x
 _atom_site_fract_y
 _atom_site_fract_z
 _atom_site_occupancy
  K  K0  1  0.207377  0.599925  0.397037  1
  K  K1  1  0.292623  0.099925  0.897037  1
  K  K2  1  0.792623  0.400075  0.602963  1
  K  K3  1  0.707377  0.900075  0.102963  1
  Na  Na4  1  0.476797  0.372220  0.112417  1
  Na  Na5  1  0.976797  0.127780  0.387583  1
  Na  Na6  1  0.523203  0.627780  0.887583  1
  Na  Na7  1  0.023203  0.872220  0.612417  1
  Zn  Zn8  1  0.480251  0.169476  0.378789  1
  Zn  Zn9  1  0.519749  0.830524  0.621211  1
  Zn  Zn10  1  0.019749  0.669476  0.878789  1
  Zn  Zn11  1  0.980251  0.330524  0.121211  1
  P  P12  1  0.285523  0.174773  0.599024  1
  P  P13  1  0.214477  0.674773  0.099024  1
  P  P14  1  0.218635  0.024767  0.202780  1
  P  P15  1  0.281365  0.524767  0.702780  1
  P  P16  1  0.785523  0.325227  0.900976  1
  P  P17  1  0.714477  0.825227  0.400976  1
  P  P18  1  0.781365  0.975233  0.797220  1
  P  P19  1  0.718635  0.475233  0.297220  1
  O  O20  1  0.523391  0.407471  0.317656  1
  O  O21  1  0.902144  0.814546  0.448622  1
  O  O22  1  0.097856  0.185454  0.551378  1
  O  O23  1  0.183176  0.491512  0.150762  1
  O  O24  1  0.597856  0.314546  0.948622  1
  O  O25  1  0.443920  0.230140  0.527266  1
  O  O26  1  0.316824  0.991512  0.650762  1
  O  O27  1  0.402144  0.685454  0.051378  1
  O  O28  1  0.816824  0.508488  0.849238  1
  O  O29  1  0.476609  0.592529  0.682344  1
  O  O30  1  0.556080  0.769860  0.472734  1
  O  O31  1  0.736963  0.940776  0.680683  1
  O  O32  1  0.640467  0.913510  0.875191  1
  O  O33  1  0.943920  0.269860  0.972734  1
  O  O34  1  0.703315  0.691925  0.299938  1
  O  O35  1  0.263037  0.059224  0.319317  1
  O  O36  1  0.056080  0.730140  0.027266  1
  O  O37  1  0.763037  0.440776  0.180683  1
  O  O38  1  0.236963  0.559224  0.819317  1
  O  O39  1  0.296685  0.308075  0.700062  1
  O  O40  1  0.859533  0.413510  0.375191  1
  O  O41  1  0.140467  0.586490  0.624809  1
  O  O42  1  0.023391  0.092529  0.182344  1
  O  O43  1  0.359533  0.086490  0.124809  1
  O  O44  1  0.976609  0.907471  0.817656  1
  O  O45  1  0.683176  0.008488  0.349238  1
  O  O46  1  0.203315  0.808075  0.200062  1
  O  O47  1  0.796685  0.191925  0.799938  1
