# generated using pymatgen
data_Cs3Mn4(PO3)12
_symmetry_space_group_name_H-M   'P 1'
_cell_length_a   9.68232892
_cell_length_b   9.68236726
_cell_length_c   11.30906605
_cell_angle_alpha   100.89098303
_cell_angle_beta   106.49599476
_cell_angle_gamma   116.59944272
_symmetry_Int_Tables_number   1
_chemical_formula_structural   Cs3Mn4(PO3)12
_chemical_formula_sum   'Cs3 Mn4 P12 O36'
_cell_volume   844.94155152
_cell_formula_units_Z   1
loop_
 _symmetry_equiv_pos_site_id
 _symmetry_equiv_pos_as_xyz
  1  'x, y, z'
loop_
 _atom_site_type_symbol
 _atom_site_label
 _atom_site_symmetry_multiplicity
 _atom_site_fract_x
 _atom_site_fract_y
 _atom_site_fract_z
 _atom_site_occupancy
  Cs  Cs0  1  0.500000  0.000000  0.500000  1
  Cs  Cs1  1  0.784237  0.784205  0.000026  1
  Cs  Cs2  1  0.215763  0.215795  0.999974  1
  Mn  Mn3  1  0.203200  0.208151  0.411347  1
  Mn  Mn4  1  0.796800  0.791849  0.588653  1
  Mn  Mn5  1  0.323480  0.749494  0.072987  1
  Mn  Mn6  1  0.676520  0.250506  0.927013  1
  P  P7  1  0.381543  0.834943  0.800356  1
  P  P8  1  0.034568  0.581185  0.199641  1
  P  P9  1  0.618457  0.165057  0.199644  1
  P  P10  1  0.965432  0.418815  0.800359  1
  P  P11  1  0.430550  0.606442  0.628404  1
  P  P12  1  0.978052  0.802178  0.371624  1
  P  P13  1  0.569450  0.393558  0.371596  1
  P  P14  1  0.021948  0.197822  0.628376  1
  P  P15  1  0.393691  0.333164  0.726833  1
  P  P16  1  0.606309  0.666836  0.273167  1
  P  P17  1  0.062824  0.762065  0.824842  1
  P  P18  1  0.937176  0.237935  0.175158  1
  O  O19  1  0.325003  0.680059  0.671642  1
  O  O20  1  0.008480  0.653424  0.328373  1
  O  O21  1  0.674997  0.319941  0.328358  1
  O  O22  1  0.991520  0.346576  0.671627  1
  O  O23  1  0.496223  0.995015  0.790235  1
  O  O24  1  0.204763  0.705955  0.209736  1
  O  O25  1  0.503777  0.004985  0.209765  1
  O  O26  1  0.795237  0.294045  0.790264  1
  O  O27  1  0.196519  0.813890  0.760333  1
  O  O28  1  0.053519  0.436163  0.239628  1
  O  O29  1  0.803481  0.186110  0.239667  1
  O  O30  1  0.946481  0.563837  0.760372  1
  O  O31  1  0.432963  0.800308  0.924416  1
  O  O32  1  0.875852  0.508582  0.075592  1
  O  O33  1  0.567037  0.199692  0.075584  1
  O  O34  1  0.124148  0.491418  0.924408  1
  O  O35  1  0.601268  0.750596  0.655896  1
  O  O36  1  0.094717  0.945415  0.344139  1
  O  O37  1  0.398732  0.249404  0.344104  1
  O  O38  1  0.905283  0.054585  0.655861  1
  O  O39  1  0.315859  0.473306  0.493684  1
  O  O40  1  0.979655  0.822175  0.506338  1
  O  O41  1  0.684141  0.526694  0.506316  1
  O  O42  1  0.020345  0.177825  0.493662  1
  O  O43  1  0.464651  0.524064  0.739153  1
  O  O44  1  0.784916  0.725510  0.260871  1
  O  O45  1  0.535349  0.475936  0.260847  1
  O  O46  1  0.215084  0.274490  0.739129  1
  O  O47  1  0.510693  0.339117  0.849788  1
  O  O48  1  0.489307  0.660883  0.150212  1
  O  O49  1  0.362350  0.230339  0.592702  1
  O  O50  1  0.637650  0.769661  0.407298  1
  O  O51  1  0.949406  0.825690  0.775074  1
  O  O52  1  0.050594  0.174310  0.224926  1
  O  O53  1  0.150920  0.822764  0.973559  1
  O  O54  1  0.849080  0.177236  0.026441  1
