# generated using pymatgen
data_TlC
_symmetry_space_group_name_H-M   'P 1'
_cell_length_a   3.55852410
_cell_length_b   3.55852382
_cell_length_c   3.55852361
_cell_angle_alpha   59.99999414
_cell_angle_beta   59.99999672
_cell_angle_gamma   59.99999982
_symmetry_Int_Tables_number   1
_chemical_formula_structural   TlC
_chemical_formula_sum   'Tl1 C1'
_cell_volume   31.86358311
_cell_formula_units_Z   1
loop_
 _symmetry_equiv_pos_site_id
 _symmetry_equiv_pos_as_xyz
  1  'x, y, z'
loop_
 _atom_site_type_symbol
 _atom_site_label
 _atom_site_symmetry_multiplicity
 _atom_site_fract_x
 _atom_site_fract_y
 _atom_site_fract_z
 _atom_site_occupancy
  Tl  Tl0  1  0.000000  0.000000  0.000000  1
  C  C1  1  0.500000  0.500000  0.500000  1
