# generated using pymatgen
data_CoH4SeO5
_symmetry_space_group_name_H-M   'P 1'
_cell_length_a   6.54281289
_cell_length_b   7.48784304
_cell_length_c   9.99117225
_cell_angle_alpha   90.00000000
_cell_angle_beta   90.00000000
_cell_angle_gamma   101.15713385
_symmetry_Int_Tables_number   1
_chemical_formula_structural   CoH4SeO5
_chemical_formula_sum   'Co4 H16 Se4 O20'
_cell_volume   480.23194173
_cell_formula_units_Z   4
loop_
 _symmetry_equiv_pos_site_id
 _symmetry_equiv_pos_as_xyz
  1  'x, y, z'
loop_
 _atom_site_type_symbol
 _atom_site_label
 _atom_site_symmetry_multiplicity
 _atom_site_fract_x
 _atom_site_fract_y
 _atom_site_fract_z
 _atom_site_occupancy
  Co  Co0  1  0.638416  0.479805  0.372948  1
  Co  Co1  1  0.861584  0.020195  0.872948  1
  Co  Co2  1  0.361584  0.520195  0.627052  1
  Co  Co3  1  0.138416  0.979805  0.127052  1
  H  H4  1  0.354029  0.114656  0.495446  1
  H  H5  1  0.145971  0.385344  0.995446  1
  H  H6  1  0.645971  0.885344  0.504554  1
  H  H7  1  0.854029  0.614656  0.004554  1
  H  H8  1  0.511401  0.127053  0.303159  1
  H  H9  1  0.988599  0.372947  0.803159  1
  H  H10  1  0.488599  0.872947  0.696841  1
  H  H11  1  0.011401  0.627053  0.196841  1
  H  H12  1  0.669331  0.125374  0.421488  1
  H  H13  1  0.830669  0.374626  0.921488  1
  H  H14  1  0.330669  0.874626  0.578512  1
  H  H15  1  0.169331  0.625374  0.078512  1
  H  H16  1  0.275015  0.387108  0.125583  1
  H  H17  1  0.224985  0.112892  0.625583  1
  H  H18  1  0.724985  0.612892  0.874417  1
  H  H19  1  0.775015  0.887108  0.374417  1
  Se  Se20  1  0.420527  0.178296  0.880152  1
  Se  Se21  1  0.079473  0.321704  0.380152  1
  Se  Se22  1  0.579473  0.821704  0.119848  1
  Se  Se23  1  0.920527  0.678296  0.619848  1
  O  O24  1  0.227546  0.044715  0.540763  1
  O  O25  1  0.272454  0.455285  0.040763  1
  O  O26  1  0.772454  0.955285  0.459237  1
  O  O27  1  0.727546  0.544715  0.959237  1
  O  O28  1  0.317115  0.465108  0.428201  1
  O  O29  1  0.182885  0.034892  0.928201  1
  O  O30  1  0.682885  0.534892  0.571799  1
  O  O31  1  0.817115  0.965108  0.071799  1
  O  O32  1  0.554655  0.018081  0.814668  1
  O  O33  1  0.945345  0.481919  0.314668  1
  O  O34  1  0.445345  0.981919  0.185332  1
  O  O35  1  0.054655  0.518081  0.685332  1
  O  O36  1  0.566342  0.199940  0.385809  1
  O  O37  1  0.933658  0.300060  0.885809  1
  O  O38  1  0.433658  0.800060  0.614191  1
  O  O39  1  0.066342  0.699940  0.114191  1
  O  O40  1  0.838413  0.781991  0.758480  1
  O  O41  1  0.661587  0.718009  0.258480  1
  O  O42  1  0.161587  0.218009  0.241520  1
  O  O43  1  0.338413  0.281991  0.741520  1
