# generated using pymatgen
data_Bi12PtCl12
_symmetry_space_group_name_H-M   'P 1'
_cell_length_a   9.54304458
_cell_length_b   9.33458788
_cell_length_c   9.41478615
_cell_angle_alpha   87.58955744
_cell_angle_beta   90.57208027
_cell_angle_gamma   90.56238310
_symmetry_Int_Tables_number   1
_chemical_formula_structural   Bi12PtCl12
_chemical_formula_sum   'Bi12 Pt1 Cl12'
_cell_volume   837.85191372
_cell_formula_units_Z   1
loop_
 _symmetry_equiv_pos_site_id
 _symmetry_equiv_pos_as_xyz
  1  'x, y, z'
loop_
 _atom_site_type_symbol
 _atom_site_label
 _atom_site_symmetry_multiplicity
 _atom_site_fract_x
 _atom_site_fract_y
 _atom_site_fract_z
 _atom_site_occupancy
  Bi  Bi0  1  0.033993  0.964584  0.714734  1
  Bi  Bi1  1  0.039837  0.291488  0.958845  1
  Bi  Bi2  1  0.968192  0.036209  0.287397  1
  Bi  Bi3  1  0.760860  0.457341  0.502637  1
  Bi  Bi4  1  0.552168  0.457354  0.270929  1
  Bi  Bi5  1  0.958279  0.709822  0.040877  1
  Bi  Bi6  1  0.283618  0.966678  0.045255  1
  Bi  Bi7  1  0.715591  0.035338  0.961342  1
  Bi  Bi8  1  0.398268  0.546295  0.738708  1
  Bi  Bi9  1  0.272814  0.524591  0.453517  1
  Bi  Bi10  1  0.484032  0.281876  0.562832  1
  Bi  Bi11  1  0.560737  0.712190  0.502134  1
  Pt  Pt12  1  0.999717  0.000631  0.000781  1
  Cl  Cl13  1  0.750278  0.332306  0.928477  1
  Cl  Cl14  1  0.017864  0.332120  0.249945  1
  Cl  Cl15  1  0.325771  0.929127  0.751801  1
  Cl  Cl16  1  0.667769  0.736709  1.009255  1
  Cl  Cl17  1  0.332184  0.262663  -0.001903  1
  Cl  Cl18  1  0.249352  0.669092  0.081317  1
  Cl  Cl19  1  0.253458  -0.003450  0.337702  1
  Cl  Cl20  1  0.073785  0.261441  0.662703  1
  Cl  Cl21  1  -0.010454  0.669216  0.752018  1
  Cl  Cl22  1  0.673733  0.072729  0.249231  1
  Cl  Cl23  1  0.743688  0.003630  0.662267  1
  Cl  Cl24  1  0.931967  0.739622  0.339301  1
