# generated using pymatgen
data_CaMnB2O5
_symmetry_space_group_name_H-M   'P 1'
_cell_length_a   5.73684873
_cell_length_b   11.55409065
_cell_length_c   12.53727055
_cell_angle_alpha   90.00000000
_cell_angle_beta   102.56737821
_cell_angle_gamma   90.00000000
_symmetry_Int_Tables_number   1
_chemical_formula_structural   CaMnB2O5
_chemical_formula_sum   'Ca8 Mn8 B16 O40'
_cell_volume   811.11072053
_cell_formula_units_Z   8
loop_
 _symmetry_equiv_pos_site_id
 _symmetry_equiv_pos_as_xyz
  1  'x, y, z'
loop_
 _atom_site_type_symbol
 _atom_site_label
 _atom_site_symmetry_multiplicity
 _atom_site_fract_x
 _atom_site_fract_y
 _atom_site_fract_z
 _atom_site_occupancy
  Ca  Ca0  1  0.126307  0.880823  0.091567  1
  Ca  Ca1  1  0.626307  0.619177  0.091567  1
  Ca  Ca2  1  0.373693  0.380823  0.908433  1
  Ca  Ca3  1  0.873693  0.119177  0.908433  1
  Ca  Ca4  1  0.146438  0.872054  0.586909  1
  Ca  Ca5  1  0.646438  0.627946  0.586909  1
  Ca  Ca6  1  0.853562  0.127946  0.413091  1
  Ca  Ca7  1  0.353562  0.372054  0.413091  1
  Mn  Mn8  1  0.244990  0.128175  0.236005  1
  Mn  Mn9  1  0.250426  0.627771  0.262176  1
  Mn  Mn10  1  0.744990  0.371825  0.236005  1
  Mn  Mn11  1  0.755010  0.871825  0.763995  1
  Mn  Mn12  1  0.749574  0.372229  0.737824  1
  Mn  Mn13  1  0.255010  0.628175  0.763995  1
  Mn  Mn14  1  0.750426  0.872229  0.262176  1
  Mn  Mn15  1  0.249574  0.127771  0.737824  1
  B  B16  1  0.629814  0.875033  0.990822  1
  B  B17  1  0.647761  0.880802  0.488680  1
  B  B18  1  0.352239  0.119198  0.511320  1
  B  B19  1  0.300003  0.875700  0.327313  1
  B  B20  1  0.852239  0.380802  0.511320  1
  B  B21  1  0.129814  0.624967  0.990822  1
  B  B22  1  0.706658  0.115596  0.172055  1
  B  B23  1  0.800003  0.624300  0.327313  1
  B  B24  1  0.206658  0.384404  0.172055  1
  B  B25  1  0.793342  0.615596  0.827945  1
  B  B26  1  0.147761  0.619198  0.488680  1
  B  B27  1  0.370186  0.124967  0.009178  1
  B  B28  1  0.199997  0.375700  0.672687  1
  B  B29  1  0.293342  0.884404  0.827945  1
  B  B30  1  0.870186  0.375033  0.009178  1
  B  B31  1  0.699997  0.124300  0.672687  1
  O  O32  1  0.199567  0.086680  0.062217  1
  O  O33  1  0.394651  0.946254  0.259298  1
  O  O34  1  0.222933  0.665766  0.590830  1
  O  O35  1  0.605349  0.053746  0.740702  1
  O  O36  1  0.191545  0.676783  0.091002  1
  O  O37  1  0.103937  0.309614  0.233787  1
  O  O38  1  0.619273  0.112294  0.057172  1
  O  O39  1  0.277067  0.165766  0.409170  1
  O  O40  1  0.105349  0.446254  0.740702  1
  O  O41  1  0.888857  0.194931  0.714767  1
  O  O42  1  0.308455  0.176783  0.908998  1
  O  O43  1  0.396063  0.809614  0.766213  1
  O  O44  1  0.191882  0.074192  0.566185  1
  O  O45  1  0.691882  0.425808  0.566185  1
  O  O46  1  0.691545  0.823217  0.091002  1
  O  O47  1  0.388857  0.305069  0.714767  1
  O  O48  1  0.722933  0.834234  0.590830  1
  O  O49  1  0.380727  0.887706  0.942828  1
  O  O50  1  0.892826  0.045818  0.221696  1
  O  O51  1  0.611143  0.694931  0.285233  1
  O  O52  1  0.896063  0.690386  0.766213  1
  O  O53  1  0.603937  0.190386  0.233787  1
  O  O54  1  0.308118  0.574192  0.433815  1
  O  O55  1  0.607174  0.545818  0.778304  1
  O  O56  1  0.111143  0.805069  0.285233  1
  O  O57  1  0.897635  0.627461  0.442288  1
  O  O58  1  0.119273  0.387706  0.057172  1
  O  O59  1  0.107174  0.954182  0.778304  1
  O  O60  1  0.102365  0.372539  0.557712  1
  O  O61  1  0.392826  0.454182  0.221696  1
  O  O62  1  0.800433  0.913320  0.937783  1
  O  O63  1  0.894651  0.553746  0.259298  1
  O  O64  1  0.777067  0.334234  0.409170  1
  O  O65  1  0.397635  0.872539  0.442288  1
  O  O66  1  0.880727  0.612294  0.942828  1
  O  O67  1  0.300433  0.586680  0.937783  1
  O  O68  1  0.699567  0.413320  0.062217  1
  O  O69  1  0.602365  0.127461  0.557712  1
  O  O70  1  0.808455  0.323217  0.908998  1
  O  O71  1  0.808118  0.925808  0.433815  1
