# generated using pymatgen
data_Pr4C2Cl5
_symmetry_space_group_name_H-M   'P 1'
_cell_length_a   3.92383836
_cell_length_b   7.90831609
_cell_length_c   9.84266258
_cell_angle_alpha   113.69818747
_cell_angle_beta   101.49339840
_cell_angle_gamma   90.00419942
_symmetry_Int_Tables_number   1
_chemical_formula_structural   Pr4C2Cl5
_chemical_formula_sum   'Pr4 C2 Cl5'
_cell_volume   272.96837524
_cell_formula_units_Z   1
loop_
 _symmetry_equiv_pos_site_id
 _symmetry_equiv_pos_as_xyz
  1  'x, y, z'
loop_
 _atom_site_type_symbol
 _atom_site_label
 _atom_site_symmetry_multiplicity
 _atom_site_fract_x
 _atom_site_fract_y
 _atom_site_fract_z
 _atom_site_occupancy
  Pr  Pr0  1  0.330301  0.330280  0.660528  1
  Pr  Pr1  1  0.669699  0.669720  0.339472  1
  Pr  Pr2  1  0.999950  0.712552  0.000034  1
  Pr  Pr3  1  0.000050  0.287448  0.999966  1
  C  C4  1  0.459916  0.459892  0.919857  1
  C  C5  1  0.540084  0.540108  0.080143  1
  Cl  Cl6  1  0.167103  0.396893  0.334402  1
  Cl  Cl7  1  0.832807  0.062530  0.665536  1
  Cl  Cl8  1  0.832897  0.603107  0.665598  1
  Cl  Cl9  1  0.167193  0.937470  0.334464  1
  Cl  Cl10  1  0.500000  0.000000  0.000000  1
