# generated using pymatgen
data_Pu(SiIr)2
_symmetry_space_group_name_H-M   'P 1'
_cell_length_a   4.10701135
_cell_length_b   4.10701135
_cell_length_c   9.88744071
_cell_angle_alpha   90.00000000
_cell_angle_beta   90.00000000
_cell_angle_gamma   90.00000000
_symmetry_Int_Tables_number   1
_chemical_formula_structural   Pu(SiIr)2
_chemical_formula_sum   'Pu2 Si4 Ir4'
_cell_volume   166.77682371
_cell_formula_units_Z   2
loop_
 _symmetry_equiv_pos_site_id
 _symmetry_equiv_pos_as_xyz
  1  'x, y, z'
loop_
 _atom_site_type_symbol
 _atom_site_label
 _atom_site_symmetry_multiplicity
 _atom_site_fract_x
 _atom_site_fract_y
 _atom_site_fract_z
 _atom_site_occupancy
  Pu  Pu0  1  0.250000  0.250000  0.746154  1
  Pu  Pu1  1  0.750000  0.750000  0.253846  1
  Ir  Ir2  1  0.250000  0.250000  0.371423  1
  Ir  Ir3  1  0.750000  0.750000  0.628577  1
  Ir  Ir4  1  0.250000  0.750000  0.000000  1
  Ir  Ir5  1  0.750000  0.250000  0.000000  1
  Si  Si6  1  0.250000  0.250000  0.132024  1
  Si  Si7  1  0.750000  0.750000  0.867976  1
  Si  Si8  1  0.250000  0.750000  0.500000  1
  Si  Si9  1  0.750000  0.250000  0.500000  1
