# generated using pymatgen
data_K2ZnCu3P3O12F
_symmetry_space_group_name_H-M   'P 1'
_cell_length_a   4.97339036
_cell_length_b   8.04599201
_cell_length_c   14.60545865
_cell_angle_alpha   90.00000000
_cell_angle_beta   90.00000000
_cell_angle_gamma   90.72559673
_symmetry_Int_Tables_number   1
_chemical_formula_structural   K2ZnCu3P3O12F
_chemical_formula_sum   'K4 Zn2 Cu6 P6 O24 F2'
_cell_volume   584.40310924
_cell_formula_units_Z   2
loop_
 _symmetry_equiv_pos_site_id
 _symmetry_equiv_pos_as_xyz
  1  'x, y, z'
loop_
 _atom_site_type_symbol
 _atom_site_label
 _atom_site_symmetry_multiplicity
 _atom_site_fract_x
 _atom_site_fract_y
 _atom_site_fract_z
 _atom_site_occupancy
  K  K0  1  0.548027  0.362266  0.250000  1
  K  K1  1  0.500000  0.000000  0.500000  1
  K  K2  1  0.451973  0.637734  0.750000  1
  K  K3  1  0.500000  0.000000  0.000000  1
  Zn  Zn4  1  0.973118  0.953587  0.750000  1
  Zn  Zn5  1  0.026882  0.046413  0.250000  1
  Cu  Cu6  1  0.932766  0.356210  0.636266  1
  Cu  Cu7  1  0.932766  0.356210  0.863734  1
  Cu  Cu8  1  0.067234  0.643790  0.136266  1
  Cu  Cu9  1  0.067234  0.643790  0.363734  1
  Cu  Cu10  1  0.500000  0.500000  0.000000  1
  Cu  Cu11  1  0.500000  0.500000  0.500000  1
  P  P12  1  0.002480  0.295596  0.066675  1
  P  P13  1  0.481321  0.177394  0.750000  1
  P  P14  1  0.997520  0.704404  0.933325  1
  P  P15  1  0.518679  0.822606  0.250000  1
  P  P16  1  0.997520  0.704404  0.566675  1
  P  P17  1  0.002480  0.295596  0.433325  1
  O  O18  1  0.431013  0.727573  0.337928  1
  O  O19  1  0.568987  0.272427  0.662072  1
  O  O20  1  0.940611  0.218308  0.528362  1
  O  O21  1  0.588142  0.996588  0.750000  1
  O  O22  1  0.082451  0.830926  0.860031  1
  O  O23  1  0.168464  0.539846  0.579251  1
  O  O24  1  0.411858  0.003412  0.250000  1
  O  O25  1  0.059389  0.781692  0.471638  1
  O  O26  1  0.693816  0.658682  0.923257  1
  O  O27  1  0.833580  0.830363  0.250000  1
  O  O28  1  0.917549  0.169074  0.360031  1
  O  O29  1  0.431013  0.727573  0.162072  1
  O  O30  1  0.831536  0.460154  0.420749  1
  O  O31  1  0.693816  0.658682  0.576743  1
  O  O32  1  0.059389  0.781692  0.028362  1
  O  O33  1  0.306184  0.341318  0.423257  1
  O  O34  1  0.168464  0.539846  0.920749  1
  O  O35  1  0.082451  0.830926  0.639969  1
  O  O36  1  0.940611  0.218308  0.971638  1
  O  O37  1  0.166420  0.169637  0.750000  1
  O  O38  1  0.831536  0.460154  0.079251  1
  O  O39  1  0.568987  0.272427  0.837928  1
  O  O40  1  0.306184  0.341318  0.076743  1
  O  O41  1  0.917549  0.169074  0.139969  1
  F  F42  1  0.944806  0.487900  0.750000  1
  F  F43  1  0.055194  0.512100  0.250000  1
