# generated using pymatgen
data_KNaSiF6
_symmetry_space_group_name_H-M   'P 1'
_cell_length_a   5.54966650
_cell_length_b   9.52433889
_cell_length_c   9.90833347
_cell_angle_alpha   90.00000000
_cell_angle_beta   90.00000000
_cell_angle_gamma   90.00000000
_symmetry_Int_Tables_number   1
_chemical_formula_structural   KNaSiF6
_chemical_formula_sum   'K4 Na4 Si4 F24'
_cell_volume   523.72383571
_cell_formula_units_Z   4
loop_
 _symmetry_equiv_pos_site_id
 _symmetry_equiv_pos_as_xyz
  1  'x, y, z'
loop_
 _atom_site_type_symbol
 _atom_site_label
 _atom_site_symmetry_multiplicity
 _atom_site_fract_x
 _atom_site_fract_y
 _atom_site_fract_z
 _atom_site_occupancy
  K  K0  1  0.750000  0.985945  0.676135  1
  K  K1  1  0.250000  0.514055  0.176135  1
  K  K2  1  0.250000  0.014055  0.323865  1
  K  K3  1  0.750000  0.485945  0.823865  1
  Na  Na4  1  0.750000  0.126887  0.053128  1
  Na  Na5  1  0.750000  0.626887  0.446872  1
  Na  Na6  1  0.250000  0.373113  0.553128  1
  Na  Na7  1  0.250000  0.873113  0.946872  1
  Si  Si8  1  0.750000  0.271767  0.421985  1
  Si  Si9  1  0.250000  0.228233  0.921985  1
  Si  Si10  1  0.750000  0.771767  0.078015  1
  Si  Si11  1  0.250000  0.728233  0.578015  1
  F  F12  1  0.529404  0.171111  0.496077  1
  F  F13  1  0.969428  0.377279  0.354602  1
  F  F14  1  0.750000  0.165669  0.282916  1
  F  F15  1  0.970596  0.671111  0.003923  1
  F  F16  1  0.030572  0.622721  0.645398  1
  F  F17  1  0.970596  0.171111  0.496077  1
  F  F18  1  0.250000  0.620822  0.436306  1
  F  F19  1  0.029404  0.828889  0.503923  1
  F  F20  1  0.250000  0.834331  0.717084  1
  F  F21  1  0.250000  0.334331  0.782916  1
  F  F22  1  0.469428  0.122721  0.854602  1
  F  F23  1  0.529404  0.671111  0.003923  1
  F  F24  1  0.750000  0.665669  0.217084  1
  F  F25  1  0.030572  0.122721  0.854602  1
  F  F26  1  0.470596  0.828889  0.503923  1
  F  F27  1  0.750000  0.879178  0.936306  1
  F  F28  1  0.029404  0.328889  0.996077  1
  F  F29  1  0.469428  0.622721  0.645398  1
  F  F30  1  0.470596  0.328889  0.996077  1
  F  F31  1  0.969428  0.877279  0.145398  1
  F  F32  1  0.250000  0.120822  0.063694  1
  F  F33  1  0.750000  0.379178  0.563694  1
  F  F34  1  0.530572  0.877279  0.145398  1
  F  F35  1  0.530572  0.377279  0.354602  1
