# generated using pymatgen
data_Na2MnGaF7
_symmetry_space_group_name_H-M   'P 1'
_cell_length_a   7.51758680
_cell_length_b   7.51758680
_cell_length_c   18.42557140
_cell_angle_alpha   90.00000000
_cell_angle_beta   90.00000000
_cell_angle_gamma   120.00000002
_symmetry_Int_Tables_number   1
_chemical_formula_structural   Na2MnGaF7
_chemical_formula_sum   'Na12 Mn6 Ga6 F42'
_cell_volume   901.79640309
_cell_formula_units_Z   6
loop_
 _symmetry_equiv_pos_site_id
 _symmetry_equiv_pos_as_xyz
  1  'x, y, z'
loop_
 _atom_site_type_symbol
 _atom_site_label
 _atom_site_symmetry_multiplicity
 _atom_site_fract_x
 _atom_site_fract_y
 _atom_site_fract_z
 _atom_site_occupancy
  F  F0  1  0.426870  0.047377  0.122133  1
  F  F1  1  0.952623  0.379493  0.455467  1
  F  F2  1  0.620507  0.573130  0.788800  1
  F  F3  1  0.379493  0.952623  0.544533  1
  F  F4  1  0.573130  0.620507  0.211200  1
  F  F5  1  0.047377  0.426870  0.877867  1
  F  F6  1  0.238850  0.187042  0.860283  1
  F  F7  1  0.812958  0.051808  0.193616  1
  F  F8  1  0.948192  0.761150  0.526950  1
  F  F9  1  0.051808  0.812958  0.806384  1
  F  F10  1  0.761150  0.948192  0.473050  1
  F  F11  1  0.187042  0.238850  0.139717  1
  F  F12  1  0.372188  0.074786  0.731369  1
  F  F13  1  0.925214  0.297402  0.064702  1
  F  F14  1  0.702598  0.627812  0.398036  1
  F  F15  1  0.297402  0.925214  0.935298  1
  F  F16  1  0.627812  0.702598  0.601964  1
  F  F17  1  0.074786  0.372188  0.268631  1
  F  F18  1  0.428322  0.811847  0.808788  1
  F  F19  1  0.188153  0.616475  0.142121  1
  F  F20  1  0.383525  0.571678  0.475455  1
  F  F21  1  0.616475  0.188153  0.857879  1
  F  F22  1  0.571678  0.383525  0.524545  1
  F  F23  1  0.811847  0.428322  0.191212  1
  F  F24  1  0.770385  0.198590  0.602883  1
  F  F25  1  0.801410  0.571795  0.936216  1
  F  F26  1  0.428205  0.229615  0.269549  1
  F  F27  1  0.571795  0.801410  0.063784  1
  F  F28  1  0.229615  0.428205  0.730451  1
  F  F29  1  0.198590  0.770385  0.397117  1
  F  F30  1  0.799984  0.942503  0.948898  1
  F  F31  1  0.057497  0.857481  0.282231  1
  F  F32  1  0.142519  0.200016  0.615564  1
  F  F33  1  0.857481  0.057497  0.717769  1
  F  F34  1  0.200016  0.142519  0.384436  1
  F  F35  1  0.942503  0.799984  0.051102  1
  F  F36  1  0.566000  0.425929  0.051205  1
  F  F37  1  0.574071  0.140071  0.384539  1
  F  F38  1  0.859929  0.434000  0.717872  1
  F  F39  1  0.140071  0.574071  0.615461  1
  F  F40  1  0.434000  0.859929  0.282128  1
  F  F41  1  0.425929  0.566000  0.948795  1
  Na  Na42  1  0.505833  0.887310  0.665314  1
  Na  Na43  1  0.112690  0.618524  0.998648  1
  Na  Na44  1  0.381476  0.494167  0.331981  1
  Na  Na45  1  0.618524  0.112690  0.001352  1
  Na  Na46  1  0.494167  0.381476  0.668019  1
  Na  Na47  1  0.887310  0.505833  0.334686  1
  Na  Na48  1  0.860801  0.000000  0.333333  1
  Na  Na49  1  0.000000  0.860801  0.666667  1
  Na  Na50  1  0.139199  0.139199  0.000000  1
  Na  Na51  1  0.844022  0.000000  0.833333  1
  Na  Na52  1  0.000000  0.844022  0.166667  1
  Na  Na53  1  0.155978  0.155978  0.500000  1
  Mn  Mn54  1  0.495555  0.835756  0.171280  1
  Mn  Mn55  1  0.164244  0.659798  0.504614  1
  Mn  Mn56  1  0.340202  0.504445  0.837947  1
  Mn  Mn57  1  0.659798  0.164244  0.495386  1
  Mn  Mn58  1  0.504445  0.340202  0.162053  1
  Mn  Mn59  1  0.835756  0.495555  0.828720  1
  Ga  Ga60  1  0.314992  0.000000  0.333333  1
  Ga  Ga61  1  0.000000  0.314992  0.666667  1
  Ga  Ga62  1  0.685008  0.685008  0.000000  1
  Ga  Ga63  1  0.334448  0.000000  0.833333  1
  Ga  Ga64  1  0.000000  0.334448  0.166667  1
  Ga  Ga65  1  0.665552  0.665552  0.500000  1
