# generated using pymatgen
data_Ba2PrNbO6
_symmetry_space_group_name_H-M   'P 1'
_cell_length_a   6.13322445
_cell_length_b   6.13324694
_cell_length_c   6.13327621
_cell_angle_alpha   60.58980286
_cell_angle_beta   60.58988833
_cell_angle_gamma   60.58968064
_symmetry_Int_Tables_number   1
_chemical_formula_structural   Ba2PrNbO6
_chemical_formula_sum   'Ba2 Pr1 Nb1 O6'
_cell_volume   165.31186792
_cell_formula_units_Z   1
loop_
 _symmetry_equiv_pos_site_id
 _symmetry_equiv_pos_as_xyz
  1  'x, y, z'
loop_
 _atom_site_type_symbol
 _atom_site_label
 _atom_site_symmetry_multiplicity
 _atom_site_fract_x
 _atom_site_fract_y
 _atom_site_fract_z
 _atom_site_occupancy
  O  O0  1  0.787656  0.672347  0.273992  1
  Ba  Ba1  1  0.250786  0.250786  0.250791  1
  O  O2  1  0.273982  0.787655  0.672347  1
  O  O3  1  0.672341  0.273980  0.787662  1
  O  O4  1  0.212343  0.327659  0.725997  1
  Ba  Ba5  1  0.749208  0.749214  0.749209  1
  Pr  Pr6  1  1.000005  -0.000000  0.999999  1
  O  O7  1  0.327656  0.726019  0.212345  1
  Nb  Nb8  1  0.500009  0.499995  0.500004  1
  O  O9  1  0.726015  0.212346  0.327653  1
