# generated using pymatgen
data_CoSnH12(OF)6
_symmetry_space_group_name_H-M   'P 1'
_cell_length_a   6.60306872
_cell_length_b   6.60306872
_cell_length_c   6.60306872
_cell_angle_alpha   96.71068612
_cell_angle_beta   96.71068618
_cell_angle_gamma   96.71068612
_symmetry_Int_Tables_number   1
_chemical_formula_structural   CoSnH12(OF)6
_chemical_formula_sum   'Co1 Sn1 H12 O6 F6'
_cell_volume   281.46905213
_cell_formula_units_Z   1
loop_
 _symmetry_equiv_pos_site_id
 _symmetry_equiv_pos_as_xyz
  1  'x, y, z'
loop_
 _atom_site_type_symbol
 _atom_site_label
 _atom_site_symmetry_multiplicity
 _atom_site_fract_x
 _atom_site_fract_y
 _atom_site_fract_z
 _atom_site_occupancy
  H  H0  1  0.694770  0.887097  0.544813  1
  H  H1  1  0.887097  0.544813  0.694770  1
  H  H2  1  0.544813  0.694770  0.887097  1
  H  H3  1  0.305229  0.112903  0.455187  1
  H  H4  1  0.112903  0.455187  0.305229  1
  H  H5  1  0.455187  0.305229  0.112903  1
  H  H6  1  0.666281  0.790947  0.309090  1
  H  H7  1  0.790947  0.309090  0.666281  1
  H  H8  1  0.333719  0.209053  0.690910  1
  H  H9  1  0.209053  0.690910  0.333719  1
  H  H10  1  0.690910  0.333719  0.209053  1
  H  H11  1  0.309090  0.666281  0.790947  1
  O  O12  1  0.788022  0.438453  0.606216  1
  O  O13  1  0.606216  0.788022  0.438453  1
  O  O14  1  0.393784  0.211978  0.561547  1
  O  O15  1  0.211978  0.561547  0.393784  1
  O  O16  1  0.561547  0.393784  0.211978  1
  O  O17  1  0.438453  0.606216  0.788022  1
  F  F18  1  0.841131  0.065271  0.742592  1
  F  F19  1  0.065271  0.742592  0.841131  1
  F  F20  1  0.742592  0.841131  0.065271  1
  F  F21  1  0.158869  0.934729  0.257408  1
  F  F22  1  0.934729  0.257408  0.158869  1
  F  F23  1  0.257408  0.158869  0.934729  1
  Co  Co24  1  0.500000  0.500000  0.500000  1
  Sn  Sn25  1  0.000000  0.000000  0.000000  1
