# generated using pymatgen
data_Rb2MoSeO6
_symmetry_space_group_name_H-M   'P 1'
_cell_length_a   6.35305536
_cell_length_b   7.93404553
_cell_length_c   14.83367269
_cell_angle_alpha   90.00000000
_cell_angle_beta   90.00000000
_cell_angle_gamma   90.00000000
_symmetry_Int_Tables_number   1
_chemical_formula_structural   Rb2MoSeO6
_chemical_formula_sum   'Rb8 Mo4 Se4 O24'
_cell_volume   747.69765755
_cell_formula_units_Z   4
loop_
 _symmetry_equiv_pos_site_id
 _symmetry_equiv_pos_as_xyz
  1  'x, y, z'
loop_
 _atom_site_type_symbol
 _atom_site_label
 _atom_site_symmetry_multiplicity
 _atom_site_fract_x
 _atom_site_fract_y
 _atom_site_fract_z
 _atom_site_occupancy
  Rb  Rb0  1  0.250000  0.377300  0.964015  1
  Rb  Rb1  1  0.250000  0.877300  0.535985  1
  Rb  Rb2  1  0.750000  0.655682  0.302815  1
  Rb  Rb3  1  0.750000  0.622700  0.035985  1
  Rb  Rb4  1  0.250000  0.844318  0.802815  1
  Rb  Rb5  1  0.750000  0.122700  0.464015  1
  Rb  Rb6  1  0.750000  0.155682  0.197185  1
  Rb  Rb7  1  0.250000  0.344318  0.697185  1
  Mo  Mo8  1  0.250000  0.398879  0.232579  1
  Mo  Mo9  1  0.750000  0.101121  0.732579  1
  Mo  Mo10  1  0.250000  0.898879  0.267421  1
  Mo  Mo11  1  0.750000  0.601121  0.767421  1
  Se  Se12  1  0.750000  0.582170  0.563364  1
  Se  Se13  1  0.250000  0.417830  0.436636  1
  Se  Se14  1  0.750000  0.082170  0.936636  1
  Se  Se15  1  0.250000  0.917830  0.063364  1
  O  O16  1  0.526363  0.550403  0.833683  1
  O  O17  1  0.549520  0.610666  0.643849  1
  O  O18  1  0.450480  0.889334  0.143849  1
  O  O19  1  0.750000  0.756010  0.498657  1
  O  O20  1  0.250000  0.169921  0.223790  1
  O  O21  1  0.450480  0.389334  0.356151  1
  O  O22  1  0.973637  0.050403  0.666317  1
  O  O23  1  0.473637  0.949597  0.333683  1
  O  O24  1  0.950480  0.110666  0.856151  1
  O  O25  1  0.973637  0.550403  0.833683  1
  O  O26  1  0.250000  0.669921  0.276210  1
  O  O27  1  0.250000  0.243990  0.501343  1
  O  O28  1  0.473637  0.449597  0.166317  1
  O  O29  1  0.049520  0.889334  0.143849  1
  O  O30  1  0.250000  0.743990  0.998657  1
  O  O31  1  0.026363  0.449597  0.166317  1
  O  O32  1  0.750000  0.830079  0.776210  1
  O  O33  1  0.750000  0.256010  0.001343  1
  O  O34  1  0.026363  0.949597  0.333683  1
  O  O35  1  0.549520  0.110666  0.856151  1
  O  O36  1  0.526363  0.050403  0.666317  1
  O  O37  1  0.950480  0.610666  0.643849  1
  O  O38  1  0.049520  0.389334  0.356151  1
  O  O39  1  0.750000  0.330079  0.723790  1
