# generated using pymatgen
data_LaGaO3
_symmetry_space_group_name_H-M   'P 1'
_cell_length_a   5.53979181
_cell_length_b   5.59392379
_cell_length_c   7.85333423
_cell_angle_alpha   90.00000000
_cell_angle_beta   90.00000000
_cell_angle_gamma   90.00000000
_symmetry_Int_Tables_number   1
_chemical_formula_structural   LaGaO3
_chemical_formula_sum   'La4 Ga4 O12'
_cell_volume   243.36833463
_cell_formula_units_Z   4
loop_
 _symmetry_equiv_pos_site_id
 _symmetry_equiv_pos_as_xyz
  1  'x, y, z'
loop_
 _atom_site_type_symbol
 _atom_site_label
 _atom_site_symmetry_multiplicity
 _atom_site_fract_x
 _atom_site_fract_y
 _atom_site_fract_z
 _atom_site_occupancy
  La  La0  1  0.999699  0.991288  0.750000  1
  La  La1  1  0.500301  0.491288  0.250000  1
  La  La2  1  0.000301  0.008712  0.250000  1
  La  La3  1  0.499699  0.508712  0.750000  1
  Ga  Ga4  1  0.000000  0.500000  0.500000  1
  Ga  Ga5  1  0.500000  0.000000  0.500000  1
  Ga  Ga6  1  0.500000  0.000000  0.000000  1
  Ga  Ga7  1  0.000000  0.500000  0.000000  1
  O  O8  1  0.249570  0.750288  0.954738  1
  O  O9  1  0.249570  0.750288  0.545262  1
  O  O10  1  0.749570  0.749712  0.954738  1
  O  O11  1  0.750430  0.249712  0.045262  1
  O  O12  1  0.250430  0.250288  0.045262  1
  O  O13  1  0.500134  0.081628  0.750000  1
  O  O14  1  0.999866  0.581628  0.250000  1
  O  O15  1  0.499866  0.918372  0.250000  1
  O  O16  1  0.750430  0.249712  0.454738  1
  O  O17  1  0.749570  0.749712  0.545262  1
  O  O18  1  0.250430  0.250288  0.454738  1
  O  O19  1  0.000134  0.418372  0.750000  1
