# generated using pymatgen
data_RhC2ClO2
_symmetry_space_group_name_H-M   'P 1'
_cell_length_a   9.06480756
_cell_length_b   12.15740945
_cell_length_c   12.15741017
_cell_angle_alpha   81.99606665
_cell_angle_beta   68.13261416
_cell_angle_gamma   68.13261283
_symmetry_Int_Tables_number   1
_chemical_formula_structural   RhC2ClO2
_chemical_formula_sum   'Rh8 C16 Cl8 O16'
_cell_volume   1153.93644240
_cell_formula_units_Z   8
loop_
 _symmetry_equiv_pos_site_id
 _symmetry_equiv_pos_as_xyz
  1  'x, y, z'
loop_
 _atom_site_type_symbol
 _atom_site_label
 _atom_site_symmetry_multiplicity
 _atom_site_fract_x
 _atom_site_fract_y
 _atom_site_fract_z
 _atom_site_occupancy
  Rh  Rh0  1  0.450131  0.560920  0.098774  1
  Rh  Rh1  1  0.451130  0.098924  0.438875  1
  Rh  Rh2  1  0.798870  0.061125  0.401076  1
  Rh  Rh3  1  0.988967  0.901083  0.561130  1
  Rh  Rh4  1  0.799869  0.401226  0.939080  1
  Rh  Rh5  1  0.109754  0.438882  0.901094  1
  Rh  Rh6  1  0.140246  0.598906  0.061118  1
  Rh  Rh7  1  0.261033  0.938870  0.598917  1
  C  C8  1  0.993431  0.743641  0.031026  1
  C  C9  1  0.263261  0.969131  0.743535  1
  C  C10  1  0.274122  0.243592  0.469150  1
  C  C11  1  0.858228  0.884689  0.716047  1
  C  C12  1  0.482248  0.530739  0.243564  1
  C  C13  1  0.256996  0.284125  0.884997  1
  C  C14  1  0.986739  0.756465  0.530869  1
  C  C15  1  0.790948  0.216011  0.384813  1
  C  C16  1  0.425936  0.715805  0.115052  1
  C  C17  1  0.824064  0.384948  0.784195  1
  C  C18  1  0.256569  0.468974  0.756359  1
  C  C19  1  0.767752  0.256436  0.969261  1
  C  C20  1  0.391772  0.783953  0.615311  1
  C  C21  1  0.459052  0.115187  0.283989  1
  C  C22  1  0.993004  0.615003  0.215875  1
  C  C23  1  0.975878  0.030850  0.256408  1
  Cl  Cl24  1  0.330630  0.411175  0.107818  1
  Cl  Cl25  1  0.688207  0.911434  0.391786  1
  Cl  Cl26  1  0.258180  0.892017  0.411352  1
  Cl  Cl27  1  0.991820  0.088648  0.607983  1
  Cl  Cl28  1  0.561793  0.108214  0.588566  1
  Cl  Cl29  1  0.849997  0.588758  0.891663  1
  Cl  Cl30  1  0.919370  0.392182  0.088825  1
  Cl  Cl31  1  0.400003  0.608337  0.911242  1
  O  O32  1  0.758680  0.316619  0.365570  1
  O  O33  1  0.326027  0.183728  0.865357  1
  O  O34  1  0.898136  0.835397  0.019314  1
  O  O35  1  0.752695  0.164647  0.980900  1
  O  O36  1  0.491320  0.134430  0.183381  1
  O  O37  1  0.266966  0.981052  0.835266  1
  O  O38  1  0.809338  0.865131  0.816450  1
  O  O39  1  0.923973  0.634643  0.316272  1
  O  O40  1  0.497305  0.519100  0.335353  1
  O  O41  1  0.082949  0.018954  0.164726  1
  O  O42  1  0.374431  0.816302  0.134495  1
  O  O43  1  0.167051  0.335274  0.481046  1
  O  O44  1  0.875569  0.365505  0.683698  1
  O  O45  1  0.351864  0.480686  0.664603  1
  O  O46  1  0.983034  0.664734  0.518948  1
  O  O47  1  0.440662  0.683550  0.634869  1
