# generated using pymatgen
data_H6CN2O3
_symmetry_space_group_name_H-M   'P 1'
_cell_length_a   6.58995721
_cell_length_b   6.58609129
_cell_length_c   10.71576849
_cell_angle_alpha   90.00000000
_cell_angle_beta   90.00000000
_cell_angle_gamma   90.00000000
_symmetry_Int_Tables_number   1
_chemical_formula_structural   H6CN2O3
_chemical_formula_sum   'H24 C4 N8 O12'
_cell_volume   465.08642462
_cell_formula_units_Z   4
loop_
 _symmetry_equiv_pos_site_id
 _symmetry_equiv_pos_as_xyz
  1  'x, y, z'
loop_
 _atom_site_type_symbol
 _atom_site_label
 _atom_site_symmetry_multiplicity
 _atom_site_fract_x
 _atom_site_fract_y
 _atom_site_fract_z
 _atom_site_occupancy
  H  H0  1  0.522996  0.750000  0.046415  1
  H  H1  1  0.973948  0.750000  0.062581  1
  H  H2  1  0.810101  0.886153  0.444032  1
  H  H3  1  0.689899  0.613847  0.944032  1
  H  H4  1  0.689899  0.886153  0.944032  1
  H  H5  1  0.185441  0.120900  0.843000  1
  H  H6  1  0.477004  0.250000  0.953585  1
  H  H7  1  0.814559  0.620900  0.157000  1
  H  H8  1  0.685441  0.620900  0.657000  1
  H  H9  1  0.026052  0.250000  0.937419  1
  H  H10  1  0.814559  0.879100  0.157000  1
  H  H11  1  0.310101  0.386153  0.055968  1
  H  H12  1  0.685441  0.879100  0.657000  1
  H  H13  1  0.526052  0.750000  0.562581  1
  H  H14  1  0.977004  0.750000  0.546415  1
  H  H15  1  0.473948  0.250000  0.437419  1
  H  H16  1  0.314559  0.379100  0.343000  1
  H  H17  1  0.022996  0.250000  0.453585  1
  H  H18  1  0.189899  0.386153  0.555968  1
  H  H19  1  0.185441  0.379100  0.843000  1
  H  H20  1  0.314559  0.120900  0.343000  1
  H  H21  1  0.310101  0.113847  0.055968  1
  H  H22  1  0.810101  0.613847  0.444032  1
  H  H23  1  0.189899  0.113847  0.555968  1
  C  C24  1  0.827607  0.750000  0.501631  1
  C  C25  1  0.327607  0.250000  0.998369  1
  C  C26  1  0.172393  0.250000  0.498369  1
  C  C27  1  0.672393  0.750000  0.001631  1
  N  N28  1  0.669385  0.750000  0.600569  1
  N  N29  1  0.830615  0.750000  0.100569  1
  N  N30  1  0.265696  0.750000  0.299118  1
  N  N31  1  0.169385  0.250000  0.899431  1
  N  N32  1  0.234304  0.750000  0.799118  1
  N  N33  1  0.330615  0.250000  0.399431  1
  N  N34  1  0.734304  0.250000  0.700882  1
  N  N35  1  0.765696  0.250000  0.200882  1
  O  O36  1  0.774324  0.083340  0.755775  1
  O  O37  1  0.225676  0.916660  0.244225  1
  O  O38  1  0.842175  0.250000  0.092854  1
  O  O39  1  0.725676  0.083340  0.255775  1
  O  O40  1  0.274324  0.583340  0.744225  1
  O  O41  1  0.725676  0.416660  0.255775  1
  O  O42  1  0.657825  0.250000  0.592854  1
  O  O43  1  0.157825  0.750000  0.907146  1
  O  O44  1  0.274324  0.916660  0.744225  1
  O  O45  1  0.225676  0.583340  0.244225  1
  O  O46  1  0.774324  0.416660  0.755775  1
  O  O47  1  0.342175  0.750000  0.407146  1
