# generated using pymatgen
data_NdH12(NO5)3
_symmetry_space_group_name_H-M   'P 1'
_cell_length_a   6.87294497
_cell_length_b   9.31516664
_cell_length_c   11.86150063
_cell_angle_alpha   69.40623904
_cell_angle_beta   88.85364087
_cell_angle_gamma   68.08842685
_symmetry_Int_Tables_number   1
_chemical_formula_structural   NdH12(NO5)3
_chemical_formula_sum   'Nd2 H24 N6 O30'
_cell_volume   654.08985832
_cell_formula_units_Z   2
loop_
 _symmetry_equiv_pos_site_id
 _symmetry_equiv_pos_as_xyz
  1  'x, y, z'
loop_
 _atom_site_type_symbol
 _atom_site_label
 _atom_site_symmetry_multiplicity
 _atom_site_fract_x
 _atom_site_fract_y
 _atom_site_fract_z
 _atom_site_occupancy
  Nd  Nd0  1  0.303482  0.596385  0.224958  1
  Nd  Nd1  1  0.696518  0.403615  0.775042  1
  O  O2  1  0.214617  0.558104  0.040901  1
  O  O3  1  0.785383  0.441896  0.959099  1
  O  O4  1  0.197475  0.564054  0.430022  1
  O  O5  1  0.802525  0.435946  0.569978  1
  O  O6  1  0.921903  0.771475  0.176492  1
  O  O7  1  0.078097  0.228524  0.823508  1
  O  O8  1  0.132088  0.400100  0.278919  1
  O  O9  1  0.867912  0.599900  0.721081  1
  O  O10  1  0.092906  0.229030  0.141294  1
  O  O11  1  0.907094  0.770970  0.858706  1
  O  O12  1  0.123310  0.209153  0.510682  1
  O  O13  1  0.876690  0.790847  0.489318  1
  O  O14  1  0.570120  0.679274  0.328772  1
  O  O15  1  0.429880  0.320726  0.671228  1
  O  O16  1  0.247191  0.866756  0.269839  1
  O  O17  1  0.752809  0.133244  0.730161  1
  O  O18  1  0.474660  0.910584  0.367209  1
  O  O19  1  0.525340  0.089416  0.632791  1
  O  O20  1  0.557779  0.682251  0.070261  1
  O  O21  1  0.442221  0.317749  0.929739  1
  O  O22  1  0.242771  0.883492  0.019051  1
  O  O23  1  0.757229  0.116508  0.980949  1
  O  O24  1  0.496402  0.911345  0.909317  1
  O  O25  1  0.503598  0.088655  0.090683  1
  O  O26  1  0.603094  0.344554  0.203275  1
  O  O27  1  0.396906  0.655446  0.796725  1
  O  O28  1  0.585507  0.340382  0.388077  1
  O  O29  1  0.414493  0.659618  0.611923  1
  O  O30  1  0.839524  0.137565  0.351930  1
  O  O31  1  0.160476  0.862435  0.648070  1
  N  N32  1  0.430674  0.821927  0.323133  1
  N  N33  1  0.569326  0.178073  0.676867  1
  N  N34  1  0.432551  0.827425  0.997803  1
  N  N35  1  0.567449  0.172575  0.002197  1
  N  N36  1  0.679898  0.270185  0.315719  1
  N  N37  1  0.320102  0.729815  0.684281  1
  H  H38  1  0.098882  0.642532  0.973656  1
  H  H39  1  0.901118  0.357468  0.026344  1
  H  H40  1  0.301383  0.473755  0.009341  1
  H  H41  1  0.698617  0.526245  0.990659  1
  H  H42  1  0.080051  0.651290  0.449372  1
  H  H43  1  0.919949  0.348710  0.550628  1
  H  H44  1  0.280607  0.480915  0.507540  1
  H  H45  1  0.719393  0.519085  0.492460  1
  H  H46  1  0.848470  0.888243  0.121896  1
  H  H47  1  0.151530  0.111757  0.878104  1
  H  H48  1  0.815128  0.726721  0.206950  1
  H  H49  1  0.184872  0.273279  0.793050  1
  H  H50  1  0.119598  0.341072  0.225491  1
  H  H51  1  0.880402  0.658928  0.774509  1
  H  H52  1  0.132262  0.328178  0.364137  1
  H  H53  1  0.867738  0.671822  0.635863  1
  H  H54  1  0.065697  0.134198  0.197322  1
  H  H55  1  0.934303  0.865802  0.802678  1
  H  H56  1  0.234107  0.179843  0.117215  1
  H  H57  1  0.765893  0.820157  0.882785  1
  H  H58  1  0.263009  0.165756  0.559267  1
  H  H59  1  0.736991  0.834244  0.440733  1
  H  H60  1  0.095304  0.110918  0.517905  1
  H  H61  1  0.904696  0.889082  0.482095  1
