# generated using pymatgen
data_YbH7C3O8
_symmetry_space_group_name_H-M   'P 1'
_cell_length_a   6.72454893
_cell_length_b   6.82155448
_cell_length_c   9.94238876
_cell_angle_alpha   70.57305125
_cell_angle_beta   87.06688274
_cell_angle_gamma   83.51855657
_symmetry_Int_Tables_number   1
_chemical_formula_structural   YbH7C3O8
_chemical_formula_sum   'Yb2 H14 C6 O16'
_cell_volume   427.31570413
_cell_formula_units_Z   2
loop_
 _symmetry_equiv_pos_site_id
 _symmetry_equiv_pos_as_xyz
  1  'x, y, z'
loop_
 _atom_site_type_symbol
 _atom_site_label
 _atom_site_symmetry_multiplicity
 _atom_site_fract_x
 _atom_site_fract_y
 _atom_site_fract_z
 _atom_site_occupancy
  Yb  Yb0  1  0.749470  0.738996  0.748048  1
  Yb  Yb1  1  0.250530  0.261004  0.251952  1
  H  H2  1  0.603378  0.177816  0.576735  1
  H  H3  1  0.844135  0.705221  0.048712  1
  H  H4  1  0.396622  0.822184  0.423265  1
  H  H5  1  0.790154  0.125326  0.916650  1
  H  H6  1  0.157820  0.833267  0.427954  1
  H  H7  1  0.606725  0.706459  0.044930  1
  H  H8  1  0.189395  0.322093  0.636310  1
  H  H9  1  0.261285  0.650396  0.705929  1
  H  H10  1  0.810605  0.677907  0.363690  1
  H  H11  1  0.155865  0.294779  0.951288  1
  H  H12  1  0.842180  0.166733  0.572046  1
  H  H13  1  0.393275  0.293541  0.955070  1
  H  H14  1  0.209846  0.874674  0.083350  1
  H  H15  1  0.738715  0.349604  0.294071  1
  C  C16  1  0.221296  0.700238  0.128903  1
  C  C17  1  0.755881  0.223920  0.242285  1
  C  C18  1  0.792699  0.701044  0.468980  1
  C  C19  1  0.244119  0.776080  0.757715  1
  C  C20  1  0.207301  0.298956  0.531020  1
  C  C21  1  0.778704  0.299762  0.871097  1
  O  O22  1  0.945919  0.725415  0.529628  1
  O  O23  1  0.728012  0.743453  0.984353  1
  O  O24  1  0.273627  0.902548  0.374872  1
  O  O25  1  0.594715  0.157174  0.228455  1
  O  O26  1  0.067145  0.823471  0.790660  1
  O  O27  1  0.726373  0.097452  0.625128  1
  O  O28  1  0.271988  0.256547  0.015647  1
  O  O29  1  0.405285  0.842826  0.771545  1
  O  O30  1  0.054081  0.274585  0.470372  1
  O  O31  1  0.932855  0.176529  0.209340  1
  O  O32  1  0.605080  0.397347  0.853984  1
  O  O33  1  0.619973  0.703717  0.527130  1
  O  O34  1  0.059636  0.613640  0.160232  1
  O  O35  1  0.394920  0.602653  0.146016  1
  O  O36  1  0.940364  0.386360  0.839768  1
  O  O37  1  0.380027  0.296283  0.472870  1
