# generated using pymatgen
data_TaI5
_symmetry_space_group_name_H-M   'P 1'
_cell_length_a   7.12453675
_cell_length_b   15.08173403
_cell_length_c   20.91725088
_cell_angle_alpha   90.00000000
_cell_angle_beta   90.00000000
_cell_angle_gamma   90.00000000
_symmetry_Int_Tables_number   1
_chemical_formula_structural   TaI5
_chemical_formula_sum   'Ta8 I40'
_cell_volume   2247.56631193
_cell_formula_units_Z   8
loop_
 _symmetry_equiv_pos_site_id
 _symmetry_equiv_pos_as_xyz
  1  'x, y, z'
loop_
 _atom_site_type_symbol
 _atom_site_label
 _atom_site_symmetry_multiplicity
 _atom_site_fract_x
 _atom_site_fract_y
 _atom_site_fract_z
 _atom_site_occupancy
  Ta  Ta0  1  0.497704  0.125520  0.141412  1
  Ta  Ta1  1  0.497704  0.125520  0.358588  1
  Ta  Ta2  1  0.502296  0.874480  0.858588  1
  Ta  Ta3  1  0.002296  0.625520  0.141412  1
  Ta  Ta4  1  0.997704  0.374480  0.858588  1
  Ta  Ta5  1  0.997704  0.374480  0.641412  1
  Ta  Ta6  1  0.502296  0.874480  0.641412  1
  Ta  Ta7  1  0.002296  0.625520  0.358588  1
  I  I8  1  0.257945  0.045078  0.437230  1
  I  I9  1  0.211080  0.302866  0.750000  1
  I  I10  1  0.762314  0.705298  0.062384  1
  I  I11  1  0.284070  0.054150  0.250000  1
  I  I12  1  0.757946  0.454922  0.937230  1
  I  I13  1  0.277073  0.272772  0.151014  1
  I  I14  1  0.215930  0.554150  0.250000  1
  I  I15  1  0.218683  0.521625  0.848647  1
  I  I16  1  0.722927  0.727228  0.848986  1
  I  I17  1  0.718683  0.978375  0.348647  1
  I  I18  1  0.784070  0.445850  0.750000  1
  I  I19  1  0.222927  0.772772  0.348986  1
  I  I20  1  0.281317  0.021625  0.651353  1
  I  I21  1  0.777073  0.227228  0.848986  1
  I  I22  1  0.737686  0.205298  0.062384  1
  I  I23  1  0.277073  0.272772  0.348986  1
  I  I24  1  0.237686  0.294702  0.937616  1
  I  I25  1  0.242055  0.545078  0.437230  1
  I  I26  1  0.737686  0.205298  0.437616  1
  I  I27  1  0.237686  0.294702  0.562384  1
  I  I28  1  0.711080  0.197134  0.250000  1
  I  I29  1  0.222927  0.772772  0.151014  1
  I  I30  1  0.788920  0.697134  0.250000  1
  I  I31  1  0.777073  0.227228  0.651014  1
  I  I32  1  0.281317  0.021625  0.848647  1
  I  I33  1  0.288920  0.802866  0.750000  1
  I  I34  1  0.781317  0.478375  0.151353  1
  I  I35  1  0.742054  0.954922  0.937230  1
  I  I36  1  0.715930  0.945850  0.750000  1
  I  I37  1  0.242055  0.545078  0.062770  1
  I  I38  1  0.762314  0.705298  0.437616  1
  I  I39  1  0.257945  0.045078  0.062770  1
  I  I40  1  0.218683  0.521625  0.651353  1
  I  I41  1  0.722927  0.727228  0.651014  1
  I  I42  1  0.781317  0.478375  0.348647  1
  I  I43  1  0.757946  0.454922  0.562770  1
  I  I44  1  0.718683  0.978375  0.151353  1
  I  I45  1  0.742054  0.954922  0.562770  1
  I  I46  1  0.262314  0.794702  0.937616  1
  I  I47  1  0.262314  0.794702  0.562384  1
