# generated using pymatgen
data_ZnH2(CO2)2
_symmetry_space_group_name_H-M   'P 1'
_cell_length_a   10.07461536
_cell_length_b   11.52695934
_cell_length_c   14.76759389
_cell_angle_alpha   91.34352769
_cell_angle_beta   90.00000000
_cell_angle_gamma   90.00000000
_symmetry_Int_Tables_number   1
_chemical_formula_structural   ZnH2(CO2)2
_chemical_formula_sum   'Zn12 H24 C24 O48'
_cell_volume   1714.48450987
_cell_formula_units_Z   12
loop_
 _symmetry_equiv_pos_site_id
 _symmetry_equiv_pos_as_xyz
  1  'x, y, z'
loop_
 _atom_site_type_symbol
 _atom_site_label
 _atom_site_symmetry_multiplicity
 _atom_site_fract_x
 _atom_site_fract_y
 _atom_site_fract_z
 _atom_site_occupancy
  Zn  Zn0  1  0.423608  0.256433  0.631681  1
  Zn  Zn1  1  0.576392  0.743567  0.368319  1
  Zn  Zn2  1  0.110854  0.258703  0.687874  1
  Zn  Zn3  1  0.076392  0.756433  0.131681  1
  Zn  Zn4  1  0.889146  0.741297  0.312126  1
  Zn  Zn5  1  0.000000  0.000000  0.000000  1
  Zn  Zn6  1  0.500000  0.000000  0.500000  1
  Zn  Zn7  1  0.610854  0.241297  0.812126  1
  Zn  Zn8  1  0.389146  0.758703  0.187874  1
  Zn  Zn9  1  0.923608  0.243567  0.868319  1
  Zn  Zn10  1  0.000000  0.500000  0.000000  1
  Zn  Zn11  1  0.500000  0.500000  0.500000  1
  H  H12  1  0.796155  0.501131  0.494182  1
  H  H13  1  0.203845  0.498869  0.505818  1
  H  H14  1  0.039326  0.526889  0.727051  1
  H  H15  1  0.750377  0.637715  0.127824  1
  H  H16  1  0.301831  0.514245  0.261640  1
  H  H17  1  0.833598  0.690774  0.923508  1
  H  H18  1  0.106459  0.064701  0.536790  1
  H  H19  1  0.198169  0.014245  0.761640  1
  H  H20  1  0.749623  0.137715  0.627824  1
  H  H21  1  0.460674  0.026889  0.227051  1
  H  H22  1  0.666402  0.190774  0.423508  1
  H  H23  1  0.166402  0.309226  0.076492  1
  H  H24  1  0.703845  0.001131  0.994182  1
  H  H25  1  0.801831  0.985755  0.238360  1
  H  H26  1  0.250377  0.862285  0.372176  1
  H  H27  1  0.606459  0.435299  0.963210  1
  H  H28  1  0.296155  0.998869  0.005818  1
  H  H29  1  0.393541  0.564701  0.036790  1
  H  H30  1  0.249623  0.362285  0.872176  1
  H  H31  1  0.539326  0.973111  0.772949  1
  H  H32  1  0.333598  0.809226  0.576492  1
  H  H33  1  0.960674  0.473111  0.272949  1
  H  H34  1  0.698169  0.485755  0.738360  1
  H  H35  1  0.893541  0.935299  0.463210  1
  C  C36  1  0.668785  0.671769  0.170795  1
  C  C37  1  0.484403  0.980799  0.289999  1
  C  C38  1  0.831215  0.171769  0.670795  1
  C  C39  1  0.285603  0.578020  0.046818  1
  C  C40  1  0.222082  0.427803  0.553060  1
  C  C41  1  0.984403  0.519201  0.210001  1
  C  C42  1  0.603428  0.244326  0.469175  1
  C  C43  1  0.785603  0.921980  0.453182  1
  C  C44  1  0.214397  0.078020  0.546818  1
  C  C45  1  0.015597  0.480799  0.789999  1
  C  C46  1  0.714397  0.421980  0.953182  1
  C  C47  1  0.168785  0.828231  0.329205  1
  C  C48  1  0.128348  0.045101  0.815040  1
  C  C49  1  0.628348  0.454899  0.684960  1
  C  C50  1  0.722082  0.072197  0.946940  1
  C  C51  1  0.277918  0.927803  0.053060  1
  C  C52  1  0.103428  0.255674  0.030825  1
  C  C53  1  0.777918  0.572197  0.446940  1
  C  C54  1  0.515597  0.019201  0.710001  1
  C  C55  1  0.896572  0.744326  0.969175  1
  C  C56  1  0.371652  0.545101  0.315040  1
  C  C57  1  0.331215  0.328231  0.829205  1
  C  C58  1  0.871652  0.954899  0.184960  1
  C  C59  1  0.396572  0.755674  0.530825  1
  O  O60  1  0.082906  0.148297  0.805471  1
  O  O61  1  0.495688  0.959946  0.639175  1
  O  O62  1  0.802874  0.195083  0.754012  1
  O  O63  1  0.655904  0.603507  0.438515  1
  O  O64  1  0.417094  0.648297  0.305471  1
  O  O65  1  0.473085  0.813242  0.477799  1
  O  O66  1  0.376822  0.886434  0.092827  1
  O  O67  1  0.057239  0.817064  0.366515  1
  O  O68  1  0.697126  0.695083  0.254012  1
  O  O69  1  0.886643  0.852125  0.965743  1
  O  O70  1  0.004312  0.459946  0.139175  1
  O  O71  1  0.526915  0.186758  0.522201  1
  O  O72  1  0.989272  0.630541  0.217411  1
  O  O73  1  0.557239  0.682936  0.133485  1
  O  O74  1  0.942761  0.182936  0.633485  1
  O  O75  1  0.207489  0.520155  0.997500  1
  O  O76  1  0.102712  0.977199  0.877597  1
  O  O77  1  0.876822  0.613566  0.407173  1
  O  O78  1  0.917094  0.851703  0.194529  1
  O  O79  1  0.197126  0.804917  0.245988  1
  O  O80  1  0.510728  0.130541  0.717411  1
  O  O81  1  0.844096  0.103507  0.938515  1
  O  O82  1  0.489272  0.869459  0.282589  1
  O  O83  1  0.397288  0.477199  0.377597  1
  O  O84  1  0.792511  0.479845  0.002500  1
  O  O85  1  0.246603  0.152430  0.609506  1
  O  O86  1  0.613357  0.352125  0.465743  1
  O  O87  1  0.623178  0.113566  0.907173  1
  O  O88  1  0.602712  0.522801  0.622403  1
  O  O89  1  0.504312  0.040054  0.360825  1
  O  O90  1  0.746603  0.347570  0.890494  1
  O  O91  1  0.253397  0.652430  0.109506  1
  O  O92  1  0.995688  0.540054  0.860825  1
  O  O93  1  0.344096  0.396493  0.561485  1
  O  O94  1  0.123178  0.386434  0.592827  1
  O  O95  1  0.113357  0.147875  0.034257  1
  O  O96  1  0.707489  0.979845  0.502500  1
  O  O97  1  0.442761  0.317064  0.866515  1
  O  O98  1  0.973085  0.686758  0.022201  1
  O  O99  1  0.753397  0.847570  0.390494  1
  O  O100  1  0.386643  0.647875  0.534257  1
  O  O101  1  0.010728  0.369459  0.782589  1
  O  O102  1  0.026915  0.313242  0.977799  1
  O  O103  1  0.292511  0.020155  0.497500  1
  O  O104  1  0.582906  0.351703  0.694529  1
  O  O105  1  0.302874  0.304917  0.745988  1
  O  O106  1  0.897288  0.022801  0.122403  1
  O  O107  1  0.155904  0.896493  0.061485  1
