# generated using pymatgen
data_Co21(B3Sb)2
_symmetry_space_group_name_H-M   'P 1'
_cell_length_a   7.46470868
_cell_length_b   7.46470847
_cell_length_c   7.46470790
_cell_angle_alpha   59.99999811
_cell_angle_beta   59.99999904
_cell_angle_gamma   60.00000099
_symmetry_Int_Tables_number   1
_chemical_formula_structural   Co21(B3Sb)2
_chemical_formula_sum   'Co21 B6 Sb2'
_cell_volume   294.11930387
_cell_formula_units_Z   1
loop_
 _symmetry_equiv_pos_site_id
 _symmetry_equiv_pos_as_xyz
  1  'x, y, z'
loop_
 _atom_site_type_symbol
 _atom_site_label
 _atom_site_symmetry_multiplicity
 _atom_site_fract_x
 _atom_site_fract_y
 _atom_site_fract_z
 _atom_site_occupancy
  Co  Co0  1  0.000000  0.000000  0.000000  1
  Co  Co1  1  0.383690  0.383690  0.383690  1
  Co  Co2  1  0.616310  0.616310  0.151071  1
  Co  Co3  1  0.151071  0.616310  0.616310  1
  Co  Co4  1  0.616310  0.151071  0.616310  1
  Co  Co5  1  0.848929  0.383690  0.383690  1
  Co  Co6  1  0.383690  0.848929  0.383690  1
  Co  Co7  1  0.383690  0.383690  0.848929  1
  Co  Co8  1  0.616310  0.616310  0.616310  1
  Co  Co9  1  0.333737  1.000000  1.000000  1
  Co  Co10  1  0.000000  0.000000  0.333737  1
  Co  Co11  1  0.333737  0.666263  1.000000  1
  Co  Co12  1  1.000000  0.333737  0.666263  1
  Co  Co13  1  0.000000  0.666263  0.333737  1
  Co  Co14  1  0.000000  0.333737  1.000000  1
  Co  Co15  1  0.333737  1.000000  0.666263  1
  Co  Co16  1  0.666263  0.333737  0.000000  1
  Co  Co17  1  1.000000  0.666263  0.000000  1
  Co  Co18  1  0.666263  0.000000  0.333737  1
  Co  Co19  1  1.000000  1.000000  0.666263  1
  Co  Co20  1  0.666263  0.000000  0.000000  1
  Sb  Sb21  1  0.250000  0.250000  0.250000  1
  Sb  Sb22  1  0.750000  0.750000  0.750000  1
  B  B23  1  0.723444  0.276556  0.276556  1
  B  B24  1  0.723444  0.723444  0.276556  1
  B  B25  1  0.276556  0.276556  0.723444  1
  B  B26  1  0.723444  0.276556  0.723444  1
  B  B27  1  0.276556  0.723444  0.276556  1
  B  B28  1  0.276556  0.723444  0.723444  1
