# generated using pymatgen
data_Gd10S14O
_symmetry_space_group_name_H-M   'P 1'
_cell_length_a   14.32444438
_cell_length_b   14.32444458
_cell_length_c   14.32444482
_cell_angle_alpha   93.61733693
_cell_angle_beta   117.93397136
_cell_angle_gamma   117.93397405
_symmetry_Int_Tables_number   1
_chemical_formula_structural   Gd10S14O
_chemical_formula_sum   'Gd40 S56 O4'
_cell_volume   2138.64051612
_cell_formula_units_Z   4
loop_
 _symmetry_equiv_pos_site_id
 _symmetry_equiv_pos_as_xyz
  1  'x, y, z'
loop_
 _atom_site_type_symbol
 _atom_site_label
 _atom_site_symmetry_multiplicity
 _atom_site_fract_x
 _atom_site_fract_y
 _atom_site_fract_z
 _atom_site_occupancy
  Gd  Gd0  1  0.888252  0.814044  0.189507  1
  Gd  Gd1  1  0.124536  0.925792  0.814044  1
  Gd  Gd2  1  0.599957  0.019274  0.674373  1
  Gd  Gd3  1  0.020344  0.760172  0.010172  1
  Gd  Gd4  1  0.624536  0.810493  0.198745  1
  Gd  Gd5  1  0.611748  0.310493  0.685956  1
  Gd  Gd6  1  0.844901  0.419317  0.019274  1
  Gd  Gd7  1  0.875464  0.301255  0.689507  1
  Gd  Gd8  1  0.111748  0.425792  0.301255  1
  Gd  Gd9  1  0.900043  0.574416  0.419317  1
  Gd  Gd10  1  0.111748  0.185956  0.810493  1
  Gd  Gd11  1  0.611748  0.801255  0.925792  1
  Gd  Gd12  1  0.375464  0.685956  0.574208  1
  Gd  Gd13  1  0.099957  0.425584  0.580683  1
  Gd  Gd14  1  0.155099  0.074416  0.174373  1
  Gd  Gd15  1  0.400043  0.980726  0.325627  1
  Gd  Gd16  1  0.250000  0.739828  0.760172  1
  Gd  Gd17  1  0.344901  0.519274  0.919317  1
  Gd  Gd18  1  0.250000  0.010172  0.489828  1
  Gd  Gd19  1  0.750000  0.989828  0.510172  1
  Gd  Gd20  1  0.900043  0.825627  0.480726  1
  Gd  Gd21  1  0.599957  0.080683  0.925584  1
  Gd  Gd22  1  0.099957  0.174373  0.519274  1
  Gd  Gd23  1  0.388252  0.689507  0.314044  1
  Gd  Gd24  1  0.375464  0.189507  0.801255  1
  Gd  Gd25  1  0.400043  0.919317  0.074416  1
  Gd  Gd26  1  0.979656  0.239828  0.989828  1
  Gd  Gd27  1  0.888252  0.574208  0.698745  1
  Gd  Gd28  1  0.624536  0.314044  0.425792  1
  Gd  Gd29  1  0.655099  0.674373  0.574416  1
  Gd  Gd30  1  0.388252  0.198745  0.074208  1
  Gd  Gd31  1  0.750000  0.260172  0.239828  1
  Gd  Gd32  1  0.875464  0.074208  0.185956  1
  Gd  Gd33  1  0.655099  0.480726  0.080683  1
  Gd  Gd34  1  0.520344  0.510172  0.260172  1
  Gd  Gd35  1  0.155099  0.580683  0.980726  1
  Gd  Gd36  1  0.124536  0.698745  0.310493  1
  Gd  Gd37  1  0.344901  0.325627  0.425584  1
  Gd  Gd38  1  0.844901  0.925584  0.825627  1
  Gd  Gd39  1  0.479656  0.489828  0.739828  1
  S  S40  1  0.648833  0.398833  0.250000  1
  S  S41  1  0.467572  0.866506  0.757659  1
  S  S42  1  0.907068  0.528795  0.886130  1
  S  S43  1  0.357335  0.971205  0.878273  1
  S  S44  1  0.771180  0.250958  0.833915  1
  S  S45  1  0.142665  0.621727  0.528795  1
  S  S46  1  0.967572  0.209913  0.601066  1
  S  S47  1  0.142665  0.020938  0.613870  1
  S  S48  1  0.771180  0.020222  0.937265  1
  S  S49  1  0.407068  0.386130  0.028795  1
  S  S50  1  0.417043  0.166085  0.437265  1
  S  S51  1  0.917043  0.937265  0.666085  1
  S  S52  1  0.391153  0.601066  0.133494  1
  S  S53  1  0.391153  0.290087  0.257659  1
  S  S54  1  0.407068  0.520938  0.378273  1
  S  S55  1  0.417043  0.750958  0.979778  1
  S  S56  1  0.532428  0.898934  0.290087  1
  S  S57  1  0.891153  0.757659  0.790087  1
  S  S58  1  0.148833  0.750000  0.898833  1
  S  S59  1  0.642665  0.028795  0.121727  1
  S  S60  1  0.351167  0.601167  0.750000  1
  S  S61  1  0.092932  0.121727  0.979062  1
  S  S62  1  0.917043  0.479778  0.250958  1
  S  S63  1  0.857335  0.378273  0.471205  1
  S  S64  1  0.642665  0.113870  0.520938  1
  S  S65  1  0.648833  0.750000  0.398833  1
  S  S66  1  0.082957  0.062735  0.333915  1
  S  S67  1  0.032428  0.742341  0.633494  1
  S  S68  1  0.608847  0.398934  0.866506  1
  S  S69  1  0.148833  0.898833  0.250000  1
  S  S70  1  0.728820  0.666085  0.249042  1
  S  S71  1  0.851167  0.101167  0.750000  1
  S  S72  1  0.857335  0.979062  0.386130  1
  S  S73  1  0.351167  0.250000  0.601167  1
  S  S74  1  0.582957  0.833915  0.562735  1
  S  S75  1  0.592932  0.613870  0.971205  1
  S  S76  1  0.967572  0.257659  0.366506  1
  S  S77  1  0.032428  0.790087  0.398934  1
  S  S78  1  0.582957  0.249042  0.020222  1
  S  S79  1  0.907068  0.878273  0.020938  1
  S  S80  1  0.092932  0.471205  0.113870  1
  S  S81  1  0.228820  0.749042  0.166085  1
  S  S82  1  0.228820  0.979778  0.062735  1
  S  S83  1  0.357335  0.886130  0.479062  1
  S  S84  1  0.891153  0.633494  0.101066  1
  S  S85  1  0.108847  0.366506  0.898934  1
  S  S86  1  0.082957  0.520222  0.749042  1
  S  S87  1  0.608847  0.709913  0.742341  1
  S  S88  1  0.108847  0.242341  0.209913  1
  S  S89  1  0.851167  0.250000  0.101167  1
  S  S90  1  0.271180  0.333915  0.750958  1
  S  S91  1  0.271180  0.437265  0.520222  1
  S  S92  1  0.467572  0.101066  0.709913  1
  S  S93  1  0.532428  0.133494  0.242341  1
  S  S94  1  0.728820  0.562735  0.479778  1
  S  S95  1  0.592932  0.479062  0.621727  1
  O  O96  1  0.750000  0.375000  0.625000  1
  O  O97  1  0.750000  0.875000  0.125000  1
  O  O98  1  0.250000  0.625000  0.375000  1
  O  O99  1  0.250000  0.125000  0.875000  1
