# generated using pymatgen
data_CeP3H8O7
_symmetry_space_group_name_H-M   'P 1'
_cell_length_a   7.23863949
_cell_length_b   8.08033528
_cell_length_c   9.04428547
_cell_angle_alpha   110.74993464
_cell_angle_beta   97.57883670
_cell_angle_gamma   104.93029487
_symmetry_Int_Tables_number   1
_chemical_formula_structural   CeP3H8O7
_chemical_formula_sum   'Ce2 P6 H16 O14'
_cell_volume   463.18250825
_cell_formula_units_Z   2
loop_
 _symmetry_equiv_pos_site_id
 _symmetry_equiv_pos_as_xyz
  1  'x, y, z'
loop_
 _atom_site_type_symbol
 _atom_site_label
 _atom_site_symmetry_multiplicity
 _atom_site_fract_x
 _atom_site_fract_y
 _atom_site_fract_z
 _atom_site_occupancy
  Ce  Ce0  1  0.346424  0.187775  0.132323  1
  Ce  Ce1  1  0.653576  0.812225  0.867677  1
  P  P2  1  0.852134  0.186042  0.266417  1
  P  P3  1  0.147866  0.813958  0.733583  1
  P  P4  1  0.031659  0.781612  0.189357  1
  P  P5  1  0.968341  0.218388  0.810643  1
  P  P6  1  0.469655  0.310986  0.586050  1
  P  P7  1  0.530345  0.689014  0.413950  1
  O  O8  1  0.035158  0.159920  0.209683  1
  O  O9  1  0.964842  0.840080  0.790317  1
  O  O10  1  0.654852  0.067449  0.140269  1
  O  O11  1  0.345148  0.932551  0.859731  1
  O  O12  1  0.215905  0.867823  0.141868  1
  O  O13  1  0.784095  0.132177  0.858132  1
  O  O14  1  0.828458  0.731872  0.080580  1
  O  O15  1  0.171542  0.268128  0.919420  1
  O  O16  1  0.616314  0.483154  0.726592  1
  O  O17  1  0.383686  0.516846  0.273408  1
  O  O18  1  0.501258  0.267822  0.414810  1
  O  O19  1  0.498742  0.732178  0.585190  1
  O  O20  1  0.622249  0.364952  0.048728  1
  O  O21  1  0.377751  0.635048  0.951272  1
  H  H22  1  0.867526  0.377673  0.323440  1
  H  H23  1  0.132474  0.622327  0.676560  1
  H  H24  1  0.849533  0.146258  0.406989  1
  H  H25  1  0.150467  0.853742  0.593011  1
  H  H26  1  0.048479  0.617018  0.204751  1
  H  H27  1  0.951521  0.382982  0.795249  1
  H  H28  1  0.040242  0.901128  0.351242  1
  H  H29  1  0.959758  0.098872  0.648758  1
  H  H30  1  0.463930  0.153170  0.622804  1
  H  H31  1  0.536070  0.846830  0.377196  1
  H  H32  1  0.275892  0.321187  0.583422  1
  H  H33  1  0.724108  0.678813  0.416578  1
  H  H34  1  0.680347  0.283590  0.970830  1
  H  H35  1  0.319653  0.716410  0.029170  1
  H  H36  1  0.668052  0.490869  0.048352  1
  H  H37  1  0.331948  0.509131  0.951648  1
