# generated using pymatgen
data_Mg(GaO2)2
_symmetry_space_group_name_H-M   'P 1'
_cell_length_a   5.93022983
_cell_length_b   5.98066263
_cell_length_c   35.61380859
_cell_angle_alpha   59.74873205
_cell_angle_beta   59.72458332
_cell_angle_gamma   59.71827492
_symmetry_Int_Tables_number   1
_chemical_formula_structural   Mg(GaO2)2
_chemical_formula_sum   'Mg12 Ga24 O48'
_cell_volume   887.68362618
_cell_formula_units_Z   12
loop_
 _symmetry_equiv_pos_site_id
 _symmetry_equiv_pos_as_xyz
  1  'x, y, z'
loop_
 _atom_site_type_symbol
 _atom_site_label
 _atom_site_symmetry_multiplicity
 _atom_site_fract_x
 _atom_site_fract_y
 _atom_site_fract_z
 _atom_site_occupancy
  Ga  Ga0  1  0.264918  0.244154  0.041129  1
  Ga  Ga1  1  0.265482  0.243987  0.207757  1
  Ga  Ga2  1  0.629530  0.629088  0.018715  1
  Ga  Ga3  1  0.986351  0.007337  0.333162  1
  Ga  Ga4  1  0.629585  0.115350  0.104439  1
  Ga  Ga5  1  0.629585  0.628432  0.104439  1
  Ga  Ga6  1  0.625162  0.118399  0.271967  1
  Ga  Ga7  1  0.629772  0.628277  0.185613  1
  Ga  Ga8  1  0.259803  0.239312  0.376929  1
  Ga  Ga9  1  0.989369  0.009906  0.498470  1
  Ga  Ga10  1  0.625162  0.624632  0.271967  1
  Ga  Ga11  1  0.259901  0.239804  0.543416  1
  Ga  Ga12  1  0.990112  0.010121  0.664941  1
  Ga  Ga13  1  0.624142  0.124543  0.437810  1
  Ga  Ga14  1  0.624142  0.624458  0.437810  1
  Ga  Ga15  1  0.991919  0.011576  0.830821  1
  Ga  Ga16  1  0.260346  0.240140  0.709895  1
  Ga  Ga17  1  0.625009  0.124973  0.604160  1
  Ga  Ga18  1  0.625009  0.625062  0.604160  1
  Ga  Ga19  1  0.625501  0.124879  0.770694  1
  Ga  Ga20  1  0.260683  0.240424  0.876412  1
  Ga  Ga21  1  0.625501  0.625453  0.770694  1
  Ga  Ga22  1  0.628425  0.121695  0.936939  1
  Ga  Ga23  1  0.628425  0.628245  0.936939  1
  Mg  Mg24  1  0.990959  0.007101  0.999140  1
  Mg  Mg25  1  0.985692  0.002806  0.168116  1
  Mg  Mg26  1  0.120194  0.626811  0.104364  1
  Mg  Mg27  1  0.121612  0.624074  0.271706  1
  Mg  Mg28  1  0.124641  0.624528  0.437717  1
  Mg  Mg29  1  0.624807  0.623994  0.354535  1
  Mg  Mg30  1  0.124975  0.625046  0.604156  1
  Mg  Mg31  1  0.625012  0.624860  0.520878  1
  Mg  Mg32  1  0.125083  0.625347  0.770704  1
  Mg  Mg33  1  0.625155  0.625059  0.687454  1
  Mg  Mg34  1  0.123851  0.627435  0.936880  1
  Mg  Mg35  1  0.625385  0.624648  0.854220  1
  O  O36  1  0.390244  0.379328  0.063073  1
  O  O37  1  0.390716  0.378137  0.142168  1
  O  O38  1  0.390244  0.851992  0.063073  1
  O  O39  1  0.859509  0.380279  0.063322  1
  O  O40  1  0.397596  0.867687  0.144505  1
  O  O41  1  0.390246  0.379779  0.229746  1
  O  O42  1  0.853753  0.871874  0.067083  1
  O  O43  1  0.390834  0.375845  0.309579  1
  O  O44  1  0.853869  0.405771  0.145048  1
  O  O45  1  0.390246  0.851497  0.229746  1
  O  O46  1  0.859395  0.380743  0.229853  1
  O  O47  1  0.853869  0.870072  0.145048  1
  O  O48  1  0.387030  0.372159  0.397878  1
  O  O49  1  0.382552  0.874883  0.311280  1
  O  O50  1  0.846797  0.866815  0.236596  1
  O  O51  1  0.387644  0.375845  0.476778  1
  O  O52  1  0.864070  0.391299  0.311244  1
  O  O53  1  0.387030  0.853545  0.397878  1
  O  O54  1  0.864070  0.877165  0.311244  1
  O  O55  1  0.860821  0.375630  0.397987  1
  O  O56  1  0.387084  0.372082  0.564542  1
  O  O57  1  0.388737  0.874045  0.477196  1
  O  O58  1  0.859792  0.872443  0.399220  1
  O  O59  1  0.387813  0.375975  0.643372  1
  O  O60  1  0.862505  0.395974  0.477282  1
  O  O61  1  0.387084  0.853584  0.564542  1
  O  O62  1  0.862505  0.877827  0.477282  1
  O  O63  1  0.860319  0.375863  0.564660  1
  O  O64  1  0.389799  0.874114  0.643663  1
  O  O65  1  0.387295  0.372135  0.731133  1
  O  O66  1  0.861981  0.874003  0.565002  1
  O  O67  1  0.387888  0.376141  0.809972  1
  O  O68  1  0.862856  0.396495  0.643778  1
  O  O69  1  0.387295  0.853769  0.731133  1
  O  O70  1  0.862856  0.877981  0.643778  1
  O  O71  1  0.860570  0.375941  0.731258  1
  O  O72  1  0.391452  0.874162  0.810037  1
  O  O73  1  0.386842  0.370989  0.897991  1
  O  O74  1  0.862847  0.874508  0.731356  1
  O  O75  1  0.387953  0.378010  0.976005  1
  O  O76  1  0.862889  0.397861  0.810200  1
  O  O77  1  0.386842  0.854225  0.897991  1
  O  O78  1  0.862889  0.878048  0.810200  1
  O  O79  1  0.861287  0.374446  0.898304  1
  O  O80  1  0.404992  0.867328  0.976725  1
  O  O81  1  0.853136  0.411814  0.977388  1
  O  O82  1  0.867621  0.877212  0.896326  1
  O  O83  1  0.853136  0.870722  0.977388  1
