# generated using pymatgen
data_Rb2NaAl3F12
_symmetry_space_group_name_H-M   'P 1'
_cell_length_a   7.10707413
_cell_length_b   7.20736834
_cell_length_c   10.02867016
_cell_angle_alpha   91.04319374
_cell_angle_beta   90.00000000
_cell_angle_gamma   90.00000000
_symmetry_Int_Tables_number   1
_chemical_formula_structural   Rb2NaAl3F12
_chemical_formula_sum   'Rb4 Na2 Al6 F24'
_cell_volume   513.61644705
_cell_formula_units_Z   2
loop_
 _symmetry_equiv_pos_site_id
 _symmetry_equiv_pos_as_xyz
  1  'x, y, z'
loop_
 _atom_site_type_symbol
 _atom_site_label
 _atom_site_symmetry_multiplicity
 _atom_site_fract_x
 _atom_site_fract_y
 _atom_site_fract_z
 _atom_site_occupancy
  Rb  Rb0  1  0.750000  0.995853  0.116506  1
  Rb  Rb1  1  0.250000  0.004147  0.883494  1
  Rb  Rb2  1  0.250000  0.519818  0.638205  1
  Rb  Rb3  1  0.750000  0.480182  0.361795  1
  Na  Na4  1  0.750000  0.781448  0.755195  1
  Na  Na5  1  0.250000  0.218552  0.244805  1
  Al  Al6  1  0.500000  0.000000  0.500000  1
  Al  Al7  1  0.000000  0.000000  0.500000  1
  Al  Al8  1  0.000000  0.500000  0.000000  1
  Al  Al9  1  0.500000  0.500000  0.000000  1
  Al  Al10  1  0.750000  0.288752  0.729012  1
  Al  Al11  1  0.250000  0.711248  0.270988  1
  F  F12  1  0.750000  0.923195  0.489592  1
  F  F13  1  0.250000  0.076805  0.510408  1
  F  F14  1  0.750000  0.500096  0.639086  1
  F  F15  1  0.250000  0.499904  0.360914  1
  F  F16  1  0.250000  0.506873  0.943583  1
  F  F17  1  0.750000  0.493127  0.056417  1
  F  F18  1  0.250000  0.915066  0.177140  1
  F  F19  1  0.750000  0.084934  0.822860  1
  F  F20  1  0.968663  0.144886  0.360689  1
  F  F21  1  0.468663  0.855114  0.639311  1
  F  F22  1  0.031337  0.855114  0.639311  1
  F  F23  1  0.531337  0.144886  0.360689  1
  F  F24  1  0.936630  0.197930  0.614718  1
  F  F25  1  0.436630  0.802070  0.385282  1
  F  F26  1  0.063370  0.802070  0.385282  1
  F  F27  1  0.563370  0.197930  0.614718  1
  F  F28  1  0.036327  0.278015  0.069463  1
  F  F29  1  0.536327  0.721985  0.930537  1
  F  F30  1  0.963673  0.721985  0.930537  1
  F  F31  1  0.463673  0.278015  0.069463  1
  F  F32  1  0.440204  0.611572  0.163215  1
  F  F33  1  0.940204  0.388428  0.836785  1
  F  F34  1  0.559796  0.388428  0.836785  1
  F  F35  1  0.059796  0.611572  0.163215  1
