# generated using pymatgen
data_Ce5Ge2Rh
_symmetry_space_group_name_H-M   'P 1'
_cell_length_a   7.85026618
_cell_length_b   8.81276860
_cell_length_c   11.79816148
_cell_angle_alpha   90.00000000
_cell_angle_beta   90.00000000
_cell_angle_gamma   90.00000000
_symmetry_Int_Tables_number   1
_chemical_formula_structural   Ce5Ge2Rh
_chemical_formula_sum   'Ce20 Ge8 Rh4'
_cell_volume   816.22724210
_cell_formula_units_Z   4
loop_
 _symmetry_equiv_pos_site_id
 _symmetry_equiv_pos_as_xyz
  1  'x, y, z'
loop_
 _atom_site_type_symbol
 _atom_site_label
 _atom_site_symmetry_multiplicity
 _atom_site_fract_x
 _atom_site_fract_y
 _atom_site_fract_z
 _atom_site_occupancy
  Ce  Ce0  1  0.701214  0.461321  0.931218  1
  Ce  Ce1  1  0.201214  0.538679  0.568782  1
  Ce  Ce2  1  0.298786  0.961321  0.068782  1
  Ce  Ce3  1  0.798786  0.038679  0.431218  1
  Ce  Ce4  1  0.298786  0.538679  0.068782  1
  Ce  Ce5  1  0.798786  0.461321  0.431218  1
  Ce  Ce6  1  0.701214  0.038679  0.931218  1
  Ce  Ce7  1  0.201214  0.961321  0.568782  1
  Ce  Ce8  1  0.970472  0.750000  0.997979  1
  Ce  Ce9  1  0.470472  0.250000  0.502021  1
  Ce  Ce10  1  0.029528  0.250000  0.002021  1
  Ce  Ce11  1  0.529528  0.750000  0.497979  1
  Ce  Ce12  1  0.358850  0.750000  0.791545  1
  Ce  Ce13  1  0.858850  0.250000  0.708455  1
  Ce  Ce14  1  0.641150  0.250000  0.208455  1
  Ce  Ce15  1  0.141150  0.750000  0.291545  1
  Ce  Ce16  1  0.841202  0.750000  0.715458  1
  Ce  Ce17  1  0.341202  0.250000  0.784542  1
  Ce  Ce18  1  0.158798  0.250000  0.284542  1
  Ce  Ce19  1  0.658798  0.750000  0.215458  1
  Rh  Rh20  1  0.572717  0.750000  0.980355  1
  Rh  Rh21  1  0.072717  0.250000  0.519645  1
  Rh  Rh22  1  0.427283  0.250000  0.019645  1
  Rh  Rh23  1  0.927283  0.750000  0.480355  1
  Ge  Ge24  1  0.573475  0.495786  0.673134  1
  Ge  Ge25  1  0.073475  0.504214  0.826866  1
  Ge  Ge26  1  0.426525  0.995786  0.326866  1
  Ge  Ge27  1  0.926525  0.004214  0.173134  1
  Ge  Ge28  1  0.426525  0.504214  0.326866  1
  Ge  Ge29  1  0.926525  0.495786  0.173134  1
  Ge  Ge30  1  0.573475  0.004214  0.673134  1
  Ge  Ge31  1  0.073475  0.995786  0.826866  1
