# generated using pymatgen
data_Ba2Nd7Si11N23
_symmetry_space_group_name_H-M   'P 1'
_cell_length_a   9.76711769
_cell_length_b   11.02318018
_cell_length_c   12.85148237
_cell_angle_alpha   115.39574390
_cell_angle_beta   90.00000000
_cell_angle_gamma   90.00000000
_symmetry_Int_Tables_number   1
_chemical_formula_structural   Ba2Nd7Si11N23
_chemical_formula_sum   'Ba4 Nd14 Si22 N46'
_cell_volume   1249.94483770
_cell_formula_units_Z   2
loop_
 _symmetry_equiv_pos_site_id
 _symmetry_equiv_pos_as_xyz
  1  'x, y, z'
loop_
 _atom_site_type_symbol
 _atom_site_label
 _atom_site_symmetry_multiplicity
 _atom_site_fract_x
 _atom_site_fract_y
 _atom_site_fract_z
 _atom_site_occupancy
  Ba  Ba0  1  0.791186  0.500000  0.000000  1
  Ba  Ba1  1  0.000000  0.833973  1.000000  1
  Ba  Ba2  1  0.000000  0.166027  0.000000  1
  Ba  Ba3  1  0.208814  0.500000  0.000000  1
  Nd  Nd4  1  0.294921  0.120998  0.241997  1
  Nd  Nd5  1  0.265809  0.500000  0.500000  1
  Nd  Nd6  1  0.265809  0.000000  0.500000  1
  Nd  Nd7  1  0.000000  0.336205  0.672410  1
  Nd  Nd8  1  0.500000  0.385947  0.205562  1
  Nd  Nd9  1  0.705079  0.120998  0.241997  1
  Nd  Nd10  1  0.500000  0.180385  0.794438  1
  Nd  Nd11  1  0.705079  0.879002  0.758003  1
  Nd  Nd12  1  0.500000  0.819615  0.205562  1
  Nd  Nd13  1  0.294921  0.879002  0.758003  1
  Nd  Nd14  1  0.000000  0.663795  0.327590  1
  Nd  Nd15  1  0.734191  0.000000  0.500000  1
  Nd  Nd16  1  0.500000  0.614053  0.794438  1
  Nd  Nd17  1  0.734191  0.500000  0.500000  1
  Si  Si18  1  0.338882  0.326550  0.653101  1
  Si  Si19  1  0.838772  0.846907  0.230793  1
  Si  Si20  1  0.661118  0.326550  0.653101  1
  Si  Si21  1  0.328516  0.151978  0.000000  1
  Si  Si22  1  0.500000  0.214835  0.429670  1
  Si  Si23  1  0.000000  0.666854  0.596539  1
  Si  Si24  1  0.500000  0.785165  0.570330  1
  Si  Si25  1  0.161228  0.846907  0.230793  1
  Si  Si26  1  0.338882  0.673450  0.346899  1
  Si  Si27  1  0.000000  0.070315  0.403461  1
  Si  Si28  1  0.000000  0.333146  0.403461  1
  Si  Si29  1  0.671484  0.848022  1.000000  1
  Si  Si30  1  0.838772  0.616115  0.769207  1
  Si  Si31  1  0.661118  0.673450  0.346899  1
  Si  Si32  1  0.328516  0.848022  1.000000  1
  Si  Si33  1  0.161228  0.153093  0.769207  1
  Si  Si34  1  0.000000  0.929685  0.596539  1
  Si  Si35  1  0.671484  0.151978  0.000000  1
  Si  Si36  1  0.161228  0.616115  0.769207  1
  Si  Si37  1  0.161228  0.383885  0.230793  1
  Si  Si38  1  0.838772  0.383885  0.230793  1
  Si  Si39  1  0.838772  0.153093  0.769207  1
  N  N40  1  0.000000  0.239243  0.478486  1
  N  N41  1  0.500000  0.637580  0.275160  1
  N  N42  1  0.000000  0.415168  0.180766  1
  N  N43  1  0.734213  0.716180  0.879992  1
  N  N44  1  0.000000  0.765598  0.180766  1
  N  N45  1  0.753665  0.529158  0.307712  1
  N  N46  1  0.246335  0.221446  0.692288  1
  N  N47  1  0.246335  0.470842  0.692288  1
  N  N48  1  0.145883  0.014762  0.321859  1
  N  N49  1  0.265787  0.836188  0.120008  1
  N  N50  1  0.854117  0.307097  0.321859  1
  N  N51  1  0.000000  0.500000  0.500000  1
  N  N52  1  0.753665  0.470842  0.692288  1
  N  N53  1  0.145883  0.985238  0.678141  1
  N  N54  1  0.753665  0.778554  0.307712  1
  N  N55  1  0.500000  0.040857  0.331905  1
  N  N56  1  0.734213  0.283820  0.120008  1
  N  N57  1  0.145883  0.692903  0.678141  1
  N  N58  1  0.265787  0.163812  0.879992  1
  N  N59  1  0.649145  0.746995  0.493990  1
  N  N60  1  0.854117  0.692903  0.678141  1
  N  N61  1  0.265787  0.716180  0.879992  1
  N  N62  1  0.854117  0.014762  0.321859  1
  N  N63  1  0.265787  0.283820  0.120008  1
  N  N64  1  0.753665  0.221446  0.692288  1
  N  N65  1  0.500000  0.362420  0.724840  1
  N  N66  1  0.246335  0.778554  0.307712  1
  N  N67  1  0.500000  0.817706  1.000000  1
  N  N68  1  0.500000  0.182294  0.000000  1
  N  N69  1  0.854117  0.985238  0.678141  1
  N  N70  1  0.500000  0.959143  0.668095  1
  N  N71  1  0.734213  0.163812  0.879992  1
  N  N72  1  0.246335  0.529158  0.307712  1
  N  N73  1  0.350855  0.253005  0.506010  1
  N  N74  1  0.000000  0.760757  0.521514  1
  N  N75  1  0.649145  0.253005  0.506010  1
  N  N76  1  0.145883  0.307097  0.321859  1
  N  N77  1  0.274852  0.000000  0.000000  1
  N  N78  1  0.500000  0.291048  0.331905  1
  N  N79  1  0.000000  0.000000  0.500000  1
  N  N80  1  0.500000  0.708952  0.668095  1
  N  N81  1  0.725148  0.000000  0.000000  1
  N  N82  1  0.734213  0.836188  0.120008  1
  N  N83  1  0.350855  0.746995  0.493990  1
  N  N84  1  0.000000  0.234402  0.819234  1
  N  N85  1  0.000000  0.584832  0.819234  1
