# generated using pymatgen
data_Pu3Zn22
_symmetry_space_group_name_H-M   'P 1'
_cell_length_a   8.87120103
_cell_length_b   8.86454150
_cell_length_c   12.31813746
_cell_angle_alpha   111.07652425
_cell_angle_beta   111.11147944
_cell_angle_gamma   89.97496358
_symmetry_Int_Tables_number   1
_chemical_formula_structural   Pu3Zn22
_chemical_formula_sum   'Pu6 Zn44'
_cell_volume   833.89212264
_cell_formula_units_Z   2
loop_
 _symmetry_equiv_pos_site_id
 _symmetry_equiv_pos_as_xyz
  1  'x, y, z'
loop_
 _atom_site_type_symbol
 _atom_site_label
 _atom_site_symmetry_multiplicity
 _atom_site_fract_x
 _atom_site_fract_y
 _atom_site_fract_z
 _atom_site_occupancy
  Pu  Pu0  1  0.125460  0.875519  0.250958  1
  Pu  Pu1  1  0.253122  0.503153  0.506327  1
  Pu  Pu2  1  0.502413  0.252408  0.004859  1
  Pu  Pu3  1  0.746878  0.496847  0.493673  1
  Pu  Pu4  1  0.497587  0.747592  0.995141  1
  Pu  Pu5  1  0.874540  0.124481  0.749042  1
  Zn  Zn6  1  0.164997  0.260940  0.021803  1
  Zn  Zn7  1  0.856778  0.260889  0.021807  1
  Zn  Zn8  1  0.261056  0.856597  0.522202  1
  Zn  Zn9  1  0.118420  0.219341  0.236700  1
  Zn  Zn10  1  0.844258  0.375545  0.251087  1
  Zn  Zn11  1  0.000000  0.000000  0.500000  1
  Zn  Zn12  1  0.219172  0.118483  0.736751  1
  Zn  Zn13  1  0.835003  0.739060  0.978197  1
  Zn  Zn14  1  0.320215  0.041744  0.121861  1
  Zn  Zn15  1  0.041779  0.801140  0.621814  1
  Zn  Zn16  1  0.198371  0.419924  0.878159  1
  Zn  Zn17  1  0.041859  0.320711  0.621797  1
  Zn  Zn18  1  0.679785  0.958256  0.878139  1
  Zn  Zn19  1  0.420126  0.198974  0.378260  1
  Zn  Zn20  1  0.881580  0.780659  0.763300  1
  Zn  Zn21  1  0.593146  0.624467  0.748913  1
  Zn  Zn22  1  0.624030  0.155820  0.248086  1
  Zn  Zn23  1  0.881682  0.482610  0.763308  1
  Zn  Zn24  1  0.958221  0.198860  0.378186  1
  Zn  Zn25  1  0.482390  0.881734  0.263247  1
  Zn  Zn26  1  0.517610  0.118266  0.736753  1
  Zn  Zn27  1  0.118318  0.517390  0.236692  1
  Zn  Zn28  1  0.375938  0.407697  0.751911  1
  Zn  Zn29  1  0.801629  0.580076  0.121841  1
  Zn  Zn30  1  0.320212  0.580119  0.121960  1
  Zn  Zn31  1  0.679788  0.419881  0.878040  1
  Zn  Zn32  1  0.155742  0.624455  0.748913  1
  Zn  Zn33  1  0.780828  0.881517  0.263249  1
  Zn  Zn34  1  0.406854  0.375533  0.251087  1
  Zn  Zn35  1  0.801722  0.041784  0.121936  1
  Zn  Zn36  1  0.624062  0.592303  0.248089  1
  Zn  Zn37  1  0.958141  0.679289  0.378203  1
  Zn  Zn38  1  0.580031  0.320681  0.621856  1
  Zn  Zn39  1  0.738824  0.834416  0.477794  1
  Zn  Zn40  1  0.375970  0.844180  0.751914  1
  Zn  Zn41  1  0.419969  0.679319  0.378144  1
  Zn  Zn42  1  0.000000  0.000000  0.000000  1
  Zn  Zn43  1  0.261176  0.165584  0.522206  1
  Zn  Zn44  1  0.738944  0.143403  0.477798  1
  Zn  Zn45  1  0.579874  0.801026  0.621740  1
  Zn  Zn46  1  0.198278  0.958216  0.878064  1
  Zn  Zn47  1  0.000000  0.500000  0.000000  1
  Zn  Zn48  1  0.500000  0.000000  0.500000  1
  Zn  Zn49  1  0.143222  0.739111  0.978193  1
