# generated using pymatgen
data_SrAl4O7
_symmetry_space_group_name_H-M   'P 1'
_cell_length_a   4.84087085
_cell_length_b   8.20364852
_cell_length_c   8.20364818
_cell_angle_alpha   111.30087891
_cell_angle_beta   90.00000000
_cell_angle_gamma   90.00000000
_symmetry_Int_Tables_number   1
_chemical_formula_structural   SrAl4O7
_chemical_formula_sum   'Sr2 Al8 O14'
_cell_volume   303.53374281
_cell_formula_units_Z   2
loop_
 _symmetry_equiv_pos_site_id
 _symmetry_equiv_pos_as_xyz
  1  'x, y, z'
loop_
 _atom_site_type_symbol
 _atom_site_label
 _atom_site_symmetry_multiplicity
 _atom_site_fract_x
 _atom_site_fract_y
 _atom_site_fract_z
 _atom_site_occupancy
  Sr  Sr0  1  0.000000  0.500000  0.000000  1
  Sr  Sr1  1  0.000000  0.000000  0.500000  1
  Al  Al2  1  0.556374  0.369348  0.630652  1
  Al  Al3  1  0.443626  0.630652  0.369348  1
  Al  Al4  1  0.500000  0.250000  0.250000  1
  Al  Al5  1  0.556374  0.130652  0.869348  1
  Al  Al6  1  0.443626  0.869348  0.130652  1
  Al  Al7  1  0.000000  0.500000  0.500000  1
  Al  Al8  1  0.000000  0.000000  0.000000  1
  Al  Al9  1  0.500000  0.750000  0.750000  1
  O  O10  1  0.732313  0.926973  0.787727  1
  O  O11  1  0.732313  0.212273  0.073027  1
  O  O12  1  0.798425  0.616500  0.383500  1
  O  O13  1  0.201575  0.116500  0.883500  1
  O  O14  1  0.201575  0.383500  0.616500  1
  O  O15  1  0.732313  0.287727  0.426973  1
  O  O16  1  0.732313  0.573027  0.712273  1
  O  O17  1  0.267687  0.787727  0.926973  1
  O  O18  1  0.267687  0.426973  0.287727  1
  O  O19  1  0.267687  0.712273  0.573027  1
  O  O20  1  0.267687  0.073027  0.212273  1
  O  O21  1  0.321642  0.750000  0.250000  1
  O  O22  1  0.798425  0.883500  0.116500  1
  O  O23  1  0.678358  0.250000  0.750000  1
