# generated using pymatgen
data_H13S2N3O8
_symmetry_space_group_name_H-M   'P 1'
_cell_length_a   5.89898147
_cell_length_b   10.32146565
_cell_length_c   16.08083894
_cell_angle_alpha   101.23768561
_cell_angle_beta   90.00000000
_cell_angle_gamma   90.00000000
_symmetry_Int_Tables_number   1
_chemical_formula_structural   H13S2N3O8
_chemical_formula_sum   'H52 S8 N12 O32'
_cell_volume   960.32802106
_cell_formula_units_Z   4
loop_
 _symmetry_equiv_pos_site_id
 _symmetry_equiv_pos_as_xyz
  1  'x, y, z'
loop_
 _atom_site_type_symbol
 _atom_site_label
 _atom_site_symmetry_multiplicity
 _atom_site_fract_x
 _atom_site_fract_y
 _atom_site_fract_z
 _atom_site_occupancy
  S  S0  1  0.530813  0.039082  0.632766  1
  S  S1  1  0.530813  0.460918  0.867234  1
  S  S2  1  0.469187  0.960918  0.367234  1
  S  S3  1  0.469187  0.539082  0.132766  1
  O  O4  1  0.567521  0.068115  0.731522  1
  O  O5  1  0.567521  0.431885  0.768478  1
  O  O6  1  0.432479  0.931885  0.268478  1
  O  O7  1  0.432479  0.568115  0.231522  1
  O  O8  1  0.742942  0.072047  0.593420  1
  O  O9  1  0.742942  0.427953  0.906580  1
  O  O10  1  0.257058  0.927953  0.406580  1
  O  O11  1  0.257058  0.572047  0.093420  1
  O  O12  1  0.340118  0.125671  0.619864  1
  O  O13  1  0.340118  0.374329  0.880136  1
  O  O14  1  0.659882  0.874329  0.380136  1
  O  O15  1  0.659882  0.625671  0.119864  1
  O  O16  1  0.474475  0.897437  0.607226  1
  O  O17  1  0.474475  0.602563  0.892774  1
  O  O18  1  0.525525  0.102563  0.392774  1
  O  O19  1  0.525525  0.397437  0.107226  1
  S  S20  1  0.041675  0.038442  0.142846  1
  S  S21  1  0.041675  0.461558  0.357154  1
  S  S22  1  0.958325  0.961558  0.857154  1
  S  S23  1  0.958325  0.538442  0.642846  1
  O  O24  1  0.092941  0.059119  0.236568  1
  O  O25  1  0.092941  0.440881  0.263432  1
  O  O26  1  0.907059  0.940881  0.763432  1
  O  O27  1  0.907059  0.559119  0.736568  1
  O  O28  1  0.087370  0.896920  0.104623  1
  O  O29  1  0.087370  0.603080  0.395377  1
  O  O30  1  0.912630  0.103080  0.895377  1
  O  O31  1  0.912630  0.396920  0.604623  1
  O  O32  1  0.190755  0.127026  0.104035  1
  O  O33  1  0.190755  0.372974  0.395965  1
  O  O34  1  0.809245  0.872974  0.895965  1
  O  O35  1  0.809245  0.627026  0.604035  1
  O  O36  1  0.798556  0.070659  0.131839  1
  O  O37  1  0.798556  0.429341  0.368161  1
  O  O38  1  0.201444  0.929341  0.868161  1
  O  O39  1  0.201444  0.570659  0.631839  1
  N  N40  1  0.539889  0.855198  0.050995  1
  N  N41  1  0.539889  0.644802  0.449005  1
  N  N42  1  0.460111  0.144802  0.949005  1
  N  N43  1  0.460111  0.355198  0.550995  1
  N  N44  1  0.024064  0.840383  0.551063  1
  N  N45  1  0.024064  0.659617  0.948937  1
  N  N46  1  0.975936  0.159617  0.448937  1
  N  N47  1  0.975936  0.340383  0.051063  1
  N  N48  1  0.544405  0.250000  0.250000  1
  N  N49  1  0.455595  0.750000  0.750000  1
  N  N50  1  0.040064  0.250000  0.750000  1
  N  N51  1  0.959936  0.750000  0.250000  1
  H  H52  1  0.710556  0.012853  0.746212  1
  H  H53  1  0.710556  0.487147  0.753788  1
  H  H54  1  0.289444  0.987147  0.253788  1
  H  H55  1  0.289444  0.512853  0.246212  1
  H  H56  1  0.575808  0.845507  0.987418  1
  H  H57  1  0.575808  0.654493  0.512582  1
  H  H58  1  0.424192  0.154493  0.012582  1
  H  H59  1  0.424192  0.345507  0.487418  1
  H  H60  1  0.636810  0.934209  0.083983  1
  H  H61  1  0.636810  0.565791  0.416017  1
  H  H62  1  0.363190  0.065791  0.916017  1
  H  H63  1  0.363190  0.434209  0.583983  1
  H  H64  1  0.367387  0.873702  0.063971  1
  H  H65  1  0.367387  0.626298  0.436029  1
  H  H66  1  0.632613  0.126298  0.936029  1
  H  H67  1  0.632613  0.373702  0.563971  1
  H  H68  1  0.583558  0.769015  0.071633  1
  H  H69  1  0.583558  0.730985  0.428367  1
  H  H70  1  0.416442  0.230985  0.928367  1
  H  H71  1  0.416442  0.269015  0.571633  1
  H  H72  1  0.922165  0.924187  0.565890  1
  H  H73  1  0.922165  0.575813  0.934110  1
  H  H74  1  0.077835  0.075813  0.434110  1
  H  H75  1  0.077835  0.424187  0.065890  1
  H  H76  1  0.038776  0.812590  0.486418  1
  H  H77  1  0.038776  0.687410  0.013582  1
  H  H78  1  0.961224  0.187410  0.513582  1
  H  H79  1  0.961224  0.312590  0.986418  1
  H  H80  1  0.186314  0.862666  0.575735  1
  H  H81  1  0.186314  0.637334  0.924265  1
  H  H82  1  0.813686  0.137334  0.424265  1
  H  H83  1  0.813686  0.362666  0.075735  1
  H  H84  1  0.952562  0.762663  0.575546  1
  H  H85  1  0.952562  0.737337  0.924454  1
  H  H86  1  0.047438  0.237337  0.424454  1
  H  H87  1  0.047438  0.262663  0.075546  1
  H  H88  1  0.444608  0.209604  0.290672  1
  H  H89  1  0.444608  0.290396  0.209328  1
  H  H90  1  0.555392  0.790396  0.709328  1
  H  H91  1  0.555392  0.709604  0.790672  1
  H  H92  1  0.645720  0.322600  0.286801  1
  H  H93  1  0.645720  0.177400  0.213199  1
  H  H94  1  0.354280  0.677400  0.713199  1
  H  H95  1  0.354280  0.822600  0.786801  1
  H  H96  1  0.142811  0.185592  0.708322  1
  H  H97  1  0.142811  0.314408  0.791678  1
  H  H98  1  0.857189  0.814408  0.291677  1
  H  H99  1  0.857189  0.685592  0.208322  1
  H  H100  1  0.941470  0.199287  0.785874  1
  H  H101  1  0.941470  0.300713  0.714126  1
  H  H102  1  0.058530  0.800713  0.214126  1
  H  H103  1  0.058530  0.699287  0.285874  1
