# generated using pymatgen
data_Na7SnS3(O4F)3
_symmetry_space_group_name_H-M   'P 1'
_cell_length_a   10.93353392
_cell_length_b   10.93353402
_cell_length_c   6.79374422
_cell_angle_alpha   90.00000000
_cell_angle_beta   90.00000000
_cell_angle_gamma   119.99999971
_symmetry_Int_Tables_number   1
_chemical_formula_structural   Na7SnS3(O4F)3
_chemical_formula_sum   'Na14 Sn2 S6 O24 F6'
_cell_volume   703.33291465
_cell_formula_units_Z   2
loop_
 _symmetry_equiv_pos_site_id
 _symmetry_equiv_pos_as_xyz
  1  'x, y, z'
loop_
 _atom_site_type_symbol
 _atom_site_label
 _atom_site_symmetry_multiplicity
 _atom_site_fract_x
 _atom_site_fract_y
 _atom_site_fract_z
 _atom_site_occupancy
  Na  Na0  1  0.826510  0.653021  0.508695  1
  Na  Na1  1  0.469418  0.938835  0.730785  1
  Na  Na2  1  0.530582  0.469418  0.230785  1
  Na  Na3  1  0.826510  0.173490  0.508695  1
  Na  Na4  1  0.173490  0.346979  0.008695  1
  Na  Na5  1  0.061165  0.530582  0.730785  1
  Na  Na6  1  0.530582  0.061165  0.230785  1
  Na  Na7  1  0.938835  0.469418  0.230785  1
  Na  Na8  1  0.346979  0.173490  0.508695  1
  Na  Na9  1  0.000000  0.000000  0.295652  1
  Na  Na10  1  0.173490  0.826510  0.008695  1
  Na  Na11  1  0.653021  0.826510  0.008695  1
  Na  Na12  1  0.469418  0.530582  0.730785  1
  Na  Na13  1  0.000000  0.000000  0.795652  1
  Sn  Sn14  1  0.666667  0.333333  0.748551  1
  Sn  Sn15  1  0.333333  0.666667  0.248551  1
  S  S16  1  0.830574  0.169426  0.999408  1
  S  S17  1  0.661149  0.830574  0.499408  1
  S  S18  1  0.169426  0.338851  0.499408  1
  S  S19  1  0.830574  0.661149  0.999408  1
  S  S20  1  0.338851  0.169426  0.999408  1
  S  S21  1  0.169426  0.830574  0.499408  1
  O  O22  1  0.907158  0.814317  0.054182  1
  O  O23  1  0.092842  0.185683  0.554182  1
  O  O24  1  0.296241  0.369574  0.379737  1
  O  O25  1  0.073333  0.369574  0.379737  1
  O  O26  1  0.092842  0.907158  0.554182  1
  O  O27  1  0.926667  0.630426  0.879737  1
  O  O28  1  0.429898  0.214949  0.178655  1
  O  O29  1  0.369574  0.296241  0.879737  1
  O  O30  1  0.214949  0.429898  0.678655  1
  O  O31  1  0.630426  0.926667  0.379737  1
  O  O32  1  0.785051  0.570102  0.178655  1
  O  O33  1  0.185683  0.092842  0.054182  1
  O  O34  1  0.703759  0.073333  0.879737  1
  O  O35  1  0.214949  0.785051  0.678655  1
  O  O36  1  0.630426  0.703759  0.379737  1
  O  O37  1  0.926667  0.296241  0.879737  1
  O  O38  1  0.570102  0.785051  0.678655  1
  O  O39  1  0.369574  0.073333  0.879737  1
  O  O40  1  0.907158  0.092842  0.054182  1
  O  O41  1  0.703759  0.630426  0.879737  1
  O  O42  1  0.296241  0.926667  0.379737  1
  O  O43  1  0.814317  0.907158  0.554182  1
  O  O44  1  0.785051  0.214949  0.178655  1
  O  O45  1  0.073333  0.703759  0.379737  1
  F  F46  1  0.420626  0.841251  0.049834  1
  F  F47  1  0.420626  0.579374  0.049834  1
  F  F48  1  0.579374  0.158749  0.549834  1
  F  F49  1  0.158749  0.579374  0.049834  1
  F  F50  1  0.579374  0.420626  0.549834  1
  F  F51  1  0.841251  0.420626  0.549834  1
