# generated using pymatgen
data_Ca3CuIrO6
_symmetry_space_group_name_H-M   'P 1'
_cell_length_a   6.51087737
_cell_length_b   6.53867710
_cell_length_c   6.53867666
_cell_angle_alpha   91.18981501
_cell_angle_beta   90.02758197
_cell_angle_gamma   90.02758559
_symmetry_Int_Tables_number   1
_chemical_formula_structural   Ca3CuIrO6
_chemical_formula_sum   'Ca6 Cu2 Ir2 O12'
_cell_volume   278.30788943
_cell_formula_units_Z   2
loop_
 _symmetry_equiv_pos_site_id
 _symmetry_equiv_pos_as_xyz
  1  'x, y, z'
loop_
 _atom_site_type_symbol
 _atom_site_label
 _atom_site_symmetry_multiplicity
 _atom_site_fract_x
 _atom_site_fract_y
 _atom_site_fract_z
 _atom_site_occupancy
  Ca  Ca0  1  0.750000  0.596579  0.403421  1
  Ca  Ca1  1  0.250000  0.403421  0.596579  1
  Ca  Ca2  1  0.617692  0.740072  0.889737  1
  Ca  Ca3  1  0.882308  0.110263  0.259928  1
  Ca  Ca4  1  0.382308  0.259928  0.110263  1
  Ca  Ca5  1  0.117692  0.889737  0.740072  1
  Ir  Ir6  1  0.000000  0.500000  0.000000  1
  Ir  Ir7  1  0.500000  0.000000  0.500000  1
  Cu  Cu8  1  0.250000  0.808261  0.191739  1
  Cu  Cu9  1  0.750000  0.191739  0.808261  1
  O  O10  1  0.544002  0.903841  0.206547  1
  O  O11  1  0.955998  0.793453  0.096159  1
  O  O12  1  0.455998  0.096159  0.793453  1
  O  O13  1  0.044002  0.206547  0.903841  1
  O  O14  1  0.207029  0.033441  0.401288  1
  O  O15  1  0.292971  0.598712  0.966559  1
  O  O16  1  0.792971  0.966559  0.598712  1
  O  O17  1  0.707029  0.401288  0.033441  1
  O  O18  1  0.434177  0.709161  0.574330  1
  O  O19  1  0.065823  0.425670  0.290839  1
  O  O20  1  0.565823  0.290839  0.425670  1
  O  O21  1  0.934177  0.574330  0.709161  1
