# generated using pymatgen
data_Tb3(CuSn)4
_symmetry_space_group_name_H-M   'P 1'
_cell_length_a   4.47875771
_cell_length_b   6.96369035
_cell_length_c   8.45938442
_cell_angle_alpha   114.29728150
_cell_angle_beta   105.34798579
_cell_angle_gamma   90.00419748
_symmetry_Int_Tables_number   1
_chemical_formula_structural   Tb3(CuSn)4
_chemical_formula_sum   'Tb3 Cu4 Sn4'
_cell_volume   230.10155247
_cell_formula_units_Z   1
loop_
 _symmetry_equiv_pos_site_id
 _symmetry_equiv_pos_as_xyz
  1  'x, y, z'
loop_
 _atom_site_type_symbol
 _atom_site_label
 _atom_site_symmetry_multiplicity
 _atom_site_fract_x
 _atom_site_fract_y
 _atom_site_fract_z
 _atom_site_occupancy
  Tb  Tb0  1  0.868557  0.368500  0.737124  1
  Tb  Tb1  1  0.000000  0.000000  0.000000  1
  Tb  Tb2  1  0.131443  0.631500  0.262876  1
  Cu  Cu3  1  0.670459  0.982270  0.340816  1
  Cu  Cu4  1  0.329788  0.641405  0.658922  1
  Cu  Cu5  1  0.670212  0.358595  0.341078  1
  Cu  Cu6  1  0.329541  0.017730  0.659184  1
  Sn  Sn7  1  0.500240  0.702766  0.999809  1
  Sn  Sn8  1  0.499760  0.297234  0.000191  1
  Sn  Sn9  1  0.783996  0.784058  0.567810  1
  Sn  Sn10  1  0.216004  0.215942  0.432190  1
