# generated using pymatgen
data_BaLiBS3
_symmetry_space_group_name_H-M   'P 1'
_cell_length_a   7.66384290
_cell_length_b   8.72936009
_cell_length_c   8.77522422
_cell_angle_alpha   90.00000000
_cell_angle_beta   90.00000000
_cell_angle_gamma   115.51403822
_symmetry_Int_Tables_number   1
_chemical_formula_structural   BaLiBS3
_chemical_formula_sum   'Ba4 Li4 B4 S12'
_cell_volume   529.81555311
_cell_formula_units_Z   4
loop_
 _symmetry_equiv_pos_site_id
 _symmetry_equiv_pos_as_xyz
  1  'x, y, z'
loop_
 _atom_site_type_symbol
 _atom_site_label
 _atom_site_symmetry_multiplicity
 _atom_site_fract_x
 _atom_site_fract_y
 _atom_site_fract_z
 _atom_site_occupancy
  Ba  Ba0  1  0.625348  0.311688  0.868533  1
  Ba  Ba1  1  0.125348  0.811688  0.631467  1
  Ba  Ba2  1  0.374652  0.688312  0.131467  1
  Ba  Ba3  1  0.874652  0.188312  0.368533  1
  Li  Li4  1  0.092720  0.204580  0.925969  1
  Li  Li5  1  0.407280  0.295420  0.425969  1
  Li  Li6  1  0.592720  0.704580  0.574031  1
  Li  Li7  1  0.907280  0.795420  0.074031  1
  B  B8  1  0.308630  0.079630  0.159030  1
  B  B9  1  0.808630  0.579630  0.340970  1
  B  B10  1  0.191370  0.420370  0.659030  1
  B  B11  1  0.691370  0.920370  0.840970  1
  S  S12  1  0.108007  0.490781  0.827522  1
  S  S13  1  0.302760  0.287811  0.156607  1
  S  S14  1  0.697240  0.712189  0.843393  1
  S  S15  1  0.891993  0.509219  0.172478  1
  S  S16  1  0.197240  0.212189  0.656607  1
  S  S17  1  0.760471  0.046127  0.015201  1
  S  S18  1  0.239529  0.953873  0.984799  1
  S  S19  1  0.260471  0.546127  0.484799  1
  S  S20  1  0.608007  0.990781  0.672478  1
  S  S21  1  0.739529  0.453873  0.515201  1
  S  S22  1  0.391993  0.009219  0.327522  1
  S  S23  1  0.802760  0.787811  0.343393  1
