# generated using pymatgen
data_Rb2Ge2Se5
_symmetry_space_group_name_H-M   'P 1'
_cell_length_a   9.62574292
_cell_length_b   11.76847913
_cell_length_c   11.76847942
_cell_angle_alpha   90.03634061
_cell_angle_beta   99.66744896
_cell_angle_gamma   99.66744713
_symmetry_Int_Tables_number   1
_chemical_formula_structural   Rb2Ge2Se5
_chemical_formula_sum   'Rb8 Ge8 Se20'
_cell_volume   1294.97228166
_cell_formula_units_Z   4
loop_
 _symmetry_equiv_pos_site_id
 _symmetry_equiv_pos_as_xyz
  1  'x, y, z'
loop_
 _atom_site_type_symbol
 _atom_site_label
 _atom_site_symmetry_multiplicity
 _atom_site_fract_x
 _atom_site_fract_y
 _atom_site_fract_z
 _atom_site_occupancy
  Rb  Rb0  1  0.117007  0.473006  0.211828  1
  Rb  Rb1  1  0.382993  0.788172  0.526994  1
  Rb  Rb2  1  0.882993  0.526994  0.788172  1
  Rb  Rb3  1  0.617007  0.211828  0.473006  1
  Rb  Rb4  1  0.385905  0.788312  0.946630  1
  Rb  Rb5  1  0.114095  0.053370  0.211688  1
  Rb  Rb6  1  0.614095  0.211688  0.053370  1
  Rb  Rb7  1  0.885905  0.946630  0.788312  1
  Ge  Ge8  1  0.599386  0.529762  0.267476  1
  Ge  Ge9  1  0.900614  0.732524  0.470238  1
  Ge  Ge10  1  0.400614  0.470238  0.732524  1
  Ge  Ge11  1  0.099386  0.267476  0.529762  1
  Ge  Ge12  1  0.112379  0.269508  0.865805  1
  Ge  Ge13  1  0.387621  0.134195  0.730492  1
  Ge  Ge14  1  0.887621  0.730492  0.134195  1
  Ge  Ge15  1  0.612379  0.865805  0.269508  1
  Se  Se16  1  0.737893  0.544136  0.112140  1
  Se  Se17  1  0.762107  0.887860  0.455864  1
  Se  Se18  1  0.262107  0.455864  0.887860  1
  Se  Se19  1  0.237893  0.112140  0.544136  1
  Se  Se20  1  0.546338  0.319006  0.754080  1
  Se  Se21  1  0.953662  0.245920  0.680994  1
  Se  Se22  1  0.453662  0.680994  0.245920  1
  Se  Se23  1  0.046338  0.754080  0.319006  1
  Se  Se24  1  0.448390  0.355808  0.243324  1
  Se  Se25  1  0.051610  0.756676  0.644192  1
  Se  Se26  1  0.551610  0.644192  0.756676  1
  Se  Se27  1  0.948390  0.243324  0.355808  1
  Se  Se28  1  0.029545  0.753699  0.994668  1
  Se  Se29  1  0.470455  0.005332  0.246301  1
  Se  Se30  1  0.970455  0.246301  0.005332  1
  Se  Se31  1  0.529545  0.994668  0.753699  1
  Se  Se32  1  0.750000  0.885953  0.114047  1
  Se  Se33  1  0.250000  0.114047  0.885953  1
  Se  Se34  1  0.750000  0.545726  0.454274  1
  Se  Se35  1  0.250000  0.454274  0.545726  1
