# generated using pymatgen
data_SiO2
_symmetry_space_group_name_H-M   'P 1'
_cell_length_a   10.31189668
_cell_length_b   12.72961385
_cell_length_c   14.16308836
_cell_angle_alpha   90.00000000
_cell_angle_beta   90.00000000
_cell_angle_gamma   90.00000000
_symmetry_Int_Tables_number   1
_chemical_formula_structural   SiO2
_chemical_formula_sum   'Si32 O64'
_cell_volume   1859.13851131
_cell_formula_units_Z   32
loop_
 _symmetry_equiv_pos_site_id
 _symmetry_equiv_pos_as_xyz
  1  'x, y, z'
loop_
 _atom_site_type_symbol
 _atom_site_label
 _atom_site_symmetry_multiplicity
 _atom_site_fract_x
 _atom_site_fract_y
 _atom_site_fract_z
 _atom_site_occupancy
  Si  Si0  1  0.000000  0.662738  0.500000  1
  Si  Si1  1  0.000000  0.500000  0.636467  1
  Si  Si2  1  0.500000  0.162386  0.500000  1
  Si  Si3  1  0.386623  0.298908  0.816284  1
  Si  Si4  1  0.613377  0.298908  0.183716  1
  Si  Si5  1  0.000000  0.161076  0.000000  1
  Si  Si6  1  0.610523  0.798334  0.316140  1
  Si  Si7  1  0.500000  0.500000  0.862440  1
  Si  Si8  1  0.000000  0.337262  0.500000  1
  Si  Si9  1  0.113598  0.299297  0.316171  1
  Si  Si10  1  0.000000  0.000000  0.862165  1
  Si  Si11  1  0.500000  0.661501  0.000000  1
  Si  Si12  1  0.386623  0.701092  0.183716  1
  Si  Si13  1  0.613377  0.701092  0.816284  1
  Si  Si14  1  0.500000  0.000000  0.363321  1
  Si  Si15  1  0.389477  0.201666  0.316140  1
  Si  Si16  1  0.500000  0.000000  0.636679  1
  Si  Si17  1  0.610523  0.201666  0.683860  1
  Si  Si18  1  0.113598  0.700703  0.683829  1
  Si  Si19  1  0.389477  0.798334  0.683860  1
  Si  Si20  1  0.000000  0.838924  0.000000  1
  Si  Si21  1  0.500000  0.500000  0.137560  1
  Si  Si22  1  0.886402  0.299297  0.683829  1
  Si  Si23  1  0.110325  0.202080  0.816265  1
  Si  Si24  1  0.000000  0.500000  0.363533  1
  Si  Si25  1  0.889675  0.797920  0.816265  1
  Si  Si26  1  0.886402  0.700703  0.316171  1
  Si  Si27  1  0.500000  0.837614  0.500000  1
  Si  Si28  1  0.889675  0.202080  0.183735  1
  Si  Si29  1  0.000000  0.000000  0.137835  1
  Si  Si30  1  0.110325  0.797920  0.183735  1
  Si  Si31  1  0.500000  0.338499  0.000000  1
  O  O32  1  0.417119  0.416414  0.071435  1
  O  O33  1  0.252385  0.747967  0.716993  1
  O  O34  1  0.003027  0.749432  0.751236  1
  O  O35  1  0.396218  0.072394  0.304058  1
  O  O36  1  0.895780  0.428347  0.695893  1
  O  O37  1  0.083066  0.083250  0.071441  1
  O  O38  1  0.502812  0.248079  0.249864  1
  O  O39  1  0.396218  0.927606  0.695942  1
  O  O40  1  0.897371  0.073019  0.197458  1
  O  O41  1  0.603056  0.572269  0.802629  1
  O  O42  1  0.408943  0.268904  0.929016  1
  O  O43  1  0.247584  0.252119  0.783232  1
  O  O44  1  0.895780  0.571653  0.304107  1
  O  O45  1  0.591057  0.731096  0.929016  1
  O  O46  1  0.410713  0.232764  0.428661  1
  O  O47  1  0.104220  0.428347  0.304107  1
  O  O48  1  0.752416  0.747881  0.783232  1
  O  O49  1  0.090423  0.732326  0.571469  1
  O  O50  1  0.603056  0.427731  0.197371  1
  O  O51  1  0.102629  0.073019  0.802542  1
  O  O52  1  0.252385  0.252033  0.283007  1
  O  O53  1  0.410713  0.767236  0.571339  1
  O  O54  1  0.583000  0.916017  0.570970  1
  O  O55  1  0.916934  0.083250  0.928559  1
  O  O56  1  0.909577  0.732326  0.428531  1
  O  O57  1  0.747615  0.747967  0.283007  1
  O  O58  1  0.910006  0.231455  0.070825  1
  O  O59  1  0.591057  0.268904  0.070984  1
  O  O60  1  0.102629  0.926981  0.197458  1
  O  O61  1  0.082817  0.415708  0.571002  1
  O  O62  1  0.589287  0.232764  0.571339  1
  O  O63  1  0.747615  0.252033  0.716993  1
  O  O64  1  0.917183  0.415708  0.428998  1
  O  O65  1  0.916934  0.916750  0.071441  1
  O  O66  1  0.582881  0.583586  0.071435  1
  O  O67  1  0.603782  0.927606  0.304058  1
  O  O68  1  0.909577  0.267674  0.571469  1
  O  O69  1  0.417000  0.083983  0.570970  1
  O  O70  1  0.417119  0.583586  0.928565  1
  O  O71  1  0.897371  0.926981  0.802542  1
  O  O72  1  0.396944  0.572269  0.197371  1
  O  O73  1  0.583000  0.083983  0.429030  1
  O  O74  1  0.917183  0.584292  0.571002  1
  O  O75  1  0.996973  0.250568  0.751236  1
  O  O76  1  0.408943  0.731096  0.070984  1
  O  O77  1  0.082817  0.584292  0.428998  1
  O  O78  1  0.752416  0.252119  0.216768  1
  O  O79  1  0.417000  0.916017  0.429030  1
  O  O80  1  0.083066  0.916750  0.928559  1
  O  O81  1  0.497188  0.248079  0.750136  1
  O  O82  1  0.582881  0.416414  0.928565  1
  O  O83  1  0.396944  0.427731  0.802629  1
  O  O84  1  0.089994  0.231455  0.929175  1
  O  O85  1  0.603782  0.072394  0.695942  1
  O  O86  1  0.090423  0.267674  0.428531  1
  O  O87  1  0.502812  0.751921  0.750136  1
  O  O88  1  0.003027  0.250568  0.248764  1
  O  O89  1  0.104220  0.571653  0.695893  1
  O  O90  1  0.089994  0.768545  0.070825  1
  O  O91  1  0.497188  0.751921  0.249864  1
  O  O92  1  0.589287  0.767236  0.428661  1
  O  O93  1  0.910006  0.768545  0.929175  1
  O  O94  1  0.247584  0.747881  0.216768  1
  O  O95  1  0.996973  0.749432  0.248764  1
