# generated using pymatgen
data_Rb4Nb35Al2O70
_symmetry_space_group_name_H-M   'P 1'
_cell_length_a   7.94198282
_cell_length_b   7.94198324
_cell_length_c   26.96603579
_cell_angle_alpha   90.00000000
_cell_angle_beta   90.00000000
_cell_angle_gamma   119.99999817
_symmetry_Int_Tables_number   1
_chemical_formula_structural   Rb4Nb35Al2O70
_chemical_formula_sum   'Rb4 Nb35 Al2 O70'
_cell_volume   1473.00986656
_cell_formula_units_Z   1
loop_
 _symmetry_equiv_pos_site_id
 _symmetry_equiv_pos_as_xyz
  1  'x, y, z'
loop_
 _atom_site_type_symbol
 _atom_site_label
 _atom_site_symmetry_multiplicity
 _atom_site_fract_x
 _atom_site_fract_y
 _atom_site_fract_z
 _atom_site_occupancy
  Rb  Rb0  1  0.333333  0.666667  0.964340  1
  Rb  Rb1  1  0.000000  0.000000  0.321980  1
  Rb  Rb2  1  0.000000  0.000000  0.678020  1
  Rb  Rb3  1  0.666667  0.333333  0.035660  1
  Nb  Nb4  1  0.871145  0.267746  0.907518  1
  Nb  Nb5  1  0.000000  0.000000  0.186338  1
  Nb  Nb6  1  0.807296  0.025404  0.456387  1
  Nb  Nb7  1  0.548804  0.859475  0.816168  1
  Nb  Nb8  1  0.888267  0.530593  0.270339  1
  Nb  Nb9  1  0.930006  0.530562  0.632879  1
  Nb  Nb10  1  0.333333  0.666667  0.537188  1
  Nb  Nb11  1  0.000000  0.000000  0.813662  1
  Nb  Nb12  1  0.689328  0.548804  0.183832  1
  Nb  Nb13  1  0.399444  0.930006  0.367121  1
  Nb  Nb14  1  0.025404  0.218108  0.543613  1
  Nb  Nb15  1  0.396602  0.128855  0.907518  1
  Nb  Nb16  1  0.469438  0.399444  0.632879  1
  Nb  Nb17  1  0.140525  0.689328  0.816168  1
  Nb  Nb18  1  0.128855  0.732254  0.092482  1
  Nb  Nb19  1  0.069994  0.469438  0.367121  1
  Nb  Nb20  1  0.000000  0.000000  0.000000  1
  Nb  Nb21  1  0.310672  0.451196  0.816168  1
  Nb  Nb22  1  0.530562  0.600556  0.367121  1
  Nb  Nb23  1  0.111733  0.469407  0.729661  1
  Nb  Nb24  1  0.666667  0.333333  0.462812  1
  Nb  Nb25  1  0.600556  0.069994  0.632879  1
  Nb  Nb26  1  0.451196  0.140525  0.183832  1
  Nb  Nb27  1  0.732254  0.603398  0.907518  1
  Nb  Nb28  1  0.357674  0.888267  0.729661  1
  Nb  Nb29  1  0.267746  0.396602  0.092482  1
  Nb  Nb30  1  0.781892  0.807296  0.543613  1
  Nb  Nb31  1  0.603398  0.871145  0.092482  1
  Nb  Nb32  1  0.974596  0.781892  0.456387  1
  Nb  Nb33  1  0.642326  0.111733  0.270339  1
  Nb  Nb34  1  0.218108  0.192704  0.456387  1
  Nb  Nb35  1  0.192704  0.974596  0.543613  1
  Nb  Nb36  1  0.530593  0.642326  0.729661  1
  Nb  Nb37  1  0.469407  0.357674  0.270339  1
  Nb  Nb38  1  0.859475  0.310672  0.183832  1
  Al  Al39  1  0.333333  0.666667  0.206646  1
  Al  Al40  1  0.666667  0.333333  0.793354  1
  O  O41  1  0.900384  0.538560  0.137933  1
  O  O42  1  0.538560  0.638176  0.862067  1
  O  O43  1  0.569993  0.863264  0.328368  1
  O  O44  1  0.236374  0.201809  0.590011  1
  O  O45  1  0.869242  0.302646  0.318296  1
  O  O46  1  0.160864  0.923720  0.771152  1
  O  O47  1  0.430007  0.136736  0.671632  1
  O  O48  1  0.034565  0.236374  0.409989  1
  O  O49  1  0.302646  0.433404  0.681704  1
  O  O50  1  0.863264  0.293270  0.671632  1
  O  O51  1  0.762856  0.839136  0.771152  1
  O  O52  1  0.210024  0.204655  0.044540  1
  O  O53  1  0.237144  0.160864  0.228848  1
  O  O54  1  0.893013  0.505141  0.937411  1
  O  O55  1  0.763626  0.798191  0.409989  1
  O  O56  1  0.489451  0.581880  0.227351  1
  O  O57  1  0.433404  0.130758  0.318296  1
  O  O58  1  0.510549  0.418120  0.772649  1
  O  O59  1  0.064349  0.238536  0.144434  1
  O  O60  1  0.427322  0.163201  0.500151  1
  O  O61  1  0.136736  0.706730  0.328368  1
  O  O62  1  0.666667  0.333333  0.859483  1
  O  O63  1  0.461440  0.361824  0.137933  1
  O  O64  1  0.099616  0.461440  0.862067  1
  O  O65  1  0.795345  0.005368  0.044540  1
  O  O66  1  0.572678  0.836799  0.499849  1
  O  O67  1  0.505141  0.612128  0.062589  1
  O  O68  1  0.293270  0.430007  0.328368  1
  O  O69  1  0.495286  0.400315  0.414785  1
  O  O70  1  0.965435  0.763626  0.590011  1
  O  O71  1  0.666667  0.333333  0.598063  1
  O  O72  1  0.638176  0.099616  0.137933  1
  O  O73  1  0.706730  0.569993  0.671632  1
  O  O74  1  0.106987  0.494859  0.062589  1
  O  O75  1  0.566596  0.869242  0.681704  1
  O  O76  1  0.798191  0.034565  0.590011  1
  O  O77  1  0.612128  0.106987  0.937411  1
  O  O78  1  0.387872  0.893013  0.062589  1
  O  O79  1  0.130758  0.697354  0.681704  1
  O  O80  1  0.581880  0.092429  0.772649  1
  O  O81  1  0.907571  0.489451  0.772649  1
  O  O82  1  0.836799  0.264121  0.500151  1
  O  O83  1  0.333333  0.666667  0.401937  1
  O  O84  1  0.504714  0.599685  0.585215  1
  O  O85  1  0.825813  0.064349  0.855566  1
  O  O86  1  0.238536  0.174187  0.855566  1
  O  O87  1  0.400315  0.905029  0.585215  1
  O  O88  1  0.174187  0.935651  0.144434  1
  O  O89  1  0.599685  0.094971  0.414785  1
  O  O90  1  0.264121  0.427322  0.499849  1
  O  O91  1  0.697354  0.566596  0.318296  1
  O  O92  1  0.076280  0.237144  0.771152  1
  O  O93  1  0.994632  0.789976  0.044540  1
  O  O94  1  0.789976  0.795345  0.955460  1
  O  O95  1  0.361824  0.900384  0.862067  1
  O  O96  1  0.735879  0.572678  0.500151  1
  O  O97  1  0.005368  0.210024  0.955460  1
  O  O98  1  0.761464  0.825813  0.144434  1
  O  O99  1  0.163201  0.735879  0.499849  1
  O  O100  1  0.905029  0.504714  0.414785  1
  O  O101  1  0.204655  0.994632  0.955460  1
  O  O102  1  0.092429  0.510549  0.227351  1
  O  O103  1  0.494859  0.387872  0.937411  1
  O  O104  1  0.839136  0.076280  0.228848  1
  O  O105  1  0.333333  0.666667  0.140517  1
  O  O106  1  0.201809  0.965435  0.409989  1
  O  O107  1  0.418120  0.907571  0.227351  1
  O  O108  1  0.935651  0.761464  0.855566  1
  O  O109  1  0.094971  0.495286  0.585215  1
  O  O110  1  0.923720  0.762856  0.228848  1
