# generated using pymatgen
data_Ba3Sb4O
_symmetry_space_group_name_H-M   'P 1'
_cell_length_a   7.12705208
_cell_length_b   12.32936524
_cell_length_c   13.03024575
_cell_angle_alpha   90.00000000
_cell_angle_beta   90.00000000
_cell_angle_gamma   99.94495674
_symmetry_Int_Tables_number   1
_chemical_formula_structural   Ba3Sb4O
_chemical_formula_sum   'Ba12 Sb16 O4'
_cell_volume   1127.78957784
_cell_formula_units_Z   4
loop_
 _symmetry_equiv_pos_site_id
 _symmetry_equiv_pos_as_xyz
  1  'x, y, z'
loop_
 _atom_site_type_symbol
 _atom_site_label
 _atom_site_symmetry_multiplicity
 _atom_site_fract_x
 _atom_site_fract_y
 _atom_site_fract_z
 _atom_site_occupancy
  Ba  Ba0  1  0.669460  0.478461  0.766596  1
  Ba  Ba1  1  0.249566  0.453217  0.558062  1
  Ba  Ba2  1  0.330540  0.521539  0.233404  1
  Ba  Ba3  1  0.889844  0.277995  0.051809  1
  Ba  Ba4  1  0.749566  0.953217  0.941938  1
  Ba  Ba5  1  0.169460  0.978461  0.733404  1
  Ba  Ba6  1  0.250434  0.046783  0.058062  1
  Ba  Ba7  1  0.110156  0.722005  0.948191  1
  Ba  Ba8  1  0.389844  0.777995  0.448191  1
  Ba  Ba9  1  0.830540  0.021539  0.266596  1
  Ba  Ba10  1  0.610156  0.222005  0.551809  1
  Ba  Ba11  1  0.750434  0.546783  0.441938  1
  Sb  Sb12  1  0.588002  0.656827  0.017511  1
  Sb  Sb13  1  0.911998  0.843173  0.517511  1
  Sb  Sb14  1  0.339539  0.062730  0.344212  1
  Sb  Sb15  1  0.036042  0.685688  0.656365  1
  Sb  Sb16  1  0.411998  0.343173  0.982489  1
  Sb  Sb17  1  0.160461  0.437270  0.844212  1
  Sb  Sb18  1  0.963958  0.314312  0.343635  1
  Sb  Sb19  1  0.060455  0.764702  0.231398  1
  Sb  Sb20  1  0.463958  0.814312  0.156365  1
  Sb  Sb21  1  0.660461  0.937270  0.655788  1
  Sb  Sb22  1  0.560455  0.264702  0.268602  1
  Sb  Sb23  1  0.839539  0.562730  0.155788  1
  Sb  Sb24  1  0.088002  0.156827  0.482489  1
  Sb  Sb25  1  0.439545  0.735298  0.731398  1
  Sb  Sb26  1  0.939545  0.235298  0.768602  1
  Sb  Sb27  1  0.536042  0.185688  0.843635  1
  O  O28  1  0.912799  0.079355  0.086487  1
  O  O29  1  0.087201  0.920645  0.913513  1
  O  O30  1  0.587201  0.420645  0.586487  1
  O  O31  1  0.412799  0.579355  0.413513  1
