# generated using pymatgen
data_Na4Cu(MoO4)3
_symmetry_space_group_name_H-M   'P 1'
_cell_length_a   9.57980879
_cell_length_b   10.44009689
_cell_length_c   13.28890946
_cell_angle_alpha   106.21497188
_cell_angle_beta   92.55576476
_cell_angle_gamma   107.09191053
_symmetry_Int_Tables_number   1
_chemical_formula_structural   Na4Cu(MoO4)3
_chemical_formula_sum   'Na16 Cu4 Mo12 O48'
_cell_volume   1208.17260168
_cell_formula_units_Z   4
loop_
 _symmetry_equiv_pos_site_id
 _symmetry_equiv_pos_as_xyz
  1  'x, y, z'
loop_
 _atom_site_type_symbol
 _atom_site_label
 _atom_site_symmetry_multiplicity
 _atom_site_fract_x
 _atom_site_fract_y
 _atom_site_fract_z
 _atom_site_occupancy
  Na  Na0  1  0.438361  0.496496  0.374897  1
  Na  Na1  1  0.486316  0.135794  0.610044  1
  Na  Na2  1  0.226634  0.014448  0.238287  1
  Na  Na3  1  0.226624  0.509206  0.738220  1
  Na  Na4  1  0.773366  0.985552  0.761713  1
  Na  Na5  1  0.993010  0.251300  0.248821  1
  Na  Na6  1  0.496068  0.620906  0.131422  1
  Na  Na7  1  0.879224  0.592648  0.034202  1
  Na  Na8  1  0.006990  0.748700  0.751179  1
  Na  Na9  1  0.000000  0.000000  0.000000  1
  Na  Na10  1  0.503932  0.379094  0.868578  1
  Na  Na11  1  0.513684  0.864206  0.389956  1
  Na  Na12  1  0.561639  0.503504  0.625103  1
  Na  Na13  1  0.120776  0.407352  0.965798  1
  Na  Na14  1  0.773376  0.490794  0.261780  1
  Na  Na15  1  0.000000  0.500000  0.500000  1
  Cu  Cu16  1  0.535201  0.987059  0.126238  1
  Cu  Cu17  1  0.860522  0.076358  0.537480  1
  Cu  Cu18  1  0.464799  0.012941  0.873762  1
  Cu  Cu19  1  0.139478  0.923642  0.462520  1
  Mo  Mo20  1  0.810771  0.749801  0.514667  1
  Mo  Mo21  1  0.189229  0.250199  0.485333  1
  Mo  Mo22  1  0.385717  0.269171  0.094679  1
  Mo  Mo23  1  0.234229  0.787254  0.975790  1
  Mo  Mo24  1  0.765771  0.212746  0.024210  1
  Mo  Mo25  1  0.170450  0.124155  0.741209  1
  Mo  Mo26  1  0.381512  0.778658  0.616812  1
  Mo  Mo27  1  0.618488  0.221342  0.383188  1
  Mo  Mo28  1  0.165306  0.639092  0.257002  1
  Mo  Mo29  1  0.834694  0.360908  0.742998  1
  Mo  Mo30  1  0.829550  0.875845  0.258791  1
  Mo  Mo31  1  0.614283  0.730829  0.905321  1
  O  O32  1  0.797216  0.317857  0.362075  1
  O  O33  1  0.202784  0.682143  0.637925  1
  O  O34  1  0.497670  0.890474  0.741809  1
  O  O35  1  0.159111  0.296211  0.793510  1
  O  O36  1  0.366046  0.888340  0.535507  1
  O  O37  1  0.242508  0.614316  0.920297  1
  O  O38  1  0.354098  0.379047  0.018941  1
  O  O39  1  0.670977  0.125608  0.887095  1
  O  O40  1  0.309067  0.360120  0.603519  1
  O  O41  1  0.633954  0.111660  0.464493  1
  O  O42  1  0.645902  0.620953  0.981059  1
  O  O43  1  0.888996  0.411453  0.881602  1
  O  O44  1  0.352594  0.637863  0.279945  1
  O  O45  1  0.838029  0.182186  0.679153  1
  O  O46  1  0.725297  0.114713  0.119611  1
  O  O47  1  0.840889  0.703789  0.206490  1
  O  O48  1  0.001877  0.767415  0.493920  1
  O  O49  1  0.329023  0.874392  0.112905  1
  O  O50  1  0.045671  0.775022  0.982438  1
  O  O51  1  0.757492  0.385684  0.079703  1
  O  O52  1  0.956614  0.486390  0.692201  1
  O  O53  1  0.640366  0.863984  0.226625  1
  O  O54  1  0.111004  0.588547  0.118398  1
  O  O55  1  0.790927  0.657666  0.609973  1
  O  O56  1  0.241394  0.091545  0.424884  1
  O  O57  1  0.465552  0.655625  0.547893  1
  O  O58  1  0.125106  0.062666  0.596086  1
  O  O59  1  0.209073  0.342334  0.390027  1
  O  O60  1  0.954329  0.224978  0.017562  1
  O  O61  1  0.758606  0.908455  0.575116  1
  O  O62  1  0.502330  0.109526  0.258191  1
  O  O63  1  0.215450  0.170962  0.125966  1
  O  O64  1  0.953431  0.995376  0.203777  1
  O  O65  1  0.998123  0.232585  0.506080  1
  O  O66  1  0.359635  0.136016  0.773375  1
  O  O67  1  0.690933  0.639880  0.396481  1
  O  O68  1  0.784550  0.829038  0.874034  1
  O  O69  1  0.473187  0.146850  0.015909  1
  O  O70  1  0.496735  0.613555  0.788049  1
  O  O71  1  0.503265  0.386445  0.211951  1
  O  O72  1  0.526813  0.853150  0.984091  1
  O  O73  1  0.647406  0.362137  0.720055  1
  O  O74  1  0.874894  0.937334  0.403914  1
  O  O75  1  0.046569  0.004624  0.796223  1
  O  O76  1  0.043386  0.513610  0.307799  1
  O  O77  1  0.274703  0.885287  0.880389  1
  O  O78  1  0.534448  0.344375  0.452107  1
  O  O79  1  0.161971  0.817814  0.320847  1
