# generated using pymatgen
data_NiP4O11
_symmetry_space_group_name_H-M   'P 1'
_cell_length_a   8.16229247
_cell_length_b   9.54506249
_cell_length_c   11.33563613
_cell_angle_alpha   101.12290734
_cell_angle_beta   90.00000000
_cell_angle_gamma   90.00000000
_symmetry_Int_Tables_number   1
_chemical_formula_structural   NiP4O11
_chemical_formula_sum   'Ni4 P16 O44'
_cell_volume   866.56526165
_cell_formula_units_Z   4
loop_
 _symmetry_equiv_pos_site_id
 _symmetry_equiv_pos_as_xyz
  1  'x, y, z'
loop_
 _atom_site_type_symbol
 _atom_site_label
 _atom_site_symmetry_multiplicity
 _atom_site_fract_x
 _atom_site_fract_y
 _atom_site_fract_z
 _atom_site_occupancy
  O  O0  1  0.457729  0.303348  0.573689  1
  O  O1  1  0.957728  0.196652  0.926311  1
  O  O2  1  0.542272  0.696652  0.426311  1
  O  O3  1  0.042271  0.803348  0.073689  1
  O  O4  1  0.988491  0.630913  0.661885  1
  O  O5  1  0.488491  0.869087  0.838115  1
  O  O6  1  0.011510  0.369087  0.338116  1
  O  O7  1  0.511510  0.130913  0.161884  1
  O  O8  1  0.319880  0.756574  0.978349  1
  O  O9  1  0.819880  0.743426  0.521651  1
  O  O10  1  0.680120  0.243425  0.021650  1
  O  O11  1  0.180121  0.256575  0.478350  1
  O  O12  1  0.616834  0.603000  0.621805  1
  O  O13  1  0.116834  0.897000  0.878195  1
  O  O14  1  0.383166  0.396999  0.378195  1
  O  O15  1  0.549603  0.096418  0.768528  1
  O  O16  1  0.068417  0.631575  0.878186  1
  O  O17  1  0.568417  0.868425  0.621814  1
  O  O18  1  0.931582  0.368426  0.121815  1
  O  O19  1  0.431583  0.131575  0.378185  1
  O  O20  1  0.078929  0.841355  0.329703  1
  O  O21  1  0.578929  0.658645  0.170297  1
  O  O22  1  0.921071  0.158645  0.670297  1
  O  O23  1  0.421070  0.341355  0.829703  1
  O  O24  1  0.103371  0.659437  0.464676  1
  O  O25  1  0.603370  0.840563  0.035323  1
  O  O26  1  0.896630  0.340562  0.535324  1
  O  O27  1  0.396629  0.159438  0.964676  1
  O  O28  1  0.759711  0.885815  0.233007  1
  O  O29  1  0.259712  0.614185  0.266992  1
  O  O30  1  0.240288  0.114185  0.766993  1
  O  O31  1  0.740288  0.385815  0.733007  1
  O  O32  1  0.214711  0.072390  0.209642  1
  O  O33  1  0.714710  0.427610  0.290358  1
  O  O34  1  0.785290  0.927610  0.790358  1
  O  O35  1  0.285289  0.572390  0.709642  1
  O  O36  1  0.933005  0.117261  0.371852  1
  O  O37  1  0.433006  0.382739  0.128147  1
  O  O38  1  0.066995  0.882739  0.628148  1
  O  O39  1  0.566995  0.617261  0.871852  1
  O  O40  1  0.950398  0.596417  0.268527  1
  O  O41  1  0.450397  0.903583  0.231473  1
  O  O42  1  0.049603  0.403582  0.731472  1
  O  O43  1  0.883167  0.103000  0.121806  1
  P  P44  1  0.501723  0.243144  0.073163  1
  P  P45  1  0.001723  0.256856  0.426836  1
  P  P46  1  0.498276  0.756856  0.926836  1
  P  P47  1  0.998276  0.743144  0.573164  1
  P  P48  1  0.111853  0.560685  0.744163  1
  P  P49  1  0.611853  0.939315  0.755837  1
  P  P50  1  0.888146  0.439314  0.255837  1
  P  P51  1  0.388147  0.060686  0.244162  1
  P  P52  1  0.386381  0.187794  0.825307  1
  P  P53  1  0.886381  0.312205  0.674693  1
  P  P54  1  0.374634  0.289160  0.455732  1
  P  P55  1  0.113618  0.687795  0.325307  1
  P  P56  1  0.125367  0.789159  0.955731  1
  P  P57  1  0.625366  0.710841  0.544269  1
  P  P58  1  0.874634  0.210841  0.044268  1
  P  P59  1  0.613618  0.812205  0.174692  1
  Ni  Ni60  1  0.513795  0.465598  0.718129  1
  Ni  Ni61  1  0.013796  0.034401  0.781871  1
  Ni  Ni62  1  0.486205  0.534402  0.281871  1
  Ni  Ni63  1  0.986205  0.965598  0.218129  1
