# generated using pymatgen
data_KV2CrO7
_symmetry_space_group_name_H-M   'P 1'
_cell_length_a   4.93432919
_cell_length_b   6.97812330
_cell_length_c   8.37090143
_cell_angle_alpha   101.72470122
_cell_angle_beta   90.00000000
_cell_angle_gamma   90.00000000
_symmetry_Int_Tables_number   1
_chemical_formula_structural   KV2CrO7
_chemical_formula_sum   'K2 V4 Cr2 O14'
_cell_volume   282.21603914
_cell_formula_units_Z   2
loop_
 _symmetry_equiv_pos_site_id
 _symmetry_equiv_pos_as_xyz
  1  'x, y, z'
loop_
 _atom_site_type_symbol
 _atom_site_label
 _atom_site_symmetry_multiplicity
 _atom_site_fract_x
 _atom_site_fract_y
 _atom_site_fract_z
 _atom_site_occupancy
  K  K0  1  0.601404  0.750000  0.500000  1
  K  K1  1  0.398596  0.250000  0.500000  1
  V  V2  1  0.997609  0.876635  0.173392  1
  V  V3  1  0.002391  0.123365  0.826608  1
  V  V4  1  0.002391  0.376635  0.173392  1
  V  V5  1  0.997609  0.623365  0.826608  1
  Cr  Cr6  1  0.500000  0.500000  0.000000  1
  Cr  Cr7  1  0.500000  0.000000  0.000000  1
  O  O8  1  0.677793  0.981004  0.209712  1
  O  O9  1  0.870613  0.117358  0.645652  1
  O  O10  1  0.841416  0.887140  0.884781  1
  O  O11  1  0.870613  0.382642  0.354348  1
  O  O12  1  0.129387  0.882642  0.354348  1
  O  O13  1  0.322207  0.481004  0.209712  1
  O  O14  1  0.158584  0.112860  0.115219  1
  O  O15  1  0.841416  0.612860  0.115219  1
  O  O16  1  0.716081  0.250000  0.000000  1
  O  O17  1  0.283919  0.750000  0.000000  1
  O  O18  1  0.677793  0.518996  0.790288  1
  O  O19  1  0.322207  0.018996  0.790288  1
  O  O20  1  0.129387  0.617358  0.645652  1
  O  O21  1  0.158584  0.387140  0.884781  1
