# generated using pymatgen
data_Dy5BiAu2
_symmetry_space_group_name_H-M   'P 1'
_cell_length_a   7.41683617
_cell_length_b   7.41683607
_cell_length_c   10.25998532
_cell_angle_alpha   111.18895311
_cell_angle_beta   111.18895225
_cell_angle_gamma   90.00000045
_symmetry_Int_Tables_number   1
_chemical_formula_structural   Dy5BiAu2
_chemical_formula_sum   'Dy10 Bi2 Au4'
_cell_volume   485.09037266
_cell_formula_units_Z   2
loop_
 _symmetry_equiv_pos_site_id
 _symmetry_equiv_pos_as_xyz
  1  'x, y, z'
loop_
 _atom_site_type_symbol
 _atom_site_label
 _atom_site_symmetry_multiplicity
 _atom_site_fract_x
 _atom_site_fract_y
 _atom_site_fract_z
 _atom_site_occupancy
  Dy  Dy0  1  0.495526  0.329107  0.324633  1
  Dy  Dy1  1  0.670893  0.170893  0.675367  1
  Dy  Dy2  1  1.004474  0.504474  0.675367  1
  Dy  Dy3  1  0.829107  -0.004474  0.324633  1
  Dy  Dy4  1  0.000000  0.000000  0.000000  1
  Dy  Dy5  1  0.170893  1.004474  0.675367  1
  Dy  Dy6  1  0.329107  0.829107  0.324633  1
  Dy  Dy7  1  0.504474  0.670893  0.675367  1
  Dy  Dy8  1  -0.004474  0.495526  0.324633  1
  Dy  Dy9  1  0.500000  0.500000  0.000000  1
  Bi  Bi10  1  0.750000  0.750000  0.500000  1
  Bi  Bi11  1  0.250000  0.250000  0.500000  1
  Au  Au12  1  0.872814  0.372814  1.000000  1
  Au  Au13  1  0.127186  0.627186  0.000000  1
  Au  Au14  1  0.372814  0.127186  0.000000  1
  Au  Au15  1  0.627186  0.872814  1.000000  1
