# generated using pymatgen
data_Cs3LiI4
_symmetry_space_group_name_H-M   'P 1'
_cell_length_a   5.20946130
_cell_length_b   9.36858607
_cell_length_c   17.44132900
_cell_angle_alpha   90.00000000
_cell_angle_beta   98.23578618
_cell_angle_gamma   90.00000000
_symmetry_Int_Tables_number   1
_chemical_formula_structural   Cs3LiI4
_chemical_formula_sum   'Cs6 Li2 I8'
_cell_volume   842.45029482
_cell_formula_units_Z   2
loop_
 _symmetry_equiv_pos_site_id
 _symmetry_equiv_pos_as_xyz
  1  'x, y, z'
loop_
 _atom_site_type_symbol
 _atom_site_label
 _atom_site_symmetry_multiplicity
 _atom_site_fract_x
 _atom_site_fract_y
 _atom_site_fract_z
 _atom_site_occupancy
  Cs  Cs0  1  0.379643  0.250000  0.739237  1
  Cs  Cs1  1  0.712947  0.250000  0.455425  1
  Cs  Cs2  1  0.500000  0.000000  0.000000  1
  Cs  Cs3  1  0.620357  0.750000  0.260763  1
  Cs  Cs4  1  0.287053  0.750000  0.544575  1
  Cs  Cs5  1  0.500000  0.500000  0.000000  1
  Li  Li6  1  0.877521  0.750000  0.739811  1
  Li  Li7  1  0.122479  0.250000  0.260189  1
  I  I8  1  0.956707  0.250000  0.907009  1
  I  I9  1  0.832405  0.993609  0.639192  1
  I  I10  1  0.588247  0.250000  0.187622  1
  I  I11  1  0.167595  0.006391  0.360808  1
  I  I12  1  0.832405  0.506391  0.639192  1
  I  I13  1  0.167595  0.493609  0.360808  1
  I  I14  1  0.043293  0.750000  0.092991  1
  I  I15  1  0.411753  0.750000  0.812378  1
