# generated using pymatgen
data_Rb2TeH6SO10
_symmetry_space_group_name_H-M   'P 1'
_cell_length_a   6.83479869
_cell_length_b   11.68681620
_cell_length_c   13.69041051
_cell_angle_alpha   107.73065016
_cell_angle_beta   90.00000000
_cell_angle_gamma   90.00000000
_symmetry_Int_Tables_number   1
_chemical_formula_structural   Rb2TeH6SO10
_chemical_formula_sum   'Rb8 Te4 H24 S4 O40'
_cell_volume   1041.60439929
_cell_formula_units_Z   4
loop_
 _symmetry_equiv_pos_site_id
 _symmetry_equiv_pos_as_xyz
  1  'x, y, z'
loop_
 _atom_site_type_symbol
 _atom_site_label
 _atom_site_symmetry_multiplicity
 _atom_site_fract_x
 _atom_site_fract_y
 _atom_site_fract_z
 _atom_site_occupancy
  Rb  Rb0  1  0.478996  0.656615  0.362367  1
  Rb  Rb1  1  0.997784  0.599343  0.858357  1
  Rb  Rb2  1  0.502216  0.099343  0.858357  1
  Rb  Rb3  1  0.002216  0.400657  0.141643  1
  Rb  Rb4  1  0.021004  0.156615  0.362367  1
  Rb  Rb5  1  0.521004  0.343385  0.637633  1
  Rb  Rb6  1  0.497784  0.900657  0.141643  1
  Rb  Rb7  1  0.978996  0.843385  0.637633  1
  Te  Te8  1  0.000000  0.500000  0.500000  1
  Te  Te9  1  0.500000  0.500000  0.000000  1
  Te  Te10  1  0.000000  0.000000  0.000000  1
  Te  Te11  1  0.500000  0.000000  0.500000  1
  H  H12  1  0.294323  0.635118  0.140586  1
  H  H13  1  0.931326  0.632410  0.394581  1
  H  H14  1  0.998631  0.836491  0.087156  1
  H  H15  1  0.766824  0.592423  0.640747  1
  H  H16  1  0.501369  0.336491  0.087156  1
  H  H17  1  0.754101  0.637702  0.107744  1
  H  H18  1  0.794323  0.864882  0.859414  1
  H  H19  1  0.498631  0.663509  0.912844  1
  H  H20  1  0.745899  0.137702  0.107744  1
  H  H21  1  0.233176  0.407577  0.359253  1
  H  H22  1  0.568674  0.132410  0.394581  1
  H  H23  1  0.266824  0.907577  0.359253  1
  H  H24  1  0.431326  0.867590  0.605419  1
  H  H25  1  0.705677  0.364882  0.859414  1
  H  H26  1  0.823557  0.899425  0.430908  1
  H  H27  1  0.323557  0.600575  0.569092  1
  H  H28  1  0.245899  0.362298  0.892256  1
  H  H29  1  0.254101  0.862298  0.892256  1
  H  H30  1  0.068674  0.367590  0.605419  1
  H  H31  1  0.176443  0.100575  0.569092  1
  H  H32  1  0.205677  0.135118  0.140586  1
  H  H33  1  0.676443  0.399425  0.430908  1
  H  H34  1  0.733176  0.092423  0.640747  1
  H  H35  1  0.001369  0.163509  0.912844  1
  S  S36  1  0.991325  0.764344  0.258734  1
  S  S37  1  0.491325  0.735656  0.741266  1
  S  S38  1  0.008675  0.235656  0.741266  1
  S  S39  1  0.508675  0.264344  0.258734  1
  O  O40  1  0.587579  0.084297  0.639861  1
  O  O41  1  0.625449  0.730292  0.827030  1
  O  O42  1  0.224592  0.606871  0.516708  1
  O  O43  1  0.412308  0.641490  0.963626  1
  O  O44  1  0.374551  0.269708  0.172970  1
  O  O45  1  0.351495  0.887535  0.551007  1
  O  O46  1  0.241679  0.429335  0.958939  1
  O  O47  1  0.412421  0.915703  0.360139  1
  O  O48  1  0.851495  0.612465  0.448993  1
  O  O49  1  0.258321  0.929335  0.958939  1
  O  O50  1  0.048482  0.659883  0.293475  1
  O  O51  1  0.087692  0.141490  0.963626  1
  O  O52  1  0.392549  0.570916  0.137728  1
  O  O53  1  0.548482  0.840117  0.706525  1
  O  O54  1  0.724592  0.893129  0.483292  1
  O  O55  1  0.514239  0.621004  0.653850  1
  O  O56  1  0.607451  0.429084  0.862272  1
  O  O57  1  0.912421  0.584297  0.639861  1
  O  O58  1  0.014239  0.878996  0.346150  1
  O  O59  1  0.284554  0.748153  0.777263  1
  O  O60  1  0.784554  0.751847  0.222737  1
  O  O61  1  0.741679  0.070665  0.041061  1
  O  O62  1  0.275408  0.106871  0.516708  1
  O  O63  1  0.985761  0.121004  0.653850  1
  O  O64  1  0.215446  0.248153  0.777263  1
  O  O65  1  0.775408  0.393129  0.483292  1
  O  O66  1  0.715446  0.251847  0.222737  1
  O  O67  1  0.087579  0.415703  0.360139  1
  O  O68  1  0.912308  0.858510  0.036374  1
  O  O69  1  0.148505  0.387535  0.551007  1
  O  O70  1  0.451518  0.159883  0.293475  1
  O  O71  1  0.107451  0.070916  0.137728  1
  O  O72  1  0.874551  0.230292  0.827030  1
  O  O73  1  0.125449  0.769708  0.172970  1
  O  O74  1  0.951518  0.340117  0.706525  1
  O  O75  1  0.485761  0.378996  0.346150  1
  O  O76  1  0.648505  0.112465  0.448993  1
  O  O77  1  0.758321  0.570665  0.041061  1
  O  O78  1  0.892549  0.929084  0.862272  1
  O  O79  1  0.587692  0.358510  0.036374  1
