# generated using pymatgen
data_K2ZnSiO4
_symmetry_space_group_name_H-M   'P 1'
_cell_length_a   5.49852893
_cell_length_b   11.06509411
_cell_length_c   15.79200744
_cell_angle_alpha   90.00000000
_cell_angle_beta   90.00000000
_cell_angle_gamma   90.00000000
_symmetry_Int_Tables_number   1
_chemical_formula_structural   K2ZnSiO4
_chemical_formula_sum   'K16 Zn8 Si8 O32'
_cell_volume   960.81321196
_cell_formula_units_Z   8
loop_
 _symmetry_equiv_pos_site_id
 _symmetry_equiv_pos_as_xyz
  1  'x, y, z'
loop_
 _atom_site_type_symbol
 _atom_site_label
 _atom_site_symmetry_multiplicity
 _atom_site_fract_x
 _atom_site_fract_y
 _atom_site_fract_z
 _atom_site_occupancy
  K  K0  1  0.498385  0.985612  0.061972  1
  K  K1  1  0.501615  0.014388  0.561972  1
  K  K2  1  0.501615  0.485612  0.061972  1
  K  K3  1  0.498385  0.514388  0.561972  1
  K  K4  1  0.452487  0.738228  0.183785  1
  K  K5  1  0.547513  0.261771  0.683785  1
  K  K6  1  0.547513  0.238229  0.183785  1
  K  K7  1  0.452487  0.761772  0.683785  1
  K  K8  1  0.004715  0.013809  0.938744  1
  K  K9  1  0.995285  0.986191  0.438744  1
  K  K10  1  0.995285  0.513809  0.938744  1
  K  K11  1  0.004715  0.486191  0.438744  1
  K  K12  1  0.049850  0.264486  0.814641  1
  K  K13  1  0.950150  0.735514  0.314641  1
  K  K14  1  0.950150  0.764486  0.814641  1
  K  K15  1  0.049850  0.235514  0.314641  1
  Zn  Zn16  1  0.992413  0.992069  0.188759  1
  Zn  Zn17  1  0.007587  0.007931  0.688759  1
  Zn  Zn18  1  0.007587  0.492069  0.188759  1
  Zn  Zn19  1  0.992413  0.507931  0.688759  1
  Zn  Zn20  1  0.534489  0.259151  0.936230  1
  Zn  Zn21  1  0.465511  0.740849  0.436230  1
  Zn  Zn22  1  0.465511  0.759151  0.936230  1
  Zn  Zn23  1  0.534489  0.240849  0.436230  1
  Si  Si24  1  0.509784  0.007520  0.810970  1
  Si  Si25  1  0.490216  0.992480  0.310970  1
  Si  Si26  1  0.490216  0.507520  0.810970  1
  Si  Si27  1  0.509784  0.492480  0.310970  1
  Si  Si28  1  0.967818  0.735930  0.064286  1
  Si  Si29  1  0.032182  0.264070  0.564286  1
  Si  Si30  1  0.032182  0.235930  0.064286  1
  Si  Si31  1  0.967818  0.764070  0.564286  1
  O  O32  1  0.699143  0.703468  0.022955  1
  O  O33  1  0.300857  0.296532  0.522955  1
  O  O34  1  0.300857  0.203468  0.022955  1
  O  O35  1  0.699143  0.796532  0.522955  1
  O  O36  1  0.093263  0.607889  0.097385  1
  O  O37  1  0.906737  0.392111  0.597385  1
  O  O38  1  0.906737  0.107889  0.097385  1
  O  O39  1  0.093263  0.892111  0.597385  1
  O  O40  1  0.931670  0.826341  0.146583  1
  O  O41  1  0.068330  0.173659  0.646583  1
  O  O42  1  0.068330  0.326341  0.146583  1
  O  O43  1  0.931670  0.673659  0.646583  1
  O  O44  1  0.332978  0.021991  0.223736  1
  O  O45  1  0.667022  0.978009  0.723736  1
  O  O46  1  0.667022  0.521991  0.223736  1
  O  O47  1  0.332978  0.478009  0.723736  1
  O  O48  1  0.851620  0.295712  0.991618  1
  O  O49  1  0.148380  0.704288  0.491618  1
  O  O50  1  0.148380  0.795712  0.991618  1
  O  O51  1  0.851620  0.204288  0.491618  1
  O  O52  1  0.413189  0.416008  0.889541  1
  O  O53  1  0.586811  0.583992  0.389541  1
  O  O54  1  0.586811  0.916008  0.889541  1
  O  O55  1  0.413189  0.083992  0.389541  1
  O  O56  1  0.570782  0.148727  0.839152  1
  O  O57  1  0.429218  0.851273  0.339152  1
  O  O58  1  0.429218  0.648727  0.839152  1
  O  O59  1  0.570782  0.351273  0.339152  1
  O  O60  1  0.217909  0.986817  0.789643  1
  O  O61  1  0.782091  0.013183  0.289643  1
  O  O62  1  0.782091  0.486817  0.789643  1
  O  O63  1  0.217909  0.513183  0.289643  1
