# generated using pymatgen
data_SiO2
_symmetry_space_group_name_H-M   'P 1'
_cell_length_a   9.00393472
_cell_length_b   9.27309354
_cell_length_c   9.27309405
_cell_angle_alpha   110.96464648
_cell_angle_beta   98.72707165
_cell_angle_gamma   98.72706844
_symmetry_Int_Tables_number   1
_chemical_formula_structural   SiO2
_chemical_formula_sum   'Si12 O24'
_cell_volume   696.59709571
_cell_formula_units_Z   12
loop_
 _symmetry_equiv_pos_site_id
 _symmetry_equiv_pos_as_xyz
  1  'x, y, z'
loop_
 _atom_site_type_symbol
 _atom_site_label
 _atom_site_symmetry_multiplicity
 _atom_site_fract_x
 _atom_site_fract_y
 _atom_site_fract_z
 _atom_site_occupancy
  Si  Si0  1  0.105417  0.404229  0.891936  1
  Si  Si1  1  0.310463  0.997593  0.200421  1
  Si  Si2  1  0.689537  0.002407  0.799579  1
  Si  Si3  1  0.894583  0.595771  0.108064  1
  Si  Si4  1  0.689537  0.799579  0.002407  1
  Si  Si5  1  0.329426  0.905468  0.702424  1
  Si  Si6  1  0.105417  0.891936  0.404229  1
  Si  Si7  1  0.329426  0.702424  0.905468  1
  Si  Si8  1  0.894583  0.108064  0.595771  1
  Si  Si9  1  0.670574  0.094532  0.297576  1
  Si  Si10  1  0.310463  0.200421  0.997593  1
  Si  Si11  1  0.670574  0.297576  0.094532  1
  O  O12  1  0.715011  0.937547  0.178503  1
  O  O13  1  0.000000  0.500000  0.000000  1
  O  O14  1  1.000000  0.275390  0.724610  1
  O  O15  1  0.731707  0.877861  0.877861  1
  O  O16  1  0.196708  0.990534  0.317938  1
  O  O17  1  0.284989  0.062453  0.821497  1
  O  O18  1  0.228186  0.525168  0.853258  1
  O  O19  1  0.715011  0.178503  0.937547  1
  O  O20  1  0.708072  0.239787  0.239787  1
  O  O21  1  0.511372  0.943365  0.699667  1
  O  O22  1  0.771814  0.146742  0.474832  1
  O  O23  1  0.488628  0.056635  0.300333  1
  O  O24  1  0.228186  0.853258  0.525168  1
  O  O25  1  0.803292  0.009466  0.682062  1
  O  O26  1  0.268293  0.122139  0.122139  1
  O  O27  1  0.771814  0.474832  0.146742  1
  O  O28  1  0.000000  0.724610  0.275390  1
  O  O29  1  0.284989  0.821497  0.062453  1
  O  O30  1  0.000000  0.000000  0.500000  1
  O  O31  1  0.488628  0.300333  0.056635  1
  O  O32  1  0.803292  0.682062  0.009466  1
  O  O33  1  0.291928  0.760213  0.760213  1
  O  O34  1  0.511372  0.699667  0.943365  1
  O  O35  1  0.196708  0.317938  0.990534  1
