# generated using pymatgen
data_KBrF4
_symmetry_space_group_name_H-M   'P 1'
_cell_length_a   6.05892746
_cell_length_b   6.05496316
_cell_length_c   7.59670966
_cell_angle_alpha   113.43480736
_cell_angle_beta   113.42241791
_cell_angle_gamma   89.93792407
_symmetry_Int_Tables_number   1
_chemical_formula_structural   KBrF4
_chemical_formula_sum   'K2 Br2 F8'
_cell_volume   230.52161094
_cell_formula_units_Z   2
loop_
 _symmetry_equiv_pos_site_id
 _symmetry_equiv_pos_as_xyz
  1  'x, y, z'
loop_
 _atom_site_type_symbol
 _atom_site_label
 _atom_site_symmetry_multiplicity
 _atom_site_fract_x
 _atom_site_fract_y
 _atom_site_fract_z
 _atom_site_occupancy
  K  K0  1  0.500000  0.500000  0.000000  1
  K  K1  1  0.000000  0.000000  0.000000  1
  Br  Br2  1  0.750779  0.250937  0.499989  1
  Br  Br3  1  0.249221  0.749063  0.500011  1
  F  F4  1  0.026911  0.526842  0.750173  1
  F  F5  1  0.277207  0.777243  0.249631  1
  F  F6  1  0.527663  0.723147  0.750252  1
  F  F7  1  0.223153  0.027766  0.750347  1
  F  F8  1  0.472337  0.276853  0.249748  1
  F  F9  1  0.973089  0.473158  0.249827  1
  F  F10  1  0.722793  0.222757  0.750369  1
  F  F11  1  0.776847  0.972234  0.249653  1
