# generated using pymatgen
data_Eu(BS2)2
_symmetry_space_group_name_H-M   'P 1'
_cell_length_a   6.12167481
_cell_length_b   6.45761485
_cell_length_c   14.15225515
_cell_angle_alpha   90.00000000
_cell_angle_beta   90.00000000
_cell_angle_gamma   109.77381434
_symmetry_Int_Tables_number   1
_chemical_formula_structural   Eu(BS2)2
_chemical_formula_sum   'Eu4 B8 S16'
_cell_volume   526.47050297
_cell_formula_units_Z   4
loop_
 _symmetry_equiv_pos_site_id
 _symmetry_equiv_pos_as_xyz
  1  'x, y, z'
loop_
 _atom_site_type_symbol
 _atom_site_label
 _atom_site_symmetry_multiplicity
 _atom_site_fract_x
 _atom_site_fract_y
 _atom_site_fract_z
 _atom_site_occupancy
  Eu  Eu0  1  0.301851  0.192003  0.396895  1
  Eu  Eu1  1  0.198149  0.807997  0.896895  1
  Eu  Eu2  1  0.698149  0.807997  0.603105  1
  Eu  Eu3  1  0.801851  0.192003  0.103105  1
  S  S4  1  0.667093  0.627718  0.400853  1
  S  S5  1  0.832907  0.372282  0.900853  1
  S  S6  1  0.332907  0.372282  0.599147  1
  S  S7  1  0.167093  0.627718  0.099147  1
  S  S8  1  0.493694  0.919097  0.260637  1
  S  S9  1  0.006306  0.080903  0.760637  1
  S  S10  1  0.506306  0.080903  0.739363  1
  S  S11  1  0.993694  0.919097  0.239363  1
  S  S12  1  0.859705  0.264615  0.492430  1
  S  S13  1  0.640295  0.735385  0.992430  1
  S  S14  1  0.140295  0.735385  0.507570  1
  S  S15  1  0.359705  0.264615  0.007570  1
  S  S16  1  0.561026  0.472138  0.196208  1
  S  S17  1  0.938974  0.527862  0.696208  1
  S  S18  1  0.438974  0.527862  0.803792  1
  S  S19  1  0.061026  0.472138  0.303792  1
  B  B20  1  0.680304  0.731978  0.272444  1
  B  B21  1  0.819696  0.268022  0.772444  1
  B  B22  1  0.319696  0.268022  0.727556  1
  B  B23  1  0.180304  0.731978  0.227556  1
  B  B24  1  0.930379  0.534010  0.416288  1
  B  B25  1  0.569621  0.465990  0.916288  1
  B  B26  1  0.069621  0.465990  0.583712  1
  B  B27  1  0.430379  0.534010  0.083712  1
