# generated using pymatgen
data_Sr(ReO3)3
_symmetry_space_group_name_H-M   'P 1'
_cell_length_a   16.17092814
_cell_length_b   9.30350166
_cell_length_c   9.37132444
_cell_angle_alpha   90.00000000
_cell_angle_beta   54.58343628
_cell_angle_gamma   54.87776429
_symmetry_Int_Tables_number   1
_chemical_formula_structural   Sr(ReO3)3
_chemical_formula_sum   'Sr4 Re12 O36'
_cell_volume   813.78827356
_cell_formula_units_Z   4
loop_
 _symmetry_equiv_pos_site_id
 _symmetry_equiv_pos_as_xyz
  1  'x, y, z'
loop_
 _atom_site_type_symbol
 _atom_site_label
 _atom_site_symmetry_multiplicity
 _atom_site_fract_x
 _atom_site_fract_y
 _atom_site_fract_z
 _atom_site_occupancy
  Sr  Sr0  1  0.179353  0.644074  0.998973  1
  Sr  Sr1  1  0.320647  0.002779  0.357679  1
  Sr  Sr2  1  0.820647  0.002779  0.001027  1
  Sr  Sr3  1  0.679353  0.644074  0.642321  1
  Re  Re4  1  1.000000  0.136836  0.500000  1
  Re  Re5  1  0.994768  0.502953  0.644969  1
  Re  Re6  1  0.137586  0.360011  0.861100  1
  Re  Re7  1  0.362414  0.635183  0.136273  1
  Re  Re8  1  0.500000  0.136836  0.500000  1
  Re  Re9  1  0.494768  0.502953  0.365496  1
  Re  Re10  1  0.505232  0.492488  0.634504  1
  Re  Re11  1  0.500000  0.860783  0.500000  1
  Re  Re12  1  0.637586  0.360011  0.863727  1
  Re  Re13  1  0.862414  0.635183  0.138900  1
  Re  Re14  1  0.005232  0.492488  0.355031  1
  Re  Re15  1  0.000000  0.860783  0.500000  1
  O  O16  1  1.000000  0.338633  0.000000  1
  O  O17  1  0.137562  0.368599  0.064984  1
  O  O18  1  0.005571  0.698642  0.355066  1
  O  O19  1  0.161615  0.331003  0.343103  1
  O  O20  1  0.004616  0.993581  0.332182  1
  O  O21  1  0.994429  0.709785  0.644934  1
  O  O22  1  0.137753  0.360054  0.656017  1
  O  O23  1  0.203727  0.658515  0.291680  1
  O  O24  1  0.296273  0.065969  0.699135  1
  O  O25  1  0.500000  0.338633  0.000000  1
  O  O26  1  0.205411  0.934451  0.298372  1
  O  O27  1  0.294589  0.345273  0.709193  1
  O  O28  1  0.362438  0.643722  0.340108  1
  O  O29  1  0.502272  0.292343  0.359970  1
  O  O30  1  0.504616  0.993581  0.658587  1
  O  O31  1  0.500000  0.668431  1.000000  1
  O  O32  1  0.338385  0.654234  0.666334  1
  O  O33  1  0.637753  0.360054  0.068477  1
  O  O34  1  0.497728  0.296887  0.640030  1
  O  O35  1  0.494429  0.709785  0.366209  1
  O  O36  1  0.362247  0.635560  0.931523  1
  O  O37  1  0.661615  0.331003  0.333666  1
  O  O38  1  0.495384  0.002812  0.341413  1
  O  O39  1  0.505571  0.698642  0.633791  1
  O  O40  1  0.637562  0.368599  0.659892  1
  O  O41  1  0.703727  0.658515  0.300865  1
  O  O42  1  0.796273  0.065969  0.708320  1
  O  O43  1  0.705411  0.934451  0.290807  1
  O  O44  1  0.794589  0.345273  0.701628  1
  O  O45  1  0.862247  0.635560  0.343983  1
  O  O46  1  0.997728  0.296887  0.364514  1
  O  O47  1  0.000000  0.668431  1.000000  1
  O  O48  1  0.995384  0.002812  0.667818  1
  O  O49  1  0.838385  0.654234  0.656897  1
  O  O50  1  0.002272  0.292343  0.635486  1
  O  O51  1  0.862438  0.643722  0.935016  1
