# generated using pymatgen
data_Lu2Si5Ir3
_symmetry_space_group_name_H-M   'P 1'
_cell_length_a   5.76818918
_cell_length_b   8.10632743
_cell_length_c   8.10632711
_cell_angle_alpha   76.45295515
_cell_angle_beta   69.15854979
_cell_angle_gamma   69.15855074
_symmetry_Int_Tables_number   1
_chemical_formula_structural   Lu2Si5Ir3
_chemical_formula_sum   'Lu4 Si10 Ir6'
_cell_volume   328.53780414
_cell_formula_units_Z   2
loop_
 _symmetry_equiv_pos_site_id
 _symmetry_equiv_pos_as_xyz
  1  'x, y, z'
loop_
 _atom_site_type_symbol
 _atom_site_label
 _atom_site_symmetry_multiplicity
 _atom_site_fract_x
 _atom_site_fract_y
 _atom_site_fract_z
 _atom_site_occupancy
  Lu  Lu0  1  0.631130  0.096878  0.640862  1
  Lu  Lu1  1  0.368870  0.903122  0.359138  1
  Lu  Lu2  1  0.868870  0.359138  0.903122  1
  Lu  Lu3  1  0.131130  0.640862  0.096878  1
  Si  Si4  1  0.975677  0.274323  0.274323  1
  Si  Si5  1  0.894298  0.761688  0.449716  1
  Si  Si6  1  0.475677  0.274323  0.274323  1
  Si  Si7  1  0.250000  0.000000  0.000000  1
  Si  Si8  1  0.524323  0.725677  0.725677  1
  Si  Si9  1  0.605702  0.550284  0.238312  1
  Si  Si10  1  0.105702  0.238312  0.550284  1
  Si  Si11  1  0.394298  0.449716  0.761688  1
  Si  Si12  1  0.024323  0.725677  0.725677  1
  Si  Si13  1  0.750000  0.000000  0.000000  1
  Ir  Ir14  1  0.140099  0.976293  0.743508  1
  Ir  Ir15  1  0.359901  0.256492  0.023707  1
  Ir  Ir16  1  0.640099  0.743508  0.976293  1
  Ir  Ir17  1  0.859901  0.023707  0.256492  1
  Ir  Ir18  1  0.250000  0.500000  0.500000  1
  Ir  Ir19  1  0.750000  0.500000  0.500000  1
