# generated using pymatgen
data_Zn3(PO4)2
_symmetry_space_group_name_H-M   'P 1'
_cell_length_a   8.42632765
_cell_length_b   8.88100502
_cell_length_c   9.24296819
_cell_angle_alpha   90.00000000
_cell_angle_beta   90.00000000
_cell_angle_gamma   113.00266732
_symmetry_Int_Tables_number   1
_chemical_formula_structural   Zn3(PO4)2
_chemical_formula_sum   'Zn12 P8 O32'
_cell_volume   636.69203427
_cell_formula_units_Z   4
loop_
 _symmetry_equiv_pos_site_id
 _symmetry_equiv_pos_as_xyz
  1  'x, y, z'
loop_
 _atom_site_type_symbol
 _atom_site_label
 _atom_site_symmetry_multiplicity
 _atom_site_fract_x
 _atom_site_fract_y
 _atom_site_fract_z
 _atom_site_occupancy
  Zn  Zn0  1  0.984985  0.129009  0.891781  1
  Zn  Zn1  1  0.984985  0.629009  0.608219  1
  Zn  Zn2  1  0.015015  0.370991  0.391781  1
  Zn  Zn3  1  0.583669  0.966881  0.232652  1
  Zn  Zn4  1  0.708344  0.947996  0.611555  1
  Zn  Zn5  1  0.291656  0.052004  0.388445  1
  Zn  Zn6  1  0.416331  0.533119  0.732652  1
  Zn  Zn7  1  0.583669  0.466881  0.267348  1
  Zn  Zn8  1  0.291656  0.552004  0.111555  1
  Zn  Zn9  1  0.708344  0.447996  0.888445  1
  Zn  Zn10  1  0.416331  0.033119  0.767348  1
  Zn  Zn11  1  0.015015  0.870991  0.108219  1
  P  P12  1  0.142939  0.681300  0.885633  1
  P  P13  1  0.857061  0.318700  0.114367  1
  P  P14  1  0.355235  0.691283  0.438410  1
  P  P15  1  0.355235  0.191283  0.061590  1
  P  P16  1  0.142939  0.181300  0.614367  1
  P  P17  1  0.644765  0.808717  0.938410  1
  P  P18  1  0.857061  0.818700  0.385633  1
  P  P19  1  0.644765  0.308717  0.561590  1
  O  O20  1  0.748861  0.926211  0.399514  1
  O  O21  1  0.467679  0.198254  0.926539  1
  O  O22  1  0.393540  0.368873  0.115997  1
  O  O23  1  0.775060  0.679247  0.276476  1
  O  O24  1  0.251139  0.573789  0.899514  1
  O  O25  1  0.127257  0.234227  0.458374  1
  O  O26  1  0.960287  0.080816  0.682769  1
  O  O27  1  0.160467  0.604595  0.477904  1
  O  O28  1  0.872743  0.265773  0.958374  1
  O  O29  1  0.532321  0.801746  0.073461  1
  O  O30  1  0.608515  0.409163  0.685290  1
  O  O31  1  0.160467  0.104595  0.022096  1
  O  O32  1  0.532321  0.301746  0.426539  1
  O  O33  1  0.127257  0.734227  0.041626  1
  O  O34  1  0.748861  0.426211  0.100486  1
  O  O35  1  0.839533  0.395405  0.522096  1
  O  O36  1  0.224940  0.320753  0.723524  1
  O  O37  1  0.775060  0.179247  0.223524  1
  O  O38  1  0.039713  0.919184  0.317231  1
  O  O39  1  0.393540  0.868873  0.384003  1
  O  O40  1  0.224940  0.820753  0.776476  1
  O  O41  1  0.960287  0.580816  0.817231  1
  O  O42  1  0.606460  0.131127  0.615997  1
  O  O43  1  0.839533  0.895405  0.977904  1
  O  O44  1  0.251139  0.073789  0.600486  1
  O  O45  1  0.391485  0.090837  0.185290  1
  O  O46  1  0.039713  0.419184  0.182769  1
  O  O47  1  0.872743  0.765773  0.541626  1
  O  O48  1  0.606460  0.631127  0.884003  1
  O  O49  1  0.467679  0.698254  0.573461  1
  O  O50  1  0.391485  0.590837  0.314710  1
  O  O51  1  0.608515  0.909163  0.814710  1
