# generated using pymatgen
data_SiO2
_symmetry_space_group_name_H-M   'P 1'
_cell_length_a   8.47756448
_cell_length_b   9.89435219
_cell_length_c   9.91581151
_cell_angle_alpha   90.00000000
_cell_angle_beta   90.00000000
_cell_angle_gamma   90.00000000
_symmetry_Int_Tables_number   1
_chemical_formula_structural   SiO2
_chemical_formula_sum   'Si16 O32'
_cell_volume   831.73835551
_cell_formula_units_Z   16
loop_
 _symmetry_equiv_pos_site_id
 _symmetry_equiv_pos_as_xyz
  1  'x, y, z'
loop_
 _atom_site_type_symbol
 _atom_site_label
 _atom_site_symmetry_multiplicity
 _atom_site_fract_x
 _atom_site_fract_y
 _atom_site_fract_z
 _atom_site_occupancy
  Si  Si0  1  0.312707  0.170017  0.120636  1
  Si  Si1  1  0.187311  0.378755  0.329763  1
  Si  Si2  1  0.312707  0.329983  0.620636  1
  Si  Si3  1  0.312707  0.829983  0.879364  1
  Si  Si4  1  0.187311  0.621245  0.670237  1
  Si  Si5  1  0.812689  0.121245  0.829763  1
  Si  Si6  1  0.687293  0.329983  0.620636  1
  Si  Si7  1  0.187311  0.121245  0.829763  1
  Si  Si8  1  0.812689  0.878755  0.170237  1
  Si  Si9  1  0.812689  0.621245  0.670237  1
  Si  Si10  1  0.687293  0.829983  0.879364  1
  Si  Si11  1  0.812689  0.378755  0.329763  1
  Si  Si12  1  0.312707  0.670017  0.379364  1
  Si  Si13  1  0.687293  0.670017  0.379364  1
  Si  Si14  1  0.187311  0.878755  0.170237  1
  Si  Si15  1  0.687293  0.170017  0.120636  1
  O  O16  1  0.500000  0.649514  0.353270  1
  O  O17  1  0.217994  0.040852  0.182562  1
  O  O18  1  0.251208  0.307003  0.193283  1
  O  O19  1  0.782006  0.459148  0.682562  1
  O  O20  1  0.000000  0.851416  0.151802  1
  O  O21  1  0.500000  0.149514  0.146730  1
  O  O22  1  0.719114  0.683528  0.540846  1
  O  O23  1  0.719114  0.183528  0.959154  1
  O  O24  1  0.782006  0.540852  0.317438  1
  O  O25  1  0.217994  0.959148  0.817438  1
  O  O26  1  0.000000  0.148584  0.848198  1
  O  O27  1  0.500000  0.350486  0.646730  1
  O  O28  1  0.280886  0.183528  0.959154  1
  O  O29  1  0.217994  0.540852  0.317438  1
  O  O30  1  0.500000  0.850486  0.853270  1
  O  O31  1  0.251208  0.192997  0.693283  1
  O  O32  1  0.000000  0.351416  0.348198  1
  O  O33  1  0.748792  0.807003  0.306717  1
  O  O34  1  0.217994  0.459148  0.682562  1
  O  O35  1  0.251208  0.692997  0.806717  1
  O  O36  1  0.000000  0.648584  0.651802  1
  O  O37  1  0.748792  0.307003  0.193283  1
  O  O38  1  0.748792  0.692997  0.806717  1
  O  O39  1  0.280886  0.816472  0.040846  1
  O  O40  1  0.280886  0.316472  0.459154  1
  O  O41  1  0.719114  0.316472  0.459154  1
  O  O42  1  0.251208  0.807003  0.306717  1
  O  O43  1  0.748792  0.192997  0.693283  1
  O  O44  1  0.782006  0.959148  0.817438  1
  O  O45  1  0.280886  0.683528  0.540846  1
  O  O46  1  0.719114  0.816472  0.040846  1
  O  O47  1  0.782006  0.040852  0.182562  1
