# generated using pymatgen
data_PrCoC2
_symmetry_space_group_name_H-M   'P 1'
_cell_length_a   3.82852683
_cell_length_b   3.82852641
_cell_length_c   7.41905508
_cell_angle_alpha   98.42525413
_cell_angle_beta   98.42525337
_cell_angle_gamma   90.04099171
_symmetry_Int_Tables_number   1
_chemical_formula_structural   PrCoC2
_chemical_formula_sum   'Pr2 Co2 C4'
_cell_volume   106.38378016
_cell_formula_units_Z   2
loop_
 _symmetry_equiv_pos_site_id
 _symmetry_equiv_pos_as_xyz
  1  'x, y, z'
loop_
 _atom_site_type_symbol
 _atom_site_label
 _atom_site_symmetry_multiplicity
 _atom_site_fract_x
 _atom_site_fract_y
 _atom_site_fract_z
 _atom_site_occupancy
  Pr  Pr0  1  0.073656  0.926646  0.497486  1
  Pr  Pr1  1  0.926646  0.073656  0.997486  1
  Co  Co2  1  0.371671  0.514072  0.804341  1
  Co  Co3  1  0.514072  0.371671  0.304341  1
  C  C4  1  0.851126  0.489847  0.724793  1
  C  C5  1  0.442564  0.594418  0.072381  1
  C  C6  1  0.594418  0.442564  0.572381  1
  C  C7  1  0.489847  0.851126  0.224793  1
