# generated using pymatgen
data_SiPb4(BrO)4
_symmetry_space_group_name_H-M   'P 1'
_cell_length_a   8.57520531
_cell_length_b   9.19468309
_cell_length_c   16.50110045
_cell_angle_alpha   90.00000000
_cell_angle_beta   90.00000000
_cell_angle_gamma   92.13030109
_symmetry_Int_Tables_number   1
_chemical_formula_structural   SiPb4(BrO)4
_chemical_formula_sum   'Si4 Pb16 Br16 O16'
_cell_volume   1300.15144867
_cell_formula_units_Z   4
loop_
 _symmetry_equiv_pos_site_id
 _symmetry_equiv_pos_as_xyz
  1  'x, y, z'
loop_
 _atom_site_type_symbol
 _atom_site_label
 _atom_site_symmetry_multiplicity
 _atom_site_fract_x
 _atom_site_fract_y
 _atom_site_fract_z
 _atom_site_occupancy
  Si  Si0  1  0.857677  0.369148  0.850565  1
  Si  Si1  1  0.357677  0.369148  0.649435  1
  Si  Si2  1  0.642323  0.630852  0.350565  1
  Si  Si3  1  0.142323  0.630852  0.149435  1
  Pb  Pb4  1  0.578826  0.119555  0.743584  1
  Pb  Pb5  1  0.421174  0.880445  0.256416  1
  Pb  Pb6  1  0.014204  0.559709  0.703293  1
  Pb  Pb7  1  0.514204  0.559709  0.796707  1
  Pb  Pb8  1  0.985796  0.440291  0.296707  1
  Pb  Pb9  1  0.078826  0.119555  0.756416  1
  Pb  Pb10  1  0.802668  0.832316  0.482943  1
  Pb  Pb11  1  0.857284  0.650489  0.965269  1
  Pb  Pb12  1  0.642716  0.349511  0.465269  1
  Pb  Pb13  1  0.142716  0.349511  0.034731  1
  Pb  Pb14  1  0.697332  0.167684  0.982943  1
  Pb  Pb15  1  0.485796  0.440291  0.203293  1
  Pb  Pb16  1  0.357284  0.650489  0.534731  1
  Pb  Pb17  1  0.921174  0.880445  0.243584  1
  Pb  Pb18  1  0.302668  0.832316  0.017057  1
  Pb  Pb19  1  0.197332  0.167684  0.517057  1
  Br  Br20  1  0.133552  0.724685  0.847772  1
  Br  Br21  1  0.384001  0.128557  0.111711  1
  Br  Br22  1  0.884001  0.128557  0.388289  1
  Br  Br23  1  0.366448  0.275315  0.347772  1
  Br  Br24  1  0.838910  0.178920  0.622278  1
  Br  Br25  1  0.615999  0.871443  0.888289  1
  Br  Br26  1  0.661090  0.821080  0.122278  1
  Br  Br27  1  0.866448  0.275315  0.152228  1
  Br  Br28  1  0.161090  0.821080  0.377722  1
  Br  Br29  1  0.338910  0.178920  0.877722  1
  Br  Br30  1  0.115999  0.871443  0.611711  1
  Br  Br31  1  0.000000  0.000000  0.000000  1
  Br  Br32  1  0.633552  0.724685  0.652228  1
  Br  Br33  1  0.500000  0.000000  0.500000  1
  Br  Br34  1  0.500000  0.500000  0.000000  1
  Br  Br35  1  0.000000  0.500000  0.500000  1
  O  O36  1  0.258386  0.778167  0.157771  1
  O  O37  1  0.510961  0.354203  0.708592  1
  O  O38  1  0.758386  0.778167  0.342229  1
  O  O39  1  0.489039  0.645797  0.291408  1
  O  O40  1  0.776058  0.523185  0.827510  1
  O  O41  1  0.276058  0.523185  0.672490  1
  O  O42  1  0.101102  0.621752  0.050965  1
  O  O43  1  0.398898  0.378248  0.550965  1
  O  O44  1  0.989039  0.645797  0.208592  1
  O  O45  1  0.010961  0.354203  0.791408  1
  O  O46  1  0.601102  0.621752  0.449035  1
  O  O47  1  0.723942  0.476815  0.327510  1
  O  O48  1  0.741614  0.221833  0.842229  1
  O  O49  1  0.223942  0.476815  0.172490  1
  O  O50  1  0.898898  0.378248  0.949035  1
  O  O51  1  0.241614  0.221833  0.657771  1
