# generated using pymatgen
data_ZrS4(N2Cl3)2
_symmetry_space_group_name_H-M   'P 1'
_cell_length_a   7.21936264
_cell_length_b   11.67949749
_cell_length_c   18.90276524
_cell_angle_alpha   102.78434781
_cell_angle_beta   98.62278757
_cell_angle_gamma   92.16053717
_symmetry_Int_Tables_number   1
_chemical_formula_structural   ZrS4(N2Cl3)2
_chemical_formula_sum   'Zr4 S16 N16 Cl24'
_cell_volume   1532.61485888
_cell_formula_units_Z   4
loop_
 _symmetry_equiv_pos_site_id
 _symmetry_equiv_pos_as_xyz
  1  'x, y, z'
loop_
 _atom_site_type_symbol
 _atom_site_label
 _atom_site_symmetry_multiplicity
 _atom_site_fract_x
 _atom_site_fract_y
 _atom_site_fract_z
 _atom_site_occupancy
  Zr  Zr0  1  0.530295  0.565551  0.411128  1
  Zr  Zr1  1  0.469705  0.434449  0.588872  1
  Zr  Zr2  1  0.972512  0.942230  0.091980  1
  Zr  Zr3  1  0.027488  0.057770  0.908021  1
  S  S4  1  0.837607  0.339098  0.102953  1
  S  S5  1  0.083146  0.791115  0.660728  1
  S  S6  1  0.367708  0.056130  0.604219  1
  S  S7  1  0.011696  0.044996  0.665370  1
  S  S8  1  0.162393  0.660902  0.897047  1
  S  S9  1  0.632292  0.943870  0.395781  1
  S  S10  1  0.480617  0.389193  0.161813  1
  S  S11  1  0.011165  0.421310  0.811092  1
  S  S12  1  0.988835  0.578690  0.188908  1
  S  S13  1  0.519383  0.610807  0.838187  1
  S  S14  1  0.585684  0.643409  0.165191  1
  S  S15  1  0.988304  0.955004  0.334630  1
  S  S16  1  0.414316  0.356591  0.834809  1
  S  S17  1  0.495915  0.873376  0.685044  1
  S  S18  1  0.916854  0.208885  0.339272  1
  S  S19  1  0.504085  0.126624  0.314956  1
  N  N20  1  0.985193  0.910756  0.660236  1
  N  N21  1  0.192243  0.099175  0.642822  1
  N  N22  1  0.014807  0.089244  0.339764  1
  N  N23  1  0.472022  0.521689  0.160637  1
  N  N24  1  0.016035  0.557819  0.846703  1
  N  N25  1  0.983966  0.442181  0.153297  1
  N  N26  1  0.343155  0.678443  0.859825  1
  N  N27  1  0.656845  0.321557  0.140175  1
  N  N28  1  0.495958  0.013046  0.347884  1
  N  N29  1  0.807168  0.644455  0.181214  1
  N  N30  1  0.504042  0.986954  0.652116  1
  N  N31  1  0.304976  0.802432  0.676435  1
  N  N32  1  0.192832  0.355545  0.818786  1
  N  N33  1  0.527978  0.478311  0.839363  1
  N  N34  1  0.807757  0.900825  0.357178  1
  N  N35  1  0.695024  0.197568  0.323565  1
  Cl  Cl36  1  0.833322  0.754349  0.011778  1
  Cl  Cl37  1  0.693095  0.427570  0.491230  1
  Cl  Cl38  1  0.808027  0.154493  0.834714  1
  Cl  Cl39  1  0.650520  0.305489  0.652714  1
  Cl  Cl40  1  0.306905  0.572430  0.508770  1
  Cl  Cl41  1  0.718777  0.953957  0.164169  1
  Cl  Cl42  1  0.325828  0.394833  0.334796  1
  Cl  Cl43  1  0.760013  0.085863  0.489463  1
  Cl  Cl44  1  0.890092  0.862044  0.837384  1
  Cl  Cl45  1  0.226910  0.476019  0.665240  1
  Cl  Cl46  1  0.283990  0.265222  0.504796  1
  Cl  Cl47  1  0.276534  0.580466  0.986849  1
  Cl  Cl48  1  0.281223  0.046043  0.835831  1
  Cl  Cl49  1  0.109908  0.137956  0.162616  1
  Cl  Cl50  1  0.784138  0.048887  0.997914  1
  Cl  Cl51  1  0.166678  0.245651  0.988222  1
  Cl  Cl52  1  0.215862  0.951113  0.002086  1
  Cl  Cl53  1  0.239987  0.914137  0.510537  1
  Cl  Cl54  1  0.191973  0.845507  0.165286  1
  Cl  Cl55  1  0.716010  0.734778  0.495204  1
  Cl  Cl56  1  0.674172  0.605167  0.665204  1
  Cl  Cl57  1  0.723466  0.419534  0.013151  1
  Cl  Cl58  1  0.349480  0.694511  0.347286  1
  Cl  Cl59  1  0.773090  0.523981  0.334760  1
