# generated using pymatgen
data_ZnAu2(CN)4
_symmetry_space_group_name_H-M   'P 1'
_cell_length_a   8.77613186
_cell_length_b   8.77613214
_cell_length_c   20.26545743
_cell_angle_alpha   90.00000000
_cell_angle_beta   90.00000000
_cell_angle_gamma   119.99999895
_symmetry_Int_Tables_number   1
_chemical_formula_structural   ZnAu2(CN)4
_chemical_formula_sum   'Zn6 Au12 C24 N24'
_cell_volume   1351.74054591
_cell_formula_units_Z   6
loop_
 _symmetry_equiv_pos_site_id
 _symmetry_equiv_pos_as_xyz
  1  'x, y, z'
loop_
 _atom_site_type_symbol
 _atom_site_label
 _atom_site_symmetry_multiplicity
 _atom_site_fract_x
 _atom_site_fract_y
 _atom_site_fract_z
 _atom_site_occupancy
  Au  Au0  1  1.002430  0.684438  0.207004  1
  Au  Au1  1  0.317993  1.002430  0.873671  1
  Au  Au2  1  0.684438  0.682007  0.540337  1
  Au  Au3  1  0.315562  0.317993  0.540337  1
  Au  Au4  1  0.682007  -0.002430  0.873671  1
  Au  Au5  1  0.317993  0.315562  0.792996  1
  Au  Au6  1  -0.002430  0.682007  0.459663  1
  Au  Au7  1  -0.002430  0.315562  0.207004  1
  Au  Au8  1  0.684438  1.002430  0.126329  1
  Au  Au9  1  0.315562  -0.002430  0.126329  1
  Au  Au10  1  0.682007  0.684438  0.792996  1
  Au  Au11  1  1.002430  0.317993  0.459663  1
  Zn  Zn12  1  0.500000  0.500000  0.041276  1
  Zn  Zn13  1  0.000000  0.500000  0.707943  1
  Zn  Zn14  1  0.500000  0.000000  0.374609  1
  Zn  Zn15  1  0.000000  0.500000  0.958724  1
  Zn  Zn16  1  0.500000  0.000000  0.625391  1
  Zn  Zn17  1  0.500000  0.500000  0.292057  1
  N  N18  1  0.147195  0.442785  0.901380  1
  N  N19  1  0.704410  0.147195  0.568047  1
  N  N20  1  0.442785  0.295590  0.234713  1
  N  N21  1  0.557215  0.704410  0.234713  1
  N  N22  1  0.295590  0.852805  0.568047  1
  N  N23  1  0.704410  0.557215  0.098620  1
  N  N24  1  0.852805  0.295590  0.765287  1
  N  N25  1  0.852805  0.557215  0.901380  1
  N  N26  1  0.442785  0.147195  0.431953  1
  N  N27  1  0.557215  0.852805  0.431953  1
  N  N28  1  0.295590  0.442785  0.098620  1
  N  N29  1  0.147195  0.704410  0.765287  1
  C  C30  1  0.215234  0.399894  0.861821  1
  C  C31  1  0.815340  0.215234  0.528488  1
  C  C32  1  0.399894  0.184660  0.195154  1
  C  C33  1  0.600106  0.815340  0.195154  1
  C  C34  1  0.184660  0.784766  0.528488  1
  C  C35  1  0.815340  0.600106  0.138179  1
  C  C36  1  0.784766  0.184660  0.804846  1
  C  C37  1  0.784766  0.600106  0.861821  1
  C  C38  1  0.399894  0.215234  0.471512  1
  C  C39  1  0.600106  0.784766  0.471512  1
  C  C40  1  0.184660  0.399894  0.138179  1
  C  C41  1  0.215234  0.815340  0.804846  1
  N  N42  1  0.855402  0.295578  0.016243  1
  N  N43  1  0.559824  0.855402  0.682910  1
  N  N44  1  0.295578  0.440176  0.349576  1
  N  N45  1  0.704422  0.559824  0.349576  1
  N  N46  1  0.440176  0.144598  0.682910  1
  N  N47  1  0.559824  0.704422  0.983757  1
  N  N48  1  0.144598  0.440176  0.650424  1
  N  N49  1  0.144598  0.704422  0.016243  1
  N  N50  1  0.295578  0.855402  0.317090  1
  N  N51  1  0.704422  0.144598  0.317090  1
  N  N52  1  0.440176  0.295578  0.983757  1
  N  N53  1  0.855402  0.559824  0.650424  1
  C  C54  1  0.786370  0.184957  0.055850  1
  C  C55  1  0.601412  0.786370  0.722517  1
  C  C56  1  0.184957  0.398588  0.389183  1
  C  C57  1  0.815043  0.601412  0.389183  1
  C  C58  1  0.398588  0.213630  0.722517  1
  C  C59  1  0.601412  0.815043  0.944150  1
  C  C60  1  0.213630  0.398588  0.610817  1
  C  C61  1  0.213630  0.815043  0.055850  1
  C  C62  1  0.184957  0.786370  0.277483  1
  C  C63  1  0.815043  0.213630  0.277483  1
  C  C64  1  0.398588  0.184957  0.944150  1
  C  C65  1  0.786370  0.601412  0.610817  1
