# generated using pymatgen
data_Li2Cr(H2O3)2
_symmetry_space_group_name_H-M   'P 1'
_cell_length_a   5.60233562
_cell_length_b   7.78317549
_cell_length_c   12.13807478
_cell_angle_alpha   90.00000000
_cell_angle_beta   90.00000000
_cell_angle_gamma   90.00000000
_symmetry_Int_Tables_number   1
_chemical_formula_structural   Li2Cr(H2O3)2
_chemical_formula_sum   'Li8 Cr4 H16 O24'
_cell_volume   529.26814277
_cell_formula_units_Z   4
loop_
 _symmetry_equiv_pos_site_id
 _symmetry_equiv_pos_as_xyz
  1  'x, y, z'
loop_
 _atom_site_type_symbol
 _atom_site_label
 _atom_site_symmetry_multiplicity
 _atom_site_fract_x
 _atom_site_fract_y
 _atom_site_fract_z
 _atom_site_occupancy
  Cr  Cr0  1  0.176372  0.117791  0.134676  1
  Cr  Cr1  1  0.676372  0.382209  0.865324  1
  Cr  Cr2  1  0.823628  0.617791  0.365324  1
  Cr  Cr3  1  0.323628  0.882209  0.634676  1
  O  O4  1  0.299146  0.360212  0.610025  1
  O  O5  1  0.799146  0.139788  0.389975  1
  O  O6  1  0.700854  0.860212  0.889975  1
  O  O7  1  0.200854  0.639788  0.110025  1
  O  O8  1  0.301436  0.329973  0.387504  1
  O  O9  1  0.801436  0.170027  0.612496  1
  O  O10  1  0.698564  0.829973  0.112496  1
  O  O11  1  0.198564  0.670027  0.887504  1
  O  O12  1  0.329563  0.302181  0.138305  1
  O  O13  1  0.829563  0.197819  0.861695  1
  O  O14  1  0.670437  0.802181  0.361695  1
  O  O15  1  0.170437  0.697819  0.638305  1
  O  O16  1  0.383012  0.343026  0.849100  1
  O  O17  1  0.883012  0.156974  0.150900  1
  O  O18  1  0.616988  0.843026  0.650900  1
  O  O19  1  0.116988  0.656974  0.349100  1
  O  O20  1  0.222425  0.017044  0.014844  1
  O  O21  1  0.722425  0.482956  0.985156  1
  O  O22  1  0.777575  0.517044  0.485156  1
  O  O23  1  0.277575  0.982956  0.514844  1
  O  O24  1  0.233510  0.003379  0.737302  1
  O  O25  1  0.733510  0.496621  0.262698  1
  O  O26  1  0.766490  0.503379  0.762698  1
  O  O27  1  0.266490  0.996621  0.237302  1
  Li  Li28  1  0.177535  0.138280  0.872112  1
  Li  Li29  1  0.677535  0.361720  0.127888  1
  Li  Li30  1  0.822465  0.638280  0.627888  1
  Li  Li31  1  0.322465  0.861720  0.372112  1
  Li  Li32  1  0.080372  0.203819  0.501459  1
  Li  Li33  1  0.580372  0.296181  0.498541  1
  Li  Li34  1  0.919628  0.703819  0.998541  1
  Li  Li35  1  0.419628  0.796181  0.001459  1
  H  H36  1  0.261318  0.484935  0.613540  1
  H  H37  1  0.761318  0.015065  0.386460  1
  H  H38  1  0.738682  0.984935  0.886460  1
  H  H39  1  0.238682  0.515065  0.113540  1
  H  H40  1  0.324854  0.328601  0.687654  1
  H  H41  1  0.824854  0.171399  0.312346  1
  H  H42  1  0.675146  0.828601  0.812346  1
  H  H43  1  0.175146  0.671399  0.187654  1
  H  H44  1  0.335013  0.284940  0.313751  1
  H  H45  1  0.835013  0.215060  0.686249  1
  H  H46  1  0.664987  0.784940  0.186249  1
  H  H47  1  0.164987  0.715060  0.813751  1
  H  H48  1  0.252880  0.451007  0.373929  1
  H  H49  1  0.752880  0.048993  0.626071  1
  H  H50  1  0.747120  0.951007  0.126071  1
  H  H51  1  0.247120  0.548993  0.873929  1
