# generated using pymatgen
data_Bi2MoO6
_symmetry_space_group_name_H-M   'P 1'
_cell_length_a   5.65596183
_cell_length_b   17.48922471
_cell_length_c   22.85529720
_cell_angle_alpha   90.00000000
_cell_angle_beta   90.00000000
_cell_angle_gamma   90.53257103
_symmetry_Int_Tables_number   1
_chemical_formula_structural   Bi2MoO6
_chemical_formula_sum   'Bi32 Mo16 O96'
_cell_volume   2260.71147857
_cell_formula_units_Z   16
loop_
 _symmetry_equiv_pos_site_id
 _symmetry_equiv_pos_as_xyz
  1  'x, y, z'
loop_
 _atom_site_type_symbol
 _atom_site_label
 _atom_site_symmetry_multiplicity
 _atom_site_fract_x
 _atom_site_fract_y
 _atom_site_fract_z
 _atom_site_occupancy
  Bi  Bi0  1  0.019303  0.093379  0.195027  1
  Bi  Bi1  1  0.480697  0.906621  0.695027  1
  Bi  Bi2  1  0.980697  0.906621  0.804973  1
  Bi  Bi3  1  0.519303  0.093379  0.304973  1
  Bi  Bi4  1  0.001798  0.259857  0.070059  1
  Bi  Bi5  1  0.498202  0.740143  0.570059  1
  Bi  Bi6  1  0.998202  0.740143  0.929941  1
  Bi  Bi7  1  0.501798  0.259857  0.429941  1
  Bi  Bi8  1  0.441541  0.257038  0.188542  1
  Bi  Bi9  1  0.058459  0.742962  0.688542  1
  Bi  Bi10  1  0.558459  0.742962  0.811458  1
  Bi  Bi11  1  0.941541  0.257038  0.311458  1
  Bi  Bi12  1  0.504779  0.410259  0.070091  1
  Bi  Bi13  1  0.995221  0.589741  0.570091  1
  Bi  Bi14  1  0.495221  0.589741  0.929909  1
  Bi  Bi15  1  0.004779  0.410259  0.429909  1
  Bi  Bi16  1  0.935355  0.409586  0.191547  1
  Bi  Bi17  1  0.564645  0.590414  0.691547  1
  Bi  Bi18  1  0.064645  0.590414  0.808453  1
  Bi  Bi19  1  0.435355  0.409586  0.308453  1
  Bi  Bi20  1  0.525717  0.573209  0.193868  1
  Bi  Bi21  1  0.974283  0.426791  0.693868  1
  Bi  Bi22  1  0.474283  0.426791  0.806132  1
  Bi  Bi23  1  0.025717  0.573209  0.306132  1
  Bi  Bi24  1  0.999637  0.741930  0.195292  1
  Bi  Bi25  1  0.500363  0.258070  0.695292  1
  Bi  Bi26  1  0.000363  0.258070  0.804708  1
  Bi  Bi27  1  0.499637  0.741930  0.304708  1
  Bi  Bi28  1  0.000416  0.911119  0.064336  1
  Bi  Bi29  1  0.499584  0.088881  0.564336  1
  Bi  Bi30  1  0.999584  0.088881  0.935664  1
  Bi  Bi31  1  0.500416  0.911119  0.435664  1
  Mo  Mo32  1  0.493701  0.082479  0.055898  1
  Mo  Mo33  1  0.006299  0.917521  0.555898  1
  Mo  Mo34  1  0.506299  0.917521  0.944102  1
  Mo  Mo35  1  0.993701  0.082479  0.444102  1
  Mo  Mo36  1  0.997508  0.583225  0.067495  1
  Mo  Mo37  1  0.502492  0.416775  0.567495  1
  Mo  Mo38  1  0.002492  0.416775  0.932505  1
  Mo  Mo39  1  0.497508  0.583225  0.432505  1
  Mo  Mo40  1  0.507326  0.766919  0.060962  1
  Mo  Mo41  1  0.992674  0.233081  0.560962  1
  Mo  Mo42  1  0.492674  0.233081  0.939038  1
  Mo  Mo43  1  0.007326  0.766919  0.439038  1
  Mo  Mo44  1  0.515066  0.915700  0.183213  1
  Mo  Mo45  1  0.984934  0.084300  0.683213  1
  Mo  Mo46  1  0.484934  0.084300  0.816787  1
  Mo  Mo47  1  0.015066  0.915700  0.316787  1
  O  O48  1  0.307379  0.023505  0.100562  1
  O  O49  1  0.192621  0.976495  0.600562  1
  O  O50  1  0.692621  0.976495  0.899438  1
  O  O51  1  0.807379  0.023505  0.399438  1
  O  O52  1  0.732586  0.027836  0.021855  1
  O  O53  1  0.767414  0.972164  0.521855  1
  O  O54  1  0.267414  0.972164  0.978145  1
  O  O55  1  0.232586  0.027836  0.478145  1
  O  O56  1  0.751130  0.152911  0.243994  1
  O  O57  1  0.748870  0.847089  0.743994  1
  O  O58  1  0.248870  0.847089  0.756006  1
  O  O59  1  0.251130  0.152911  0.256006  1
  O  O60  1  0.745170  0.326115  0.117830  1
  O  O61  1  0.754830  0.673885  0.617830  1
  O  O62  1  0.254830  0.673885  0.882170  1
  O  O63  1  0.245170  0.326115  0.382170  1
  O  O64  1  0.734377  0.331573  0.249834  1
  O  O65  1  0.765623  0.668427  0.749834  1
  O  O66  1  0.265623  0.668427  0.750166  1
  O  O67  1  0.234377  0.331573  0.250166  1
  O  O68  1  0.124811  0.635989  0.007860  1
  O  O69  1  0.375189  0.364011  0.507860  1
  O  O70  1  0.875189  0.364011  0.992140  1
  O  O71  1  0.624811  0.635989  0.492140  1
  O  O72  1  0.197973  0.511428  0.093063  1
  O  O73  1  0.302027  0.488572  0.593063  1
  O  O74  1  0.802027  0.488572  0.906937  1
  O  O75  1  0.697973  0.511428  0.406937  1
  O  O76  1  0.772117  0.512351  0.251208  1
  O  O77  1  0.727883  0.487649  0.751208  1
  O  O78  1  0.227883  0.487649  0.748792  1
  O  O79  1  0.272117  0.512351  0.248792  1
  O  O80  1  0.742469  0.535615  0.039691  1
  O  O81  1  0.757531  0.464385  0.539691  1
  O  O82  1  0.257531  0.464385  0.960309  1
  O  O83  1  0.242469  0.535615  0.460309  1
  O  O84  1  0.910692  0.638356  0.133070  1
  O  O85  1  0.589308  0.361644  0.633070  1
  O  O86  1  0.089308  0.361644  0.866930  1
  O  O87  1  0.410692  0.638356  0.366930  1
  O  O88  1  0.253751  0.679206  0.248275  1
  O  O89  1  0.246249  0.320794  0.748275  1
  O  O90  1  0.746249  0.320794  0.751725  1
  O  O91  1  0.753751  0.679206  0.251725  1
  O  O92  1  0.625003  0.704795  0.007143  1
  O  O93  1  0.874997  0.295205  0.507143  1
  O  O94  1  0.374997  0.295205  0.992857  1
  O  O95  1  0.125003  0.704795  0.492857  1
  O  O96  1  0.259192  0.819368  0.026335  1
  O  O97  1  0.240808  0.180632  0.526335  1
  O  O98  1  0.740808  0.180632  0.973665  1
  O  O99  1  0.759192  0.819368  0.473665  1
  O  O100  1  0.763521  0.812642  0.100064  1
  O  O101  1  0.736479  0.187358  0.600064  1
  O  O102  1  0.236479  0.187358  0.899936  1
  O  O103  1  0.263521  0.812642  0.399936  1
  O  O104  1  0.627150  0.839272  0.228568  1
  O  O105  1  0.872850  0.160728  0.728568  1
  O  O106  1  0.372850  0.160728  0.771432  1
  O  O107  1  0.127150  0.839272  0.271432  1
  O  O108  1  0.279525  0.872468  0.139131  1
  O  O109  1  0.220475  0.127532  0.639131  1
  O  O110  1  0.720475  0.127532  0.860869  1
  O  O111  1  0.779525  0.872468  0.360869  1
  O  O112  1  0.286098  0.133202  0.007567  1
  O  O113  1  0.213902  0.866798  0.507567  1
  O  O114  1  0.713902  0.866798  0.992433  1
  O  O115  1  0.786098  0.133202  0.492433  1
  O  O116  1  0.108010  0.197467  0.148313  1
  O  O117  1  0.391990  0.802533  0.648313  1
  O  O118  1  0.891990  0.802533  0.851687  1
  O  O119  1  0.608010  0.197467  0.351687  1
  O  O120  1  0.629737  0.150248  0.103590  1
  O  O121  1  0.870263  0.849752  0.603590  1
  O  O122  1  0.370264  0.849752  0.896410  1
  O  O123  1  0.129737  0.150248  0.396410  1
  O  O124  1  0.247188  0.336939  0.116841  1
  O  O125  1  0.252812  0.663061  0.616841  1
  O  O126  1  0.752812  0.663061  0.883159  1
  O  O127  1  0.747188  0.336939  0.383159  1
  O  O128  1  0.602416  0.460255  0.153026  1
  O  O129  1  0.897584  0.539745  0.653026  1
  O  O130  1  0.397584  0.539745  0.846974  1
  O  O131  1  0.102416  0.460255  0.346974  1
  O  O132  1  0.378944  0.707899  0.115212  1
  O  O133  1  0.121056  0.292101  0.615212  1
  O  O134  1  0.621056  0.292101  0.884788  1
  O  O135  1  0.878944  0.707899  0.384788  1
  O  O136  1  0.389201  0.988727  0.227249  1
  O  O137  1  0.110799  0.011273  0.727249  1
  O  O138  1  0.610799  0.011273  0.772751  1
  O  O139  1  0.889201  0.988727  0.272751  1
  O  O140  1  0.759552  0.959183  0.143275  1
  O  O141  1  0.740448  0.040817  0.643275  1
  O  O142  1  0.240449  0.040817  0.856725  1
  O  O143  1  0.259551  0.959183  0.356725  1
