# generated using pymatgen
data_K3CaV5O15
_symmetry_space_group_name_H-M   'P 1'
_cell_length_a   7.96624292
_cell_length_b   15.45800978
_cell_length_c   15.45801000
_cell_angle_alpha   117.65589208
_cell_angle_beta   90.00000000
_cell_angle_gamma   90.00000000
_symmetry_Int_Tables_number   1
_chemical_formula_structural   K3CaV5O15
_chemical_formula_sum   'K12 Ca4 V20 O60'
_cell_volume   1686.05781424
_cell_formula_units_Z   4
loop_
 _symmetry_equiv_pos_site_id
 _symmetry_equiv_pos_as_xyz
  1  'x, y, z'
loop_
 _atom_site_type_symbol
 _atom_site_label
 _atom_site_symmetry_multiplicity
 _atom_site_fract_x
 _atom_site_fract_y
 _atom_site_fract_z
 _atom_site_occupancy
  K  K0  1  0.201363  0.379899  0.379899  1
  K  K1  1  0.201363  0.120101  0.120101  1
  K  K2  1  0.078109  0.399759  0.100240  1
  K  K3  1  0.500000  0.163489  0.836511  1
  K  K4  1  0.798637  0.879899  0.879899  1
  K  K5  1  0.078109  0.100240  0.399759  1
  K  K6  1  0.500000  0.663489  0.336511  1
  K  K7  1  0.921891  0.600240  0.899760  1
  K  K8  1  0.921891  0.899760  0.600240  1
  K  K9  1  0.500000  0.836511  0.163489  1
  K  K10  1  0.500000  0.336511  0.663489  1
  K  K11  1  0.798637  0.620101  0.620101  1
  Ca  Ca12  1  0.000000  0.344933  0.655067  1
  Ca  Ca13  1  0.000000  0.655067  0.344933  1
  Ca  Ca14  1  0.000000  0.155067  0.844933  1
  Ca  Ca15  1  0.000000  0.844933  0.155067  1
  V  V16  1  0.482724  0.154999  0.345001  1
  V  V17  1  0.778606  0.155916  0.021660  1
  V  V18  1  0.276155  0.391265  0.887643  1
  V  V19  1  0.778606  0.478340  0.344084  1
  V  V20  1  0.723845  0.112357  0.608735  1
  V  V21  1  0.276155  0.108735  0.612357  1
  V  V22  1  0.723845  0.387643  0.891265  1
  V  V23  1  0.221394  0.655916  0.521660  1
  V  V24  1  0.276155  0.887643  0.391265  1
  V  V25  1  0.221394  0.844084  0.978340  1
  V  V26  1  0.517276  0.845001  0.654999  1
  V  V27  1  0.276155  0.612357  0.108735  1
  V  V28  1  0.221394  0.521660  0.655916  1
  V  V29  1  0.723845  0.608735  0.112357  1
  V  V30  1  0.778606  0.344084  0.478340  1
  V  V31  1  0.723845  0.891265  0.387643  1
  V  V32  1  0.778606  0.021660  0.155916  1
  V  V33  1  0.517276  0.654999  0.845001  1
  V  V34  1  0.221394  0.978340  0.844084  1
  V  V35  1  0.482724  0.345001  0.154999  1
  O  O36  1  0.558920  0.593559  0.906441  1
  O  O37  1  0.558920  0.906441  0.593559  1
  O  O38  1  0.185695  0.899086  0.298666  1
  O  O39  1  0.248913  0.099920  0.909529  1
  O  O40  1  0.600835  0.422419  0.266630  1
  O  O41  1  0.500000  0.365099  0.865099  1
  O  O42  1  0.248913  0.909529  0.099920  1
  O  O43  1  0.600835  0.077581  0.233370  1
  O  O44  1  0.042067  0.965564  0.782387  1
  O  O45  1  0.042067  0.534436  0.717613  1
  O  O46  1  0.198876  0.394282  0.788033  1
  O  O47  1  0.774802  0.005589  0.494411  1
  O  O48  1  0.198876  0.711967  0.105718  1
  O  O49  1  0.299982  0.186778  0.313222  1
  O  O50  1  0.500000  0.134901  0.634901  1
  O  O51  1  0.248913  0.590471  0.400080  1
  O  O52  1  0.600835  0.266630  0.422419  1
  O  O53  1  0.801124  0.288033  0.894282  1
  O  O54  1  0.441080  0.093559  0.406441  1
  O  O55  1  0.185695  0.600914  0.201334  1
  O  O56  1  0.801124  0.211967  0.605718  1
  O  O57  1  0.399165  0.922419  0.766630  1
  O  O58  1  0.751087  0.900080  0.090471  1
  O  O59  1  0.801124  0.605718  0.211967  1
  O  O60  1  0.198876  0.105718  0.711967  1
  O  O61  1  0.189122  0.930297  0.930297  1
  O  O62  1  0.814305  0.100914  0.701334  1
  O  O63  1  0.957933  0.282387  0.465564  1
  O  O64  1  0.814305  0.399086  0.798666  1
  O  O65  1  0.957933  0.465564  0.282387  1
  O  O66  1  0.751087  0.409529  0.599920  1
  O  O67  1  0.399165  0.766630  0.922419  1
  O  O68  1  0.185695  0.201334  0.600914  1
  O  O69  1  0.810878  0.069703  0.069703  1
  O  O70  1  0.225198  0.505589  0.994411  1
  O  O71  1  0.700018  0.813222  0.686778  1
  O  O72  1  0.185695  0.298666  0.899086  1
  O  O73  1  0.299982  0.313222  0.186778  1
  O  O74  1  0.774802  0.494411  0.005589  1
  O  O75  1  0.500000  0.865099  0.365099  1
  O  O76  1  0.751087  0.599920  0.409529  1
  O  O77  1  0.225198  0.994411  0.505589  1
  O  O78  1  0.957933  0.217613  0.034436  1
  O  O79  1  0.500000  0.634901  0.134901  1
  O  O80  1  0.399165  0.733370  0.577581  1
  O  O81  1  0.700018  0.686778  0.813222  1
  O  O82  1  0.042067  0.717613  0.534436  1
  O  O83  1  0.248913  0.400080  0.590471  1
  O  O84  1  0.600835  0.233370  0.077581  1
  O  O85  1  0.189122  0.569703  0.569703  1
  O  O86  1  0.814305  0.798666  0.399086  1
  O  O87  1  0.801124  0.894282  0.288033  1
  O  O88  1  0.810878  0.430297  0.430297  1
  O  O89  1  0.198876  0.788033  0.394282  1
  O  O90  1  0.042067  0.782387  0.965564  1
  O  O91  1  0.751087  0.090471  0.900080  1
  O  O92  1  0.957933  0.034436  0.217613  1
  O  O93  1  0.399165  0.577581  0.733370  1
  O  O94  1  0.441080  0.406441  0.093559  1
  O  O95  1  0.814305  0.701334  0.100914  1
