# generated using pymatgen
data_MgB2P2H8O13
_symmetry_space_group_name_H-M   'P 1'
_cell_length_a   7.80768439
_cell_length_b   8.34547775
_cell_length_c   14.82632614
_cell_angle_alpha   90.00000000
_cell_angle_beta   90.00000000
_cell_angle_gamma   90.45328222
_symmetry_Int_Tables_number   1
_chemical_formula_structural   MgB2P2H8O13
_chemical_formula_sum   'Mg4 B8 P8 H32 O52'
_cell_volume   966.03622292
_cell_formula_units_Z   4
loop_
 _symmetry_equiv_pos_site_id
 _symmetry_equiv_pos_as_xyz
  1  'x, y, z'
loop_
 _atom_site_type_symbol
 _atom_site_label
 _atom_site_symmetry_multiplicity
 _atom_site_fract_x
 _atom_site_fract_y
 _atom_site_fract_z
 _atom_site_occupancy
  Mg  Mg0  1  0.750798  0.200046  0.464316  1
  Mg  Mg1  1  0.249202  0.299954  0.964316  1
  Mg  Mg2  1  0.249202  0.799954  0.535684  1
  Mg  Mg3  1  0.750798  0.700046  0.035684  1
  B  B4  1  0.083577  0.939238  0.717311  1
  B  B5  1  0.916423  0.560762  0.217311  1
  B  B6  1  0.916423  0.060762  0.282689  1
  B  B7  1  0.083577  0.439238  0.782689  1
  B  B8  1  0.583312  0.226699  0.664335  1
  B  B9  1  0.416688  0.273301  0.164335  1
  B  B10  1  0.416688  0.773301  0.335665  1
  B  B11  1  0.583312  0.726699  0.835665  1
  P  P12  1  0.433330  0.933943  0.713045  1
  P  P13  1  0.566670  0.566057  0.213045  1
  P  P14  1  0.566670  0.066057  0.286955  1
  P  P15  1  0.433330  0.433943  0.786955  1
  P  P16  1  0.934636  0.725216  0.839035  1
  P  P17  1  0.065364  0.774784  0.339035  1
  P  P18  1  0.065364  0.274784  0.160965  1
  P  P19  1  0.934636  0.225216  0.660965  1
  O  O20  1  0.955894  0.698125  0.939569  1
  O  O21  1  0.044106  0.801875  0.439569  1
  O  O22  1  0.044106  0.301875  0.060431  1
  O  O23  1  0.955894  0.198125  0.560431  1
  O  O24  1  0.454668  0.841404  0.803159  1
  O  O25  1  0.545332  0.658596  0.303159  1
  O  O26  1  0.545332  0.158596  0.196841  1
  O  O27  1  0.454668  0.341404  0.696841  1
  O  O28  1  0.451067  0.829944  0.629145  1
  O  O29  1  0.548933  0.670056  0.129145  1
  O  O30  1  0.548933  0.170056  0.370855  1
  O  O31  1  0.451067  0.329944  0.870855  1
  O  O32  1  0.953357  0.569040  0.782165  1
  O  O33  1  0.046643  0.930960  0.282165  1
  O  O34  1  0.046643  0.430960  0.217835  1
  O  O35  1  0.953357  0.069040  0.717835  1
  O  O36  1  0.064392  0.855256  0.806167  1
  O  O37  1  0.935608  0.644744  0.306167  1
  O  O38  1  0.935608  0.144744  0.193833  1
  O  O39  1  0.064392  0.355256  0.693833  1
  O  O40  1  0.566943  0.572959  0.784455  1
  O  O41  1  0.433057  0.927041  0.284455  1
  O  O42  1  0.433057  0.427041  0.215545  1
  O  O43  1  0.566943  0.072959  0.715545  1
  O  O44  1  0.746092  0.484958  0.217506  1
  O  O45  1  0.253908  0.015042  0.717506  1
  O  O46  1  0.253908  0.515042  0.782494  1
  O  O47  1  0.746092  0.984958  0.282494  1
  O  O48  1  0.754779  0.793660  0.815088  1
  O  O49  1  0.245221  0.706340  0.315088  1
  O  O50  1  0.245221  0.206340  0.184912  1
  O  O51  1  0.754779  0.293660  0.684912  1
  O  O52  1  0.931512  0.665485  0.138820  1
  O  O53  1  0.068488  0.834515  0.638820  1
  O  O54  1  0.068488  0.334515  0.861180  1
  O  O55  1  0.931512  0.165485  0.361180  1
  H  H56  1  0.040837  0.724699  0.132854  1
  H  H57  1  0.959163  0.775301  0.632854  1
  H  H58  1  0.959163  0.275301  0.867146  1
  H  H59  1  0.040837  0.224699  0.367146  1
  O  O60  1  0.566750  0.204662  0.567581  1
  O  O61  1  0.433250  0.295338  0.067581  1
  O  O62  1  0.433250  0.795338  0.432419  1
  O  O63  1  0.566750  0.704662  0.932419  1
  H  H64  1  0.451947  0.163867  0.550291  1
  H  H65  1  0.548053  0.336133  0.050291  1
  H  H66  1  0.548053  0.836133  0.449709  1
  H  H67  1  0.451947  0.663867  0.949709  1
  O  O68  1  0.758061  0.946271  0.045017  1
  O  O69  1  0.241939  0.553729  0.545017  1
  O  O70  1  0.241939  0.053729  0.954983  1
  O  O71  1  0.758061  0.446271  0.454983  1
  H  H72  1  0.755036  0.020707  0.992817  1
  H  H73  1  0.244964  0.479293  0.492817  1
  H  H74  1  0.244964  0.979293  0.007183  1
  H  H75  1  0.755036  0.520707  0.507183  1
  H  H76  1  0.790258  0.009063  0.098062  1
  H  H77  1  0.209742  0.490937  0.598062  1
  H  H78  1  0.209742  0.990937  0.901938  1
  H  H79  1  0.790258  0.509063  0.401938  1
  O  O80  1  0.743421  0.438247  0.013027  1
  O  O81  1  0.256579  0.061753  0.513027  1
  O  O82  1  0.256579  0.561753  0.986973  1
  O  O83  1  0.743421  0.938247  0.486973  1
  H  H84  1  0.723508  0.420072  0.948838  1
  H  H85  1  0.276492  0.079928  0.448838  1
  H  H86  1  0.276492  0.579928  0.051162  1
  H  H87  1  0.723508  0.920072  0.551162  1
  H  H88  1  0.854167  0.383341  0.027806  1
  H  H89  1  0.145833  0.116659  0.527806  1
  H  H90  1  0.145833  0.616659  0.972194  1
  H  H91  1  0.854167  0.883341  0.472194  1
  O  O92  1  0.755748  0.145977  0.892984  1
  O  O93  1  0.244252  0.354023  0.392984  1
  O  O94  1  0.244252  0.854023  0.107016  1
  O  O95  1  0.755748  0.645977  0.607016  1
  H  H96  1  0.769538  0.071993  0.842124  1
  H  H97  1  0.230462  0.428007  0.342124  1
  H  H98  1  0.230462  0.928007  0.157876  1
  H  H99  1  0.769538  0.571993  0.657876  1
  H  H100  1  0.641297  0.193530  0.882716  1
  H  H101  1  0.358703  0.306470  0.382716  1
  H  H102  1  0.358703  0.806470  0.117284  1
  H  H103  1  0.641297  0.693530  0.617284  1
