# generated using pymatgen
data_Cr2(Bi2O5)3
_symmetry_space_group_name_H-M   'P 1'
_cell_length_a   5.99156798
_cell_length_b   11.94956102
_cell_length_c   11.94956116
_cell_angle_alpha   115.42900946
_cell_angle_beta   90.00000000
_cell_angle_gamma   90.00000000
_symmetry_Int_Tables_number   1
_chemical_formula_structural   Cr2(Bi2O5)3
_chemical_formula_sum   'Cr4 Bi12 O30'
_cell_volume   772.66083358
_cell_formula_units_Z   2
loop_
 _symmetry_equiv_pos_site_id
 _symmetry_equiv_pos_as_xyz
  1  'x, y, z'
loop_
 _atom_site_type_symbol
 _atom_site_label
 _atom_site_symmetry_multiplicity
 _atom_site_fract_x
 _atom_site_fract_y
 _atom_site_fract_z
 _atom_site_occupancy
  O  O0  1  0.077298  0.221917  0.676034  1
  O  O1  1  0.077298  0.778083  0.323966  1
  O  O2  1  0.577298  0.323966  0.778083  1
  O  O3  1  0.577298  0.676034  0.221917  1
  O  O4  1  0.140032  0.344972  0.531452  1
  O  O5  1  0.140032  0.655028  0.468548  1
  O  O6  1  0.640032  0.468548  0.655028  1
  O  O7  1  0.640032  0.531452  0.344972  1
  O  O8  1  0.949217  0.119949  0.433468  1
  O  O9  1  0.949217  0.880051  0.566532  1
  O  O10  1  0.449217  0.566532  0.880051  1
  O  O11  1  0.449217  0.433468  0.119949  1
  O  O12  1  0.399130  0.146692  0.492735  1
  O  O13  1  0.399130  0.853308  0.507265  1
  O  O14  1  0.899130  0.507265  0.853308  1
  O  O15  1  0.899130  0.492735  0.146692  1
  O  O16  1  0.909973  0.254154  0.249837  1
  O  O17  1  0.909973  0.745846  0.750163  1
  O  O18  1  0.409973  0.750163  0.745846  1
  O  O19  1  0.409973  0.249837  0.254154  1
  O  O20  1  0.889802  0.168713  0.856978  1
  O  O21  1  0.889802  0.831287  0.143022  1
  O  O22  1  0.389802  0.143022  0.831287  1
  O  O23  1  0.389802  0.856978  0.168713  1
  O  O24  1  0.619864  0.942139  0.745801  1
  O  O25  1  0.619864  0.057861  0.254199  1
  O  O26  1  0.119864  0.254199  0.057861  1
  O  O27  1  0.119864  0.745801  0.942139  1
  O  O28  1  0.959692  0.000000  0.000000  1
  O  O29  1  0.459692  0.000000  0.000000  1
  Cr  Cr30  1  0.146001  0.209106  0.534592  1
  Cr  Cr31  1  0.146001  0.790894  0.465408  1
  Cr  Cr32  1  0.646001  0.465408  0.790894  1
  Cr  Cr33  1  0.646001  0.534592  0.209106  1
  Bi  Bi34  1  0.675410  0.247972  0.385249  1
  Bi  Bi35  1  0.675410  0.752028  0.614751  1
  Bi  Bi36  1  0.175410  0.614751  0.752028  1
  Bi  Bi37  1  0.175410  0.385249  0.247972  1
  Bi  Bi38  1  0.669842  0.894254  0.297857  1
  Bi  Bi39  1  0.669842  0.105746  0.702143  1
  Bi  Bi40  1  0.169842  0.702143  0.105746  1
  Bi  Bi41  1  0.169842  0.297857  0.894254  1
  Bi  Bi42  1  0.276034  0.046069  0.171195  1
  Bi  Bi43  1  0.276034  0.953931  0.828805  1
  Bi  Bi44  1  0.776034  0.828805  0.953931  1
  Bi  Bi45  1  0.776034  0.171195  0.046069  1
