# generated using pymatgen
data_Bi14Te13S8
_symmetry_space_group_name_H-M   'P 1'
_cell_length_a   12.39169773
_cell_length_b   12.39169814
_cell_length_c   12.39169743
_cell_angle_alpha   54.33466448
_cell_angle_beta   54.33466331
_cell_angle_gamma   54.33466508
_symmetry_Int_Tables_number   1
_chemical_formula_structural   Bi14Te13S8
_chemical_formula_sum   'Bi14 Te13 S8'
_cell_volume   1167.65849765
_cell_formula_units_Z   1
loop_
 _symmetry_equiv_pos_site_id
 _symmetry_equiv_pos_as_xyz
  1  'x, y, z'
loop_
 _atom_site_type_symbol
 _atom_site_label
 _atom_site_symmetry_multiplicity
 _atom_site_fract_x
 _atom_site_fract_y
 _atom_site_fract_z
 _atom_site_occupancy
  Bi  Bi0  1  0.390927  0.390927  0.390927  1
  Bi  Bi1  1  0.255431  0.112185  0.811031  1
  Bi  Bi2  1  0.609073  0.609073  0.609073  1
  Bi  Bi3  1  0.951039  0.535377  0.679316  1
  Bi  Bi4  1  0.320684  0.048961  0.464623  1
  Bi  Bi5  1  0.811031  0.255431  0.112185  1
  Bi  Bi6  1  0.744569  0.887815  0.188969  1
  Bi  Bi7  1  0.048961  0.464623  0.320684  1
  Bi  Bi8  1  0.679316  0.951039  0.535377  1
  Bi  Bi9  1  0.188969  0.744569  0.887815  1
  Bi  Bi10  1  0.464623  0.320684  0.048961  1
  Bi  Bi11  1  0.112185  0.811031  0.255431  1
  Bi  Bi12  1  0.535377  0.679316  0.951039  1
  Bi  Bi13  1  0.887815  0.188969  0.744569  1
  Te  Te14  1  0.371212  0.489922  0.793247  1
  Te  Te15  1  0.925006  0.061763  0.355085  1
  Te  Te16  1  0.938237  0.644915  0.074994  1
  Te  Te17  1  0.510078  0.206753  0.628788  1
  Te  Te18  1  0.793247  0.371212  0.489922  1
  Te  Te19  1  0.206753  0.628788  0.510078  1
  Te  Te20  1  0.000000  0.000000  0.000000  1
  Te  Te21  1  0.644915  0.074994  0.938237  1
  Te  Te22  1  0.489922  0.793247  0.371212  1
  Te  Te23  1  0.074994  0.938237  0.644915  1
  Te  Te24  1  0.355085  0.925006  0.061763  1
  Te  Te25  1  0.628788  0.510078  0.206753  1
  Te  Te26  1  0.061763  0.355085  0.925006  1
  S  S27  1  0.291959  0.571999  0.138287  1
  S  S28  1  0.765650  0.765650  0.765650  1
  S  S29  1  0.571999  0.138287  0.291959  1
  S  S30  1  0.708041  0.428001  0.861713  1
  S  S31  1  0.428001  0.861713  0.708041  1
  S  S32  1  0.138287  0.291959  0.571999  1
  S  S33  1  0.861713  0.708041  0.428001  1
  S  S34  1  0.234350  0.234350  0.234350  1
