# generated using pymatgen
data_Na2CuSi3O8
_symmetry_space_group_name_H-M   'P 1'
_cell_length_a   8.01281155
_cell_length_b   9.73027584
_cell_length_c   10.41055661
_cell_angle_alpha   90.00006658
_cell_angle_beta   90.00007265
_cell_angle_gamma   105.65603427
_symmetry_Int_Tables_number   1
_chemical_formula_structural   Na2CuSi3O8
_chemical_formula_sum   'Na8 Si12 Cu4 O32'
_cell_volume   781.56448230
_cell_formula_units_Z   4
loop_
 _symmetry_equiv_pos_site_id
 _symmetry_equiv_pos_as_xyz
  1  'x, y, z'
loop_
 _atom_site_type_symbol
 _atom_site_label
 _atom_site_symmetry_multiplicity
 _atom_site_fract_x
 _atom_site_fract_y
 _atom_site_fract_z
 _atom_site_occupancy
  Na  Na0  1  0.205639  0.129016  0.489240  1
  Na  Na1  1  0.205639  0.629016  0.010761  1
  Na  Na2  1  0.794361  0.870984  0.510760  1
  Na  Na3  1  0.196571  0.959410  0.026048  1
  Na  Na4  1  0.794361  0.370984  0.989240  1
  Na  Na5  1  0.196571  0.459410  0.473952  1
  Na  Na6  1  0.803429  0.540590  0.526048  1
  Na  Na7  1  0.803430  0.040591  0.973952  1
  Si  Si8  1  0.616487  0.609015  0.783310  1
  Si  Si9  1  0.383513  0.390985  0.216689  1
  Si  Si10  1  0.618340  0.192611  0.228752  1
  Cu  Cu11  1  0.986248  0.312542  0.728175  1
  Si  Si12  1  0.804591  0.191613  0.477185  1
  Si  Si13  1  0.195409  0.808387  0.522815  1
  Si  Si14  1  0.381661  0.807388  0.771248  1
  Si  Si15  1  0.616487  0.109015  0.716690  1
  Cu  Cu16  1  0.986256  0.812538  0.771824  1
  Cu  Cu17  1  0.013741  0.187462  0.228177  1
  Si  Si18  1  0.383513  0.890985  0.283310  1
  Si  Si19  1  0.381660  0.307389  0.728752  1
  Si  Si20  1  0.804592  0.691613  0.022815  1
  Si  Si21  1  0.618340  0.692611  0.271248  1
  Si  Si22  1  0.195408  0.308386  0.977185  1
  Cu  Cu23  1  0.013754  0.687459  0.271824  1
  O  O24  1  0.102532  0.663125  0.444247  1
  O  O25  1  0.928722  0.115891  0.396705  1
  O  O26  1  0.928723  0.615892  0.103296  1
  O  O27  1  0.298167  0.932149  0.417536  1
  O  O28  1  0.534890  0.957975  0.793731  1
  O  O29  1  0.761008  0.709889  0.690939  1
  O  O30  1  0.458687  0.678457  0.827998  1
  O  O31  1  0.345227  0.273511  0.882275  1
  O  O32  1  0.458687  0.178457  0.672002  1
  O  O33  1  0.654773  0.226489  0.382275  1
  O  O34  1  0.654772  0.726489  0.117725  1
  O  O35  1  0.701833  0.567850  0.917536  1
  O  O36  1  0.238993  0.290110  0.309061  1
  O  O37  1  0.897468  0.336875  0.555753  1
  O  O38  1  0.465110  0.042025  0.206268  1
  O  O39  1  0.534891  0.457974  0.706268  1
  O  O40  1  0.789390  0.189922  0.147931  1
  O  O41  1  0.789391  0.689922  0.352069  1
  O  O42  1  0.541313  0.321543  0.172002  1
  O  O43  1  0.701833  0.067850  0.582464  1
  O  O44  1  0.345227  0.773511  0.617725  1
  O  O45  1  0.071277  0.384108  0.896703  1
  O  O46  1  0.210610  0.810078  0.852069  1
  O  O47  1  0.238994  0.790111  0.190939  1
  O  O48  1  0.210610  0.310078  0.647931  1
  O  O49  1  0.102531  0.163126  0.055755  1
  O  O50  1  0.761007  0.209889  0.809061  1
  O  O51  1  0.897469  0.836874  0.944246  1
  O  O52  1  0.541314  0.821543  0.327998  1
  O  O53  1  0.465109  0.542026  0.293731  1
  O  O54  1  0.298167  0.432150  0.082464  1
  O  O55  1  0.071278  0.884109  0.603295  1
