# generated using pymatgen
data_Nd(IO3)3
_symmetry_space_group_name_H-M   'P 1'
_cell_length_a   6.04699790
_cell_length_b   8.94277077
_cell_length_c   15.54685399
_cell_angle_alpha   96.64981808
_cell_angle_beta   90.00000000
_cell_angle_gamma   90.00000000
_symmetry_Int_Tables_number   1
_chemical_formula_structural   Nd(IO3)3
_chemical_formula_sum   'Nd4 I12 O36'
_cell_volume   835.06989554
_cell_formula_units_Z   4
loop_
 _symmetry_equiv_pos_site_id
 _symmetry_equiv_pos_as_xyz
  1  'x, y, z'
loop_
 _atom_site_type_symbol
 _atom_site_label
 _atom_site_symmetry_multiplicity
 _atom_site_fract_x
 _atom_site_fract_y
 _atom_site_fract_z
 _atom_site_occupancy
  Nd  Nd0  1  0.269788  0.539605  0.399807  1
  Nd  Nd1  1  0.230212  0.039605  0.899807  1
  Nd  Nd2  1  0.769788  0.960395  0.100193  1
  Nd  Nd3  1  0.730212  0.460395  0.600193  1
  I  I4  1  0.313266  0.217754  0.148402  1
  I  I5  1  0.863439  0.336541  0.977271  1
  I  I6  1  0.410019  0.385148  0.802152  1
  I  I7  1  0.363439  0.163459  0.522729  1
  I  I8  1  0.686734  0.782246  0.851598  1
  I  I9  1  0.136561  0.663459  0.022729  1
  I  I10  1  0.589981  0.614852  0.197848  1
  I  I11  1  0.910019  0.114852  0.697848  1
  I  I12  1  0.186734  0.717754  0.648402  1
  I  I13  1  0.813266  0.282246  0.351598  1
  I  I14  1  0.089981  0.885148  0.302152  1
  I  I15  1  0.636561  0.836541  0.477271  1
  O  O16  1  0.086172  0.050299  0.383995  1
  O  O17  1  0.033220  0.282259  0.880496  1
  O  O18  1  0.413828  0.550299  0.883995  1
  O  O19  1  0.966780  0.717741  0.119504  1
  O  O20  1  0.413760  0.912168  0.553769  1
  O  O21  1  0.183277  0.088673  0.745117  1
  O  O22  1  0.592796  0.866523  0.959148  1
  O  O23  1  0.466780  0.782259  0.380496  1
  O  O24  1  0.606135  0.424811  0.329322  1
  O  O25  1  0.106135  0.075189  0.170678  1
  O  O26  1  0.092796  0.633477  0.540852  1
  O  O27  1  0.533220  0.217741  0.619504  1
  O  O28  1  0.499471  0.763121  0.131616  1
  O  O29  1  0.500529  0.236879  0.868384  1
  O  O30  1  0.086240  0.412168  0.053769  1
  O  O31  1  0.949160  0.639310  0.702255  1
  O  O32  1  0.913760  0.587832  0.946231  1
  O  O33  1  0.000529  0.263121  0.631616  1
  O  O34  1  0.900393  0.143165  0.009269  1
  O  O35  1  0.913828  0.949701  0.616005  1
  O  O36  1  0.586240  0.087832  0.446231  1
  O  O37  1  0.400393  0.356835  0.490731  1
  O  O38  1  0.316723  0.588673  0.245117  1
  O  O39  1  0.683277  0.411327  0.754883  1
  O  O40  1  0.449160  0.860690  0.797745  1
  O  O41  1  0.050840  0.360690  0.297745  1
  O  O42  1  0.550840  0.139310  0.202255  1
  O  O43  1  0.599607  0.643165  0.509269  1
  O  O44  1  0.099607  0.856835  0.990731  1
  O  O45  1  0.893865  0.924811  0.829322  1
  O  O46  1  0.816723  0.911327  0.254883  1
  O  O47  1  0.407204  0.133477  0.040852  1
  O  O48  1  0.999471  0.736879  0.368384  1
  O  O49  1  0.393865  0.575189  0.670678  1
  O  O50  1  0.586172  0.449701  0.116005  1
  O  O51  1  0.907204  0.366523  0.459148  1
