# generated using pymatgen
data_DySiRu2C
_symmetry_space_group_name_H-M   'P 1'
_cell_length_a   3.80916414
_cell_length_b   5.88310404
_cell_length_c   7.15535077
_cell_angle_alpha   90.00000000
_cell_angle_beta   90.00000000
_cell_angle_gamma   108.88911131
_symmetry_Int_Tables_number   1
_chemical_formula_structural   DySiRu2C
_chemical_formula_sum   'Dy2 Si2 Ru4 C2'
_cell_volume   151.71401973
_cell_formula_units_Z   2
loop_
 _symmetry_equiv_pos_site_id
 _symmetry_equiv_pos_as_xyz
  1  'x, y, z'
loop_
 _atom_site_type_symbol
 _atom_site_label
 _atom_site_symmetry_multiplicity
 _atom_site_fract_x
 _atom_site_fract_y
 _atom_site_fract_z
 _atom_site_occupancy
  Dy  Dy0  1  0.047536  0.095071  0.750000  1
  Dy  Dy1  1  0.952464  0.904929  0.250000  1
  Si  Si2  1  0.231164  0.462328  0.250000  1
  Si  Si3  1  0.768836  0.537672  0.750000  1
  Ru  Ru4  1  0.335992  0.671984  0.943156  1
  Ru  Ru5  1  0.335992  0.671984  0.556844  1
  Ru  Ru6  1  0.664008  0.328016  0.056844  1
  Ru  Ru7  1  0.664008  0.328016  0.443156  1
  C  C8  1  0.500000  0.000000  0.000000  1
  C  C9  1  0.500000  0.000000  0.500000  1
