# generated using pymatgen
data_Ca36Sn23
_symmetry_space_group_name_H-M   'P 1'
_cell_length_a   12.59466708
_cell_length_b   12.59466708
_cell_length_c   23.10763740
_cell_angle_alpha   90.00000000
_cell_angle_beta   90.00000000
_cell_angle_gamma   90.00000000
_symmetry_Int_Tables_number   1
_chemical_formula_structural   Ca36Sn23
_chemical_formula_sum   'Ca72 Sn46'
_cell_volume   3665.46374503
_cell_formula_units_Z   2
loop_
 _symmetry_equiv_pos_site_id
 _symmetry_equiv_pos_as_xyz
  1  'x, y, z'
loop_
 _atom_site_type_symbol
 _atom_site_label
 _atom_site_symmetry_multiplicity
 _atom_site_fract_x
 _atom_site_fract_y
 _atom_site_fract_z
 _atom_site_occupancy
  Ca  Ca0  1  0.417499  0.283288  0.500000  1
  Ca  Ca1  1  0.000000  0.500000  0.279516  1
  Ca  Ca2  1  0.582501  0.716712  0.500000  1
  Ca  Ca3  1  0.211100  0.943576  0.092008  1
  Ca  Ca4  1  0.286495  0.413204  0.630979  1
  Ca  Ca5  1  0.213505  0.913204  0.369021  1
  Ca  Ca6  1  0.211799  0.076761  0.238191  1
  Ca  Ca7  1  0.500000  0.000000  0.279516  1
  Ca  Ca8  1  0.076761  0.788201  0.238191  1
  Ca  Ca9  1  0.788899  0.056424  0.907992  1
  Ca  Ca10  1  0.286495  0.413204  0.369021  1
  Ca  Ca11  1  0.413204  0.713505  0.630979  1
  Ca  Ca12  1  0.213505  0.913204  0.630979  1
  Ca  Ca13  1  0.576761  0.711799  0.238191  1
  Ca  Ca14  1  0.288899  0.443576  0.092008  1
  Ca  Ca15  1  0.788201  0.923239  0.238191  1
  Ca  Ca16  1  0.786495  0.086796  0.369021  1
  Ca  Ca17  1  0.216712  0.082501  0.500000  1
  Ca  Ca18  1  0.943576  0.788899  0.092008  1
  Ca  Ca19  1  0.500000  0.000000  0.720484  1
  Ca  Ca20  1  0.923239  0.211799  0.761809  1
  Ca  Ca21  1  0.786495  0.086796  0.630979  1
  Ca  Ca22  1  0.556424  0.288899  0.907992  1
  Ca  Ca23  1  0.943576  0.788899  0.907992  1
  Ca  Ca24  1  0.443576  0.711101  0.907992  1
  Ca  Ca25  1  0.288201  0.576761  0.238191  1
  Ca  Ca26  1  0.716712  0.417499  0.500000  1
  Ca  Ca27  1  0.288201  0.576761  0.761809  1
  Ca  Ca28  1  0.788899  0.056424  0.092008  1
  Ca  Ca29  1  0.211100  0.943576  0.907992  1
  Ca  Ca30  1  0.000000  0.500000  0.720484  1
  Ca  Ca31  1  0.713505  0.586796  0.630979  1
  Ca  Ca32  1  0.056424  0.211100  0.092008  1
  Ca  Ca33  1  0.783288  0.917499  0.500000  1
  Ca  Ca34  1  0.586796  0.286495  0.630979  1
  Ca  Ca35  1  0.576761  0.711799  0.761809  1
  Ca  Ca36  1  0.913204  0.786495  0.630979  1
  Ca  Ca37  1  0.423239  0.288201  0.761809  1
  Ca  Ca38  1  0.713505  0.586796  0.369021  1
  Ca  Ca39  1  0.000000  0.500000  0.872813  1
  Ca  Ca40  1  0.500000  0.000000  0.428316  1
  Ca  Ca41  1  0.283288  0.582501  0.500000  1
  Ca  Ca42  1  0.000000  0.500000  0.127187  1
  Ca  Ca43  1  0.076761  0.788201  0.761809  1
  Ca  Ca44  1  0.056424  0.211100  0.907992  1
  Ca  Ca45  1  0.917499  0.216712  0.500000  1
  Ca  Ca46  1  0.000000  0.500000  0.571684  1
  Ca  Ca47  1  0.086796  0.213505  0.630979  1
  Ca  Ca48  1  0.586796  0.286495  0.369021  1
  Ca  Ca49  1  0.211799  0.076761  0.761809  1
  Ca  Ca50  1  0.711101  0.556424  0.092008  1
  Ca  Ca51  1  0.500000  0.000000  0.872813  1
  Ca  Ca52  1  0.835136  0.335136  0.000000  1
  Ca  Ca53  1  0.000000  0.500000  0.428316  1
  Ca  Ca54  1  0.500000  0.000000  0.571684  1
  Ca  Ca55  1  0.923239  0.211799  0.238191  1
  Ca  Ca56  1  0.788201  0.923239  0.761809  1
  Ca  Ca57  1  0.664864  0.835136  0.000000  1
  Ca  Ca58  1  0.082501  0.783288  0.500000  1
  Ca  Ca59  1  0.443576  0.711101  0.092008  1
  Ca  Ca60  1  0.413204  0.713505  0.369021  1
  Ca  Ca61  1  0.556424  0.288899  0.092008  1
  Ca  Ca62  1  0.913204  0.786495  0.369021  1
  Ca  Ca63  1  0.086796  0.213505  0.369021  1
  Ca  Ca64  1  0.335136  0.164864  0.000000  1
  Ca  Ca65  1  0.164864  0.664864  0.000000  1
  Ca  Ca66  1  0.711799  0.423239  0.761809  1
  Ca  Ca67  1  0.711799  0.423239  0.238191  1
  Ca  Ca68  1  0.500000  0.000000  0.127187  1
  Ca  Ca69  1  0.423239  0.288201  0.238191  1
  Ca  Ca70  1  0.288899  0.443576  0.907992  1
  Ca  Ca71  1  0.711101  0.556424  0.907992  1
  Sn  Sn72  1  0.162703  0.337297  0.215511  1
  Sn  Sn73  1  0.837297  0.662703  0.784489  1
  Sn  Sn74  1  0.162703  0.337297  0.784489  1
  Sn  Sn75  1  0.196419  0.696419  0.130294  1
  Sn  Sn76  1  0.000000  0.000000  0.835654  1
  Sn  Sn77  1  0.342575  0.842575  0.500000  1
  Sn  Sn78  1  0.653040  0.846960  0.360906  1
  Sn  Sn79  1  0.837297  0.662703  0.215511  1
  Sn  Sn80  1  0.653040  0.846960  0.639094  1
  Sn  Sn81  1  0.846960  0.346960  0.639094  1
  Sn  Sn82  1  0.303581  0.196419  0.130294  1
  Sn  Sn83  1  0.000000  0.000000  0.566136  1
  Sn  Sn84  1  0.662703  0.162703  0.215511  1
  Sn  Sn85  1  0.662703  0.162703  0.784489  1
  Sn  Sn86  1  0.153040  0.653040  0.360906  1
  Sn  Sn87  1  0.803581  0.303581  0.869706  1
  Sn  Sn88  1  0.346960  0.153040  0.639094  1
  Sn  Sn89  1  0.346960  0.153040  0.360906  1
  Sn  Sn90  1  0.842575  0.657425  0.500000  1
  Sn  Sn91  1  0.696419  0.803581  0.130294  1
  Sn  Sn92  1  0.087587  0.412413  0.000000  1
  Sn  Sn93  1  0.657425  0.157425  0.500000  1
  Sn  Sn94  1  0.303581  0.196419  0.869706  1
  Sn  Sn95  1  0.196419  0.696419  0.869706  1
  Sn  Sn96  1  0.500000  0.500000  0.698709  1
  Sn  Sn97  1  0.000000  0.000000  0.301291  1
  Sn  Sn98  1  0.912413  0.587587  0.000000  1
  Sn  Sn99  1  0.500000  0.500000  0.301291  1
  Sn  Sn100  1  0.500000  0.500000  0.835654  1
  Sn  Sn101  1  0.587587  0.087587  0.000000  1
  Sn  Sn102  1  0.500000  0.500000  0.000000  1
  Sn  Sn103  1  0.000000  0.000000  0.000000  1
  Sn  Sn104  1  0.157425  0.342575  0.500000  1
  Sn  Sn105  1  0.412413  0.912413  0.000000  1
  Sn  Sn106  1  0.000000  0.000000  0.698709  1
  Sn  Sn107  1  0.337297  0.837297  0.215511  1
  Sn  Sn108  1  0.803581  0.303581  0.130294  1
  Sn  Sn109  1  0.337297  0.837297  0.784489  1
  Sn  Sn110  1  0.696419  0.803581  0.869706  1
  Sn  Sn111  1  0.000000  0.000000  0.433864  1
  Sn  Sn112  1  0.153040  0.653040  0.639094  1
  Sn  Sn113  1  0.000000  0.000000  0.164346  1
  Sn  Sn114  1  0.500000  0.500000  0.566136  1
  Sn  Sn115  1  0.500000  0.500000  0.164346  1
  Sn  Sn116  1  0.500000  0.500000  0.433864  1
  Sn  Sn117  1  0.846960  0.346960  0.360906  1
