# generated using pymatgen
data_KClO3
_symmetry_space_group_name_H-M   'P 1'
_cell_length_a   4.52920243
_cell_length_b   4.52971179
_cell_length_c   4.52971185
_cell_angle_alpha   80.01566392
_cell_angle_beta   80.01390740
_cell_angle_gamma   80.01390362
_symmetry_Int_Tables_number   1
_chemical_formula_structural   KClO3
_chemical_formula_sum   'K1 Cl1 O3'
_cell_volume   89.14767438
_cell_formula_units_Z   1
loop_
 _symmetry_equiv_pos_site_id
 _symmetry_equiv_pos_as_xyz
  1  'x, y, z'
loop_
 _atom_site_type_symbol
 _atom_site_label
 _atom_site_symmetry_multiplicity
 _atom_site_fract_x
 _atom_site_fract_y
 _atom_site_fract_z
 _atom_site_occupancy
  O  O0  1  0.171140  0.587248  0.587248  1
  K  K1  1  0.018538  0.018537  0.018537  1
  O  O2  1  0.587271  0.171047  0.587262  1
  O  O3  1  0.587271  0.587262  0.171047  1
  Cl  Cl4  1  0.510779  0.510906  0.510906  1
