# generated using pymatgen
data_K2CuH12(SeO7)2
_symmetry_space_group_name_H-M   'P 1'
_cell_length_a   6.44849337
_cell_length_b   9.21339032
_cell_length_c   12.39953269
_cell_angle_alpha   90.00000000
_cell_angle_beta   90.00000000
_cell_angle_gamma   102.60164570
_symmetry_Int_Tables_number   1
_chemical_formula_structural   K2CuH12(SeO7)2
_chemical_formula_sum   'K4 Cu2 H24 Se4 O28'
_cell_volume   718.94064098
_cell_formula_units_Z   2
loop_
 _symmetry_equiv_pos_site_id
 _symmetry_equiv_pos_as_xyz
  1  'x, y, z'
loop_
 _atom_site_type_symbol
 _atom_site_label
 _atom_site_symmetry_multiplicity
 _atom_site_fract_x
 _atom_site_fract_y
 _atom_site_fract_z
 _atom_site_occupancy
  K  K0  1  0.654732  0.355452  0.837124  1
  K  K1  1  0.654732  0.855452  0.662876  1
  K  K2  1  0.345268  0.144548  0.337124  1
  K  K3  1  0.345268  0.644548  0.162876  1
  Cu  Cu4  1  0.000000  0.000000  0.000000  1
  Cu  Cu5  1  0.000000  0.500000  0.500000  1
  H  H6  1  0.313881  0.022267  0.864237  1
  H  H7  1  0.922191  0.741276  0.097132  1
  H  H8  1  0.694014  0.615696  0.443926  1
  H  H9  1  0.005120  0.868355  0.185269  1
  H  H10  1  0.994880  0.131645  0.814731  1
  H  H11  1  0.882800  0.235082  0.631555  1
  H  H12  1  0.670965  0.277707  0.590843  1
  H  H13  1  0.117200  0.764918  0.368445  1
  H  H14  1  0.313881  0.522267  0.635763  1
  H  H15  1  0.994880  0.631645  0.685269  1
  H  H16  1  0.077809  0.258724  0.902868  1
  H  H17  1  0.005120  0.368355  0.314731  1
  H  H18  1  0.922191  0.241276  0.402868  1
  H  H19  1  0.670965  0.777707  0.909157  1
  H  H20  1  0.077809  0.758724  0.597132  1
  H  H21  1  0.694014  0.115696  0.056074  1
  H  H22  1  0.305986  0.384304  0.556074  1
  H  H23  1  0.329035  0.222293  0.090843  1
  H  H24  1  0.686119  0.477733  0.364237  1
  H  H25  1  0.686119  0.977733  0.135763  1
  H  H26  1  0.882800  0.735082  0.868445  1
  H  H27  1  0.305986  0.884304  0.943926  1
  H  H28  1  0.117200  0.264918  0.131555  1
  H  H29  1  0.329035  0.722293  0.409157  1
  Se  Se30  1  0.262525  0.577761  0.860525  1
  Se  Se31  1  0.737475  0.922239  0.360525  1
  Se  Se32  1  0.737475  0.422239  0.139475  1
  Se  Se33  1  0.262525  0.077761  0.639475  1
  O  O34  1  0.723518  0.513475  0.439912  1
  O  O35  1  0.810188  0.318705  0.624404  1
  O  O36  1  0.421440  0.083190  0.747547  1
  O  O37  1  0.578560  0.916810  0.252453  1
  O  O38  1  0.249898  0.917871  0.573783  1
  O  O39  1  0.970223  0.663168  0.609822  1
  O  O40  1  0.029777  0.836832  0.109822  1
  O  O41  1  0.019285  0.593983  0.819676  1
  O  O42  1  0.750102  0.082129  0.426217  1
  O  O43  1  0.371822  0.718307  0.942980  1
  O  O44  1  0.628178  0.781693  0.442980  1
  O  O45  1  0.810188  0.818705  0.875596  1
  O  O46  1  0.189812  0.181295  0.124404  1
  O  O47  1  0.750102  0.582129  0.073783  1
  O  O48  1  0.970223  0.163168  0.890178  1
  O  O49  1  0.578560  0.416810  0.247547  1
  O  O50  1  0.189812  0.681295  0.375596  1
  O  O51  1  0.019285  0.093983  0.680324  1
  O  O52  1  0.980715  0.406017  0.180324  1
  O  O53  1  0.371822  0.218307  0.557020  1
  O  O54  1  0.421440  0.583190  0.752453  1
  O  O55  1  0.249898  0.417871  0.926217  1
  O  O56  1  0.276482  0.486525  0.560088  1
  O  O57  1  0.723518  0.013475  0.060088  1
  O  O58  1  0.980715  0.906017  0.319676  1
  O  O59  1  0.628178  0.281693  0.057020  1
  O  O60  1  0.276482  0.986525  0.939912  1
  O  O61  1  0.029777  0.336832  0.390178  1
