# generated using pymatgen
data_Hf2Ni2Sn
_symmetry_space_group_name_H-M   'P 1'
_cell_length_a   6.78695195
_cell_length_b   7.06883109
_cell_length_c   7.06883109
_cell_angle_alpha   90.00000000
_cell_angle_beta   90.00000000
_cell_angle_gamma   90.00000000
_symmetry_Int_Tables_number   1
_chemical_formula_structural   Hf2Ni2Sn
_chemical_formula_sum   'Hf8 Ni8 Sn4'
_cell_volume   339.13294643
_cell_formula_units_Z   4
loop_
 _symmetry_equiv_pos_site_id
 _symmetry_equiv_pos_as_xyz
  1  'x, y, z'
loop_
 _atom_site_type_symbol
 _atom_site_label
 _atom_site_symmetry_multiplicity
 _atom_site_fract_x
 _atom_site_fract_y
 _atom_site_fract_z
 _atom_site_occupancy
  Hf  Hf0  1  0.000000  0.180865  0.180865  1
  Hf  Hf1  1  0.500000  0.319135  0.680865  1
  Hf  Hf2  1  0.500000  0.680865  0.319135  1
  Hf  Hf3  1  0.000000  0.819135  0.819135  1
  Hf  Hf4  1  0.000000  0.347677  0.652323  1
  Hf  Hf5  1  0.500000  0.847677  0.847677  1
  Hf  Hf6  1  0.500000  0.152323  0.152323  1
  Hf  Hf7  1  0.000000  0.652323  0.347677  1
  Ni  Ni8  1  0.284401  0.373738  0.373738  1
  Ni  Ni9  1  0.784401  0.126262  0.873738  1
  Ni  Ni10  1  0.784401  0.873738  0.126262  1
  Ni  Ni11  1  0.284401  0.626262  0.626262  1
  Ni  Ni12  1  0.215599  0.873738  0.126262  1
  Ni  Ni13  1  0.215599  0.126262  0.873738  1
  Ni  Ni14  1  0.715599  0.373738  0.373738  1
  Ni  Ni15  1  0.715599  0.626262  0.626262  1
  Sn  Sn16  1  0.250000  0.000000  0.500000  1
  Sn  Sn17  1  0.750000  0.000000  0.500000  1
  Sn  Sn18  1  0.250000  0.500000  0.000000  1
  Sn  Sn19  1  0.750000  0.500000  0.000000  1
