# generated using pymatgen
data_Rb15Hg16
_symmetry_space_group_name_H-M   'P 1'
_cell_length_a   15.33773720
_cell_length_b   15.33773725
_cell_length_c   15.33773724
_cell_angle_alpha   105.04022973
_cell_angle_beta   111.73112050
_cell_angle_gamma   111.73112284
_symmetry_Int_Tables_number   1
_chemical_formula_structural   Rb15Hg16
_chemical_formula_sum   'Rb30 Hg32'
_cell_volume   2765.21848350
_cell_formula_units_Z   2
loop_
 _symmetry_equiv_pos_site_id
 _symmetry_equiv_pos_as_xyz
  1  'x, y, z'
loop_
 _atom_site_type_symbol
 _atom_site_label
 _atom_site_symmetry_multiplicity
 _atom_site_fract_x
 _atom_site_fract_y
 _atom_site_fract_z
 _atom_site_occupancy
  Rb  Rb0  1  0.255633  0.362231  0.568911  1
  Rb  Rb1  1  0.023212  0.670980  0.686834  1
  Rb  Rb2  1  0.206681  0.068911  0.313279  1
  Rb  Rb3  1  0.015855  0.186834  0.663623  1
  Rb  Rb4  1  0.454961  0.368269  0.864530  1
  Rb  Rb5  1  0.954961  0.090431  0.086692  1
  Rb  Rb6  1  0.996262  0.586692  0.131731  1
  Rb  Rb7  1  0.250000  0.631179  0.381179  1
  Rb  Rb8  1  0.250000  0.875000  0.625000  1
  Rb  Rb9  1  0.496262  0.364530  0.409569  1
  Rb  Rb10  1  0.976788  0.329020  0.313166  1
  Rb  Rb11  1  0.250000  0.118821  0.868821  1
  Rb  Rb12  1  0.744367  0.637769  0.431089  1
  Rb  Rb13  1  0.244367  0.813279  0.106598  1
  Rb  Rb14  1  0.755633  0.186721  0.893402  1
  Rb  Rb15  1  0.545039  0.631731  0.135470  1
  Rb  Rb16  1  0.750000  0.881179  0.131179  1
  Rb  Rb17  1  0.045039  0.909569  0.913308  1
  Rb  Rb18  1  0.515855  0.852232  0.829020  1
  Rb  Rb19  1  0.793319  0.931089  0.686721  1
  Rb  Rb20  1  0.476788  0.163623  0.647768  1
  Rb  Rb21  1  0.750000  0.368821  0.618821  1
  Rb  Rb22  1  0.003738  0.413308  0.868269  1
  Rb  Rb23  1  0.750000  0.125000  0.375000  1
  Rb  Rb24  1  0.706681  0.393402  0.137769  1
  Rb  Rb25  1  0.293319  0.606598  0.862231  1
  Rb  Rb26  1  0.484145  0.147768  0.170980  1
  Rb  Rb27  1  0.503738  0.635470  0.590431  1
  Rb  Rb28  1  0.523212  0.836377  0.352232  1
  Rb  Rb29  1  0.984145  0.813166  0.336377  1
  Hg  Hg30  1  0.996656  0.081506  0.399577  1
  Hg  Hg31  1  0.740441  0.612940  0.037487  1
  Hg  Hg32  1  0.259559  0.387060  0.962513  1
  Hg  Hg33  1  0.507962  0.915831  0.597356  1
  Hg  Hg34  1  0.240441  0.202954  0.127501  1
  Hg  Hg35  1  0.003344  0.918494  0.600423  1
  Hg  Hg36  1  0.181930  0.584850  0.581506  1
  Hg  Hg37  1  0.818070  0.415150  0.418494  1
  Hg  Hg38  1  0.496656  0.097079  0.915150  1
  Hg  Hg39  1  0.935859  0.797992  0.060783  1
  Hg  Hg40  1  0.181525  0.092131  0.584169  1
  Hg  Hg41  1  0.992038  0.589395  0.407869  1
  Hg  Hg42  1  0.762790  0.637866  0.702008  1
  Hg  Hg43  1  0.435859  0.375076  0.137866  1
  Hg  Hg44  1  0.503344  0.902921  0.084850  1
  Hg  Hg45  1  0.575452  0.462513  0.702954  1
  Hg  Hg46  1  0.237210  0.362134  0.297992  1
  Hg  Hg47  1  0.737210  0.439217  0.875076  1
  Hg  Hg48  1  0.759559  0.797046  0.872499  1
  Hg  Hg49  1  0.318475  0.902644  0.910605  1
  Hg  Hg50  1  0.564141  0.624924  0.862134  1
  Hg  Hg51  1  0.818475  0.907869  0.415831  1
  Hg  Hg52  1  0.424548  0.537487  0.297046  1
  Hg  Hg53  1  0.262790  0.560783  0.124924  1
  Hg  Hg54  1  0.681930  0.100423  0.597079  1
  Hg  Hg55  1  0.075452  0.372499  0.112940  1
  Hg  Hg56  1  0.007962  0.410605  0.592131  1
  Hg  Hg57  1  0.681525  0.097356  0.089395  1
  Hg  Hg58  1  0.924548  0.627501  0.887060  1
  Hg  Hg59  1  0.064141  0.202008  0.939217  1
  Hg  Hg60  1  0.318070  0.899577  0.402921  1
  Hg  Hg61  1  0.492038  0.084169  0.402644  1
