# generated using pymatgen
data_Al17Mo4
_symmetry_space_group_name_H-M   'P 1'
_cell_length_a   4.93835749
_cell_length_b   5.21598715
_cell_length_c   28.90900702
_cell_angle_alpha   85.53829413
_cell_angle_beta   85.10027939
_cell_angle_gamma   61.74563588
_symmetry_Int_Tables_number   1
_chemical_formula_structural   Al17Mo4
_chemical_formula_sum   'Al34 Mo8'
_cell_volume   652.93911800
_cell_formula_units_Z   2
loop_
 _symmetry_equiv_pos_site_id
 _symmetry_equiv_pos_as_xyz
  1  'x, y, z'
loop_
 _atom_site_type_symbol
 _atom_site_label
 _atom_site_symmetry_multiplicity
 _atom_site_fract_x
 _atom_site_fract_y
 _atom_site_fract_z
 _atom_site_occupancy
  Al  Al0  1  0.611288  0.502991  0.242886  1
  Al  Al1  1  0.652810  0.500000  0.500000  1
  Al  Al2  1  0.255750  0.160179  0.644485  1
  Al  Al3  1  0.551647  0.885440  0.049390  1
  Al  Al4  1  0.137327  0.612070  0.450521  1
  Al  Al5  1  0.199919  0.387930  0.549479  1
  Al  Al6  1  0.368741  0.597272  0.664306  1
  Al  Al7  1  0.060413  0.839821  0.355515  1
  Al  Al8  1  0.500981  0.246513  0.119635  1
  Al  Al9  1  0.486477  0.114560  0.950610  1
  Al  Al10  1  0.082651  0.997370  0.256204  1
  Al  Al11  1  0.078952  0.783824  0.093918  1
  Al  Al12  1  0.224087  0.071154  0.477189  1
  Al  Al13  1  0.464540  0.427451  0.022852  1
  Al  Al14  1  0.956694  0.216176  0.906082  1
  Al  Al15  1  0.323128  0.903704  0.836581  1
  Al  Al16  1  0.772430  0.928846  0.522811  1
  Al  Al17  1  0.631055  0.656953  0.144251  1
  Al  Al18  1  0.336225  0.002630  0.743796  1
  Al  Al19  1  0.730442  0.284086  0.594061  1
  Al  Al20  1  0.036486  1.000000  0.000000  1
  Al  Al21  1  0.063413  0.096296  0.163419  1
  Al  Al22  1  0.914843  0.572549  0.977148  1
  Al  Al23  1  0.135080  0.550775  0.195926  1
  Al  Al24  1  0.867129  0.753487  0.880365  1
  Al  Al25  1  0.881781  0.449225  0.804074  1
  Al  Al26  1  0.608589  0.715914  0.405939  1
  Al  Al27  1  0.432259  0.343047  0.855749  1
  Al  Al28  1  0.630319  0.402728  0.335694  1
  Al  Al29  1  0.357165  0.497009  0.757114  1
  Al  Al30  1  0.810868  0.051014  0.696937  1
  Al  Al31  1  0.822089  0.747391  0.620364  1
  Al  Al32  1  0.189844  0.252609  0.379636  1
  Al  Al33  1  0.558818  0.948986  0.303063  1
  Mo  Mo34  1  0.817949  0.985730  0.791134  1
  Mo  Mo35  1  0.988201  0.336915  0.070307  1
  Mo  Mo36  1  0.293689  0.838007  0.570518  1
  Mo  Mo37  1  0.702215  0.161993  0.429482  1
  Mo  Mo38  1  0.874940  0.514420  0.709769  1
  Mo  Mo39  1  0.395423  0.663085  0.929693  1
  Mo  Mo40  1  0.594813  0.014270  0.208866  1
  Mo  Mo41  1  0.099129  0.485580  0.290231  1
