# generated using pymatgen
data_Zn2SiO4
_symmetry_space_group_name_H-M   'P 1'
_cell_length_a   5.83625088
_cell_length_b   5.83625083
_cell_length_c   5.83625113
_cell_angle_alpha   60.00000439
_cell_angle_beta   60.00000465
_cell_angle_gamma   60.00000290
_symmetry_Int_Tables_number   1
_chemical_formula_structural   Zn2SiO4
_chemical_formula_sum   'Zn4 Si2 O8'
_cell_volume   140.56814507
_cell_formula_units_Z   2
loop_
 _symmetry_equiv_pos_site_id
 _symmetry_equiv_pos_as_xyz
  1  'x, y, z'
loop_
 _atom_site_type_symbol
 _atom_site_label
 _atom_site_symmetry_multiplicity
 _atom_site_fract_x
 _atom_site_fract_y
 _atom_site_fract_z
 _atom_site_occupancy
  Zn  Zn0  1  0.500000  0.000000  0.500000  1
  Zn  Zn1  1  0.000000  0.500000  0.500000  1
  Zn  Zn2  1  0.500000  0.500000  0.500000  1
  Zn  Zn3  1  0.500000  0.500000  0.000000  1
  Si  Si4  1  0.875000  0.875000  0.875000  1
  Si  Si5  1  0.125000  0.125000  0.125000  1
  O  O6  1  0.242274  0.242274  0.773179  1
  O  O7  1  0.773179  0.242274  0.242274  1
  O  O8  1  0.757726  0.226821  0.757726  1
  O  O9  1  0.242274  0.242274  0.242274  1
  O  O10  1  0.757726  0.757726  0.226821  1
  O  O11  1  0.242274  0.773179  0.242274  1
  O  O12  1  0.226821  0.757726  0.757726  1
  O  O13  1  0.757726  0.757726  0.757726  1
