# generated using pymatgen
data_SiO2
_symmetry_space_group_name_H-M   'P 1'
_cell_length_a   8.58189222
_cell_length_b   15.78795916
_cell_length_c   15.78795937
_cell_angle_alpha   75.36387297
_cell_angle_beta   74.22942832
_cell_angle_gamma   74.22942635
_symmetry_Int_Tables_number   1
_chemical_formula_structural   SiO2
_chemical_formula_sum   'Si32 O64'
_cell_volume   1943.83178152
_cell_formula_units_Z   32
loop_
 _symmetry_equiv_pos_site_id
 _symmetry_equiv_pos_as_xyz
  1  'x, y, z'
loop_
 _atom_site_type_symbol
 _atom_site_label
 _atom_site_symmetry_multiplicity
 _atom_site_fract_x
 _atom_site_fract_y
 _atom_site_fract_z
 _atom_site_occupancy
  Si  Si0  1  0.290348  0.127631  0.424473  1
  Si  Si1  1  0.342452  0.872369  0.575527  1
  Si  Si2  1  0.682211  0.883560  0.883560  1
  Si  Si3  1  0.812705  0.253763  0.253763  1
  Si  Si4  1  0.949332  0.116440  0.116440  1
  Si  Si5  1  0.501566  0.078726  0.792323  1
  Si  Si6  1  0.872615  0.207677  0.921274  1
  Si  Si7  1  0.127385  0.078726  0.792323  1
  Si  Si8  1  0.317789  0.116440  0.116440  1
  Si  Si9  1  0.290348  0.424473  0.127631  1
  Si  Si10  1  0.266572  0.390908  0.943558  1
  Si  Si11  1  0.657548  0.127631  0.424473  1
  Si  Si12  1  0.733428  0.056441  0.609092  1
  Si  Si13  1  0.898961  0.943558  0.390908  1
  Si  Si14  1  0.342452  0.575527  0.872369  1
  Si  Si15  1  0.498434  0.207677  0.921274  1
  Si  Si16  1  0.872615  0.921274  0.207677  1
  Si  Si17  1  0.709652  0.575527  0.872369  1
  Si  Si18  1  0.498434  0.921274  0.207677  1
  Si  Si19  1  0.501566  0.792323  0.078726  1
  Si  Si20  1  0.101039  0.056441  0.609092  1
  Si  Si21  1  0.820231  0.746237  0.746237  1
  Si  Si22  1  0.187295  0.746237  0.746237  1
  Si  Si23  1  0.127385  0.792323  0.078726  1
  Si  Si24  1  0.898961  0.390908  0.943558  1
  Si  Si25  1  0.657548  0.424473  0.127631  1
  Si  Si26  1  0.101039  0.609092  0.056441  1
  Si  Si27  1  0.050668  0.883560  0.883560  1
  Si  Si28  1  0.709652  0.872369  0.575527  1
  Si  Si29  1  0.266572  0.943558  0.390908  1
  Si  Si30  1  0.179769  0.253763  0.253763  1
  Si  Si31  1  0.733428  0.609092  0.056441  1
  O  O32  1  0.072674  0.384234  0.970418  1
  O  O33  1  0.107313  0.842417  0.977899  1
  O  O34  1  0.729047  0.814951  0.814951  1
  O  O35  1  0.855278  0.872618  0.484188  1
  O  O36  1  0.855278  0.484188  0.872618  1
  O  O37  1  0.500000  0.849232  0.150768  1
  O  O38  1  0.324138  0.034790  0.387995  1
  O  O39  1  0.427628  0.022101  0.157583  1
  O  O40  1  0.572372  0.977899  0.842417  1
  O  O41  1  0.020029  0.729971  0.729971  1
  O  O42  1  0.500000  0.150768  0.849232  1
  O  O43  1  0.380458  0.898341  0.306658  1
  O  O44  1  0.703123  0.349082  0.213307  1
  O  O45  1  0.892687  0.022101  0.157583  1
  O  O46  1  0.572372  0.842417  0.977899  1
  O  O47  1  0.765512  0.786693  0.650918  1
  O  O48  1  0.927326  0.615766  0.029582  1
  O  O49  1  0.144722  0.127382  0.515812  1
  O  O50  1  0.765512  0.650918  0.786693  1
  O  O51  1  0.296877  0.786693  0.650918  1
  O  O52  1  0.427628  0.157583  0.022101  1
  O  O53  1  0.459016  0.447068  0.134900  1
  O  O54  1  0.914543  0.898341  0.306658  1
  O  O55  1  0.144722  0.515812  0.127382  1
  O  O56  1  0.270953  0.185049  0.185049  1
  O  O57  1  0.540984  0.552932  0.865100  1
  O  O58  1  0.459016  0.134900  0.447068  1
  O  O59  1  0.234488  0.213307  0.349082  1
  O  O60  1  0.684354  0.913297  0.217995  1
  O  O61  1  0.712084  0.127382  0.515812  1
  O  O62  1  0.287916  0.872618  0.484188  1
  O  O63  1  0.753077  0.387995  0.034790  1
  O  O64  1  0.914543  0.306658  0.898341  1
  O  O65  1  0.000000  0.150768  0.849232  1
  O  O66  1  0.324138  0.387995  0.034790  1
  O  O67  1  0.315646  0.782005  0.086703  1
  O  O68  1  0.675862  0.965210  0.612005  1
  O  O69  1  0.315646  0.086703  0.782005  1
  O  O70  1  0.675862  0.612005  0.965210  1
  O  O71  1  0.712084  0.515812  0.127382  1
  O  O72  1  0.287916  0.484188  0.872618  1
  O  O73  1  0.246923  0.965210  0.612005  1
  O  O74  1  0.684354  0.217995  0.913297  1
  O  O75  1  0.849872  0.900128  0.900128  1
  O  O76  1  0.246923  0.612005  0.965210  1
  O  O77  1  0.141052  0.814951  0.814951  1
  O  O78  1  0.858948  0.185049  0.185049  1
  O  O79  1  0.085457  0.101659  0.693342  1
  O  O80  1  0.085457  0.693342  0.101659  1
  O  O81  1  0.150128  0.099872  0.099872  1
  O  O82  1  0.619542  0.693342  0.101659  1
  O  O83  1  0.072674  0.970418  0.384234  1
  O  O84  1  0.107313  0.977899  0.842417  1
  O  O85  1  0.703123  0.213307  0.349082  1
  O  O86  1  1.000000  0.849232  0.150768  1
  O  O87  1  0.296877  0.650918  0.786693  1
  O  O88  1  0.234488  0.349082  0.213307  1
  O  O89  1  0.380458  0.306658  0.898341  1
  O  O90  1  0.892687  0.157583  0.022101  1
  O  O91  1  0.753077  0.034790  0.387995  1
  O  O92  1  0.540984  0.865100  0.552932  1
  O  O93  1  0.619542  0.101659  0.693342  1
  O  O94  1  0.979971  0.270029  0.270029  1
  O  O95  1  0.927326  0.029582  0.615766  1
