# generated using pymatgen
data_CsMn2V2ClO7
_symmetry_space_group_name_H-M   'P 1'
_cell_length_a   5.40708156
_cell_length_b   5.64635844
_cell_length_c   15.19370240
_cell_angle_alpha   90.00000000
_cell_angle_beta   90.00000000
_cell_angle_gamma   90.00000000
_symmetry_Int_Tables_number   1
_chemical_formula_structural   CsMn2V2ClO7
_chemical_formula_sum   'Cs2 Mn4 V4 Cl2 O14'
_cell_volume   463.86860540
_cell_formula_units_Z   2
loop_
 _symmetry_equiv_pos_site_id
 _symmetry_equiv_pos_as_xyz
  1  'x, y, z'
loop_
 _atom_site_type_symbol
 _atom_site_label
 _atom_site_symmetry_multiplicity
 _atom_site_fract_x
 _atom_site_fract_y
 _atom_site_fract_z
 _atom_site_occupancy
  Cs  Cs0  1  0.896427  0.963335  0.250000  1
  Cs  Cs1  1  0.896427  0.036665  0.750000  1
  Mn  Mn2  1  0.926557  0.500000  0.000000  1
  Mn  Mn3  1  0.307565  0.000000  0.500000  1
  Mn  Mn4  1  0.926557  0.500000  0.500000  1
  Mn  Mn5  1  0.307565  0.000000  0.000000  1
  V  V6  1  0.399770  0.517015  0.863638  1
  V  V7  1  0.399770  0.482985  0.136362  1
  V  V8  1  0.399770  0.482985  0.363638  1
  V  V9  1  0.399770  0.517015  0.636362  1
  Cl  Cl10  1  0.788658  0.000000  0.500000  1
  Cl  Cl11  1  0.788658  0.000000  0.000000  1
  O  O12  1  0.708365  0.501761  0.612737  1
  O  O13  1  0.296917  0.800030  0.880323  1
  O  O14  1  0.230280  0.324700  0.931212  1
  O  O15  1  0.708365  0.498239  0.387263  1
  O  O16  1  0.296917  0.199970  0.380323  1
  O  O17  1  0.350709  0.425253  0.750000  1
  O  O18  1  0.230280  0.324700  0.568788  1
  O  O19  1  0.350709  0.574747  0.250000  1
  O  O20  1  0.230280  0.675300  0.068788  1
  O  O21  1  0.296917  0.800030  0.619677  1
  O  O22  1  0.708365  0.498239  0.112737  1
  O  O23  1  0.296917  0.199970  0.119677  1
  O  O24  1  0.708365  0.501761  0.887263  1
  O  O25  1  0.230280  0.675300  0.431212  1
