# generated using pymatgen
data_NaCe(PO3)4
_symmetry_space_group_name_H-M   'P 1'
_cell_length_a   7.33986131
_cell_length_b   10.10763759
_cell_length_c   13.33945452
_cell_angle_alpha   90.00000000
_cell_angle_beta   90.00000000
_cell_angle_gamma   90.17697558
_symmetry_Int_Tables_number   1
_chemical_formula_structural   NaCe(PO3)4
_chemical_formula_sum   'Na4 Ce4 P16 O48'
_cell_volume   989.63150980
_cell_formula_units_Z   4
loop_
 _symmetry_equiv_pos_site_id
 _symmetry_equiv_pos_as_xyz
  1  'x, y, z'
loop_
 _atom_site_type_symbol
 _atom_site_label
 _atom_site_symmetry_multiplicity
 _atom_site_fract_x
 _atom_site_fract_y
 _atom_site_fract_z
 _atom_site_occupancy
  Na  Na0  1  0.500781  0.934742  0.779815  1
  Na  Na1  1  0.499219  0.065258  0.220185  1
  Na  Na2  1  0.999219  0.565258  0.279815  1
  Na  Na3  1  0.000781  0.434742  0.720185  1
  Ce  Ce4  1  0.986019  0.023467  0.781689  1
  Ce  Ce5  1  0.486019  0.523467  0.718311  1
  Ce  Ce6  1  0.513981  0.476533  0.281689  1
  Ce  Ce7  1  0.013981  0.976533  0.218311  1
  P  P8  1  0.249390  0.742999  0.400344  1
  P  P9  1  0.881868  0.264243  0.385829  1
  P  P10  1  0.618132  0.235757  0.885829  1
  P  P11  1  0.770861  0.697676  0.089914  1
  P  P12  1  0.143358  0.305902  0.127110  1
  P  P13  1  0.749390  0.242999  0.099656  1
  P  P14  1  0.381868  0.764243  0.114171  1
  P  P15  1  0.250610  0.757001  0.900344  1
  P  P16  1  0.856642  0.694098  0.872890  1
  P  P17  1  0.729139  0.802324  0.589914  1
  P  P18  1  0.750610  0.257001  0.599656  1
  P  P19  1  0.643358  0.805902  0.372890  1
  P  P20  1  0.356642  0.194098  0.627110  1
  P  P21  1  0.118132  0.735757  0.614171  1
  P  P22  1  0.229139  0.302324  0.910086  1
  P  P23  1  0.270861  0.197676  0.410086  1
  O  O24  1  0.096016  0.794380  0.335850  1
  O  O25  1  0.711090  0.897648  0.292309  1
  O  O26  1  0.426555  0.831849  0.378514  1
  O  O27  1  0.909815  0.712041  0.579939  1
  O  O28  1  0.369018  0.653123  0.188053  1
  O  O29  1  0.713651  0.864960  0.478654  1
  O  O30  1  0.630982  0.346877  0.811947  1
  O  O31  1  0.409815  0.212041  0.920061  1
  O  O32  1  0.819132  0.839713  0.865803  1
  O  O33  1  0.130982  0.846877  0.688053  1
  O  O34  1  0.212962  0.788600  0.513847  1
  O  O35  1  0.287038  0.711400  0.013847  1
  O  O36  1  0.926555  0.331849  0.121486  1
  O  O37  1  0.073445  0.668151  0.878514  1
  O  O38  1  0.590185  0.787959  0.079939  1
  O  O39  1  0.242713  0.083600  0.339540  1
  O  O40  1  0.927465  0.789932  0.110360  1
  O  O41  1  0.190605  0.602646  0.644642  1
  O  O42  1  0.572535  0.710068  0.610360  1
  O  O43  1  0.257287  0.416400  0.839540  1
  O  O44  1  0.809395  0.397354  0.355358  1
  O  O45  1  0.180868  0.160287  0.134197  1
  O  O46  1  0.787038  0.211400  0.486153  1
  O  O47  1  0.286632  0.596818  0.392916  1
  O  O48  1  0.403984  0.705620  0.835850  1
  O  O49  1  0.309395  0.897354  0.144642  1
  O  O50  1  0.319132  0.339713  0.634197  1
  O  O51  1  0.680868  0.660287  0.365803  1
  O  O52  1  0.786349  0.635040  0.978654  1
  O  O53  1  0.288910  0.102352  0.707691  1
  O  O54  1  0.211090  0.397648  0.207691  1
  O  O55  1  0.742713  0.583600  0.160460  1
  O  O56  1  0.213368  0.903182  0.892916  1
  O  O57  1  0.690605  0.102646  0.855358  1
  O  O58  1  0.713368  0.403182  0.607084  1
  O  O59  1  0.573445  0.168151  0.621486  1
  O  O60  1  0.903984  0.205620  0.664150  1
  O  O61  1  0.786632  0.096818  0.107084  1
  O  O62  1  0.712962  0.288600  0.986153  1
  O  O63  1  0.757287  0.916400  0.660460  1
  O  O64  1  0.427465  0.289932  0.389640  1
  O  O65  1  0.788910  0.602352  0.792309  1
  O  O66  1  0.286349  0.135040  0.521346  1
  O  O67  1  0.090185  0.287959  0.420061  1
  O  O68  1  0.596016  0.294380  0.164150  1
  O  O69  1  0.072535  0.210068  0.889640  1
  O  O70  1  0.213651  0.364960  0.021346  1
  O  O71  1  0.869018  0.153123  0.311947  1
