# generated using pymatgen
data_CaMn3O6
_symmetry_space_group_name_H-M   'P 1'
_cell_length_a   8.73587941
_cell_length_b   9.65453612
_cell_length_c   11.29373212
_cell_angle_alpha   90.00000000
_cell_angle_beta   90.00000000
_cell_angle_gamma   107.31940412
_symmetry_Int_Tables_number   1
_chemical_formula_structural   CaMn3O6
_chemical_formula_sum   'Ca8 Mn24 O48'
_cell_volume   909.33575158
_cell_formula_units_Z   8
loop_
 _symmetry_equiv_pos_site_id
 _symmetry_equiv_pos_as_xyz
  1  'x, y, z'
loop_
 _atom_site_type_symbol
 _atom_site_label
 _atom_site_symmetry_multiplicity
 _atom_site_fract_x
 _atom_site_fract_y
 _atom_site_fract_z
 _atom_site_occupancy
  Ca  Ca0  1  0.192332  0.745489  0.161054  1
  Ca  Ca1  1  0.807668  0.254511  0.838946  1
  Ca  Ca2  1  0.307668  0.754511  0.661054  1
  Ca  Ca3  1  0.692332  0.245489  0.338946  1
  Ca  Ca4  1  0.806020  0.742272  0.163939  1
  Ca  Ca5  1  0.693980  0.757728  0.663939  1
  Ca  Ca6  1  0.193980  0.257728  0.836061  1
  Ca  Ca7  1  0.306020  0.242272  0.336061  1
  Mn  Mn8  1  0.059180  0.930509  0.880025  1
  Mn  Mn9  1  0.227666  0.431326  0.606372  1
  Mn  Mn10  1  0.940820  0.069491  0.119975  1
  Mn  Mn11  1  0.440820  0.569491  0.380025  1
  Mn  Mn12  1  0.391200  0.915063  0.399548  1
  Mn  Mn13  1  0.272334  0.068674  0.106372  1
  Mn  Mn14  1  0.108800  0.584937  0.899548  1
  Mn  Mn15  1  0.772334  0.568674  0.393628  1
  Mn  Mn16  1  0.899627  0.447028  0.618985  1
  Mn  Mn17  1  0.891200  0.415063  0.100452  1
  Mn  Mn18  1  0.727666  0.931326  0.893628  1
  Mn  Mn19  1  0.100373  0.552972  0.381015  1
  Mn  Mn20  1  0.399627  0.947028  0.881015  1
  Mn  Mn21  1  0.559180  0.430509  0.619975  1
  Mn  Mn22  1  0.600373  0.052972  0.118985  1
  Mn  Mn23  1  0.608800  0.084937  0.600452  1
  Mn  Mn24  1  0.446215  0.589036  0.903731  1
  Mn  Mn25  1  0.221753  0.415545  0.095541  1
  Mn  Mn26  1  0.721753  0.915545  0.404459  1
  Mn  Mn27  1  0.946214  0.089036  0.596269  1
  Mn  Mn28  1  0.053785  0.910964  0.403731  1
  Mn  Mn29  1  0.778247  0.584455  0.904459  1
  Mn  Mn30  1  0.278247  0.084455  0.595541  1
  Mn  Mn31  1  0.553786  0.410964  0.096269  1
  O  O32  1  0.458374  0.128139  0.483161  1
  O  O33  1  0.112768  0.569827  0.577564  1
  O  O34  1  0.808139  0.196524  0.154162  1
  O  O35  1  0.343556  0.291927  0.651505  1
  O  O36  1  0.541626  0.871861  0.516839  1
  O  O37  1  0.739308  0.470107  0.204081  1
  O  O38  1  0.191861  0.803476  0.845838  1
  O  O39  1  0.387232  0.930173  0.077564  1
  O  O40  1  0.958374  0.628139  0.016839  1
  O  O41  1  0.260692  0.529893  0.795919  1
  O  O42  1  0.734773  0.928058  0.081606  1
  O  O43  1  0.902599  0.957427  0.298242  1
  O  O44  1  0.714846  0.388965  0.980309  1
  O  O45  1  0.097401  0.042573  0.701758  1
  O  O46  1  0.285154  0.611035  0.019691  1
  O  O47  1  0.484621  0.201855  0.159955  1
  O  O48  1  0.041626  0.371861  0.983161  1
  O  O49  1  0.597401  0.542573  0.798242  1
  O  O50  1  0.156444  0.208073  0.151505  1
  O  O51  1  0.441830  0.573658  0.587393  1
  O  O52  1  0.919884  0.521913  0.799146  1
  O  O53  1  0.239308  0.970107  0.295919  1
  O  O54  1  0.785154  0.111035  0.480309  1
  O  O55  1  0.887232  0.430173  0.422436  1
  O  O56  1  0.941830  0.073658  0.912607  1
  O  O57  1  0.843556  0.791927  0.848495  1
  O  O58  1  0.123317  0.116289  0.480936  1
  O  O59  1  0.612768  0.069827  0.922436  1
  O  O60  1  0.515379  0.798145  0.840045  1
  O  O61  1  0.234773  0.428058  0.418394  1
  O  O62  1  0.623317  0.616289  0.019064  1
  O  O63  1  0.015379  0.298145  0.659955  1
  O  O64  1  0.760692  0.029893  0.704081  1
  O  O65  1  0.558170  0.426342  0.412607  1
  O  O66  1  0.308139  0.696524  0.345838  1
  O  O67  1  0.984621  0.701855  0.340045  1
  O  O68  1  0.765227  0.571942  0.581606  1
  O  O69  1  0.580116  0.978087  0.299146  1
  O  O70  1  0.376683  0.383711  0.980936  1
  O  O71  1  0.876683  0.883711  0.519064  1
  O  O72  1  0.214846  0.888965  0.519691  1
  O  O73  1  0.058170  0.926342  0.087393  1
  O  O74  1  0.656444  0.708073  0.348495  1
  O  O75  1  0.691861  0.303476  0.654162  1
  O  O76  1  0.265227  0.071942  0.918394  1
  O  O77  1  0.080116  0.478087  0.200854  1
  O  O78  1  0.402599  0.457427  0.201758  1
  O  O79  1  0.419884  0.021913  0.700854  1
