# generated using pymatgen
data_NaW6CCl18
_symmetry_space_group_name_H-M   'P 1'
_cell_length_a   9.27185496
_cell_length_b   9.27185519
_cell_length_c   18.06025673
_cell_angle_alpha   90.00000000
_cell_angle_beta   90.00000000
_cell_angle_gamma   119.99999915
_symmetry_Int_Tables_number   1
_chemical_formula_structural   NaW6CCl18
_chemical_formula_sum   'Na2 W12 C2 Cl36'
_cell_volume   1344.58364548
_cell_formula_units_Z   2
loop_
 _symmetry_equiv_pos_site_id
 _symmetry_equiv_pos_as_xyz
  1  'x, y, z'
loop_
 _atom_site_type_symbol
 _atom_site_label
 _atom_site_symmetry_multiplicity
 _atom_site_fract_x
 _atom_site_fract_y
 _atom_site_fract_z
 _atom_site_occupancy
  Na  Na0  1  0.000000  0.000000  0.000000  1
  Na  Na1  1  0.000000  0.000000  0.500000  1
  W  W2  1  0.304233  0.485772  0.166820  1
  W  W3  1  0.695767  0.514228  0.666820  1
  W  W4  1  0.181539  0.695767  0.166820  1
  W  W5  1  0.485772  0.181539  0.833180  1
  W  W6  1  0.514228  0.818461  0.166820  1
  W  W7  1  0.181539  0.695767  0.333180  1
  W  W8  1  0.304233  0.485772  0.333180  1
  W  W9  1  0.818461  0.304233  0.833180  1
  W  W10  1  0.514228  0.818461  0.333180  1
  W  W11  1  0.485772  0.181539  0.666820  1
  W  W12  1  0.695767  0.514228  0.833180  1
  W  W13  1  0.818461  0.304233  0.666820  1
  C  C14  1  0.666667  0.333333  0.750000  1
  C  C15  1  0.333333  0.666667  0.250000  1
  Cl  Cl16  1  0.735165  0.765021  0.897389  1
  Cl  Cl17  1  0.802645  0.087599  0.750000  1
  Cl  Cl18  1  0.431567  0.949281  0.750000  1
  Cl  Cl19  1  0.970144  0.735165  0.102611  1
  Cl  Cl20  1  0.368860  0.889770  0.076960  1
  Cl  Cl21  1  0.029856  0.264835  0.897389  1
  Cl  Cl22  1  0.889770  0.520910  0.923040  1
  Cl  Cl23  1  0.234979  0.970144  0.897389  1
  Cl  Cl24  1  0.368860  0.889770  0.423040  1
  Cl  Cl25  1  0.479090  0.368860  0.576960  1
  Cl  Cl26  1  0.631140  0.110230  0.576960  1
  Cl  Cl27  1  0.087599  0.284954  0.250000  1
  Cl  Cl28  1  0.517714  0.568433  0.750000  1
  Cl  Cl29  1  0.520910  0.631140  0.423040  1
  Cl  Cl30  1  0.479090  0.368860  0.923040  1
  Cl  Cl31  1  0.264835  0.234979  0.102611  1
  Cl  Cl32  1  0.050719  0.482286  0.750000  1
  Cl  Cl33  1  0.520910  0.631140  0.076960  1
  Cl  Cl34  1  0.568433  0.050719  0.250000  1
  Cl  Cl35  1  0.110230  0.479090  0.076960  1
  Cl  Cl36  1  0.482286  0.431567  0.250000  1
  Cl  Cl37  1  0.264835  0.234979  0.397389  1
  Cl  Cl38  1  0.631140  0.110230  0.923040  1
  Cl  Cl39  1  0.765021  0.029856  0.397389  1
  Cl  Cl40  1  0.765021  0.029856  0.102611  1
  Cl  Cl41  1  0.949281  0.517714  0.250000  1
  Cl  Cl42  1  0.234979  0.970144  0.602611  1
  Cl  Cl43  1  0.889770  0.520910  0.576960  1
  Cl  Cl44  1  0.029856  0.264835  0.602611  1
  Cl  Cl45  1  0.197355  0.912401  0.250000  1
  Cl  Cl46  1  0.912401  0.715046  0.750000  1
  Cl  Cl47  1  0.970144  0.735165  0.397389  1
  Cl  Cl48  1  0.715046  0.802645  0.250000  1
  Cl  Cl49  1  0.110230  0.479090  0.423040  1
  Cl  Cl50  1  0.284954  0.197355  0.750000  1
  Cl  Cl51  1  0.735165  0.765021  0.602611  1
