# generated using pymatgen
data_CsCa2Nb3O10
_symmetry_space_group_name_H-M   'P 1'
_cell_length_a   7.82522482
_cell_length_b   7.83452282
_cell_length_c   31.03140601
_cell_angle_alpha   90.00000000
_cell_angle_beta   90.00000000
_cell_angle_gamma   90.00000000
_symmetry_Int_Tables_number   1
_chemical_formula_structural   CsCa2Nb3O10
_chemical_formula_sum   'Cs8 Ca16 Nb24 O80'
_cell_volume   1902.43938033
_cell_formula_units_Z   8
loop_
 _symmetry_equiv_pos_site_id
 _symmetry_equiv_pos_as_xyz
  1  'x, y, z'
loop_
 _atom_site_type_symbol
 _atom_site_label
 _atom_site_symmetry_multiplicity
 _atom_site_fract_x
 _atom_site_fract_y
 _atom_site_fract_z
 _atom_site_occupancy
  Cs  Cs0  1  0.737382  0.750000  0.254246  1
  Cs  Cs1  1  0.253365  0.750000  0.745155  1
  Cs  Cs2  1  0.237382  0.250000  0.245754  1
  Cs  Cs3  1  0.246635  0.750000  0.245155  1
  Cs  Cs4  1  0.262618  0.250000  0.745754  1
  Cs  Cs5  1  0.762618  0.750000  0.754246  1
  Cs  Cs6  1  0.753365  0.250000  0.754845  1
  Cs  Cs7  1  0.746635  0.250000  0.254845  1
  Ca  Ca8  1  0.261991  0.750000  0.575765  1
  Ca  Ca9  1  0.761991  0.250000  0.924235  1
  Ca  Ca10  1  0.276121  0.750000  0.430549  1
  Ca  Ca11  1  0.257368  0.250000  0.068153  1
  Ca  Ca12  1  0.715974  0.750000  0.073334  1
  Ca  Ca13  1  0.742632  0.750000  0.931847  1
  Ca  Ca14  1  0.284026  0.250000  0.926666  1
  Ca  Ca15  1  0.238009  0.750000  0.075765  1
  Ca  Ca16  1  0.784026  0.750000  0.573334  1
  Ca  Ca17  1  0.757368  0.750000  0.431847  1
  Ca  Ca18  1  0.723879  0.250000  0.569451  1
  Ca  Ca19  1  0.215974  0.250000  0.426666  1
  Ca  Ca20  1  0.242632  0.250000  0.568153  1
  Ca  Ca21  1  0.776121  0.250000  0.069451  1
  Ca  Ca22  1  0.223879  0.750000  0.930549  1
  Ca  Ca23  1  0.738009  0.250000  0.424235  1
  Nb  Nb24  1  0.500000  0.500000  0.500000  1
  Nb  Nb25  1  0.488894  0.497091  0.360602  1
  Nb  Nb26  1  0.496719  0.004122  0.139514  1
  Nb  Nb27  1  0.511106  0.502909  0.639398  1
  Nb  Nb28  1  0.500000  0.500000  0.000000  1
  Nb  Nb29  1  0.988894  0.502909  0.139398  1
  Nb  Nb30  1  0.011106  0.497091  0.860602  1
  Nb  Nb31  1  0.503281  0.995878  0.860486  1
  Nb  Nb32  1  0.011106  0.002909  0.860602  1
  Nb  Nb33  1  0.000000  0.000000  0.500000  1
  Nb  Nb34  1  0.511106  0.997091  0.639398  1
  Nb  Nb35  1  0.000000  0.500000  0.500000  1
  Nb  Nb36  1  0.000000  0.500000  0.000000  1
  Nb  Nb37  1  0.996719  0.995878  0.360486  1
  Nb  Nb38  1  0.003281  0.495878  0.639514  1
  Nb  Nb39  1  0.488894  0.002909  0.360602  1
  Nb  Nb40  1  0.988894  0.997091  0.139398  1
  Nb  Nb41  1  0.503281  0.504122  0.860486  1
  Nb  Nb42  1  0.500000  0.000000  0.000000  1
  Nb  Nb43  1  0.000000  0.000000  0.000000  1
  Nb  Nb44  1  0.496719  0.495878  0.139514  1
  Nb  Nb45  1  0.996719  0.504122  0.360486  1
  Nb  Nb46  1  0.003281  0.004122  0.639514  1
  Nb  Nb47  1  0.500000  0.000000  0.500000  1
  O  O48  1  0.982684  0.026782  0.696825  1
  O  O49  1  0.257418  0.988904  0.882893  1
  O  O50  1  0.742582  0.488904  0.117107  1
  O  O51  1  0.257042  0.983005  0.633072  1
  O  O52  1  0.749798  0.560181  0.511056  1
  O  O53  1  0.452470  0.547487  0.061065  1
  O  O54  1  0.071256  0.750000  0.009092  1
  O  O55  1  0.968797  0.547920  0.938286  1
  O  O56  1  0.021939  0.250000  0.882831  1
  O  O57  1  0.047530  0.952513  0.561065  1
  O  O58  1  0.250202  0.439819  0.488944  1
  O  O59  1  0.047530  0.547487  0.561065  1
  O  O60  1  0.517316  0.026782  0.196825  1
  O  O61  1  0.465494  0.026643  0.303348  1
  O  O62  1  0.996744  0.250000  0.134524  1
  O  O63  1  0.257418  0.511096  0.882893  1
  O  O64  1  0.952470  0.452513  0.438935  1
  O  O65  1  0.742958  0.483005  0.366928  1
  O  O66  1  0.017817  0.250000  0.618593  1
  O  O67  1  0.484645  0.250000  0.866424  1
  O  O68  1  0.249798  0.439819  0.988944  1
  O  O69  1  0.017316  0.973218  0.303175  1
  O  O70  1  0.928744  0.250000  0.990908  1
  O  O71  1  0.034506  0.473357  0.803348  1
  O  O72  1  0.547530  0.047487  0.938935  1
  O  O73  1  0.531203  0.952080  0.438286  1
  O  O74  1  0.478061  0.250000  0.382831  1
  O  O75  1  0.965494  0.973357  0.196652  1
  O  O76  1  0.952470  0.047487  0.438935  1
  O  O77  1  0.757042  0.016995  0.866928  1
  O  O78  1  0.034506  0.026643  0.803348  1
  O  O79  1  0.750202  0.939819  0.011056  1
  O  O80  1  0.503256  0.250000  0.634524  1
  O  O81  1  0.496744  0.750000  0.365476  1
  O  O82  1  0.482183  0.250000  0.118593  1
  O  O83  1  0.742582  0.011096  0.117107  1
  O  O84  1  0.757042  0.483005  0.866928  1
  O  O85  1  0.547530  0.452513  0.938935  1
  O  O86  1  0.457674  0.750000  0.983307  1
  O  O87  1  0.465494  0.473357  0.303348  1
  O  O88  1  0.542326  0.250000  0.016693  1
  O  O89  1  0.003256  0.750000  0.865476  1
  O  O90  1  0.984645  0.750000  0.633576  1
  O  O91  1  0.242958  0.983005  0.133072  1
  O  O92  1  0.017316  0.526782  0.303175  1
  O  O93  1  0.757418  0.488904  0.617107  1
  O  O94  1  0.015355  0.250000  0.366424  1
  O  O95  1  0.978061  0.750000  0.117169  1
  O  O96  1  0.534506  0.526643  0.696652  1
  O  O97  1  0.982183  0.750000  0.381407  1
  O  O98  1  0.242582  0.511096  0.382893  1
  O  O99  1  0.482684  0.526782  0.803175  1
  O  O100  1  0.031203  0.047920  0.061714  1
  O  O101  1  0.749798  0.939819  0.511056  1
  O  O102  1  0.468797  0.047920  0.561714  1
  O  O103  1  0.249798  0.060181  0.988944  1
  O  O104  1  0.515355  0.750000  0.133576  1
  O  O105  1  0.742958  0.016995  0.366928  1
  O  O106  1  0.257042  0.516995  0.633072  1
  O  O107  1  0.468797  0.452080  0.561714  1
  O  O108  1  0.042326  0.750000  0.483307  1
  O  O109  1  0.482684  0.973218  0.803175  1
  O  O110  1  0.242958  0.516995  0.133072  1
  O  O111  1  0.521939  0.750000  0.617169  1
  O  O112  1  0.757418  0.011096  0.617107  1
  O  O113  1  0.957674  0.250000  0.516693  1
  O  O114  1  0.982684  0.473218  0.696825  1
  O  O115  1  0.250202  0.060181  0.488944  1
  O  O116  1  0.571256  0.250000  0.490908  1
  O  O117  1  0.517316  0.473218  0.196825  1
  O  O118  1  0.968797  0.952080  0.938286  1
  O  O119  1  0.531203  0.547920  0.438286  1
  O  O120  1  0.517817  0.750000  0.881407  1
  O  O121  1  0.750202  0.560181  0.011056  1
  O  O122  1  0.534506  0.973357  0.696652  1
  O  O123  1  0.452470  0.952513  0.061065  1
  O  O124  1  0.242582  0.988904  0.382893  1
  O  O125  1  0.965494  0.526643  0.196652  1
  O  O126  1  0.428744  0.750000  0.509092  1
  O  O127  1  0.031203  0.452080  0.061714  1
