# generated using pymatgen
data_SmTiClO3
_symmetry_space_group_name_H-M   'P 1'
_cell_length_a   3.97445962
_cell_length_b   5.30972760
_cell_length_c   10.13725756
_cell_angle_alpha   75.09639565
_cell_angle_beta   78.69496983
_cell_angle_gamma   68.02129062
_symmetry_Int_Tables_number   1
_chemical_formula_structural   SmTiClO3
_chemical_formula_sum   'Sm2 Ti2 Cl2 O6'
_cell_volume   190.51626164
_cell_formula_units_Z   2
loop_
 _symmetry_equiv_pos_site_id
 _symmetry_equiv_pos_as_xyz
  1  'x, y, z'
loop_
 _atom_site_type_symbol
 _atom_site_label
 _atom_site_symmetry_multiplicity
 _atom_site_fract_x
 _atom_site_fract_y
 _atom_site_fract_z
 _atom_site_occupancy
  Sm  Sm0  1  0.220159  0.765398  0.794283  1
  Sm  Sm1  1  0.779841  0.234602  0.205717  1
  Ti  Ti2  1  0.620344  0.193097  0.566215  1
  Ti  Ti3  1  0.379656  0.806903  0.433785  1
  Cl  Cl4  1  0.886543  0.322403  0.904512  1
  Cl  Cl5  1  0.113457  0.677597  0.095488  1
  O  O6  1  0.167728  0.103104  0.561440  1
  O  O7  1  0.648812  0.961217  0.741159  1
  O  O8  1  0.832272  0.896896  0.438560  1
  O  O9  1  0.423438  0.531784  0.621340  1
  O  O10  1  0.351188  0.038783  0.258841  1
  O  O11  1  0.576562  0.468216  0.378660  1
