# generated using pymatgen
data_Mn3Ag2(P2O7)2
_symmetry_space_group_name_H-M   'P 1'
_cell_length_a   5.46161136
_cell_length_b   6.67433040
_cell_length_c   16.69377813
_cell_angle_alpha   80.77788116
_cell_angle_beta   81.92487562
_cell_angle_gamma   72.63077563
_symmetry_Int_Tables_number   1
_chemical_formula_structural   Mn3Ag2(P2O7)2
_chemical_formula_sum   'Mn6 Ag4 P8 O28'
_cell_volume   570.49822717
_cell_formula_units_Z   2
loop_
 _symmetry_equiv_pos_site_id
 _symmetry_equiv_pos_as_xyz
  1  'x, y, z'
loop_
 _atom_site_type_symbol
 _atom_site_label
 _atom_site_symmetry_multiplicity
 _atom_site_fract_x
 _atom_site_fract_y
 _atom_site_fract_z
 _atom_site_occupancy
  Mn  Mn0  1  0.251655  0.968465  0.338527  1
  Mn  Mn1  1  0.748345  0.031535  0.661473  1
  Mn  Mn2  1  0.828006  0.711719  0.422845  1
  Mn  Mn3  1  0.171994  0.288281  0.577155  1
  Mn  Mn4  1  0.972443  0.376177  0.196220  1
  Mn  Mn5  1  0.027557  0.623823  0.803780  1
  Ag  Ag6  1  0.893274  0.742583  0.021389  1
  Ag  Ag7  1  0.106726  0.257417  0.978611  1
  Ag  Ag8  1  0.407828  0.728556  0.128532  1
  Ag  Ag9  1  0.592172  0.271444  0.871468  1
  P  P10  1  0.575942  0.240523  0.085535  1
  P  P11  1  0.424058  0.759477  0.914465  1
  P  P12  1  0.824824  0.908326  0.220048  1
  P  P13  1  0.175176  0.091674  0.779952  1
  P  P14  1  0.716027  0.218601  0.460171  1
  P  P15  1  0.283973  0.781399  0.539829  1
  P  P16  1  0.370158  0.440351  0.322552  1
  P  P17  1  0.629842  0.559649  0.677448  1
  O  O18  1  0.729530  0.390426  0.098711  1
  O  O19  1  0.270470  0.609574  0.901289  1
  O  O20  1  0.691064  0.129479  0.009323  1
  O  O21  1  0.308936  0.870521  0.990677  1
  O  O22  1  0.283398  0.342955  0.090108  1
  O  O23  1  0.716602  0.657045  0.909892  1
  O  O24  1  0.602452  0.055313  0.163562  1
  O  O25  1  0.397548  0.944687  0.836438  1
  O  O26  1  0.958972  0.713919  0.174414  1
  O  O27  1  0.041028  0.286081  0.825586  1
  O  O28  1  0.016149  0.032961  0.226526  1
  O  O29  1  0.983851  0.967039  0.773474  1
  O  O30  1  0.667331  0.861344  0.300406  1
  O  O31  1  0.332669  0.138656  0.699594  1
  O  O32  1  0.856979  0.384571  0.461130  1
  O  O33  1  0.143021  0.615429  0.538870  1
  O  O34  1  0.888105  0.024644  0.420838  1
  O  O35  1  0.111895  0.975356  0.579162  1
  O  O36  1  0.581312  0.158960  0.544217  1
  O  O37  1  0.418688  0.841040  0.455783  1
  O  O38  1  0.468236  0.316747  0.408681  1
  O  O39  1  0.531764  0.683253  0.591319  1
  O  O40  1  0.596576  0.467609  0.262892  1
  O  O41  1  0.403424  0.532391  0.737108  1
  O  O42  1  0.221223  0.301223  0.296685  1
  O  O43  1  0.778777  0.698778  0.703315  1
  O  O44  1  0.185963  0.653918  0.343650  1
  O  O45  1  0.814037  0.346082  0.656350  1
