# generated using pymatgen
data_UHg4(AsCl3)2
_symmetry_space_group_name_H-M   'P 1'
_cell_length_a   13.96074988
_cell_length_b   14.21917385
_cell_length_c   17.44182232
_cell_angle_alpha   90.00000000
_cell_angle_beta   90.00000000
_cell_angle_gamma   90.00000000
_symmetry_Int_Tables_number   1
_chemical_formula_structural   UHg4(AsCl3)2
_chemical_formula_sum   'U8 Hg32 As16 Cl48'
_cell_volume   3462.38189792
_cell_formula_units_Z   8
loop_
 _symmetry_equiv_pos_site_id
 _symmetry_equiv_pos_as_xyz
  1  'x, y, z'
loop_
 _atom_site_type_symbol
 _atom_site_label
 _atom_site_symmetry_multiplicity
 _atom_site_fract_x
 _atom_site_fract_y
 _atom_site_fract_z
 _atom_site_occupancy
  U  U0  1  0.199939  0.490179  0.614152  1
  U  U1  1  0.300061  0.509821  0.114152  1
  U  U2  1  0.800061  0.990179  0.885848  1
  U  U3  1  0.800061  0.509821  0.385848  1
  U  U4  1  0.300061  0.990179  0.614152  1
  U  U5  1  0.699939  0.009821  0.385848  1
  U  U6  1  0.699939  0.490179  0.885848  1
  U  U7  1  0.199939  0.009821  0.114152  1
  Hg  Hg8  1  0.910652  0.009948  0.643843  1
  Hg  Hg9  1  0.910652  0.490052  0.143843  1
  Hg  Hg10  1  0.521782  0.208292  0.997654  1
  Hg  Hg11  1  0.975571  0.756733  0.748197  1
  Hg  Hg12  1  0.410652  0.490052  0.356157  1
  Hg  Hg13  1  0.727745  0.734493  0.127603  1
  Hg  Hg14  1  0.772255  0.265507  0.627603  1
  Hg  Hg15  1  0.024429  0.243267  0.251803  1
  Hg  Hg16  1  0.589348  0.509948  0.643843  1
  Hg  Hg17  1  0.089348  0.990052  0.356157  1
  Hg  Hg18  1  0.024429  0.256733  0.751803  1
  Hg  Hg19  1  0.272255  0.265507  0.872397  1
  Hg  Hg20  1  0.478218  0.791708  0.002346  1
  Hg  Hg21  1  0.089348  0.509948  0.856157  1
  Hg  Hg22  1  0.978218  0.708292  0.997654  1
  Hg  Hg23  1  0.524429  0.256733  0.748197  1
  Hg  Hg24  1  0.021782  0.208292  0.502346  1
  Hg  Hg25  1  0.272255  0.234493  0.372397  1
  Hg  Hg26  1  0.475571  0.756733  0.751803  1
  Hg  Hg27  1  0.021782  0.291708  0.002346  1
  Hg  Hg28  1  0.589348  0.990052  0.143843  1
  Hg  Hg29  1  0.524429  0.243267  0.248197  1
  Hg  Hg30  1  0.978218  0.791708  0.497654  1
  Hg  Hg31  1  0.227745  0.734493  0.372397  1
  Hg  Hg32  1  0.410652  0.009948  0.856157  1
  Hg  Hg33  1  0.475571  0.743267  0.251803  1
  Hg  Hg34  1  0.227745  0.765507  0.872397  1
  Hg  Hg35  1  0.975571  0.743267  0.248197  1
  Hg  Hg36  1  0.478218  0.708292  0.502346  1
  Hg  Hg37  1  0.727745  0.765507  0.627603  1
  Hg  Hg38  1  0.521782  0.291708  0.497654  1
  Hg  Hg39  1  0.772255  0.234493  0.127603  1
  As  As40  1  0.399119  0.670336  0.372089  1
  As  As41  1  0.938182  0.310837  0.133423  1
  As  As42  1  0.561818  0.689163  0.633423  1
  As  As43  1  0.600881  0.329664  0.627911  1
  As  As44  1  0.561818  0.810837  0.133423  1
  As  As45  1  0.938182  0.189163  0.633423  1
  As  As46  1  0.061818  0.810837  0.366577  1
  As  As47  1  0.100881  0.170336  0.372089  1
  As  As48  1  0.100881  0.329664  0.872089  1
  As  As49  1  0.600881  0.170336  0.127911  1
  As  As50  1  0.061818  0.689163  0.866577  1
  As  As51  1  0.899119  0.829664  0.627911  1
  As  As52  1  0.438182  0.189163  0.866577  1
  As  As53  1  0.438182  0.310837  0.366577  1
  As  As54  1  0.399119  0.829664  0.872089  1
  As  As55  1  0.899119  0.670336  0.127911  1
  Cl  Cl56  1  0.766367  0.924935  0.265338  1
  Cl  Cl57  1  0.469353  0.512844  0.176880  1
  Cl  Cl58  1  0.263767  0.832230  0.681523  1
  Cl  Cl59  1  0.837768  0.351706  0.453352  1
  Cl  Cl60  1  0.162232  0.648294  0.546648  1
  Cl  Cl61  1  0.236233  0.167770  0.181523  1
  Cl  Cl62  1  0.969353  0.512844  0.323120  1
  Cl  Cl63  1  0.733633  0.075065  0.765338  1
  Cl  Cl64  1  0.733633  0.424935  0.265338  1
  Cl  Cl65  1  0.372162  0.490531  0.554193  1
  Cl  Cl66  1  0.030647  0.012844  0.176880  1
  Cl  Cl67  1  0.337768  0.148294  0.546648  1
  Cl  Cl68  1  0.162232  0.851706  0.046648  1
  Cl  Cl69  1  0.662232  0.851706  0.453352  1
  Cl  Cl70  1  0.530647  0.487156  0.823120  1
  Cl  Cl71  1  0.736233  0.332230  0.818477  1
  Cl  Cl72  1  0.139340  0.398689  0.494962  1
  Cl  Cl73  1  0.639340  0.101311  0.505038  1
  Cl  Cl74  1  0.360660  0.898689  0.494962  1
  Cl  Cl75  1  0.266367  0.924935  0.234662  1
  Cl  Cl76  1  0.763767  0.667770  0.318477  1
  Cl  Cl77  1  0.469353  0.987156  0.676880  1
  Cl  Cl78  1  0.969353  0.987156  0.823120  1
  Cl  Cl79  1  0.372162  0.009469  0.054193  1
  Cl  Cl80  1  0.872162  0.490531  0.945807  1
  Cl  Cl81  1  0.639340  0.398689  0.005038  1
  Cl  Cl82  1  0.530647  0.012844  0.323120  1
  Cl  Cl83  1  0.030647  0.487156  0.676880  1
  Cl  Cl84  1  0.263767  0.667770  0.181523  1
  Cl  Cl85  1  0.860660  0.898689  0.005038  1
  Cl  Cl86  1  0.233633  0.424935  0.234662  1
  Cl  Cl87  1  0.236233  0.332230  0.681523  1
  Cl  Cl88  1  0.837768  0.148294  0.953352  1
  Cl  Cl89  1  0.662232  0.648294  0.953352  1
  Cl  Cl90  1  0.627838  0.990531  0.945807  1
  Cl  Cl91  1  0.763767  0.832230  0.818477  1
  Cl  Cl92  1  0.337768  0.351706  0.046648  1
  Cl  Cl93  1  0.127838  0.990531  0.554193  1
  Cl  Cl94  1  0.139340  0.101311  0.994962  1
  Cl  Cl95  1  0.233633  0.075065  0.734662  1
  Cl  Cl96  1  0.627838  0.509469  0.445807  1
  Cl  Cl97  1  0.266367  0.575065  0.734662  1
  Cl  Cl98  1  0.736233  0.167770  0.318477  1
  Cl  Cl99  1  0.127838  0.509469  0.054193  1
  Cl  Cl100  1  0.360660  0.601311  0.994962  1
  Cl  Cl101  1  0.860660  0.601311  0.505038  1
  Cl  Cl102  1  0.766367  0.575065  0.765338  1
  Cl  Cl103  1  0.872162  0.009469  0.445807  1
