# generated using pymatgen
data_K4Ru(NO2)6
_symmetry_space_group_name_H-M   'P 1'
_cell_length_a   8.64430118
_cell_length_b   8.64430070
_cell_length_c   8.64430119
_cell_angle_alpha   52.17364694
_cell_angle_beta   52.17364937
_cell_angle_gamma   52.17364737
_symmetry_Int_Tables_number   1
_chemical_formula_structural   K4Ru(NO2)6
_chemical_formula_sum   'K4 Ru1 N6 O12'
_cell_volume   372.74547816
_cell_formula_units_Z   1
loop_
 _symmetry_equiv_pos_site_id
 _symmetry_equiv_pos_as_xyz
  1  'x, y, z'
loop_
 _atom_site_type_symbol
 _atom_site_label
 _atom_site_symmetry_multiplicity
 _atom_site_fract_x
 _atom_site_fract_y
 _atom_site_fract_z
 _atom_site_occupancy
  K  K0  1  0.619526  0.619526  0.619526  1
  K  K1  1  0.380474  0.380474  0.380474  1
  K  K2  1  0.192838  0.192838  0.192838  1
  K  K3  1  0.807162  0.807162  0.807162  1
  Ru  Ru4  1  0.000000  0.000000  0.000000  1
  N  N5  1  0.928442  0.308348  0.926853  1
  N  N6  1  0.308348  0.926853  0.928442  1
  N  N7  1  0.073147  0.071558  0.691652  1
  N  N8  1  0.926853  0.928442  0.308348  1
  N  N9  1  0.691652  0.073147  0.071558  1
  N  N10  1  0.071558  0.691652  0.073147  1
  O  O11  1  0.067436  0.860441  0.367774  1
  O  O12  1  0.367774  0.067436  0.860441  1
  O  O13  1  0.139559  0.632226  0.932564  1
  O  O14  1  0.261353  0.044257  0.556774  1
  O  O15  1  0.443226  0.738647  0.955743  1
  O  O16  1  0.932564  0.139559  0.632226  1
  O  O17  1  0.738647  0.955743  0.443226  1
  O  O18  1  0.955743  0.443226  0.738647  1
  O  O19  1  0.860441  0.367774  0.067436  1
  O  O20  1  0.044257  0.556774  0.261353  1
  O  O21  1  0.556774  0.261353  0.044257  1
  O  O22  1  0.632226  0.932564  0.139559  1
