# generated using pymatgen
data_Mn2Os(CN)6
_symmetry_space_group_name_H-M   'P 1'
_cell_length_a   6.08500684
_cell_length_b   6.08500649
_cell_length_c   6.75369365
_cell_angle_alpha   90.00000000
_cell_angle_beta   90.00000000
_cell_angle_gamma   120.00000181
_symmetry_Int_Tables_number   1
_chemical_formula_structural   Mn2Os(CN)6
_chemical_formula_sum   'Mn2 Os1 C6 N6'
_cell_volume   216.56790611
_cell_formula_units_Z   1
loop_
 _symmetry_equiv_pos_site_id
 _symmetry_equiv_pos_as_xyz
  1  'x, y, z'
loop_
 _atom_site_type_symbol
 _atom_site_label
 _atom_site_symmetry_multiplicity
 _atom_site_fract_x
 _atom_site_fract_y
 _atom_site_fract_z
 _atom_site_occupancy
  Mn  Mn0  1  0.333333  0.666667  0.501583  1
  Mn  Mn1  1  0.666667  0.333333  0.498417  1
  Os  Os2  1  0.000000  0.000000  0.000000  1
  C  C3  1  0.742280  0.743616  0.187056  1
  C  C4  1  0.257720  0.256384  0.812944  1
  C  C5  1  0.256384  0.998664  0.187056  1
  C  C6  1  0.001336  0.257720  0.187056  1
  C  C7  1  0.998664  0.742280  0.812944  1
  C  C8  1  0.743616  0.001336  0.812944  1
  N  N9  1  0.610361  0.001117  0.684296  1
  N  N10  1  0.998883  0.609245  0.684296  1
  N  N11  1  0.389639  0.998883  0.315704  1
  N  N12  1  0.001117  0.390755  0.315704  1
  N  N13  1  0.390755  0.389639  0.684296  1
  N  N14  1  0.609245  0.610361  0.315704  1
