# generated using pymatgen
data_Na2Zn(SO4)2
_symmetry_space_group_name_H-M   'P 1'
_cell_length_a   8.81316555
_cell_length_b   10.52052540
_cell_length_c   15.31639005
_cell_angle_alpha   90.00000000
_cell_angle_beta   90.80327926
_cell_angle_gamma   90.00000000
_symmetry_Int_Tables_number   1
_chemical_formula_structural   Na2Zn(SO4)2
_chemical_formula_sum   'Na16 Zn8 S16 O64'
_cell_volume   1419.98282600
_cell_formula_units_Z   8
loop_
 _symmetry_equiv_pos_site_id
 _symmetry_equiv_pos_as_xyz
  1  'x, y, z'
loop_
 _atom_site_type_symbol
 _atom_site_label
 _atom_site_symmetry_multiplicity
 _atom_site_fract_x
 _atom_site_fract_y
 _atom_site_fract_z
 _atom_site_occupancy
  Na  Na0  1  0.750000  0.006977  0.250000  1
  Na  Na1  1  0.197904  0.602473  0.013926  1
  Na  Na2  1  0.750000  0.419986  0.750000  1
  Na  Na3  1  0.699739  0.893892  0.980567  1
  Na  Na4  1  0.802096  0.397527  0.986074  1
  Na  Na5  1  0.302096  0.602473  0.486074  1
  Na  Na6  1  0.250000  0.159640  0.250000  1
  Na  Na7  1  0.250000  0.993023  0.750000  1
  Na  Na8  1  0.750000  0.347326  0.250000  1
  Na  Na9  1  0.300261  0.106108  0.019433  1
  Na  Na10  1  0.750000  0.840360  0.750000  1
  Na  Na11  1  0.250000  0.580014  0.250000  1
  Na  Na12  1  0.250000  0.652674  0.750000  1
  Na  Na13  1  0.199739  0.106108  0.480567  1
  Na  Na14  1  0.697904  0.397527  0.513926  1
  Na  Na15  1  0.800261  0.893892  0.519433  1
  Zn  Zn16  1  0.573048  0.125286  0.624070  1
  Zn  Zn17  1  0.915254  0.619259  0.376893  1
  Zn  Zn18  1  0.584746  0.619259  0.123107  1
  Zn  Zn19  1  0.084746  0.380741  0.623107  1
  Zn  Zn20  1  0.426952  0.874714  0.375930  1
  Zn  Zn21  1  0.073048  0.874714  0.124070  1
  Zn  Zn22  1  0.415254  0.380741  0.876893  1
  Zn  Zn23  1  0.926952  0.125286  0.875930  1
  S  S24  1  0.076342  0.870001  0.909565  1
  S  S25  1  0.562866  0.110967  0.842666  1
  S  S26  1  0.937134  0.110967  0.657334  1
  S  S27  1  0.923658  0.129999  0.090435  1
  S  S28  1  0.065094  0.372356  0.404440  1
  S  S29  1  0.437134  0.889033  0.157334  1
  S  S30  1  0.926903  0.607418  0.157163  1
  S  S31  1  0.934906  0.627644  0.595560  1
  S  S32  1  0.573097  0.607418  0.342837  1
  S  S33  1  0.576342  0.129999  0.409565  1
  S  S34  1  0.062866  0.889033  0.342666  1
  S  S35  1  0.565094  0.627644  0.904440  1
  S  S36  1  0.423658  0.870001  0.590435  1
  S  S37  1  0.426903  0.392582  0.657163  1
  S  S38  1  0.434906  0.372356  0.095560  1
  S  S39  1  0.073097  0.392582  0.842837  1
  O  O40  1  0.426478  0.269693  0.159977  1
  O  O41  1  0.929859  0.312875  0.847013  1
  O  O42  1  0.414158  0.156642  0.393544  1
  O  O43  1  0.668649  0.520075  0.884032  1
  O  O44  1  0.601055  0.681029  0.993355  1
  O  O45  1  0.831351  0.520075  0.615968  1
  O  O46  1  0.870853  0.183355  0.004021  1
  O  O47  1  0.085842  0.156642  0.106456  1
  O  O48  1  0.205755  0.304241  0.852893  1
  O  O49  1  0.073723  0.456269  0.755569  1
  O  O50  1  0.599961  0.985840  0.415255  1
  O  O51  1  0.595046  0.428017  0.093211  1
  O  O52  1  0.398945  0.318971  0.006645  1
  O  O53  1  0.500908  0.079839  0.753774  1
  O  O54  1  0.404954  0.571983  0.906789  1
  O  O55  1  0.331351  0.479925  0.115968  1
  O  O56  1  0.916265  0.252523  0.648404  1
  O  O57  1  0.900039  0.985840  0.084745  1
  O  O58  1  0.962494  0.941428  0.408446  1
  O  O59  1  0.217651  0.949892  0.351780  1
  O  O60  1  0.282349  0.949892  0.148220  1
  O  O61  1  0.898945  0.681029  0.506645  1
  O  O62  1  0.794245  0.695759  0.147107  1
  O  O63  1  0.827235  0.179889  0.160044  1
  O  O64  1  0.101055  0.318971  0.493355  1
  O  O65  1  0.168649  0.479925  0.384032  1
  O  O66  1  0.037506  0.058572  0.591554  1
  O  O67  1  0.172765  0.820111  0.839956  1
  O  O68  1  0.583735  0.252523  0.851596  1
  O  O69  1  0.717651  0.050108  0.851780  1
  O  O70  1  0.099961  0.014160  0.915255  1
  O  O71  1  0.430998  0.488106  0.588189  1
  O  O72  1  0.573522  0.730307  0.840023  1
  O  O73  1  0.462494  0.058572  0.908446  1
  O  O74  1  0.573723  0.543731  0.255569  1
  O  O75  1  0.499092  0.920161  0.246226  1
  O  O76  1  0.095046  0.571983  0.593211  1
  O  O77  1  0.705755  0.695759  0.352893  1
  O  O78  1  0.000908  0.920161  0.253774  1
  O  O79  1  0.327235  0.820111  0.660044  1
  O  O80  1  0.537506  0.941428  0.091554  1
  O  O81  1  0.926277  0.543731  0.244431  1
  O  O82  1  0.930998  0.511894  0.088189  1
  O  O83  1  0.569002  0.511894  0.411811  1
  O  O84  1  0.629147  0.183355  0.495979  1
  O  O85  1  0.073522  0.269693  0.340023  1
  O  O86  1  0.083735  0.747477  0.351596  1
  O  O87  1  0.570141  0.312875  0.652987  1
  O  O88  1  0.129147  0.816645  0.995979  1
  O  O89  1  0.370853  0.816645  0.504021  1
  O  O90  1  0.904954  0.428017  0.406789  1
  O  O91  1  0.069002  0.488106  0.911811  1
  O  O92  1  0.914158  0.843358  0.893544  1
  O  O93  1  0.585842  0.843358  0.606456  1
  O  O94  1  0.782349  0.050108  0.648220  1
  O  O95  1  0.400039  0.014160  0.584745  1
  O  O96  1  0.672765  0.179889  0.339956  1
  O  O97  1  0.294245  0.304241  0.647107  1
  O  O98  1  0.416265  0.747477  0.148404  1
  O  O99  1  0.426277  0.456269  0.744431  1
  O  O100  1  0.070141  0.687125  0.152987  1
  O  O101  1  0.926478  0.730307  0.659977  1
  O  O102  1  0.999092  0.079839  0.746226  1
  O  O103  1  0.429859  0.687125  0.347013  1
