# generated using pymatgen
data_VBiPbO5
_symmetry_space_group_name_H-M   'P 1'
_cell_length_a   5.65989243
_cell_length_b   7.28333743
_cell_length_c   7.28378492
_cell_angle_alpha   109.69262527
_cell_angle_beta   112.86032809
_cell_angle_gamma   90.00468540
_symmetry_Int_Tables_number   1
_chemical_formula_structural   VBiPbO5
_chemical_formula_sum   'V2 Bi2 Pb2 O10'
_cell_volume   257.50681801
_cell_formula_units_Z   2
loop_
 _symmetry_equiv_pos_site_id
 _symmetry_equiv_pos_as_xyz
  1  'x, y, z'
loop_
 _atom_site_type_symbol
 _atom_site_label
 _atom_site_symmetry_multiplicity
 _atom_site_fract_x
 _atom_site_fract_y
 _atom_site_fract_z
 _atom_site_occupancy
  O  O0  1  0.263244  0.000006  0.000003  1
  O  O1  1  0.736756  0.999996  0.999997  1
  O  O2  1  0.695371  0.285608  0.390790  1
  O  O3  1  0.304625  0.714388  0.609202  1
  O  O4  1  0.616346  0.241088  0.731288  1
  O  O5  1  0.885071  0.758909  0.268707  1
  O  O6  1  0.899539  0.606892  0.799029  1
  O  O7  1  0.100458  0.393106  0.200964  1
  O  O8  1  0.383655  0.758913  0.268711  1
  O  O9  1  0.114928  0.241091  0.731291  1
  V  V10  1  0.165776  0.647886  0.331558  1
  V  V11  1  0.834230  0.352116  0.668454  1
  Pb  Pb12  1  0.157775  0.112385  0.315608  1
  Pb  Pb13  1  0.842228  0.887613  0.684394  1
  Bi  Bi14  1  0.513054  0.250258  0.025998  1
  Bi  Bi15  1  0.486944  0.749742  0.973998  1
