# generated using pymatgen
data_MgAl2O4
_symmetry_space_group_name_H-M   'P 1'
_cell_length_a   5.77089628
_cell_length_b   5.77089646
_cell_length_c   28.89550131
_cell_angle_alpha   60.04695012
_cell_angle_beta   60.04694911
_cell_angle_gamma   60.00000523
_symmetry_Int_Tables_number   1
_chemical_formula_structural   MgAl2O4
_chemical_formula_sum   'Mg10 Al20 O40'
_cell_volume   680.94123422
_cell_formula_units_Z   10
loop_
 _symmetry_equiv_pos_site_id
 _symmetry_equiv_pos_as_xyz
  1  'x, y, z'
loop_
 _atom_site_type_symbol
 _atom_site_label
 _atom_site_symmetry_multiplicity
 _atom_site_fract_x
 _atom_site_fract_y
 _atom_site_fract_z
 _atom_site_occupancy
  Al  Al0  1  0.495543  0.009708  0.099841  1
  Al  Al1  1  0.495543  0.495543  0.099841  1
  Al  Al2  1  0.496648  0.005149  0.300311  1
  Al  Al3  1  0.496648  0.496648  0.300311  1
  Al  Al4  1  0.009708  0.495543  0.099841  1
  Al  Al5  1  0.500914  0.500914  0.399452  1
  Al  Al6  1  0.880149  0.880149  0.171910  1
  Al  Al7  1  0.500709  0.001024  0.499512  1
  Al  Al8  1  0.005149  0.496648  0.300311  1
  Al  Al9  1  0.500709  0.500709  0.499512  1
  Al  Al10  1  0.500958  0.500958  0.599425  1
  Al  Al11  1  0.500211  0.001312  0.699653  1
  Al  Al12  1  0.500211  0.500211  0.699653  1
  Al  Al13  1  0.001024  0.500709  0.499512  1
  Al  Al14  1  0.498179  0.006144  0.899500  1
  Al  Al15  1  0.501919  0.501919  0.798849  1
  Al  Al16  1  0.001312  0.500211  0.699653  1
  Al  Al17  1  0.498179  0.498179  0.899500  1
  Al  Al18  1  0.006144  0.498179  0.899500  1
  Al  Al19  1  0.876419  0.876419  0.974149  1
  Mg  Mg20  1  0.120897  0.120897  0.027462  1
  Mg  Mg21  1  0.120231  0.120231  0.227861  1
  Mg  Mg22  1  0.496662  0.496662  0.202003  1
  Mg  Mg23  1  0.124197  0.124197  0.425482  1
  Mg  Mg24  1  0.125898  0.125898  0.624461  1
  Mg  Mg25  1  0.878933  0.878933  0.372640  1
  Mg  Mg26  1  0.125197  0.125197  0.824882  1
  Mg  Mg27  1  0.875578  0.875578  0.574653  1
  Mg  Mg28  1  0.498412  0.498412  0.000953  1
  Mg  Mg29  1  0.873970  0.873970  0.775618  1
  O  O30  1  0.254041  0.254041  0.055947  1
  O  O31  1  0.254041  0.712181  0.055947  1
  O  O32  1  0.260224  0.260224  0.143866  1
  O  O33  1  0.712181  0.254041  0.055947  1
  O  O34  1  0.250348  0.250348  0.257497  1
  O  O35  1  0.272053  0.752009  0.144786  1
  O  O36  1  0.745428  0.745428  0.052743  1
  O  O37  1  0.250348  0.711822  0.257497  1
  O  O38  1  0.260318  0.260318  0.343809  1
  O  O39  1  0.752009  0.272053  0.144786  1
  O  O40  1  0.711822  0.250348  0.257497  1
  O  O41  1  0.752009  0.752009  0.144786  1
  O  O42  1  0.263032  0.263032  0.453083  1
  O  O43  1  0.297072  0.734499  0.346786  1
  O  O44  1  0.750315  0.750315  0.249811  1
  O  O45  1  0.263032  0.708519  0.453083  1
  O  O46  1  0.263439  0.263439  0.541937  1
  O  O47  1  0.734499  0.297072  0.346786  1
  O  O48  1  0.708519  0.263032  0.453083  1
  O  O49  1  0.734499  0.734499  0.346786  1
  O  O50  1  0.262974  0.262974  0.653023  1
  O  O51  1  0.290918  0.735854  0.547475  1
  O  O52  1  0.737477  0.737477  0.457514  1
  O  O53  1  0.262974  0.708936  0.653023  1
  O  O54  1  0.735854  0.290918  0.547475  1
  O  O55  1  0.263230  0.263230  0.742062  1
  O  O56  1  0.708936  0.262974  0.653023  1
  O  O57  1  0.735854  0.735854  0.547475  1
  O  O58  1  0.265696  0.265696  0.852026  1
  O  O59  1  0.289680  0.736316  0.747537  1
  O  O60  1  0.265696  0.708480  0.852026  1
  O  O61  1  0.735965  0.735965  0.658421  1
  O  O62  1  0.262785  0.262785  0.942329  1
  O  O63  1  0.736316  0.289680  0.747537  1
  O  O64  1  0.708480  0.265696  0.852026  1
  O  O65  1  0.736316  0.736316  0.747537  1
  O  O66  1  0.263634  0.754978  0.945282  1
  O  O67  1  0.731782  0.731782  0.860931  1
  O  O68  1  0.754978  0.263634  0.945282  1
  O  O69  1  0.754978  0.754978  0.945282  1
