# generated using pymatgen
data_NaH2ClO5
_symmetry_space_group_name_H-M   'P 1'
_cell_length_a   5.55014688
_cell_length_b   8.50261228
_cell_length_c   11.09448927
_cell_angle_alpha   109.06632947
_cell_angle_beta   90.00000000
_cell_angle_gamma   109.04913758
_symmetry_Int_Tables_number   1
_chemical_formula_structural   NaH2ClO5
_chemical_formula_sum   'Na4 H8 Cl4 O20'
_cell_volume   464.39508792
_cell_formula_units_Z   4
loop_
 _symmetry_equiv_pos_site_id
 _symmetry_equiv_pos_as_xyz
  1  'x, y, z'
loop_
 _atom_site_type_symbol
 _atom_site_label
 _atom_site_symmetry_multiplicity
 _atom_site_fract_x
 _atom_site_fract_y
 _atom_site_fract_z
 _atom_site_occupancy
  Na  Na0  1  0.000000  0.500000  0.500000  1
  Na  Na1  1  0.500000  0.500000  0.000000  1
  Na  Na2  1  0.534523  0.000000  0.250000  1
  Na  Na3  1  0.465477  0.000000  0.750000  1
  Cl  Cl4  1  0.153740  0.252174  0.194165  1
  Cl  Cl5  1  0.901566  0.747826  0.305835  1
  Cl  Cl6  1  0.846260  0.747826  0.805835  1
  Cl  Cl7  1  0.098434  0.252174  0.694165  1
  O  O8  1  0.190919  0.331120  0.334860  1
  O  O9  1  0.859799  0.668880  0.165140  1
  O  O10  1  0.809081  0.668880  0.665140  1
  O  O11  1  0.140201  0.331120  0.834860  1
  O  O12  1  0.209176  0.390895  0.138241  1
  O  O13  1  0.818282  0.609105  0.361759  1
  O  O14  1  0.790824  0.609105  0.861759  1
  O  O15  1  0.181718  0.390895  0.638241  1
  O  O16  1  0.887194  0.134466  0.151518  1
  O  O17  1  0.752728  0.865534  0.348482  1
  O  O18  1  0.112806  0.865534  0.848482  1
  O  O19  1  0.247272  0.134466  0.651518  1
  O  O20  1  0.324322  0.150159  0.153691  1
  O  O21  1  0.174163  0.849841  0.346309  1
  O  O22  1  0.675678  0.849841  0.846309  1
  O  O23  1  0.825837  0.150159  0.653691  1
  O  O24  1  0.347280  0.748158  0.052507  1
  O  O25  1  0.599121  0.251842  0.447493  1
  O  O26  1  0.652720  0.251842  0.947493  1
  O  O27  1  0.400879  0.748158  0.552507  1
  H  H28  1  0.354385  0.785754  0.977771  1
  H  H29  1  0.568630  0.214246  0.522229  1
  H  H30  1  0.645615  0.214246  0.022229  1
  H  H31  1  0.431370  0.785754  0.477771  1
  H  H32  1  0.165565  0.712698  0.066205  1
  H  H33  1  0.452868  0.287302  0.433795  1
  H  H34  1  0.834435  0.287302  0.933795  1
  H  H35  1  0.547132  0.712698  0.566205  1
