# generated using pymatgen
data_CaZn3Ni2
_symmetry_space_group_name_H-M   'P 1'
_cell_length_a   9.02417693
_cell_length_b   9.02417732
_cell_length_c   4.08771738
_cell_angle_alpha   90.00000000
_cell_angle_beta   90.00000000
_cell_angle_gamma   119.99999860
_symmetry_Int_Tables_number   1
_chemical_formula_structural   CaZn3Ni2
_chemical_formula_sum   'Ca3 Zn9 Ni6'
_cell_volume   288.28810371
_cell_formula_units_Z   3
loop_
 _symmetry_equiv_pos_site_id
 _symmetry_equiv_pos_as_xyz
  1  'x, y, z'
loop_
 _atom_site_type_symbol
 _atom_site_label
 _atom_site_symmetry_multiplicity
 _atom_site_fract_x
 _atom_site_fract_y
 _atom_site_fract_z
 _atom_site_occupancy
  Ca  Ca0  1  0.000000  0.000000  0.500000  1
  Ca  Ca1  1  0.333333  0.666667  0.000000  1
  Ca  Ca2  1  0.666667  0.333333  0.000000  1
  Ni  Ni3  1  0.182081  0.364162  0.500000  1
  Ni  Ni4  1  0.817919  0.182081  0.500000  1
  Ni  Ni5  1  0.364162  0.182081  0.500000  1
  Ni  Ni6  1  0.635838  0.817919  0.500000  1
  Ni  Ni7  1  0.182081  0.817919  0.500000  1
  Ni  Ni8  1  0.817919  0.635838  0.500000  1
  Zn  Zn9  1  0.500000  0.000000  0.500000  1
  Zn  Zn10  1  0.500000  0.500000  0.500000  1
  Zn  Zn11  1  0.000000  0.500000  0.500000  1
  Zn  Zn12  1  0.292490  0.000000  0.000000  1
  Zn  Zn13  1  0.292490  0.292490  0.000000  1
  Zn  Zn14  1  0.000000  0.707510  0.000000  1
  Zn  Zn15  1  1.000000  0.292490  0.000000  1
  Zn  Zn16  1  0.707510  0.707510  0.000000  1
  Zn  Zn17  1  0.707510  0.000000  0.000000  1
