# generated using pymatgen
data_NdPH5CO7
_symmetry_space_group_name_H-M   'P 1'
_cell_length_a   6.71554488
_cell_length_b   7.10743630
_cell_length_c   7.90832272
_cell_angle_alpha   111.37548824
_cell_angle_beta   96.30031644
_cell_angle_gamma   89.87662635
_symmetry_Int_Tables_number   1
_chemical_formula_structural   NdPH5CO7
_chemical_formula_sum   'Nd2 P2 H10 C2 O14'
_cell_volume   349.08632816
_cell_formula_units_Z   2
loop_
 _symmetry_equiv_pos_site_id
 _symmetry_equiv_pos_as_xyz
  1  'x, y, z'
loop_
 _atom_site_type_symbol
 _atom_site_label
 _atom_site_symmetry_multiplicity
 _atom_site_fract_x
 _atom_site_fract_y
 _atom_site_fract_z
 _atom_site_occupancy
  Nd  Nd0  1  0.870293  0.777488  0.065776  1
  Nd  Nd1  1  0.129707  0.222512  0.934224  1
  P  P2  1  0.324881  0.748109  0.981977  1
  P  P3  1  0.675119  0.251891  0.018023  1
  H  H4  1  0.475091  0.869844  0.586180  1
  H  H5  1  0.716654  0.667201  0.641663  1
  H  H6  1  0.528151  0.745349  0.390918  1
  H  H7  1  0.524909  0.130156  0.413820  1
  H  H8  1  0.283346  0.332799  0.358337  1
  H  H9  1  0.831099  0.477004  0.672938  1
  H  H10  1  0.629157  0.292640  0.197101  1
  H  H11  1  0.168901  0.522996  0.327062  1
  H  H12  1  0.471849  0.254651  0.609082  1
  H  H13  1  0.370843  0.707360  0.802899  1
  C  C14  1  0.062806  0.909091  0.501727  1
  C  C15  1  0.937194  0.090909  0.498273  1
  O  O16  1  0.818764  0.425187  0.024591  1
  O  O17  1  0.836933  0.075776  0.348967  1
  O  O18  1  0.522113  0.772200  0.105341  1
  O  O19  1  0.583181  0.795705  0.519907  1
  O  O20  1  0.477887  0.227800  0.894659  1
  O  O21  1  0.214513  0.384109  0.266670  1
  O  O22  1  0.944580  0.242065  0.647730  1
  O  O23  1  0.181236  0.574813  0.975409  1
  O  O24  1  0.197685  0.939752  0.036603  1
  O  O25  1  0.163067  0.924224  0.651033  1
  O  O26  1  0.802315  0.060248  0.963397  1
  O  O27  1  0.055420  0.757935  0.352270  1
  O  O28  1  0.785487  0.615891  0.733330  1
  O  O29  1  0.416819  0.204295  0.480093  1
