# generated using pymatgen
data_CsPS3
_symmetry_space_group_name_H-M   'P 1'
_cell_length_a   7.34896336
_cell_length_b   7.67704617
_cell_length_c   7.67704693
_cell_angle_alpha   75.13623076
_cell_angle_beta   61.40389052
_cell_angle_gamma   61.40389373
_symmetry_Int_Tables_number   1
_chemical_formula_structural   CsPS3
_chemical_formula_sum   'Cs2 P2 S6'
_cell_volume   333.69034512
_cell_formula_units_Z   2
loop_
 _symmetry_equiv_pos_site_id
 _symmetry_equiv_pos_as_xyz
  1  'x, y, z'
loop_
 _atom_site_type_symbol
 _atom_site_label
 _atom_site_symmetry_multiplicity
 _atom_site_fract_x
 _atom_site_fract_y
 _atom_site_fract_z
 _atom_site_occupancy
  Cs  Cs0  1  1.000000  0.738997  0.261003  1
  Cs  Cs1  1  0.000000  0.261003  0.738997  1
  P  P2  1  0.345568  0.654432  0.654432  1
  P  P3  1  0.654432  0.345568  0.345568  1
  S  S4  1  0.500000  0.332740  0.667260  1
  S  S5  1  0.500000  0.667260  0.332740  1
  S  S6  1  0.471771  0.759347  0.759347  1
  S  S7  1  0.990465  0.240653  0.240653  1
  S  S8  1  0.528229  0.240653  0.240653  1
  S  S9  1  0.009535  0.759347  0.759347  1
