# generated using pymatgen
data_Sn(CO2)2
_symmetry_space_group_name_H-M   'P 1'
_cell_length_a   5.79917950
_cell_length_b   6.02401267
_cell_length_c   7.53862095
_cell_angle_alpha   76.72774094
_cell_angle_beta   67.35708484
_cell_angle_gamma   61.23520972
_symmetry_Int_Tables_number   1
_chemical_formula_structural   Sn(CO2)2
_chemical_formula_sum   'Sn2 C4 O8'
_cell_volume   212.74510440
_cell_formula_units_Z   2
loop_
 _symmetry_equiv_pos_site_id
 _symmetry_equiv_pos_as_xyz
  1  'x, y, z'
loop_
 _atom_site_type_symbol
 _atom_site_label
 _atom_site_symmetry_multiplicity
 _atom_site_fract_x
 _atom_site_fract_y
 _atom_site_fract_z
 _atom_site_occupancy
  Sn  Sn0  1  0.898337  0.750015  0.250018  1
  Sn  Sn1  1  0.101663  0.249985  0.749982  1
  O  O2  1  0.122067  0.677080  0.462719  1
  O  O3  1  0.261966  0.822956  0.037278  1
  O  O4  1  0.877933  0.322920  0.537281  1
  O  O5  1  0.738034  0.177044  0.962722  1
  O  O6  1  0.784800  0.149920  0.354152  1
  O  O7  1  0.288653  0.350166  0.145907  1
  O  O8  1  0.215200  0.850080  0.645848  1
  O  O9  1  0.711347  0.649834  0.854093  1
  C  C10  1  0.903648  0.134189  0.468373  1
  C  C11  1  0.506062  0.365852  0.031663  1
  C  C12  1  0.096352  0.865811  0.531627  1
  C  C13  1  0.493938  0.634148  0.968337  1
