# generated using pymatgen
data_VBiO4
_symmetry_space_group_name_H-M   'P 1'
_cell_length_a   5.17560636
_cell_length_b   5.20170300
_cell_length_c   6.92884812
_cell_angle_alpha   112.04003646
_cell_angle_beta   111.92457376
_cell_angle_gamma   90.01941356
_symmetry_Int_Tables_number   1
_chemical_formula_structural   VBiO4
_chemical_formula_sum   'V2 Bi2 O8'
_cell_volume   158.24689464
_cell_formula_units_Z   2
loop_
 _symmetry_equiv_pos_site_id
 _symmetry_equiv_pos_as_xyz
  1  'x, y, z'
loop_
 _atom_site_type_symbol
 _atom_site_label
 _atom_site_symmetry_multiplicity
 _atom_site_fract_x
 _atom_site_fract_y
 _atom_site_fract_z
 _atom_site_occupancy
  O  O0  1  0.340667  0.703639  0.904077  1
  O  O1  1  0.063387  0.200464  0.904077  1
  O  O2  1  0.659334  0.296366  0.095924  1
  O  O3  1  0.936615  0.799533  0.095923  1
  O  O4  1  0.298037  0.938207  0.588585  1
  O  O5  1  0.790555  0.650375  0.588576  1
  O  O6  1  0.209457  0.349629  0.411427  1
  O  O7  1  0.701950  0.061794  0.411419  1
  V  V8  1  0.877475  0.127460  0.254942  1
  V  V9  1  0.122524  0.872539  0.745054  1
  Bi  Bi10  1  0.377105  0.627090  0.254213  1
  Bi  Bi11  1  0.622893  0.372908  0.745787  1
