# generated using pymatgen
data_Li6V3P8O29
_symmetry_space_group_name_H-M   'P 1'
_cell_length_a   9.81892006
_cell_length_b   9.86340856
_cell_length_c   13.99994862
_cell_angle_alpha   89.96110680
_cell_angle_beta   90.80710013
_cell_angle_gamma   59.85776707
_symmetry_Int_Tables_number   1
_chemical_formula_structural   Li6V3P8O29
_chemical_formula_sum   'Li12 V6 P16 O58'
_cell_volume   1172.36554244
_cell_formula_units_Z   2
loop_
 _symmetry_equiv_pos_site_id
 _symmetry_equiv_pos_as_xyz
  1  'x, y, z'
loop_
 _atom_site_type_symbol
 _atom_site_label
 _atom_site_symmetry_multiplicity
 _atom_site_fract_x
 _atom_site_fract_y
 _atom_site_fract_z
 _atom_site_occupancy
  Li  Li0  1  0.776257  0.918119  0.561265  1
  Li  Li1  1  0.676898  0.655751  0.386832  1
  Li  Li2  1  0.676280  0.667148  0.886665  1
  Li  Li3  1  0.775736  0.306574  0.060905  1
  Li  Li4  1  0.686660  0.224841  0.438875  1
  Li  Li5  1  0.310764  0.913568  0.063332  1
  Li  Li6  1  0.686501  0.088316  0.938708  1
  Li  Li7  1  0.310666  0.776362  0.563234  1
  Li  Li8  1  0.229876  0.677797  0.945442  1
  Li  Li9  1  0.099966  0.670639  0.437963  1
  Li  Li10  1  0.229943  0.093326  0.445141  1
  Li  Li11  1  0.099285  0.228997  0.937537  1
  O  O12  1  0.980518  0.795390  0.738236  1
  O  O13  1  0.999131  0.753406  0.561196  1
  O  O14  1  0.921542  0.745124  0.343368  1
  O  O15  1  0.788359  0.994413  0.248452  1
  O  O16  1  0.892097  0.626251  0.828751  1
  O  O17  1  0.744940  0.918662  0.839651  1
  O  O18  1  0.811022  0.663908  0.173908  1
  O  O19  1  0.892360  0.481160  0.329154  1
  O  O20  1  0.999311  0.247066  0.061132  1
  O  O21  1  0.980055  0.224482  0.238139  1
  O  O22  1  0.921790  0.333157  0.843040  1
  O  O23  1  0.667585  0.820014  0.662887  1
  O  O24  1  0.628237  0.882112  0.324157  1
  O  O25  1  0.811395  0.524821  0.673418  1
  O  O26  1  0.662651  0.669163  0.020582  1
  O  O27  1  0.660711  0.668522  0.520638  1
  O  O28  1  0.667468  0.512326  0.163078  1
  O  O29  1  0.492255  0.881492  0.826122  1
  O  O30  1  0.511162  0.815647  0.166315  1
  O  O31  1  0.744521  0.336315  0.339547  1
  O  O32  1  0.788653  0.217124  0.748293  1
  O  O33  1  0.751882  0.239258  0.565471  1
  O  O34  1  0.754012  0.244235  0.928754  1
  O  O35  1  0.628181  0.489101  0.824706  1
  O  O36  1  0.511501  0.673004  0.667255  1
  O  O37  1  0.492013  0.626201  0.326123  1
  O  O38  1  0.336540  0.917914  0.346228  1
  O  O39  1  0.663156  0.251140  0.162852  1
  O  O40  1  0.752886  0.001773  0.428862  1
  O  O41  1  0.750397  0.008723  0.065642  1
  O  O42  1  0.246364  0.997268  0.572247  1
  O  O43  1  0.214957  0.995423  0.752633  1
  O  O44  1  0.516882  0.384361  0.673627  1
  O  O45  1  0.663913  0.085078  0.663037  1
  O  O46  1  0.336419  0.745695  0.846743  1
  O  O47  1  0.485108  0.326716  0.336047  1
  O  O48  1  0.380385  0.523141  0.182196  1
  O  O49  1  0.245958  0.757322  0.072301  1
  O  O50  1  0.250237  0.748096  0.432382  1
  O  O51  1  0.214657  0.789865  0.252656  1
  O  O52  1  0.244958  0.673203  0.660174  1
  O  O53  1  0.485411  0.187256  0.836439  1
  O  O54  1  0.334244  0.486562  0.829104  1
  O  O55  1  0.516462  0.098575  0.174585  1
  O  O56  1  0.330300  0.347154  0.979087  1
  O  O57  1  0.328324  0.327100  0.479252  1
  O  O58  1  0.380762  0.096615  0.682235  1
  O  O59  1  0.183243  0.479907  0.329935  1
  O  O60  1  0.084125  0.664549  0.162983  1
  O  O61  1  0.333018  0.179277  0.330935  1
  O  O62  1  0.014650  0.766676  0.919182  1
  O  O63  1  0.102948  0.518532  0.673205  1
  O  O64  1  0.183414  0.336957  0.830773  1
  O  O65  1  0.102173  0.379293  0.172738  1
  O  O66  1  0.244675  0.082376  0.160750  1
  O  O67  1  0.250586  0.002085  0.932383  1
  O  O68  1  0.084669  0.251574  0.663057  1
  O  O69  1  0.014183  0.217453  0.419106  1
  P  P70  1  0.914433  0.770945  0.838123  1
  P  P71  1  0.771509  0.907501  0.340642  1
  P  P72  1  0.914203  0.314309  0.338190  1
  P  P73  1  0.662434  0.666392  0.127547  1
  P  P74  1  0.662310  0.671176  0.627628  1
  P  P75  1  0.771897  0.320512  0.840455  1
  P  P76  1  0.677635  0.235877  0.656339  1
  P  P77  1  0.325805  0.906872  0.844564  1
  P  P78  1  0.677203  0.086567  0.156578  1
  P  P79  1  0.325634  0.767312  0.344398  1
  P  P80  1  0.227318  0.684030  0.161502  1
  P  P81  1  0.334749  0.335879  0.873001  1
  P  P82  1  0.334064  0.329686  0.372981  1
  P  P83  1  0.084579  0.680308  0.653955  1
  P  P84  1  0.227701  0.088817  0.661590  1
  P  P85  1  0.084141  0.235718  0.153923  1
  V  V86  1  0.999019  0.435415  0.746649  1
  V  V87  1  0.567572  0.429779  0.249004  1
  V  V88  1  0.432316  0.566123  0.750651  1
  V  V89  1  0.567934  0.002312  0.749017  1
  V  V90  1  0.431789  0.001400  0.250782  1
  V  V91  1  0.998855  0.565868  0.246719  1
