# generated using pymatgen
data_Ba5B3CNO9
_symmetry_space_group_name_H-M   'P 1'
_cell_length_a   8.09524242
_cell_length_b   9.18132304
_cell_length_c   9.18132322
_cell_angle_alpha   109.60230728
_cell_angle_beta   90.00000000
_cell_angle_gamma   90.00000000
_symmetry_Int_Tables_number   1
_chemical_formula_structural   Ba5B3CNO9
_chemical_formula_sum   'Ba10 B6 C2 N2 O18'
_cell_volume   642.85283728
_cell_formula_units_Z   2
loop_
 _symmetry_equiv_pos_site_id
 _symmetry_equiv_pos_as_xyz
  1  'x, y, z'
loop_
 _atom_site_type_symbol
 _atom_site_label
 _atom_site_symmetry_multiplicity
 _atom_site_fract_x
 _atom_site_fract_y
 _atom_site_fract_z
 _atom_site_occupancy
  Ba  Ba0  1  0.500000  0.741044  0.741044  1
  Ba  Ba1  1  0.000000  0.258956  0.258956  1
  Ba  Ba2  1  0.250000  0.861570  0.138430  1
  Ba  Ba3  1  0.435074  0.493396  0.234692  1
  Ba  Ba4  1  0.250000  0.145092  0.854908  1
  Ba  Ba5  1  0.750000  0.138430  0.861570  1
  Ba  Ba6  1  0.750000  0.854908  0.145092  1
  Ba  Ba7  1  0.064926  0.765308  0.506604  1
  Ba  Ba8  1  0.935074  0.506604  0.765308  1
  Ba  Ba9  1  0.564926  0.234692  0.493396  1
  B  B10  1  0.031621  0.514975  0.095347  1
  B  B11  1  0.500000  0.127363  0.127363  1
  B  B12  1  0.000000  0.872637  0.872637  1
  B  B13  1  0.968379  0.095347  0.514975  1
  B  B14  1  0.468379  0.904653  0.485025  1
  B  B15  1  0.531621  0.485025  0.904653  1
  C  C16  1  0.750000  0.615768  0.384232  1
  C  C17  1  0.250000  0.384232  0.615768  1
  N  N18  1  0.750000  0.536954  0.463046  1
  N  N19  1  0.250000  0.463046  0.536954  1
  O  O20  1  0.989264  0.367872  0.992053  1
  O  O21  1  0.010736  0.992053  0.367872  1
  O  O22  1  0.992135  0.647983  0.062077  1
  O  O23  1  0.617849  0.472837  0.769940  1
  O  O24  1  0.500000  0.994673  0.994673  1
  O  O25  1  0.507865  0.937923  0.352017  1
  O  O26  1  0.117849  0.527163  0.230060  1
  O  O27  1  0.382151  0.769940  0.472837  1
  O  O28  1  0.849220  0.809361  0.807718  1
  O  O29  1  0.349220  0.190639  0.192282  1
  O  O30  1  0.000000  0.005327  0.005327  1
  O  O31  1  0.007865  0.062077  0.647983  1
  O  O32  1  0.489264  0.632128  0.007947  1
  O  O33  1  0.510736  0.007947  0.632128  1
  O  O34  1  0.150780  0.807718  0.809361  1
  O  O35  1  0.492135  0.352017  0.937923  1
  O  O36  1  0.650780  0.192282  0.190639  1
  O  O37  1  0.882151  0.230060  0.527163  1
