# generated using pymatgen
data_CsMnCr(CN)6
_symmetry_space_group_name_H-M   'P 1'
_cell_length_a   7.66304854
_cell_length_b   7.66304862
_cell_length_c   7.66304799
_cell_angle_alpha   59.99999845
_cell_angle_beta   59.99999810
_cell_angle_gamma   60.00000160
_symmetry_Int_Tables_number   1
_chemical_formula_structural   CsMnCr(CN)6
_chemical_formula_sum   'Cs1 Mn1 Cr1 C6 N6'
_cell_volume   318.19232433
_cell_formula_units_Z   1
loop_
 _symmetry_equiv_pos_site_id
 _symmetry_equiv_pos_as_xyz
  1  'x, y, z'
loop_
 _atom_site_type_symbol
 _atom_site_label
 _atom_site_symmetry_multiplicity
 _atom_site_fract_x
 _atom_site_fract_y
 _atom_site_fract_z
 _atom_site_occupancy
  Cs  Cs0  1  0.250000  0.250000  0.250000  1
  Mn  Mn1  1  0.000000  0.000000  0.000000  1
  Cr  Cr2  1  0.500000  0.500000  0.500000  1
  C  C3  1  0.688471  0.311529  0.311529  1
  C  C4  1  0.311529  0.311529  0.688471  1
  C  C5  1  0.688471  0.688471  0.311529  1
  C  C6  1  0.311529  0.688471  0.688471  1
  C  C7  1  0.311529  0.688471  0.311529  1
  C  C8  1  0.688471  0.311529  0.688471  1
  N  N9  1  0.796761  0.203239  0.203239  1
  N  N10  1  0.203239  0.203239  0.796761  1
  N  N11  1  0.796761  0.796761  0.203239  1
  N  N12  1  0.203239  0.796761  0.796761  1
  N  N13  1  0.203239  0.796761  0.203239  1
  N  N14  1  0.796761  0.203239  0.796761  1
