# generated using pymatgen
data_Fe3(CuS5)2
_symmetry_space_group_name_H-M   'P 1'
_cell_length_a   5.56515604
_cell_length_b   5.55228370
_cell_length_c   27.84838286
_cell_angle_alpha   90.12934882
_cell_angle_beta   89.80706737
_cell_angle_gamma   90.07635447
_symmetry_Int_Tables_number   1
_chemical_formula_structural   Fe3(CuS5)2
_chemical_formula_sum   'Fe12 Cu8 S40'
_cell_volume   860.48840959
_cell_formula_units_Z   4
loop_
 _symmetry_equiv_pos_site_id
 _symmetry_equiv_pos_as_xyz
  1  'x, y, z'
loop_
 _atom_site_type_symbol
 _atom_site_label
 _atom_site_symmetry_multiplicity
 _atom_site_fract_x
 _atom_site_fract_y
 _atom_site_fract_z
 _atom_site_occupancy
  Cu  Cu0  1  0.007145  0.998386  0.001810  1
  Cu  Cu1  1  0.494675  0.502219  0.198343  1
  Cu  Cu2  1  0.500585  0.499643  0.599822  1
  Cu  Cu3  1  0.499994  1.001465  0.299405  1
  Cu  Cu4  1  0.503340  0.500398  0.400626  1
  Cu  Cu5  1  0.501814  0.501831  0.799820  1
  Cu  Cu6  1  0.506992  0.002156  0.899979  1
  Cu  Cu7  1  1.000188  0.999736  0.599842  1
  Fe  Fe8  1  0.990800  0.001437  0.198994  1
  Fe  Fe9  1  0.009235  1.002208  0.399991  1
  Fe  Fe10  1  -0.000657  0.499962  0.700948  1
  Fe  Fe11  1  0.994674  -0.002492  0.799330  1
  Fe  Fe12  1  0.494834  0.997415  0.100167  1
  Fe  Fe13  1  0.497665  0.496089  0.001629  1
  Fe  Fe14  1  0.507711  1.002376  0.499194  1
  Fe  Fe15  1  0.494091  0.997246  0.700716  1
  Fe  Fe16  1  0.993635  0.504682  0.099957  1
  Fe  Fe17  1  0.999956  0.501612  0.299471  1
  Fe  Fe18  1  1.001894  0.499779  0.498746  1
  Fe  Fe19  1  0.004456  0.493617  0.901137  1
  S  S20  1  0.118250  0.879634  0.080889  1
  S  S21  1  0.090257  0.617326  0.175864  1
  S  S22  1  0.093162  0.882007  0.274927  1
  S  S23  1  0.120434  0.875211  0.681065  1
  S  S24  1  0.097102  0.624396  0.375317  1
  S  S25  1  0.117964  0.886523  0.476423  1
  S  S26  1  0.101345  0.599438  0.575172  1
  S  S27  1  0.092938  0.614857  0.776566  1
  S  S28  1  0.118566  0.594772  0.976771  1
  S  S29  1  0.094637  0.880037  0.876021  1
  S  S30  1  0.380870  0.385654  0.077956  1
  S  S31  1  0.378947  0.094536  0.175970  1
  S  S32  1  0.380550  0.104603  0.379451  1
  S  S33  1  0.378487  0.401499  0.279589  1
  S  S34  1  0.400146  0.097609  0.575151  1
  S  S35  1  0.383958  0.383544  0.480478  1
  S  S36  1  0.382217  0.089549  0.776969  1
  S  S37  1  0.377925  0.375522  0.681872  1
  S  S38  1  0.378144  0.398927  0.880208  1
  S  S39  1  0.405125  0.121371  0.980354  1
  S  S40  1  0.616412  0.622296  0.119530  1
  S  S41  1  0.621141  0.601810  0.319392  1
  S  S42  1  0.593329  0.884271  0.024625  1
  S  S43  1  0.623377  0.624215  0.517950  1
  S  S44  1  0.618976  0.900320  0.219462  1
  S  S45  1  0.617573  0.616387  0.719150  1
  S  S46  1  0.620449  0.910313  0.422781  1
  S  S47  1  0.600502  0.902062  0.624524  1
  S  S48  1  0.617545  0.591831  0.924990  1
  S  S49  1  0.622824  0.895451  0.820471  1
  S  S50  1  0.881115  0.117869  0.122713  1
  S  S51  1  0.878174  0.405472  0.024884  1
  S  S52  1  0.902417  0.379047  0.223672  1
  S  S53  1  0.906834  0.121121  0.324035  1
  S  S54  1  0.880936  0.124566  0.518595  1
  S  S55  1  0.883510  0.113055  0.723251  1
  S  S56  1  0.899836  0.400361  0.624493  1
  S  S57  1  0.909972  0.385832  0.423045  1
  S  S58  1  0.905535  0.119329  0.921382  1
  S  S59  1  0.905490  0.377615  0.824116  1
