# generated using pymatgen
data_KY(WO4)2
_symmetry_space_group_name_H-M   'P 1'
_cell_length_a   7.67584518
_cell_length_b   7.67584518
_cell_length_c   7.46753774
_cell_angle_alpha   62.04859925
_cell_angle_beta   62.04859929
_cell_angle_gamma   87.98386817
_symmetry_Int_Tables_number   1
_chemical_formula_structural   KY(WO4)2
_chemical_formula_sum   'K2 Y2 W4 O16'
_cell_volume   333.57656008
_cell_formula_units_Z   2
loop_
 _symmetry_equiv_pos_site_id
 _symmetry_equiv_pos_as_xyz
  1  'x, y, z'
loop_
 _atom_site_type_symbol
 _atom_site_label
 _atom_site_symmetry_multiplicity
 _atom_site_fract_x
 _atom_site_fract_y
 _atom_site_fract_z
 _atom_site_occupancy
  O  O0  1  0.251701  0.124627  0.557261  1
  O  O1  1  0.875373  0.748299  0.942739  1
  O  O2  1  0.748299  0.875373  0.442739  1
  O  O3  1  0.124627  0.251701  0.057261  1
  O  O4  1  0.860027  0.555484  0.377849  1
  O  O5  1  0.444516  0.139973  0.122151  1
  O  O6  1  0.139973  0.444516  0.622151  1
  O  O7  1  0.555484  0.860027  0.877849  1
  O  O8  1  0.731878  0.540163  0.809361  1
  O  O9  1  0.459837  0.268122  0.690639  1
  O  O10  1  0.268122  0.459837  0.190639  1
  O  O11  1  0.540163  0.731878  0.309361  1
  O  O12  1  0.126591  0.905024  0.035483  1
  O  O13  1  0.094976  0.873409  0.464517  1
  O  O14  1  0.873409  0.094976  0.964517  1
  O  O15  1  0.905024  0.126591  0.535483  1
  K  K16  1  0.288588  0.711412  0.750000  1
  K  K17  1  0.711412  0.288588  0.250000  1
  Y  Y18  1  0.724364  0.275636  0.750000  1
  Y  Y19  1  0.275636  0.724364  0.250000  1
  W  W20  1  0.200265  0.192024  0.286092  1
  W  W21  1  0.807976  0.799735  0.213908  1
  W  W22  1  0.799735  0.807976  0.713908  1
  W  W23  1  0.192024  0.200265  0.786092  1
