# generated using pymatgen
data_CdI2
_symmetry_space_group_name_H-M   'P 1'
_cell_length_a   4.33788847
_cell_length_b   4.33788872
_cell_length_c   96.70980364
_cell_angle_alpha   90.00000000
_cell_angle_beta   90.00000000
_cell_angle_gamma   119.99999799
_symmetry_Int_Tables_number   1
_chemical_formula_structural   CdI2
_chemical_formula_sum   'Cd12 I24'
_cell_volume   1576.00623414
_cell_formula_units_Z   12
loop_
 _symmetry_equiv_pos_site_id
 _symmetry_equiv_pos_as_xyz
  1  'x, y, z'
loop_
 _atom_site_type_symbol
 _atom_site_label
 _atom_site_symmetry_multiplicity
 _atom_site_fract_x
 _atom_site_fract_y
 _atom_site_fract_z
 _atom_site_occupancy
  Cd  Cd0  1  0.666667  0.333333  0.270117  1
  Cd  Cd1  1  0.666667  0.333333  0.021342  1
  Cd  Cd2  1  0.000000  0.000000  0.103357  1
  Cd  Cd3  1  0.666667  0.333333  0.355142  1
  Cd  Cd4  1  0.000000  0.000000  0.520430  1
  Cd  Cd5  1  0.000000  0.000000  0.771025  1
  Cd  Cd6  1  0.666667  0.333333  0.187559  1
  Cd  Cd7  1  0.666667  0.333333  0.603837  1
  Cd  Cd8  1  0.000000  0.000000  0.854520  1
  Cd  Cd9  1  0.666667  0.333333  0.688393  1
  Cd  Cd10  1  0.000000  0.000000  0.936600  1
  Cd  Cd11  1  0.000000  0.000000  0.437689  1
  I  I12  1  0.000000  0.000000  0.169780  1
  I  I13  1  0.666667  0.333333  0.836737  1
  I  I14  1  0.333333  0.666667  0.788799  1
  I  I15  1  0.666667  0.333333  0.085589  1
  I  I16  1  0.333333  0.666667  0.455464  1
  I  I17  1  0.333333  0.666667  0.205331  1
  I  I18  1  0.333333  0.666667  0.954359  1
  I  I19  1  0.000000  0.000000  0.670615  1
  I  I20  1  0.666667  0.333333  0.753248  1
  I  I21  1  0.000000  0.000000  0.586061  1
  I  I22  1  0.333333  0.666667  0.538211  1
  I  I23  1  0.333333  0.666667  0.121119  1
  I  I24  1  0.333333  0.666667  0.039099  1
  I  I25  1  0.000000  0.000000  0.003583  1
  I  I26  1  0.333333  0.666667  0.287894  1
  I  I27  1  0.333333  0.666667  0.372911  1
  I  I28  1  0.000000  0.000000  0.337382  1
  I  I29  1  0.333333  0.666667  0.621616  1
  I  I30  1  0.666667  0.333333  0.419913  1
  I  I31  1  0.333333  0.666667  0.706161  1
  I  I32  1  0.000000  0.000000  0.252345  1
  I  I33  1  0.666667  0.333333  0.918819  1
  I  I34  1  0.666667  0.333333  0.502662  1
  I  I35  1  0.333333  0.666667  0.872293  1
