# generated using pymatgen
data_B
_symmetry_space_group_name_H-M   'P 1'
_cell_length_a   5.06336916
_cell_length_b   8.61960413
_cell_length_c   8.61960413
_cell_angle_alpha   90.00000000
_cell_angle_beta   90.00000000
_cell_angle_gamma   90.00000000
_symmetry_Int_Tables_number   1
_chemical_formula_structural   B
_chemical_formula_sum   B50
_cell_volume   376.19605173
_cell_formula_units_Z   50
loop_
 _symmetry_equiv_pos_site_id
 _symmetry_equiv_pos_as_xyz
  1  'x, y, z'
loop_
 _atom_site_type_symbol
 _atom_site_label
 _atom_site_symmetry_multiplicity
 _atom_site_fract_x
 _atom_site_fract_y
 _atom_site_fract_z
 _atom_site_occupancy
  B  B0  1  0.365830  0.878895  0.378895  1
  B  B1  1  0.153572  0.078914  0.167864  1
  B  B2  1  0.343048  0.331257  0.977368  1
  B  B3  1  0.343048  0.022632  0.668743  1
  B  B4  1  0.843048  0.977368  0.168743  1
  B  B5  1  0.834292  0.004174  0.504174  1
  B  B6  1  0.843048  0.831257  0.022632  1
  B  B7  1  0.656952  0.831257  0.477368  1
  B  B8  1  0.865830  0.121105  0.878895  1
  B  B9  1  0.750000  0.750000  0.250000  1
  B  B10  1  0.346428  0.832136  0.578914  1
  B  B11  1  0.346428  0.421086  0.167864  1
  B  B12  1  0.343048  0.168743  0.522632  1
  B  B13  1  0.365830  0.621105  0.121105  1
  B  B14  1  0.134170  0.878895  0.121105  1
  B  B15  1  0.153572  0.667864  0.578914  1
  B  B16  1  0.653572  0.167864  0.421086  1
  B  B17  1  0.665708  0.004174  0.995826  1
  B  B18  1  0.653572  0.578914  0.832136  1
  B  B19  1  0.346428  0.078914  0.332136  1
  B  B20  1  0.165708  0.995826  0.495826  1
  B  B21  1  0.153572  0.421086  0.332136  1
  B  B22  1  0.334292  0.504174  0.495826  1
  B  B23  1  0.665708  0.495826  0.504174  1
  B  B24  1  0.334292  0.995826  0.004174  1
  B  B25  1  0.843048  0.668743  0.477368  1
  B  B26  1  0.865830  0.378895  0.621105  1
  B  B27  1  0.834292  0.495826  0.995826  1
  B  B28  1  0.656952  0.522632  0.168743  1
  B  B29  1  0.134170  0.621105  0.378895  1
  B  B30  1  0.846428  0.332136  0.421086  1
  B  B31  1  0.156952  0.477368  0.668743  1
  B  B32  1  0.343048  0.477368  0.831257  1
  B  B33  1  0.156952  0.022632  0.831257  1
  B  B34  1  0.656952  0.668743  0.022632  1
  B  B35  1  0.846428  0.167864  0.078914  1
  B  B36  1  0.156952  0.168743  0.977368  1
  B  B37  1  0.846428  0.578914  0.667864  1
  B  B38  1  0.653572  0.332136  0.078914  1
  B  B39  1  0.634170  0.378895  0.878895  1
  B  B40  1  0.346428  0.667864  0.921086  1
  B  B41  1  0.156952  0.331257  0.522632  1
  B  B42  1  0.656952  0.977368  0.331257  1
  B  B43  1  0.653572  0.921086  0.667864  1
  B  B44  1  0.250000  0.250000  0.750000  1
  B  B45  1  0.846428  0.921086  0.832136  1
  B  B46  1  0.165708  0.504174  0.004174  1
  B  B47  1  0.634170  0.121105  0.621105  1
  B  B48  1  0.153572  0.832136  0.921086  1
  B  B49  1  0.843048  0.522632  0.331257  1
