# generated using pymatgen
data_Na2MnP2O7
_symmetry_space_group_name_H-M   'P 1'
_cell_length_a   5.38056836
_cell_length_b   6.66645732
_cell_length_c   9.53521944
_cell_angle_alpha   109.77823530
_cell_angle_beta   95.24319098
_cell_angle_gamma   106.18885854
_symmetry_Int_Tables_number   1
_chemical_formula_structural   Na2MnP2O7
_chemical_formula_sum   'Na4 Mn2 P4 O14'
_cell_volume   302.48611600
_cell_formula_units_Z   2
loop_
 _symmetry_equiv_pos_site_id
 _symmetry_equiv_pos_as_xyz
  1  'x, y, z'
loop_
 _atom_site_type_symbol
 _atom_site_label
 _atom_site_symmetry_multiplicity
 _atom_site_fract_x
 _atom_site_fract_y
 _atom_site_fract_z
 _atom_site_occupancy
  Na  Na0  1  0.348426  0.136133  0.728570  1
  Na  Na1  1  0.651574  0.863867  0.271430  1
  Na  Na2  1  0.874357  0.219859  0.964309  1
  Na  Na3  1  0.125643  0.780141  0.035691  1
  Mn  Mn4  1  0.088888  0.600452  0.362881  1
  Mn  Mn5  1  0.911112  0.399548  0.637119  1
  P  P6  1  0.743316  0.837435  0.611017  1
  P  P7  1  0.256684  0.162565  0.388983  1
  P  P8  1  0.567768  0.669600  0.865736  1
  P  P9  1  0.432232  0.330400  0.134264  1
  O  O10  1  0.731983  0.508947  0.832594  1
  O  O11  1  0.100606  0.908813  0.330699  1
  O  O12  1  0.899394  0.091187  0.669301  1
  O  O13  1  0.627189  0.820716  0.759027  1
  O  O14  1  0.511854  0.760789  0.480472  1
  O  O15  1  0.268017  0.491053  0.167406  1
  O  O16  1  0.488146  0.239211  0.519528  1
  O  O17  1  0.066802  0.302289  0.420460  1
  O  O18  1  0.933198  0.697711  0.579540  1
  O  O19  1  0.333864  0.150963  0.973500  1
  O  O20  1  0.372811  0.179285  0.240973  1
  O  O21  1  0.269681  0.545617  0.821187  1
  O  O22  1  0.730319  0.454383  0.178813  1
  O  O23  1  0.666136  0.849037  0.026500  1
