# generated using pymatgen
data_Tm3(CuSn)4
_symmetry_space_group_name_H-M   'P 1'
_cell_length_a   4.14932540
_cell_length_b   8.42842004
_cell_length_c   8.16919947
_cell_angle_alpha   120.92693720
_cell_angle_beta   104.68712075
_cell_angle_gamma   89.99364550
_symmetry_Int_Tables_number   1
_chemical_formula_structural   Tm3(CuSn)4
_chemical_formula_sum   'Tm3 Cu4 Sn4'
_cell_volume   234.13200597
_cell_formula_units_Z   1
loop_
 _symmetry_equiv_pos_site_id
 _symmetry_equiv_pos_as_xyz
  1  'x, y, z'
loop_
 _atom_site_type_symbol
 _atom_site_label
 _atom_site_symmetry_multiplicity
 _atom_site_fract_x
 _atom_site_fract_y
 _atom_site_fract_z
 _atom_site_occupancy
  Tm  Tm0  1  0.853699  0.848570  0.707347  1
  Tm  Tm1  1  0.146301  0.151430  0.292653  1
  Tm  Tm2  1  0.500000  0.500000  0.000000  1
  Cu  Cu3  1  0.308950  0.072575  0.618161  1
  Cu  Cu4  1  0.691050  0.927425  0.381839  1
  Cu  Cu5  1  0.311970  0.549916  0.624100  1
  Cu  Cu6  1  0.688030  0.450084  0.375900  1
  Sn  Sn7  1  0.174864  0.675164  0.349618  1
  Sn  Sn8  1  0.825136  0.324836  0.650382  1
  Sn  Sn9  1  0.498144  0.159426  0.995475  1
  Sn  Sn10  1  0.501856  0.840574  0.004525  1
