# generated using pymatgen
data_Ag9Ge2IO8
_symmetry_space_group_name_H-M   'P 1'
_cell_length_a   5.77899599
_cell_length_b   7.01106909
_cell_length_c   9.64383549
_cell_angle_alpha   111.31530337
_cell_angle_beta   104.66888046
_cell_angle_gamma   90.00000284
_symmetry_Int_Tables_number   1
_chemical_formula_structural   Ag9Ge2IO8
_chemical_formula_sum   'Ag9 Ge2 I1 O8'
_cell_volume   350.30350773
_cell_formula_units_Z   1
loop_
 _symmetry_equiv_pos_site_id
 _symmetry_equiv_pos_as_xyz
  1  'x, y, z'
loop_
 _atom_site_type_symbol
 _atom_site_label
 _atom_site_symmetry_multiplicity
 _atom_site_fract_x
 _atom_site_fract_y
 _atom_site_fract_z
 _atom_site_occupancy
  Ag  Ag0  1  0.283837  0.821314  0.642628  1
  Ag  Ag1  1  0.500000  0.719001  0.000000  1
  Ag  Ag2  1  0.716163  0.178686  0.357372  1
  Ag  Ag3  1  0.291146  0.401355  0.354861  1
  Ag  Ag4  1  0.291146  0.953507  0.354861  1
  Ag  Ag5  1  0.000000  0.500000  0.000000  1
  Ag  Ag6  1  0.708854  0.046493  0.645139  1
  Ag  Ag7  1  0.708854  0.598645  0.645139  1
  Ag  Ag8  1  0.500000  0.280999  1.000000  1
  Ge  Ge9  1  0.215100  0.340945  0.681890  1
  Ge  Ge10  1  0.784900  0.659055  0.318111  1
  I  I11  1  0.000000  0.000000  0.000000  1
  O  O12  1  0.874262  0.762162  0.524324  1
  O  O13  1  0.125738  0.237838  0.475677  1
  O  O14  1  0.397983  0.580063  0.750464  1
  O  O15  1  0.602017  0.829600  0.249536  1
  O  O16  1  0.048521  0.626038  0.252075  1
  O  O17  1  0.397983  0.170400  0.750464  1
  O  O18  1  0.951479  0.373962  0.747925  1
  O  O19  1  0.602017  0.419937  0.249536  1
