# generated using pymatgen
data_Mn(C2N3)2
_symmetry_space_group_name_H-M   'P 1'
_cell_length_a   6.26153272
_cell_length_b   7.44340948
_cell_length_c   7.52122662
_cell_angle_alpha   90.00000000
_cell_angle_beta   90.00000000
_cell_angle_gamma   90.00000000
_symmetry_Int_Tables_number   1
_chemical_formula_structural   Mn(C2N3)2
_chemical_formula_sum   'Mn2 C8 N12'
_cell_volume   350.54295236
_cell_formula_units_Z   2
loop_
 _symmetry_equiv_pos_site_id
 _symmetry_equiv_pos_as_xyz
  1  'x, y, z'
loop_
 _atom_site_type_symbol
 _atom_site_label
 _atom_site_symmetry_multiplicity
 _atom_site_fract_x
 _atom_site_fract_y
 _atom_site_fract_z
 _atom_site_occupancy
  Mn  Mn0  1  0.000000  0.000000  0.000000  1
  Mn  Mn1  1  0.500000  0.500000  0.500000  1
  C  C2  1  0.738769  0.146335  0.349010  1
  C  C3  1  0.738769  0.146335  0.650990  1
  C  C4  1  0.238769  0.353665  0.849010  1
  C  C5  1  0.261231  0.853665  0.349010  1
  C  C6  1  0.761231  0.646335  0.150990  1
  C  C7  1  0.261231  0.853665  0.650990  1
  C  C8  1  0.238769  0.353665  0.150990  1
  C  C9  1  0.761231  0.646335  0.849010  1
  N  N10  1  0.210565  0.905674  0.207530  1
  N  N11  1  0.710565  0.594326  0.707530  1
  N  N12  1  0.173064  0.286395  0.000000  1
  N  N13  1  0.210565  0.905674  0.792470  1
  N  N14  1  0.289435  0.405674  0.292470  1
  N  N15  1  0.326936  0.786395  0.500000  1
  N  N16  1  0.289435  0.405674  0.707530  1
  N  N17  1  0.789435  0.094326  0.792470  1
  N  N18  1  0.826936  0.713605  0.000000  1
  N  N19  1  0.789435  0.094326  0.207530  1
  N  N20  1  0.673064  0.213605  0.500000  1
  N  N21  1  0.710565  0.594326  0.292470  1
