# generated using pymatgen
data_PbO
_symmetry_space_group_name_H-M   'P 1'
_cell_length_a   5.95511950
_cell_length_b   5.79079045
_cell_length_c   5.45169981
_cell_angle_alpha   89.99570024
_cell_angle_beta   89.99606298
_cell_angle_gamma   90.00050611
_symmetry_Int_Tables_number   1
_chemical_formula_structural   PbO
_chemical_formula_sum   'Pb4 O4'
_cell_volume   188.00104463
_cell_formula_units_Z   4
loop_
 _symmetry_equiv_pos_site_id
 _symmetry_equiv_pos_as_xyz
  1  'x, y, z'
loop_
 _atom_site_type_symbol
 _atom_site_label
 _atom_site_symmetry_multiplicity
 _atom_site_fract_x
 _atom_site_fract_y
 _atom_site_fract_z
 _atom_site_occupancy
  O  O0  1  0.615513  0.884328  0.132950  1
  O  O1  1  0.384450  0.384329  0.132982  1
  Pb  Pb2  1  0.721363  0.525914  0.247516  1
  O  O3  1  0.615587  0.615662  0.632974  1
  Pb  Pb4  1  0.278610  0.025906  0.247558  1
  Pb  Pb5  1  0.278643  0.474100  0.747530  1
  Pb  Pb6  1  0.721367  0.974100  0.747512  1
  O  O7  1  0.384467  0.115662  0.632977  1
