# generated using pymatgen
data_Rb2TeBr6
_symmetry_space_group_name_H-M   'P 1'
_cell_length_a   7.82895187
_cell_length_b   7.82895144
_cell_length_c   7.88400716
_cell_angle_alpha   119.76926659
_cell_angle_beta   119.76926475
_cell_angle_gamma   90.00000162
_symmetry_Int_Tables_number   1
_chemical_formula_structural   Rb2TeBr6
_chemical_formula_sum   'Rb2 Te1 Br6'
_cell_volume   344.06505132
_cell_formula_units_Z   1
loop_
 _symmetry_equiv_pos_site_id
 _symmetry_equiv_pos_as_xyz
  1  'x, y, z'
loop_
 _atom_site_type_symbol
 _atom_site_label
 _atom_site_symmetry_multiplicity
 _atom_site_fract_x
 _atom_site_fract_y
 _atom_site_fract_z
 _atom_site_occupancy
  Rb  Rb0  1  0.250000  0.750000  0.500000  1
  Rb  Rb1  1  0.750000  0.250000  0.500000  1
  Te  Te2  1  0.000000  0.000000  0.000000  1
  Br  Br3  1  0.267224  0.774695  1.000000  1
  Br  Br4  1  0.756293  0.756293  0.512586  1
  Br  Br5  1  0.774695  0.732776  1.000000  1
  Br  Br6  1  0.225305  0.267224  0.000000  1
  Br  Br7  1  0.243707  0.243707  0.487414  1
  Br  Br8  1  0.732776  0.225305  0.000000  1
