# generated using pymatgen
data_Ba14Na7CaN6
_symmetry_space_group_name_H-M   'P 1'
_cell_length_a   22.10833217
_cell_length_b   22.10833235
_cell_length_c   22.10833154
_cell_angle_alpha   29.88911339
_cell_angle_beta   29.88911255
_cell_angle_gamma   29.88911233
_symmetry_Int_Tables_number   1
_chemical_formula_structural   Ba14Na7CaN6
_chemical_formula_sum   'Ba28 Na14 Ca2 N12'
_cell_volume   2376.54134824
_cell_formula_units_Z   2
loop_
 _symmetry_equiv_pos_site_id
 _symmetry_equiv_pos_as_xyz
  1  'x, y, z'
loop_
 _atom_site_type_symbol
 _atom_site_label
 _atom_site_symmetry_multiplicity
 _atom_site_fract_x
 _atom_site_fract_y
 _atom_site_fract_z
 _atom_site_occupancy
  Ba  Ba0  1  0.130477  0.844275  0.385234  1
  Ba  Ba1  1  0.155725  0.614766  0.869523  1
  Ba  Ba2  1  0.844275  0.385234  0.130477  1
  Ba  Ba3  1  0.552693  0.552693  0.552693  1
  Ba  Ba4  1  0.052693  0.052693  0.052693  1
  Ba  Ba5  1  0.447307  0.447307  0.447307  1
  Ba  Ba6  1  0.869523  0.155725  0.614766  1
  Ba  Ba7  1  0.344275  0.630477  0.885234  1
  Ba  Ba8  1  0.630477  0.885234  0.344275  1
  Ba  Ba9  1  0.187594  0.531372  0.729243  1
  Ba  Ba10  1  0.729243  0.187594  0.531372  1
  Ba  Ba11  1  0.885234  0.344275  0.630477  1
  Ba  Ba12  1  0.229243  0.031372  0.687594  1
  Ba  Ba13  1  0.687594  0.229243  0.031372  1
  Ba  Ba14  1  0.812406  0.468628  0.270757  1
  Ba  Ba15  1  0.947307  0.947307  0.947307  1
  Ba  Ba16  1  0.369523  0.114766  0.655725  1
  Ba  Ba17  1  0.655725  0.369523  0.114766  1
  Ba  Ba18  1  0.531372  0.729243  0.187594  1
  Ba  Ba19  1  0.614766  0.869523  0.155725  1
  Ba  Ba20  1  0.968628  0.312406  0.770757  1
  Ba  Ba21  1  0.270757  0.812406  0.468628  1
  Ba  Ba22  1  0.468628  0.270757  0.812406  1
  Ba  Ba23  1  0.114766  0.655725  0.369523  1
  Ba  Ba24  1  0.031372  0.687594  0.229243  1
  Ba  Ba25  1  0.385234  0.130477  0.844275  1
  Ba  Ba26  1  0.770757  0.968628  0.312406  1
  Ba  Ba27  1  0.312406  0.770757  0.968628  1
  Na  Na28  1  0.664728  0.664728  0.664728  1
  Na  Na29  1  0.959312  0.540688  0.250000  1
  Na  Na30  1  0.459312  0.750000  0.040688  1
  Na  Na31  1  0.221691  0.221691  0.221691  1
  Na  Na32  1  0.721691  0.721691  0.721691  1
  Na  Na33  1  0.540688  0.250000  0.959312  1
  Na  Na34  1  0.164728  0.164728  0.164728  1
  Na  Na35  1  0.835272  0.835272  0.835272  1
  Na  Na36  1  0.278309  0.278309  0.278309  1
  Na  Na37  1  0.335272  0.335272  0.335272  1
  Na  Na38  1  0.250000  0.959312  0.540688  1
  Na  Na39  1  0.778309  0.778309  0.778309  1
  Na  Na40  1  0.750000  0.040688  0.459312  1
  Na  Na41  1  0.040688  0.459312  0.750000  1
  Ca  Ca42  1  0.000000  0.000000  0.000000  1
  Ca  Ca43  1  0.500000  0.500000  0.500000  1
  N  N44  1  0.057552  0.825307  0.187779  1
  N  N45  1  0.687779  0.325307  0.557552  1
  N  N46  1  0.442448  0.312221  0.674693  1
  N  N47  1  0.825307  0.187779  0.057552  1
  N  N48  1  0.674693  0.442448  0.312221  1
  N  N49  1  0.325307  0.557552  0.687779  1
  N  N50  1  0.187779  0.057552  0.825307  1
  N  N51  1  0.557552  0.687779  0.325307  1
  N  N52  1  0.312221  0.674693  0.442448  1
  N  N53  1  0.942448  0.174693  0.812221  1
  N  N54  1  0.812221  0.942448  0.174693  1
  N  N55  1  0.174693  0.812221  0.942448  1
