# generated using pymatgen
data_SiO2
_symmetry_space_group_name_H-M   'P 1'
_cell_length_a   11.21071209
_cell_length_b   11.21071187
_cell_length_c   11.33349358
_cell_angle_alpha   111.63008546
_cell_angle_beta   111.63008501
_cell_angle_gamma   104.75583344
_symmetry_Int_Tables_number   1
_chemical_formula_structural   SiO2
_chemical_formula_sum   'Si18 O36'
_cell_volume   1097.95019617
_cell_formula_units_Z   18
loop_
 _symmetry_equiv_pos_site_id
 _symmetry_equiv_pos_as_xyz
  1  'x, y, z'
loop_
 _atom_site_type_symbol
 _atom_site_label
 _atom_site_symmetry_multiplicity
 _atom_site_fract_x
 _atom_site_fract_y
 _atom_site_fract_z
 _atom_site_occupancy
  Si  Si0  1  0.297640  0.547509  0.619455  1
  Si  Si1  1  0.705854  0.705854  0.631787  1
  Si  Si2  1  0.928053  0.678184  0.380545  1
  Si  Si3  1  0.321816  0.071947  0.619455  1
  Si  Si4  1  0.547509  0.297640  0.619455  1
  Si  Si5  1  0.071947  0.321816  0.619455  1
  Si  Si6  1  0.787872  0.787872  0.177775  1
  Si  Si7  1  0.610097  0.610097  0.822225  1
  Si  Si8  1  0.452491  0.702360  0.380545  1
  Si  Si9  1  0.294146  0.294146  0.368213  1
  Si  Si10  1  0.678184  0.928053  0.380545  1
  Si  Si11  1  0.925934  0.925934  0.631787  1
  Si  Si12  1  0.250000  0.750000  0.500000  1
  Si  Si13  1  0.702360  0.452491  0.380545  1
  Si  Si14  1  0.074066  0.074066  0.368213  1
  Si  Si15  1  0.389903  0.389903  0.177775  1
  Si  Si16  1  0.750000  0.250000  0.500000  1
  Si  Si17  1  0.212128  0.212128  0.822225  1
  O  O18  1  0.923170  0.320224  0.608062  1
  O  O19  1  0.314406  0.164121  0.763730  1
  O  O20  1  0.966656  0.816866  0.530759  1
  O  O21  1  0.834308  0.529505  0.363813  1
  O  O22  1  0.287839  0.684892  0.608062  1
  O  O23  1  0.564104  0.713893  0.530759  1
  O  O24  1  0.816866  0.966656  0.530759  1
  O  O25  1  0.470495  0.165692  0.636187  1
  O  O26  1  0.835879  0.685594  0.236270  1
  O  O27  1  0.529505  0.834308  0.363813  1
  O  O28  1  0.149657  0.149657  0.299314  1
  O  O29  1  0.685594  0.835879  0.236270  1
  O  O30  1  0.435896  0.286107  0.469241  1
  O  O31  1  0.713893  0.564104  0.530759  1
  O  O32  1  0.550676  0.400391  0.236270  1
  O  O33  1  0.165692  0.470495  0.636187  1
  O  O34  1  0.304832  0.304832  0.233869  1
  O  O35  1  0.850343  0.850343  0.700686  1
  O  O36  1  0.315108  0.712161  0.391938  1
  O  O37  1  0.164121  0.314406  0.763730  1
  O  O38  1  0.286107  0.435896  0.469241  1
  O  O39  1  0.033344  0.183134  0.469241  1
  O  O40  1  0.070963  0.070963  0.766131  1
  O  O41  1  0.698082  0.698082  1.000000  1
  O  O42  1  0.679776  0.076830  0.391938  1
  O  O43  1  0.400391  0.550676  0.236270  1
  O  O44  1  0.449324  0.599609  0.763730  1
  O  O45  1  0.301918  0.301918  0.000000  1
  O  O46  1  0.183134  0.033344  0.469241  1
  O  O47  1  0.320224  0.923170  0.608062  1
  O  O48  1  0.599609  0.449324  0.763730  1
  O  O49  1  0.929037  0.929037  0.233869  1
  O  O50  1  0.076830  0.679776  0.391938  1
  O  O51  1  0.684892  0.287839  0.608062  1
  O  O52  1  0.712161  0.315108  0.391938  1
  O  O53  1  0.695168  0.695168  0.766131  1
