# generated using pymatgen
data_VAg2PO6
_symmetry_space_group_name_H-M   'P 1'
_cell_length_a   6.34926281
_cell_length_b   6.43455235
_cell_length_c   7.05730056
_cell_angle_alpha   89.97026360
_cell_angle_beta   116.73319836
_cell_angle_gamma   90.00000147
_symmetry_Int_Tables_number   1
_chemical_formula_structural   VAg2PO6
_chemical_formula_sum   'V2 Ag4 P2 O12'
_cell_volume   257.50494301
_cell_formula_units_Z   2
loop_
 _symmetry_equiv_pos_site_id
 _symmetry_equiv_pos_as_xyz
  1  'x, y, z'
loop_
 _atom_site_type_symbol
 _atom_site_label
 _atom_site_symmetry_multiplicity
 _atom_site_fract_x
 _atom_site_fract_y
 _atom_site_fract_z
 _atom_site_occupancy
  V  V0  1  0.614847  0.086458  0.229695  1
  V  V1  1  0.385153  0.913542  0.770305  1
  Ag  Ag2  1  0.364077  0.618660  0.239840  1
  Ag  Ag3  1  0.875763  0.618660  0.239840  1
  Ag  Ag4  1  0.635923  0.381340  0.760160  1
  Ag  Ag5  1  0.124237  0.381340  0.760160  1
  P  P6  1  0.846591  0.849308  0.693181  1
  P  P7  1  0.153409  0.150692  0.306819  1
  O  O8  1  0.510074  0.796868  0.020148  1
  O  O9  1  0.098543  0.365013  0.197084  1
  O  O10  1  0.315261  0.023476  0.237462  1
  O  O11  1  0.301053  0.714161  0.602106  1
  O  O12  1  0.684739  0.976524  0.762538  1
  O  O13  1  0.276873  0.173786  0.553745  1
  O  O14  1  0.922202  0.023476  0.237462  1
  O  O15  1  0.901457  0.634987  0.802916  1
  O  O16  1  0.698947  0.285839  0.397894  1
  O  O17  1  0.489926  0.203132  0.979852  1
  O  O18  1  0.077798  0.976524  0.762538  1
  O  O19  1  0.723127  0.826214  0.446255  1
