# generated using pymatgen
data_Cr2S3
_symmetry_space_group_name_H-M   'P 1'
_cell_length_a   6.38534809
_cell_length_b   6.38534746
_cell_length_c   6.38534758
_cell_angle_alpha   56.32321691
_cell_angle_beta   56.32322110
_cell_angle_gamma   56.32322130
_symmetry_Int_Tables_number   1
_chemical_formula_structural   Cr2S3
_chemical_formula_sum   'Cr4 S6'
_cell_volume   168.43568187
_cell_formula_units_Z   2
loop_
 _symmetry_equiv_pos_site_id
 _symmetry_equiv_pos_as_xyz
  1  'x, y, z'
loop_
 _atom_site_type_symbol
 _atom_site_label
 _atom_site_symmetry_multiplicity
 _atom_site_fract_x
 _atom_site_fract_y
 _atom_site_fract_z
 _atom_site_occupancy
  Cr  Cr0  1  0.329251  0.329251  0.329251  1
  Cr  Cr1  1  0.500000  0.500000  0.500000  1
  Cr  Cr2  1  0.000000  0.000000  0.000000  1
  Cr  Cr3  1  0.670749  0.670749  0.670749  1
  S  S4  1  0.740516  0.408761  0.093924  1
  S  S5  1  0.093924  0.740516  0.408761  1
  S  S6  1  0.591239  0.906076  0.259484  1
  S  S7  1  0.408761  0.093924  0.740516  1
  S  S8  1  0.906076  0.259484  0.591239  1
  S  S9  1  0.259484  0.591239  0.906076  1
