# generated using pymatgen
data_BaSb2F12
_symmetry_space_group_name_H-M   'P 1'
_cell_length_a   5.74598100
_cell_length_b   5.73964093
_cell_length_c   9.43677097
_cell_angle_alpha   95.16078336
_cell_angle_beta   97.50524450
_cell_angle_gamma   118.41949995
_symmetry_Int_Tables_number   1
_chemical_formula_structural   BaSb2F12
_chemical_formula_sum   'Ba1 Sb2 F12'
_cell_volume   267.21056955
_cell_formula_units_Z   1
loop_
 _symmetry_equiv_pos_site_id
 _symmetry_equiv_pos_as_xyz
  1  'x, y, z'
loop_
 _atom_site_type_symbol
 _atom_site_label
 _atom_site_symmetry_multiplicity
 _atom_site_fract_x
 _atom_site_fract_y
 _atom_site_fract_z
 _atom_site_occupancy
  Ba  Ba0  1  0.036199  0.012110  0.075062  1
  Sb  Sb1  1  0.500509  0.779741  0.410537  1
  Sb  Sb2  1  0.305731  0.623541  0.861092  1
  F  F3  1  0.096667  0.766344  0.774859  1
  F  F4  1  0.327962  0.445799  0.268662  1
  F  F5  1  0.482227  0.957427  0.005306  1
  F  F6  1  0.618524  0.793436  0.779400  1
  F  F7  1  0.511895  0.509705  0.990681  1
  F  F8  1  0.729463  0.665910  0.503884  1
  F  F9  1  0.134892  0.277811  0.747465  1
  F  F10  1  0.269829  0.875703  0.287302  1
  F  F11  1  0.655885  0.117571  0.532102  1
  F  F12  1  0.755724  0.933212  0.282033  1
  F  F13  1  0.224434  0.609090  0.516916  1
  F  F14  1  0.040058  0.484601  0.986701  1
