# generated using pymatgen
data_Rb6Si10O23
_symmetry_space_group_name_H-M   'P 1'
_cell_length_a   8.24638367
_cell_length_b   9.48810942
_cell_length_c   9.60390248
_cell_angle_alpha   119.60195611
_cell_angle_beta   90.00000000
_cell_angle_gamma   90.00000000
_symmetry_Int_Tables_number   1
_chemical_formula_structural   Rb6Si10O23
_chemical_formula_sum   'Rb6 Si10 O23'
_cell_volume   653.35556282
_cell_formula_units_Z   1
loop_
 _symmetry_equiv_pos_site_id
 _symmetry_equiv_pos_as_xyz
  1  'x, y, z'
loop_
 _atom_site_type_symbol
 _atom_site_label
 _atom_site_symmetry_multiplicity
 _atom_site_fract_x
 _atom_site_fract_y
 _atom_site_fract_z
 _atom_site_occupancy
  Rb  Rb0  1  0.500000  0.261747  0.244831  1
  Rb  Rb1  1  0.500000  0.781497  0.000000  1
  Rb  Rb2  1  0.500000  0.016917  0.755169  1
  Rb  Rb3  1  0.000000  0.774106  0.000000  1
  Rb  Rb4  1  0.000000  0.256084  0.237337  1
  Rb  Rb5  1  0.000000  0.018747  0.762663  1
  Si  Si6  1  0.304101  0.417041  1.000000  1
  Si  Si7  1  0.811697  0.359077  0.660024  1
  Si  Si8  1  0.308817  0.027656  0.400061  1
  Si  Si9  1  0.308817  0.627594  0.599939  1
  Si  Si10  1  0.188303  0.699053  0.339976  1
  Si  Si11  1  0.695899  0.417041  1.000000  1
  Si  Si12  1  0.188303  0.359077  0.660024  1
  Si  Si13  1  0.691183  0.627594  0.599939  1
  Si  Si14  1  0.691183  0.027656  0.400061  1
  Si  Si15  1  0.811697  0.699053  0.339976  1
  O  O16  1  0.700225  0.861794  0.418823  1
  O  O17  1  0.772856  0.584803  0.151369  1
  O  O18  1  0.227144  0.584803  0.151369  1
  O  O19  1  0.788224  0.163043  0.565447  1
  O  O20  1  0.211776  0.163043  0.565447  1
  O  O21  1  0.264620  0.253683  1.000000  1
  O  O22  1  0.247168  0.010433  0.236173  1
  O  O23  1  0.299775  0.861794  0.418823  1
  O  O24  1  0.227144  0.433433  0.848631  1
  O  O25  1  0.211776  0.597597  0.434553  1
  O  O26  1  0.500000  0.085600  0.441396  1
  O  O27  1  0.500000  0.457749  0.000000  1
  O  O28  1  0.772856  0.433433  0.848631  1
  O  O29  1  0.700225  0.442971  0.581177  1
  O  O30  1  0.735380  0.253683  1.000000  1
  O  O31  1  0.247168  0.774261  0.763827  1
  O  O32  1  0.752832  0.774261  0.763827  1
  O  O33  1  0.000000  0.760566  0.359163  1
  O  O34  1  0.299775  0.442971  0.581177  1
  O  O35  1  0.752832  0.010433  0.236173  1
  O  O36  1  0.500000  0.644204  0.558604  1
  O  O37  1  0.000000  0.401403  0.640837  1
  O  O38  1  0.788224  0.597597  0.434553  1
