# generated using pymatgen
data_Si6Cl10O7
_symmetry_space_group_name_H-M   'P 1'
_cell_length_a   6.44709671
_cell_length_b   8.63604627
_cell_length_c   21.39171411
_cell_angle_alpha   90.00000000
_cell_angle_beta   90.00000000
_cell_angle_gamma   99.31532126
_symmetry_Int_Tables_number   1
_chemical_formula_structural   Si6Cl10O7
_chemical_formula_sum   'Si12 Cl20 O14'
_cell_volume   1175.32874928
_cell_formula_units_Z   2
loop_
 _symmetry_equiv_pos_site_id
 _symmetry_equiv_pos_as_xyz
  1  'x, y, z'
loop_
 _atom_site_type_symbol
 _atom_site_label
 _atom_site_symmetry_multiplicity
 _atom_site_fract_x
 _atom_site_fract_y
 _atom_site_fract_z
 _atom_site_occupancy
  Si  Si0  1  0.217696  0.619042  0.750000  1
  Si  Si1  1  0.782304  0.380958  0.250000  1
  Si  Si2  1  0.007510  0.551050  0.618851  1
  Si  Si3  1  0.992490  0.448950  0.118851  1
  Si  Si4  1  0.992490  0.448950  0.381149  1
  Si  Si5  1  0.007510  0.551050  0.881149  1
  Si  Si6  1  0.124797  0.202166  0.620943  1
  Si  Si7  1  0.875203  0.797834  0.120943  1
  Si  Si8  1  0.875203  0.797834  0.379057  1
  Si  Si9  1  0.124797  0.202166  0.879057  1
  Si  Si10  1  0.350191  0.279190  0.750000  1
  Si  Si11  1  0.649809  0.720810  0.250000  1
  O  O12  1  0.331480  0.463946  0.750000  1
  O  O13  1  0.668520  0.536054  0.250000  1
  O  O14  1  0.069524  0.618776  0.688414  1
  O  O15  1  0.930476  0.381224  0.188414  1
  O  O16  1  0.930476  0.381224  0.311586  1
  O  O17  1  0.069524  0.618776  0.811586  1
  O  O18  1  0.052472  0.372120  0.612359  1
  O  O19  1  0.947528  0.627880  0.112359  1
  O  O20  1  0.947528  0.627880  0.387641  1
  O  O21  1  0.052472  0.372120  0.887641  1
  O  O22  1  0.239087  0.192532  0.688316  1
  O  O23  1  0.760913  0.807468  0.188316  1
  O  O24  1  0.760913  0.807468  0.311684  1
  O  O25  1  0.239087  0.192532  0.811684  1
  Cl  Cl26  1  0.441574  0.812497  0.750000  1
  Cl  Cl27  1  0.558426  0.187503  0.250000  1
  Cl  Cl28  1  0.697357  0.555551  0.604219  1
  Cl  Cl29  1  0.302643  0.444449  0.104219  1
  Cl  Cl30  1  0.302643  0.444449  0.395781  1
  Cl  Cl31  1  0.697357  0.555551  0.895781  1
  Cl  Cl32  1  0.179332  0.686898  0.553727  1
  Cl  Cl33  1  0.820668  0.313102  0.053727  1
  Cl  Cl34  1  0.820668  0.313102  0.446273  1
  Cl  Cl35  1  0.179332  0.686898  0.946273  1
  Cl  Cl36  1  0.326045  0.166758  0.551372  1
  Cl  Cl37  1  0.673955  0.833242  0.051372  1
  Cl  Cl38  1  0.673955  0.833242  0.448628  1
  Cl  Cl39  1  0.326045  0.166758  0.948628  1
  Cl  Cl40  1  0.868647  0.031295  0.617136  1
  Cl  Cl41  1  0.131353  0.968705  0.117136  1
  Cl  Cl42  1  0.131353  0.968705  0.382864  1
  Cl  Cl43  1  0.868647  0.031295  0.882864  1
  Cl  Cl44  1  0.659457  0.256895  0.750000  1
  Cl  Cl45  1  0.340543  0.743105  0.250000  1
