# generated using pymatgen
data_KThP3O10
_symmetry_space_group_name_H-M   'P 1'
_cell_length_a   8.33132534
_cell_length_b   10.14071648
_cell_length_c   10.35876595
_cell_angle_alpha   90.00000000
_cell_angle_beta   90.00000000
_cell_angle_gamma   90.00000000
_symmetry_Int_Tables_number   1
_chemical_formula_structural   KThP3O10
_chemical_formula_sum   'K4 Th4 P12 O40'
_cell_volume   875.16664123
_cell_formula_units_Z   4
loop_
 _symmetry_equiv_pos_site_id
 _symmetry_equiv_pos_as_xyz
  1  'x, y, z'
loop_
 _atom_site_type_symbol
 _atom_site_label
 _atom_site_symmetry_multiplicity
 _atom_site_fract_x
 _atom_site_fract_y
 _atom_site_fract_z
 _atom_site_occupancy
  K  K0  1  0.096287  0.263027  0.676230  1
  K  K1  1  0.903713  0.236973  0.176230  1
  K  K2  1  0.403713  0.763027  0.323770  1
  K  K3  1  0.596287  0.736973  0.823770  1
  Th  Th4  1  0.639226  0.252799  0.848432  1
  Th  Th5  1  0.360774  0.247201  0.348432  1
  Th  Th6  1  0.860774  0.752799  0.151568  1
  Th  Th7  1  0.139226  0.747201  0.651568  1
  P  P8  1  0.978372  0.502253  0.886028  1
  P  P9  1  0.521628  0.002253  0.113972  1
  P  P10  1  0.021628  0.997747  0.386028  1
  P  P11  1  0.550865  0.480011  0.124634  1
  P  P12  1  0.050865  0.519989  0.375366  1
  P  P13  1  0.949135  0.980011  0.875366  1
  P  P14  1  0.224830  0.870964  0.988928  1
  P  P15  1  0.275170  0.370964  0.011072  1
  P  P16  1  0.449135  0.019989  0.624634  1
  P  P17  1  0.724830  0.129036  0.511072  1
  P  P18  1  0.478372  0.497747  0.613972  1
  P  P19  1  0.775170  0.629036  0.488928  1
  O  O20  1  0.380179  0.500079  0.046936  1
  O  O21  1  0.852369  0.880929  0.954915  1
  O  O22  1  0.371953  0.612520  0.654999  1
  O  O23  1  0.352369  0.119071  0.545085  1
  O  O24  1  0.154770  0.807112  0.108415  1
  O  O25  1  0.397104  0.391345  0.534478  1
  O  O26  1  0.602896  0.108655  0.034478  1
  O  O27  1  0.506250  0.426822  0.258237  1
  O  O28  1  0.240574  0.784371  0.870546  1
  O  O29  1  0.620946  0.618351  0.128487  1
  O  O30  1  0.147631  0.619071  0.454915  1
  O  O31  1  0.925337  0.946956  0.271116  1
  O  O32  1  0.879054  0.118351  0.871513  1
  O  O33  1  0.120946  0.381649  0.371513  1
  O  O34  1  0.993750  0.926822  0.741763  1
  O  O35  1  0.628047  0.887480  0.154999  1
  O  O36  1  0.345230  0.307112  0.891585  1
  O  O37  1  0.119821  0.000079  0.953064  1
  O  O38  1  0.845230  0.692888  0.608415  1
  O  O39  1  0.897104  0.608655  0.965522  1
  O  O40  1  0.603235  0.568824  0.512483  1
  O  O41  1  0.871953  0.387480  0.845001  1
  O  O42  1  0.880179  0.499921  0.453064  1
  O  O43  1  0.896765  0.068824  0.487517  1
  O  O44  1  0.379054  0.881649  0.628487  1
  O  O45  1  0.493750  0.073178  0.758237  1
  O  O46  1  0.128047  0.112520  0.345001  1
  O  O47  1  0.647631  0.380929  0.045085  1
  O  O48  1  0.259426  0.284371  0.129454  1
  O  O49  1  0.654770  0.192888  0.391585  1
  O  O50  1  0.006250  0.573178  0.241763  1
  O  O51  1  0.074663  0.553044  0.771116  1
  O  O52  1  0.759426  0.715629  0.370546  1
  O  O53  1  0.425337  0.053044  0.228884  1
  O  O54  1  0.574663  0.446956  0.728884  1
  O  O55  1  0.740574  0.215629  0.629454  1
  O  O56  1  0.103235  0.431176  0.987517  1
  O  O57  1  0.619821  0.999921  0.546936  1
  O  O58  1  0.396765  0.931176  0.012483  1
  O  O59  1  0.102896  0.891345  0.465522  1
