# generated using pymatgen
data_Cs3Li2Cl5
_symmetry_space_group_name_H-M   'P 1'
_cell_length_a   4.24376134
_cell_length_b   5.87544640
_cell_length_c   12.81162237
_cell_angle_alpha   103.25152077
_cell_angle_beta   99.52686571
_cell_angle_gamma   90.02654875
_symmetry_Int_Tables_number   1
_chemical_formula_structural   Cs3Li2Cl5
_chemical_formula_sum   'Cs3 Li2 Cl5'
_cell_volume   306.40517136
_cell_formula_units_Z   1
loop_
 _symmetry_equiv_pos_site_id
 _symmetry_equiv_pos_as_xyz
  1  'x, y, z'
loop_
 _atom_site_type_symbol
 _atom_site_label
 _atom_site_symmetry_multiplicity
 _atom_site_fract_x
 _atom_site_fract_y
 _atom_site_fract_z
 _atom_site_occupancy
  Cs  Cs0  1  0.865449  0.615669  0.249132  1
  Cs  Cs1  1  0.616323  0.366520  0.750862  1
  Cs  Cs2  1  0.731069  0.997718  0.999999  1
  Li  Li3  1  0.030551  0.733205  0.564786  1
  Li  Li4  1  0.465800  0.168385  0.435217  1
  Cl  Cl5  1  0.487290  0.792118  0.479214  1
  Cl  Cl6  1  0.124031  0.871967  0.755789  1
  Cl  Cl7  1  0.008086  0.312904  0.520791  1
  Cl  Cl8  1  0.368232  0.116159  0.244220  1
  Cl  Cl9  1  0.243929  0.495515  -0.000009  1
