# generated using pymatgen
data_FeS4N4Cl5
_symmetry_space_group_name_H-M   'P 1'
_cell_length_a   7.37062538
_cell_length_b   9.46344681
_cell_length_c   10.40090662
_cell_angle_alpha   76.77695924
_cell_angle_beta   83.66227835
_cell_angle_gamma   79.74802810
_symmetry_Int_Tables_number   1
_chemical_formula_structural   FeS4N4Cl5
_chemical_formula_sum   'Fe2 S8 N8 Cl10'
_cell_volume   693.12808923
_cell_formula_units_Z   2
loop_
 _symmetry_equiv_pos_site_id
 _symmetry_equiv_pos_as_xyz
  1  'x, y, z'
loop_
 _atom_site_type_symbol
 _atom_site_label
 _atom_site_symmetry_multiplicity
 _atom_site_fract_x
 _atom_site_fract_y
 _atom_site_fract_z
 _atom_site_occupancy
  Fe  Fe0  1  0.950743  0.189608  0.216608  1
  Fe  Fe1  1  0.049257  0.810392  0.783392  1
  S  S2  1  0.378209  0.335256  0.866433  1
  S  S3  1  0.331732  0.198620  0.531087  1
  S  S4  1  0.530402  0.959589  0.201697  1
  S  S5  1  0.923426  0.601552  0.315680  1
  S  S6  1  0.076574  0.398448  0.684320  1
  S  S7  1  0.668268  0.801380  0.468913  1
  S  S8  1  0.469598  0.040411  0.798303  1
  S  S9  1  0.621791  0.664744  0.133567  1
  N  N10  1  0.433384  0.086296  0.649000  1
  N  N11  1  0.178330  0.389389  0.812418  1
  N  N12  1  0.821670  0.610611  0.187582  1
  N  N13  1  0.177311  0.323762  0.571559  1
  N  N14  1  0.565163  0.839304  0.114325  1
  N  N15  1  0.434837  0.160696  0.885675  1
  N  N16  1  0.566616  0.913704  0.351000  1
  N  N17  1  0.822689  0.676238  0.428441  1
  Cl  Cl18  1  0.183521  0.797390  0.585314  1
  Cl  Cl19  1  0.243275  0.697425  0.934968  1
  Cl  Cl20  1  0.756725  0.302575  0.065032  1
  Cl  Cl21  1  0.797628  0.706510  0.807527  1
  Cl  Cl22  1  0.439930  0.584448  0.306701  1
  Cl  Cl23  1  0.202372  0.293490  0.192473  1
  Cl  Cl24  1  0.816479  0.202610  0.414686  1
  Cl  Cl25  1  0.966379  0.042431  0.800918  1
  Cl  Cl26  1  0.033621  0.957569  0.199082  1
  Cl  Cl27  1  0.560070  0.415552  0.693299  1
