# generated using pymatgen
data_Te2Au
_symmetry_space_group_name_H-M   'P 1'
_cell_length_a   4.43184202
_cell_length_b   8.97744484
_cell_length_c   8.96597498
_cell_angle_alpha   109.95935828
_cell_angle_beta   90.00000000
_cell_angle_gamma   90.00000000
_symmetry_Int_Tables_number   1
_chemical_formula_structural   Te2Au
_chemical_formula_sum   'Te8 Au4'
_cell_volume   335.29907523
_cell_formula_units_Z   4
loop_
 _symmetry_equiv_pos_site_id
 _symmetry_equiv_pos_as_xyz
  1  'x, y, z'
loop_
 _atom_site_type_symbol
 _atom_site_label
 _atom_site_symmetry_multiplicity
 _atom_site_fract_x
 _atom_site_fract_y
 _atom_site_fract_z
 _atom_site_occupancy
  Te  Te0  1  0.443420  0.363826  0.421841  1
  Te  Te1  1  0.014090  0.137699  0.073352  1
  Te  Te2  1  0.985910  0.637699  0.573352  1
  Te  Te3  1  0.435473  0.387592  0.823619  1
  Te  Te4  1  0.564527  0.887592  0.323619  1
  Te  Te5  1  0.556580  0.863826  0.921841  1
  Te  Te6  1  0.050920  0.116742  0.674135  1
  Te  Te7  1  0.949080  0.616742  0.174135  1
  Au  Au8  1  0.489027  0.375379  0.122839  1
  Au  Au9  1  0.995870  0.626362  0.873514  1
  Au  Au10  1  0.004130  0.126362  0.373514  1
  Au  Au11  1  0.510973  0.875379  0.622839  1
