# generated using pymatgen
data_Be2TlF5
_symmetry_space_group_name_H-M   'P 1'
_cell_length_a   4.70842070
_cell_length_b   8.18166044
_cell_length_c   12.82999697
_cell_angle_alpha   90.87385950
_cell_angle_beta   90.00000000
_cell_angle_gamma   90.00000000
_symmetry_Int_Tables_number   1
_chemical_formula_structural   Be2TlF5
_chemical_formula_sum   'Be8 Tl4 F20'
_cell_volume   494.18863243
_cell_formula_units_Z   4
loop_
 _symmetry_equiv_pos_site_id
 _symmetry_equiv_pos_as_xyz
  1  'x, y, z'
loop_
 _atom_site_type_symbol
 _atom_site_label
 _atom_site_symmetry_multiplicity
 _atom_site_fract_x
 _atom_site_fract_y
 _atom_site_fract_z
 _atom_site_occupancy
  Tl  Tl0  1  0.000000  0.000000  0.000000  1
  Tl  Tl1  1  0.000000  0.000000  0.500000  1
  Tl  Tl2  1  0.500000  0.500000  0.000000  1
  Tl  Tl3  1  0.500000  0.500000  0.500000  1
  F  F4  1  0.579041  0.000000  0.750000  1
  F  F5  1  0.420959  0.000000  0.250000  1
  F  F6  1  0.074855  0.500000  0.750000  1
  F  F7  1  0.925145  0.500000  0.250000  1
  F  F8  1  0.154248  0.807288  0.757599  1
  F  F9  1  0.154248  0.192712  0.742401  1
  F  F10  1  0.845752  0.192712  0.242401  1
  F  F11  1  0.845752  0.807288  0.257599  1
  F  F12  1  0.653696  0.306081  0.766177  1
  F  F13  1  0.653696  0.693919  0.733823  1
  F  F14  1  0.346304  0.693919  0.233823  1
  F  F15  1  0.346304  0.306081  0.266177  1
  F  F16  1  0.502357  0.823289  0.910169  1
  F  F17  1  0.502357  0.176711  0.589831  1
  F  F18  1  0.497643  0.176711  0.089831  1
  F  F19  1  0.497643  0.823289  0.410169  1
  F  F20  1  0.009728  0.330315  0.915365  1
  F  F21  1  0.009728  0.669685  0.584635  1
  F  F22  1  0.990272  0.669685  0.084635  1
  F  F23  1  0.990272  0.330315  0.415365  1
  Be  Be24  1  0.474490  0.830551  0.792555  1
  Be  Be25  1  0.474490  0.169449  0.707445  1
  Be  Be26  1  0.525510  0.169449  0.207445  1
  Be  Be27  1  0.525510  0.830551  0.292555  1
  Be  Be28  1  0.975742  0.332657  0.797808  1
  Be  Be29  1  0.975742  0.667343  0.702192  1
  Be  Be30  1  0.024258  0.667343  0.202192  1
  Be  Be31  1  0.024258  0.332657  0.297808  1
