# generated using pymatgen
data_Ca2Zr(SiO3)4
_symmetry_space_group_name_H-M   'P 1'
_cell_length_a   5.38893743
_cell_length_b   7.50350503
_cell_length_c   13.84285370
_cell_angle_alpha   90.00000000
_cell_angle_beta   90.00000000
_cell_angle_gamma   108.88818630
_symmetry_Int_Tables_number   1
_chemical_formula_structural   Ca2Zr(SiO3)4
_chemical_formula_sum   'Ca4 Zr2 Si8 O24'
_cell_volume   529.60724567
_cell_formula_units_Z   2
loop_
 _symmetry_equiv_pos_site_id
 _symmetry_equiv_pos_as_xyz
  1  'x, y, z'
loop_
 _atom_site_type_symbol
 _atom_site_label
 _atom_site_symmetry_multiplicity
 _atom_site_fract_x
 _atom_site_fract_y
 _atom_site_fract_z
 _atom_site_occupancy
  Ca  Ca0  1  0.000000  0.500000  0.000000  1
  Ca  Ca1  1  0.834779  0.186187  0.250000  1
  Ca  Ca2  1  0.165221  0.813813  0.750000  1
  Ca  Ca3  1  0.000000  0.500000  0.500000  1
  Zr  Zr4  1  0.000000  0.000000  0.500000  1
  Zr  Zr5  1  0.000000  0.000000  0.000000  1
  Si  Si6  1  0.568033  0.615537  0.639729  1
  Si  Si7  1  0.566751  0.182178  0.862387  1
  Si  Si8  1  0.568033  0.615537  0.860271  1
  Si  Si9  1  0.433249  0.817822  0.137613  1
  Si  Si10  1  0.431967  0.384462  0.139729  1
  Si  Si11  1  0.566751  0.182178  0.637613  1
  Si  Si12  1  0.433249  0.817822  0.362387  1
  Si  Si13  1  0.431967  0.384462  0.360271  1
  O  O14  1  0.205948  0.842401  0.067929  1
  O  O15  1  0.275095  0.621785  0.867413  1
  O  O16  1  0.268070  0.045518  0.881214  1
  O  O17  1  0.403027  0.594256  0.123059  1
  O  O18  1  0.787877  0.743612  0.934708  1
  O  O19  1  0.694013  0.687220  0.750000  1
  O  O20  1  0.596973  0.405744  0.876941  1
  O  O21  1  0.305987  0.312780  0.250000  1
  O  O22  1  0.724905  0.378215  0.367414  1
  O  O23  1  0.629680  0.137194  0.750000  1
  O  O24  1  0.370320  0.862806  0.250000  1
  O  O25  1  0.596973  0.405744  0.623059  1
  O  O26  1  0.731930  0.954482  0.118786  1
  O  O27  1  0.205948  0.842401  0.432071  1
  O  O28  1  0.212123  0.256388  0.065292  1
  O  O29  1  0.794052  0.157599  0.932071  1
  O  O30  1  0.787877  0.743612  0.565292  1
  O  O31  1  0.268070  0.045518  0.618786  1
  O  O32  1  0.275095  0.621785  0.632587  1
  O  O33  1  0.403027  0.594256  0.376941  1
  O  O34  1  0.724905  0.378215  0.132586  1
  O  O35  1  0.212123  0.256388  0.434708  1
  O  O36  1  0.731930  0.954482  0.381214  1
  O  O37  1  0.794052  0.157599  0.567929  1
