# generated using pymatgen
data_CeF4
_symmetry_space_group_name_H-M   'P 1'
_cell_length_a   8.38321489
_cell_length_b   8.37092060
_cell_length_c   8.37092014
_cell_angle_alpha   80.15613692
_cell_angle_beta   63.19037888
_cell_angle_gamma   63.19037737
_symmetry_Int_Tables_number   1
_chemical_formula_structural   CeF4
_chemical_formula_sum   'Ce6 F24'
_cell_volume   467.54387074
_cell_formula_units_Z   6
loop_
 _symmetry_equiv_pos_site_id
 _symmetry_equiv_pos_as_xyz
  1  'x, y, z'
loop_
 _atom_site_type_symbol
 _atom_site_label
 _atom_site_symmetry_multiplicity
 _atom_site_fract_x
 _atom_site_fract_y
 _atom_site_fract_z
 _atom_site_occupancy
  Ce  Ce0  1  0.670684  0.631466  0.776055  1
  Ce  Ce1  1  0.829316  0.223945  0.368534  1
  Ce  Ce2  1  0.329316  0.368534  0.223945  1
  Ce  Ce3  1  0.170684  0.776055  0.631466  1
  Ce  Ce4  1  0.750000  0.787919  0.212081  1
  Ce  Ce5  1  0.250000  0.212081  0.787919  1
  F  F6  1  0.750000  0.396271  0.603729  1
  F  F7  1  0.250000  0.603729  0.396271  1
  F  F8  1  0.782270  0.503002  0.261270  1
  F  F9  1  0.717730  0.738730  0.496998  1
  F  F10  1  0.217730  0.496998  0.738730  1
  F  F11  1  0.282270  0.261270  0.503002  1
  F  F12  1  0.652421  0.723487  0.029062  1
  F  F13  1  0.847579  0.970938  0.276513  1
  F  F14  1  0.347579  0.276513  0.970938  1
  F  F15  1  0.152421  0.029062  0.723487  1
  F  F16  1  0.500000  0.500000  0.000000  1
  F  F17  1  0.000000  0.000000  0.500000  1
  F  F18  1  0.955357  0.826631  0.934470  1
  F  F19  1  0.544643  0.065530  0.173369  1
  F  F20  1  0.044643  0.173369  0.065530  1
  F  F21  1  0.455357  0.934470  0.826631  1
  F  F22  1  0.927009  0.404207  0.814675  1
  F  F23  1  0.572991  0.185325  0.595793  1
  F  F24  1  0.072991  0.595793  0.185325  1
  F  F25  1  0.427009  0.814675  0.404207  1
  F  F26  1  0.895238  0.740169  0.682194  1
  F  F27  1  0.604762  0.317806  0.259831  1
  F  F28  1  0.104762  0.259831  0.317806  1
  F  F29  1  0.395238  0.682194  0.740169  1
