# generated using pymatgen
data_MnClO3
_symmetry_space_group_name_H-M   'P 1'
_cell_length_a   5.24479378
_cell_length_b   6.42965110
_cell_length_c   6.43443013
_cell_angle_alpha   109.38920557
_cell_angle_beta   89.99996245
_cell_angle_gamma   89.99769865
_symmetry_Int_Tables_number   1
_chemical_formula_structural   MnClO3
_chemical_formula_sum   'Mn2 Cl2 O6'
_cell_volume   204.67695279
_cell_formula_units_Z   2
loop_
 _symmetry_equiv_pos_site_id
 _symmetry_equiv_pos_as_xyz
  1  'x, y, z'
loop_
 _atom_site_type_symbol
 _atom_site_label
 _atom_site_symmetry_multiplicity
 _atom_site_fract_x
 _atom_site_fract_y
 _atom_site_fract_z
 _atom_site_occupancy
  Mn  Mn0  1  0.407823  0.674184  0.325869  1
  Mn  Mn1  1  0.907742  0.325786  0.674090  1
  Cl  Cl2  1  0.286294  0.864462  0.135738  1
  Cl  Cl3  1  0.786269  0.135528  0.864266  1
  O  O4  1  0.300759  0.781848  0.568585  1
  O  O5  1  0.300786  0.431258  0.218305  1
  O  O6  1  0.800692  0.218170  0.431402  1
  O  O7  1  0.710291  0.672670  0.327411  1
  O  O8  1  0.800734  0.568713  0.781736  1
  O  O9  1  0.210210  0.327381  0.672598  1
