# generated using pymatgen
data_NdAl6Si30(N15O)3
_symmetry_space_group_name_H-M   'P 1'
_cell_length_a   7.93428727
_cell_length_b   7.89069499
_cell_length_c   17.14120889
_cell_angle_alpha   90.31063606
_cell_angle_beta   89.80136088
_cell_angle_gamma   120.33635377
_symmetry_Int_Tables_number   1
_chemical_formula_structural   NdAl6Si30(N15O)3
_chemical_formula_sum   'Nd1 Al6 Si30 N45 O3'
_cell_volume   926.20421529
_cell_formula_units_Z   1
loop_
 _symmetry_equiv_pos_site_id
 _symmetry_equiv_pos_as_xyz
  1  'x, y, z'
loop_
 _atom_site_type_symbol
 _atom_site_label
 _atom_site_symmetry_multiplicity
 _atom_site_fract_x
 _atom_site_fract_y
 _atom_site_fract_z
 _atom_site_occupancy
  Al  Al0  1  0.097441  0.582781  0.716334  1
  Al  Al1  1  0.927323  0.493486  0.894123  1
  Al  Al2  1  0.916666  0.484683  0.549954  1
  Al  Al3  1  0.913767  0.166583  0.320077  1
  Al  Al4  1  0.925069  0.170540  0.649708  1
  Al  Al5  1  0.914416  0.166905  0.987298  1
  N  N6  1  0.309991  0.990275  0.067851  1
  N  N7  1  0.317105  0.997945  0.398938  1
  N  N8  1  0.321340  0.996088  0.732920  1
  N  N9  1  0.004878  0.326363  0.074178  1
  N  N10  1  0.005012  0.329813  0.405633  1
  N  N11  1  0.989822  0.320427  0.740405  1
  N  N12  1  0.330752  0.664691  0.042514  1
  N  N13  1  0.335531  0.667629  0.372011  1
  N  N14  1  0.347831  0.666317  0.696627  1
  N  N15  1  0.006834  0.993268  0.318908  1
  N  N16  1  0.003085  0.988745  0.652283  1
  N  N17  1  0.998030  0.000079  0.816925  1
  N  N18  1  0.002950  0.990924  0.986480  1
  N  N19  1  0.609040  0.955227  0.146288  1
  N  N20  1  0.608229  0.952812  0.477956  1
  N  N21  1  0.608746  0.953578  0.810855  1
  N  N22  1  0.347277  0.385756  0.146464  1
  N  N23  1  0.346696  0.386870  0.476770  1
  N  N24  1  0.347481  0.383686  0.809995  1
  N  N25  1  0.392135  0.345144  0.311507  1
  N  N26  1  0.396883  0.337123  0.646376  1
  N  N27  1  0.390148  0.341883  0.980623  1
  N  N28  1  0.318902  0.006211  0.231937  1
  N  N29  1  0.308733  0.989125  0.564324  1
  N  N30  1  0.314394  0.001145  0.899649  1
  N  N31  1  0.676871  0.687530  0.068052  1
  N  N32  1  0.681982  0.685867  0.399251  1
  N  N33  1  0.680590  0.673023  0.734830  1
  N  N34  1  0.690241  0.681356  0.233216  1
  N  N35  1  0.681861  0.681531  0.565136  1
  N  N36  1  0.688923  0.678508  0.901004  1
  N  N37  1  0.997782  0.002526  0.152679  1
  N  N38  1  0.668259  0.334069  0.203023  1
  N  N39  1  0.652396  0.322733  0.534686  1
  N  N40  1  0.657542  0.325932  0.868496  1
  N  N41  1  0.644443  0.051491  0.645820  1
  N  N42  1  0.643600  0.040813  0.310937  1
  N  N43  1  0.640387  0.037658  0.979455  1
  N  N44  1  0.955174  0.609050  0.311989  1
  N  N45  1  0.931404  0.599563  0.647792  1
  N  N46  1  0.951812  0.611620  0.988860  1
  N  N47  1  0.008693  0.330407  0.233428  1
  N  N48  1  0.018880  0.328630  0.566298  1
  N  N49  1  0.013520  0.322736  0.901304  1
  N  N50  1  0.997926  0.002065  0.483808  1
  Nd  Nd51  1  0.673556  0.329683  0.730384  1
  O  O52  1  0.044250  0.661966  0.148729  1
  O  O53  1  0.046966  0.671245  0.470588  1
  O  O54  1  0.049353  0.675113  0.811985  1
  Si  Si55  1  0.169618  0.929022  0.151800  1
  Si  Si56  1  0.168567  0.927527  0.480138  1
  Si  Si57  1  0.169105  0.926554  0.818153  1
  Si  Si58  1  0.082291  0.565960  0.055734  1
  Si  Si59  1  0.087538  0.568883  0.383605  1
  Si  Si60  1  0.088655  0.260535  0.153714  1
  Si  Si61  1  0.088812  0.261477  0.485239  1
  Si  Si62  1  0.081154  0.256709  0.819849  1
  Si  Si63  1  0.485893  0.917065  0.056238  1
  Si  Si64  1  0.488578  0.920340  0.386536  1
  Si  Si65  1  0.486724  0.904684  0.719148  1
  Si  Si66  1  0.428126  0.510490  0.057182  1
  Si  Si67  1  0.431495  0.512083  0.387333  1
  Si  Si68  1  0.424806  0.510212  0.720667  1
  Si  Si69  1  0.253445  0.085869  0.317227  1
  Si  Si70  1  0.245172  0.071883  0.647803  1
  Si  Si71  1  0.247801  0.079999  0.985961  1
  Si  Si72  1  0.515115  0.430542  0.221376  1
  Si  Si73  1  0.512248  0.428483  0.550968  1
  Si  Si74  1  0.508499  0.428516  0.891111  1
  Si  Si75  1  0.744433  0.835112  0.152577  1
  Si  Si76  1  0.745182  0.834586  0.483110  1
  Si  Si77  1  0.747489  0.830794  0.819718  1
  Si  Si78  1  0.836893  0.748762  0.317938  1
  Si  Si79  1  0.835271  0.746646  0.988777  1
  Si  Si80  1  0.831175  0.747032  0.648493  1
  Si  Si81  1  0.569002  0.081008  0.222180  1
  Si  Si82  1  0.562994  0.077502  0.552042  1
  Si  Si83  1  0.563454  0.073718  0.891858  1
  Si  Si84  1  0.914217  0.480127  0.224329  1
