# generated using pymatgen
data_ZrCoF6
_symmetry_space_group_name_H-M   'P 1'
_cell_length_a   5.71499731
_cell_length_b   5.71499683
_cell_length_c   5.71499700
_cell_angle_alpha   58.22167344
_cell_angle_beta   58.22167650
_cell_angle_gamma   58.22167061
_symmetry_Int_Tables_number   1
_chemical_formula_structural   ZrCoF6
_chemical_formula_sum   'Zr1 Co1 F6'
_cell_volume   126.60991706
_cell_formula_units_Z   1
loop_
 _symmetry_equiv_pos_site_id
 _symmetry_equiv_pos_as_xyz
  1  'x, y, z'
loop_
 _atom_site_type_symbol
 _atom_site_label
 _atom_site_symmetry_multiplicity
 _atom_site_fract_x
 _atom_site_fract_y
 _atom_site_fract_z
 _atom_site_occupancy
  Zr  Zr0  1  0.500000  0.500000  0.500000  1
  Co  Co1  1  0.000000  0.000000  0.000000  1
  F  F2  1  0.832259  0.667438  0.249855  1
  F  F3  1  0.332562  0.750145  0.167741  1
  F  F4  1  0.750145  0.167741  0.332562  1
  F  F5  1  0.167741  0.332562  0.750145  1
  F  F6  1  0.667438  0.249855  0.832259  1
  F  F7  1  0.249855  0.832259  0.667438  1
