# generated using pymatgen
data_ZnS
_symmetry_space_group_name_H-M   'P 1'
_cell_length_a   3.85466083
_cell_length_b   3.85466080
_cell_length_c   88.22746273
_cell_angle_alpha   90.00000000
_cell_angle_beta   90.00000000
_cell_angle_gamma   120.00000037
_symmetry_Int_Tables_number   1
_chemical_formula_structural   ZnS
_chemical_formula_sum   'Zn28 S28'
_cell_volume   1135.28985622
_cell_formula_units_Z   28
loop_
 _symmetry_equiv_pos_site_id
 _symmetry_equiv_pos_as_xyz
  1  'x, y, z'
loop_
 _atom_site_type_symbol
 _atom_site_label
 _atom_site_symmetry_multiplicity
 _atom_site_fract_x
 _atom_site_fract_y
 _atom_site_fract_z
 _atom_site_occupancy
  Zn  Zn0  1  0.666667  0.333333  0.071433  1
  Zn  Zn1  1  0.000000  0.000000  0.321432  1
  Zn  Zn2  1  0.000000  0.000000  0.678576  1
  Zn  Zn3  1  0.333333  0.666667  0.142864  1
  Zn  Zn4  1  0.000000  0.000000  0.892865  1
  Zn  Zn5  1  0.666667  0.333333  0.464286  1
  Zn  Zn6  1  0.666667  0.333333  0.535732  1
  Zn  Zn7  1  0.000000  0.000000  0.214294  1
  Zn  Zn8  1  0.666667  0.333333  0.642856  1
  Zn  Zn9  1  0.666667  0.333333  0.357161  1
  Zn  Zn10  1  0.333333  0.666667  0.607148  1
  Zn  Zn11  1  0.333333  0.666667  0.964285  1
  Zn  Zn12  1  0.666667  0.333333  0.285712  1
  Zn  Zn13  1  0.000000  0.000000  0.785727  1
  Zn  Zn14  1  0.666667  0.333333  0.714306  1
  Zn  Zn15  1  0.666667  0.333333  0.821456  1
  Zn  Zn16  1  0.000000  0.000000  0.107148  1
  Zn  Zn17  1  0.666667  0.333333  0.928579  1
  Zn  Zn18  1  0.333333  0.666667  0.035732  1
  Zn  Zn19  1  0.333333  0.666667  0.250008  1
  Zn  Zn20  1  0.333333  0.666667  0.500006  1
  Zn  Zn21  1  0.666667  0.333333  0.178578  1
  Zn  Zn22  1  0.000000  0.000000  0.000005  1
  Zn  Zn23  1  0.333333  0.666667  0.392863  1
  Zn  Zn24  1  0.000000  0.000000  0.571434  1
  Zn  Zn25  1  0.000000  0.000000  0.428578  1
  Zn  Zn26  1  0.333333  0.666667  0.857155  1
  Zn  Zn27  1  0.333333  0.666667  0.750008  1
  S  S28  1  0.666667  0.333333  0.205351  1
  S  S29  1  0.000000  0.000000  0.348232  1
  S  S30  1  0.333333  0.666667  0.419635  1
  S  S31  1  0.666667  0.333333  0.669611  1
  S  S32  1  0.333333  0.666667  0.776782  1
  S  S33  1  0.333333  0.666667  0.991040  1
  S  S34  1  0.333333  0.666667  0.276778  1
  S  S35  1  0.000000  0.000000  0.455350  1
  S  S36  1  0.000000  0.000000  0.026804  1
  S  S37  1  0.333333  0.666667  0.633919  1
  S  S38  1  0.000000  0.000000  0.598205  1
  S  S39  1  0.333333  0.666667  0.062492  1
  S  S40  1  0.666667  0.333333  0.098204  1
  S  S41  1  0.000000  0.000000  0.133921  1
  S  S42  1  0.666667  0.333333  0.848223  1
  S  S43  1  0.666667  0.333333  0.312466  1
  S  S44  1  0.666667  0.333333  0.562492  1
  S  S45  1  0.666667  0.333333  0.955350  1
  S  S46  1  0.000000  0.000000  0.919637  1
  S  S47  1  0.333333  0.666667  0.883925  1
  S  S48  1  0.000000  0.000000  0.241066  1
  S  S49  1  0.000000  0.000000  0.705377  1
  S  S50  1  0.666667  0.333333  0.491041  1
  S  S51  1  0.666667  0.333333  0.741066  1
  S  S52  1  0.666667  0.333333  0.383921  1
  S  S53  1  0.333333  0.666667  0.169636  1
  S  S54  1  0.000000  0.000000  0.812505  1
  S  S55  1  0.333333  0.666667  0.526805  1
