# generated using pymatgen
data_Sm2MnNiO6
_symmetry_space_group_name_H-M   'P 1'
_cell_length_a   5.37049473
_cell_length_b   5.63323849
_cell_length_c   7.67716767
_cell_angle_alpha   90.00000000
_cell_angle_beta   89.75695098
_cell_angle_gamma   90.00000000
_symmetry_Int_Tables_number   1
_chemical_formula_structural   Sm2MnNiO6
_chemical_formula_sum   'Sm4 Mn2 Ni2 O12'
_cell_volume   232.25739504
_cell_formula_units_Z   2
loop_
 _symmetry_equiv_pos_site_id
 _symmetry_equiv_pos_as_xyz
  1  'x, y, z'
loop_
 _atom_site_type_symbol
 _atom_site_label
 _atom_site_symmetry_multiplicity
 _atom_site_fract_x
 _atom_site_fract_y
 _atom_site_fract_z
 _atom_site_occupancy
  Sm  Sm0  1  0.516417  0.564166  0.250889  1
  Sm  Sm1  1  0.016417  0.935834  0.750889  1
  Sm  Sm2  1  0.483583  0.435834  0.749111  1
  Sm  Sm3  1  0.983583  0.064166  0.249111  1
  Mn  Mn4  1  0.000000  0.500000  0.500000  1
  Mn  Mn5  1  0.500000  0.000000  0.000000  1
  Ni  Ni6  1  0.500000  0.000000  0.500000  1
  Ni  Ni7  1  0.000000  0.500000  0.000000  1
  O  O8  1  0.596547  0.029079  0.758908  1
  O  O9  1  0.208860  0.190970  0.952009  1
  O  O10  1  0.291140  0.690970  0.547991  1
  O  O11  1  0.096547  0.470921  0.258908  1
  O  O12  1  0.403453  0.970921  0.241092  1
  O  O13  1  0.791140  0.809030  0.047990  1
  O  O14  1  0.903453  0.529079  0.741092  1
  O  O15  1  0.812221  0.787495  0.447809  1
  O  O16  1  0.187779  0.212505  0.552191  1
  O  O17  1  0.312221  0.712505  0.947809  1
  O  O18  1  0.708860  0.309030  0.452010  1
  O  O19  1  0.687779  0.287495  0.052191  1
