# generated using pymatgen
data_Ba2CaUO6
_symmetry_space_group_name_H-M   'P 1'
_cell_length_a   6.19140065
_cell_length_b   6.22773119
_cell_length_c   8.74402226
_cell_angle_alpha   90.16970209
_cell_angle_beta   90.00000000
_cell_angle_gamma   90.00000000
_symmetry_Int_Tables_number   1
_chemical_formula_structural   Ba2CaUO6
_chemical_formula_sum   'Ba4 Ca2 U2 O12'
_cell_volume   337.15384459
_cell_formula_units_Z   2
loop_
 _symmetry_equiv_pos_site_id
 _symmetry_equiv_pos_as_xyz
  1  'x, y, z'
loop_
 _atom_site_type_symbol
 _atom_site_label
 _atom_site_symmetry_multiplicity
 _atom_site_fract_x
 _atom_site_fract_y
 _atom_site_fract_z
 _atom_site_occupancy
  Ba  Ba0  1  0.984651  0.005195  0.250101  1
  Ba  Ba1  1  0.484651  0.494805  0.249899  1
  Ba  Ba2  1  0.015349  0.994805  0.749899  1
  Ba  Ba3  1  0.515349  0.505195  0.750101  1
  Ca  Ca4  1  0.000000  0.500000  0.000000  1
  Ca  Ca5  1  0.500000  0.000000  0.500000  1
  U  U6  1  0.000000  0.500000  0.500000  1
  U  U7  1  0.500000  0.000000  0.000000  1
  O  O8  1  0.216326  0.245319  0.464288  1
  O  O9  1  0.487931  0.069427  0.765147  1
  O  O10  1  0.743169  0.285695  0.460862  1
  O  O11  1  0.783674  0.754681  0.535712  1
  O  O12  1  0.012069  0.569427  0.265147  1
  O  O13  1  0.243169  0.214305  0.039138  1
  O  O14  1  0.283674  0.745319  0.964288  1
  O  O15  1  0.716326  0.254681  0.035712  1
  O  O16  1  0.987931  0.430573  0.734853  1
  O  O17  1  0.512069  0.930573  0.234853  1
  O  O18  1  0.756831  0.785695  0.960862  1
  O  O19  1  0.256831  0.714305  0.539138  1
