# generated using pymatgen
data_NdSn2P10Cl37O12
_symmetry_space_group_name_H-M   'P 1'
_cell_length_a   12.64373927
_cell_length_b   12.70963271
_cell_length_c   22.41956277
_cell_angle_alpha   91.35385223
_cell_angle_beta   95.67444910
_cell_angle_gamma   92.20506732
_symmetry_Int_Tables_number   1
_chemical_formula_structural   NdSn2P10Cl37O12
_chemical_formula_sum   'Nd2 Sn4 P20 Cl74 O24'
_cell_volume   3581.09025496
_cell_formula_units_Z   2
loop_
 _symmetry_equiv_pos_site_id
 _symmetry_equiv_pos_as_xyz
  1  'x, y, z'
loop_
 _atom_site_type_symbol
 _atom_site_label
 _atom_site_symmetry_multiplicity
 _atom_site_fract_x
 _atom_site_fract_y
 _atom_site_fract_z
 _atom_site_occupancy
  Nd  Nd0  1  0.116151  0.779635  0.725192  1
  Nd  Nd1  1  0.883849  0.220365  0.274808  1
  Sn  Sn2  1  0.635845  0.728079  0.002972  1
  Sn  Sn3  1  0.229905  0.267400  0.418213  1
  Sn  Sn4  1  0.364155  0.271921  0.997028  1
  Sn  Sn5  1  0.770095  0.732600  0.581787  1
  P  P6  1  0.908701  0.072822  0.113450  1
  P  P7  1  0.181621  0.237225  0.262122  1
  P  P8  1  0.231505  0.715402  0.147651  1
  P  P9  1  0.036412  0.444183  0.364851  1
  P  P10  1  0.871231  0.420564  0.142212  1
  P  P11  1  0.456938  0.781744  0.353949  1
  P  P12  1  0.083732  0.085118  0.692408  1
  P  P13  1  0.768495  0.284598  0.852349  1
  P  P14  1  0.091299  0.927178  0.886550  1
  P  P15  1  0.963588  0.555817  0.635149  1
  P  P16  1  0.543062  0.218256  0.646051  1
  P  P17  1  0.128769  0.579436  0.857788  1
  P  P18  1  0.648841  0.426495  0.297151  1
  P  P19  1  0.223724  0.818821  0.567174  1
  P  P20  1  0.818379  0.762775  0.737878  1
  P  P21  1  0.916269  0.914882  0.307592  1
  P  P22  1  0.776276  0.181179  0.432826  1
  P  P23  1  0.600832  0.100110  0.214472  1
  P  P24  1  0.351159  0.573505  0.702849  1
  P  P25  1  0.399168  0.899890  0.785528  1
  Cl  Cl26  1  0.622706  0.206384  0.437177  1
  Cl  Cl27  1  0.179615  0.326590  0.995504  1
  Cl  Cl28  1  0.794139  0.127329  0.055963  1
  Cl  Cl29  1  0.757520  0.682388  0.804079  1
  Cl  Cl30  1  0.032713  0.449521  0.584507  1
  Cl  Cl31  1  0.820436  0.363727  0.928871  1
  Cl  Cl32  1  0.467835  0.791207  0.836669  1
  Cl  Cl33  1  0.653537  0.879568  0.581900  1
  Cl  Cl34  1  0.773537  0.840546  0.298727  1
  Cl  Cl35  1  0.376878  0.663389  0.169495  1
  Cl  Cl36  1  0.098353  0.431403  0.829040  1
  Cl  Cl37  1  0.317373  0.109697  0.041041  1
  Cl  Cl38  1  0.798007  0.733198  0.476710  1
  Cl  Cl39  1  0.546481  0.219524  0.992884  1
  Cl  Cl40  1  0.682627  0.890303  0.958959  1
  Cl  Cl41  1  0.372790  0.397479  0.432928  1
  Cl  Cl42  1  0.978404  0.884067  0.390028  1
  Cl  Cl43  1  0.498234  0.377015  0.299628  1
  Cl  Cl44  1  0.015761  0.608720  0.911248  1
  Cl  Cl45  1  0.681405  0.148769  0.668345  1
  Cl  Cl46  1  0.579916  0.966131  0.166503  1
  Cl  Cl47  1  0.312813  0.495010  0.625344  1
  Cl  Cl48  1  0.967287  0.550479  0.415493  1
  Cl  Cl49  1  0.742358  0.135903  0.877852  1
  Cl  Cl50  1  0.070921  0.153597  0.392407  1
  Cl  Cl51  1  0.346463  0.120432  0.418100  1
  Cl  Cl52  1  0.226463  0.159454  0.701273  1
  Cl  Cl53  1  0.222689  0.087523  0.245706  1
  Cl  Cl54  1  0.994757  0.163253  0.745575  1
  Cl  Cl55  1  0.532165  0.208793  0.163331  1
  Cl  Cl56  1  0.501766  0.622985  0.700372  1
  Cl  Cl57  1  0.453519  0.780476  0.007116  1
  Cl  Cl58  1  0.111754  0.083536  0.894587  1
  Cl  Cl59  1  0.888246  0.916464  0.105413  1
  Cl  Cl60  1  0.777311  0.912477  0.754294  1
  Cl  Cl61  1  0.523773  0.866054  0.425671  1
  Cl  Cl62  1  0.652562  0.715731  0.110357  1
  Cl  Cl63  1  0.512959  0.082341  0.282875  1
  Cl  Cl64  1  0.800187  0.044738  0.472797  1
  Cl  Cl65  1  0.044992  0.105590  0.078606  1
  Cl  Cl66  1  0.820385  0.673410  0.004496  1
  Cl  Cl67  1  0.145021  0.709823  0.512924  1
  Cl  Cl68  1  0.422633  0.413194  0.065818  1
  Cl  Cl69  1  0.205861  0.872671  0.944037  1
  Cl  Cl70  1  0.005242  0.836747  0.254425  1
  Cl  Cl71  1  0.623122  0.336611  0.830505  1
  Cl  Cl72  1  0.955008  0.894410  0.921394  1
  Cl  Cl73  1  0.627210  0.602521  0.567072  1
  Cl  Cl74  1  0.242480  0.317612  0.195921  1
  Cl  Cl75  1  0.377294  0.793616  0.562823  1
  Cl  Cl76  1  0.201993  0.266802  0.523290  1
  Cl  Cl77  1  0.357328  0.463193  0.765136  1
  Cl  Cl78  1  0.347438  0.284269  0.889643  1
  Cl  Cl79  1  0.264416  0.581185  0.910653  1
  Cl  Cl80  1  0.199813  0.955262  0.527203  1
  Cl  Cl81  1  0.901647  0.568597  0.170960  1
  Cl  Cl82  1  0.577367  0.586806  0.934182  1
  Cl  Cl83  1  0.687187  0.504990  0.374656  1
  Cl  Cl84  1  0.411662  0.644099  0.387371  1
  Cl  Cl85  1  0.257642  0.864097  0.122148  1
  Cl  Cl86  1  0.898080  0.464801  0.695744  1
  Cl  Cl87  1  0.487041  0.917659  0.717125  1
  Cl  Cl88  1  0.420084  0.033869  0.833497  1
  Cl  Cl89  1  0.021596  0.115933  0.609972  1
  Cl  Cl90  1  0.642672  0.536807  0.234864  1
  Cl  Cl91  1  0.735584  0.418815  0.089347  1
  Cl  Cl92  1  0.588338  0.355901  0.612629  1
  Cl  Cl93  1  0.984239  0.391280  0.088752  1
  Cl  Cl94  1  0.854979  0.290177  0.487076  1
  Cl  Cl95  1  0.476227  0.133946  0.574329  1
  Cl  Cl96  1  0.929079  0.846403  0.607593  1
  Cl  Cl97  1  0.179564  0.636273  0.071129  1
  Cl  Cl98  1  0.101920  0.535199  0.304256  1
  Cl  Cl99  1  0.318595  0.851231  0.331655  1
  O  O100  1  0.278966  0.658913  0.714613  1
  O  O101  1  0.088903  0.971347  0.704716  1
  O  O102  1  0.285771  0.873069  0.765617  1
  O  O103  1  0.721034  0.341087  0.285387  1
  O  O104  1  0.937308  0.759968  0.746630  1
  O  O105  1  0.474835  0.226861  0.695339  1
  O  O106  1  0.841117  0.293811  0.805113  1
  O  O107  1  0.806557  0.181854  0.370596  1
  O  O108  1  0.758756  0.720758  0.679790  1
  O  O109  1  0.714229  0.126931  0.234383  1
  O  O110  1  0.062692  0.240032  0.253370  1
  O  O111  1  0.906310  0.115048  0.175267  1
  O  O112  1  0.124464  0.399087  0.405635  1
  O  O113  1  0.525165  0.773139  0.304661  1
  O  O114  1  0.093690  0.884952  0.824733  1
  O  O115  1  0.241244  0.279242  0.320210  1
  O  O116  1  0.867681  0.345184  0.191612  1
  O  O117  1  0.950474  0.372549  0.333016  1
  O  O118  1  0.158883  0.706189  0.194887  1
  O  O119  1  0.193443  0.818146  0.629404  1
  O  O120  1  0.911097  0.028653  0.295284  1
  O  O121  1  0.875536  0.600913  0.594365  1
  O  O122  1  0.132319  0.654816  0.808388  1
  O  O123  1  0.049526  0.627451  0.666984  1
