# generated using pymatgen
data_Na2Tl2B10O17
_symmetry_space_group_name_H-M   'P 1'
_cell_length_a   6.52930025
_cell_length_b   11.08833399
_cell_length_c   11.54182480
_cell_angle_alpha   104.28353972
_cell_angle_beta   106.44067715
_cell_angle_gamma   90.00039346
_symmetry_Int_Tables_number   1
_chemical_formula_structural   Na2Tl2B10O17
_chemical_formula_sum   'Na4 Tl4 B20 O34'
_cell_volume   774.48077003
_cell_formula_units_Z   2
loop_
 _symmetry_equiv_pos_site_id
 _symmetry_equiv_pos_as_xyz
  1  'x, y, z'
loop_
 _atom_site_type_symbol
 _atom_site_label
 _atom_site_symmetry_multiplicity
 _atom_site_fract_x
 _atom_site_fract_y
 _atom_site_fract_z
 _atom_site_occupancy
  Na  Na0  1  0.713946  0.815241  0.533594  1
  Na  Na1  1  0.819787  0.315273  0.533699  1
  Na  Na2  1  0.286054  0.184759  0.466406  1
  Na  Na3  1  0.180213  0.684727  0.466301  1
  Tl  Tl4  1  0.738540  0.921714  0.863466  1
  Tl  Tl5  1  0.261460  0.078286  0.136534  1
  Tl  Tl6  1  0.875065  0.578235  0.136444  1
  Tl  Tl7  1  0.124935  0.421765  0.863556  1
  B  B8  1  0.812027  0.135366  0.286056  1
  B  B9  1  0.711797  0.159016  0.694515  1
  B  B10  1  0.375009  0.736001  0.109598  1
  B  B11  1  0.609127  0.571817  0.676045  1
  B  B12  1  0.288203  0.840984  0.305485  1
  B  B13  1  0.624991  0.263999  0.890402  1
  B  B14  1  0.398387  1.000930  0.637705  1
  B  B15  1  0.187973  0.864634  0.713944  1
  B  B16  1  0.390873  0.428183  0.323955  1
  B  B17  1  0.601613  -0.000930  0.362295  1
  B  B18  1  0.265465  0.764015  0.890395  1
  B  B19  1  0.066876  0.071794  0.676040  1
  B  B20  1  0.982682  0.659009  0.694490  1
  B  B21  1  0.017318  0.340991  0.305510  1
  B  B22  1  0.239268  0.500934  0.637745  1
  B  B23  1  0.933124  0.928206  0.323960  1
  B  B24  1  0.734535  0.235985  0.109605  1
  B  B25  1  0.526021  0.364668  0.713985  1
  B  B26  1  0.473979  0.635332  0.286015  1
  B  B27  1  0.760732  0.499066  0.362255  1
  O  O28  1  0.592439  0.249977  0.999985  1
  O  O29  1  0.688301  0.141885  0.157980  1
  O  O30  1  0.590768  0.252909  0.642187  1
  O  O31  1  0.600925  0.030392  0.635932  1
  O  O32  1  0.469522  0.641854  0.157936  1
  O  O33  1  0.256436  0.818510  0.167956  1
  O  O34  1  0.965067  0.469632  0.364051  1
  O  O35  1  0.530478  0.358146  0.842064  1
  O  O36  1  0.034933  0.530368  0.635949  1
  O  O37  1  0.399075  0.969608  0.364068  1
  O  O38  1  0.948346  0.027154  0.275447  1
  O  O39  1  0.298153  0.385295  0.651969  1
  O  O40  1  0.743564  0.181490  0.832044  1
  O  O41  1  0.327060  0.527113  0.275420  1
  O  O42  1  0.948576  0.247136  0.357860  1
  O  O43  1  0.077553  0.839195  0.331085  1
  O  O44  1  0.611069  0.413182  0.369580  1
  O  O45  1  0.911533  0.318477  0.167971  1
  O  O46  1  0.051424  0.752864  0.642140  1
  O  O47  1  0.253587  0.339197  0.331144  1
  O  O48  1  0.311699  0.858115  0.842020  1
  O  O49  1  0.051654  0.972846  0.724553  1
  O  O50  1  0.407561  0.750023  0.000015  1
  O  O51  1  0.758633  0.913202  0.369623  1
  O  O52  1  0.353780  0.885286  0.651923  1
  O  O53  1  0.672940  0.472887  0.724580  1
  O  O54  1  0.922447  0.160805  0.668915  1
  O  O55  1  0.646220  0.114714  0.348077  1
  O  O56  1  0.409232  0.747091  0.357813  1
  O  O57  1  0.746413  0.660803  0.668856  1
  O  O58  1  0.701847  0.614705  0.348031  1
  O  O59  1  0.088467  0.681523  0.832029  1
  O  O60  1  0.241367  0.086798  0.630377  1
  O  O61  1  0.388931  0.586818  0.630420  1
