# generated using pymatgen
data_TlCu2P2O7
_symmetry_space_group_name_H-M   'P 1'
_cell_length_a   8.98774688
_cell_length_b   9.39046354
_cell_length_c   16.70623156
_cell_angle_alpha   90.00000000
_cell_angle_beta   90.00000000
_cell_angle_gamma   90.00000000
_symmetry_Int_Tables_number   1
_chemical_formula_structural   TlCu2P2O7
_chemical_formula_sum   'Tl8 Cu16 P16 O56'
_cell_volume   1409.99106482
_cell_formula_units_Z   8
loop_
 _symmetry_equiv_pos_site_id
 _symmetry_equiv_pos_as_xyz
  1  'x, y, z'
loop_
 _atom_site_type_symbol
 _atom_site_label
 _atom_site_symmetry_multiplicity
 _atom_site_fract_x
 _atom_site_fract_y
 _atom_site_fract_z
 _atom_site_occupancy
  Tl  Tl0  1  0.707897  0.501479  0.667485  1
  Tl  Tl1  1  0.707897  0.998521  0.167485  1
  Tl  Tl2  1  0.207897  0.501479  0.832515  1
  Tl  Tl3  1  0.792103  0.001479  0.667485  1
  Tl  Tl4  1  0.292103  0.001479  0.832515  1
  Tl  Tl5  1  0.292103  0.498521  0.332515  1
  Tl  Tl6  1  0.207897  0.998521  0.332515  1
  Tl  Tl7  1  0.792103  0.498521  0.167485  1
  Cu  Cu8  1  0.046469  0.758576  0.682439  1
  Cu  Cu9  1  0.953531  0.258576  0.817561  1
  Cu  Cu10  1  0.721785  0.021093  0.933250  1
  Cu  Cu11  1  0.221785  0.478907  0.066750  1
  Cu  Cu12  1  0.278215  0.521093  0.566750  1
  Cu  Cu13  1  0.546469  0.758576  0.817561  1
  Cu  Cu14  1  0.046469  0.741424  0.182439  1
  Cu  Cu15  1  0.953531  0.241424  0.317561  1
  Cu  Cu16  1  0.778215  0.521093  0.933250  1
  Cu  Cu17  1  0.546469  0.741424  0.317561  1
  Cu  Cu18  1  0.453531  0.241424  0.182439  1
  Cu  Cu19  1  0.778215  0.978907  0.433250  1
  Cu  Cu20  1  0.453531  0.258576  0.682439  1
  Cu  Cu21  1  0.278215  0.978907  0.066750  1
  Cu  Cu22  1  0.221785  0.021093  0.566750  1
  Cu  Cu23  1  0.721785  0.478907  0.433250  1
  P  P24  1  0.925264  0.710784  0.517694  1
  P  P25  1  0.924108  0.714841  0.349738  1
  P  P26  1  0.424108  0.714841  0.150262  1
  P  P27  1  0.075892  0.214841  0.150262  1
  P  P28  1  0.574736  0.210784  0.517694  1
  P  P29  1  0.074736  0.210784  0.982306  1
  P  P30  1  0.425264  0.789216  0.482306  1
  P  P31  1  0.925264  0.789216  0.017694  1
  P  P32  1  0.574736  0.289216  0.017694  1
  P  P33  1  0.575892  0.214841  0.349738  1
  P  P34  1  0.924108  0.785159  0.849738  1
  P  P35  1  0.424108  0.785159  0.650262  1
  P  P36  1  0.575892  0.285159  0.849738  1
  P  P37  1  0.425264  0.710784  0.982306  1
  P  P38  1  0.074736  0.289216  0.482306  1
  P  P39  1  0.075892  0.285159  0.650262  1
  O  O40  1  0.455232  0.179890  0.581210  1
  O  O41  1  0.378798  0.627517  0.653418  1
  O  O42  1  0.627252  0.366365  0.520493  1
  O  O43  1  0.121202  0.372483  0.153418  1
  O  O44  1  0.012284  0.687536  0.433226  1
  O  O45  1  0.512284  0.687536  0.066774  1
  O  O46  1  0.044768  0.820110  0.081210  1
  O  O47  1  0.798798  0.600894  0.519687  1
  O  O48  1  0.798798  0.899106  0.019687  1
  O  O49  1  0.627252  0.133635  0.020493  1
  O  O50  1  0.953906  0.180464  0.212413  1
  O  O51  1  0.708283  0.388492  0.846713  1
  O  O52  1  0.872748  0.866365  0.520493  1
  O  O53  1  0.298798  0.600894  0.980313  1
  O  O54  1  0.546094  0.680464  0.212413  1
  O  O55  1  0.455232  0.320110  0.081210  1
  O  O56  1  0.953906  0.319536  0.712413  1
  O  O57  1  0.201202  0.100894  0.980313  1
  O  O58  1  0.201202  0.399106  0.480313  1
  O  O59  1  0.708283  0.111508  0.346713  1
  O  O60  1  0.453906  0.180464  0.287587  1
  O  O61  1  0.987716  0.312464  0.566774  1
  O  O62  1  0.621202  0.372483  0.346582  1
  O  O63  1  0.621202  0.127517  0.846582  1
  O  O64  1  0.544768  0.820110  0.418790  1
  O  O65  1  0.372748  0.866365  0.979507  1
  O  O66  1  0.127252  0.133635  0.479507  1
  O  O67  1  0.208283  0.388492  0.653287  1
  O  O68  1  0.291717  0.611508  0.153287  1
  O  O69  1  0.701202  0.399106  0.019687  1
  O  O70  1  0.291717  0.888492  0.653287  1
  O  O71  1  0.955232  0.179890  0.918790  1
  O  O72  1  0.046094  0.680464  0.287587  1
  O  O73  1  0.453906  0.319536  0.787587  1
  O  O74  1  0.791717  0.611508  0.346713  1
  O  O75  1  0.046094  0.819536  0.787587  1
  O  O76  1  0.872748  0.633635  0.020493  1
  O  O77  1  0.544768  0.679890  0.918790  1
  O  O78  1  0.878798  0.627517  0.846582  1
  O  O79  1  0.487716  0.187536  0.433226  1
  O  O80  1  0.701202  0.100894  0.519687  1
  O  O81  1  0.987716  0.187536  0.066774  1
  O  O82  1  0.546094  0.819536  0.712413  1
  O  O83  1  0.127252  0.366365  0.979507  1
  O  O84  1  0.208283  0.111508  0.153287  1
  O  O85  1  0.378798  0.872483  0.153418  1
  O  O86  1  0.955232  0.320110  0.418790  1
  O  O87  1  0.121202  0.127517  0.653418  1
  O  O88  1  0.512284  0.812464  0.566774  1
  O  O89  1  0.298798  0.899106  0.480313  1
  O  O90  1  0.012284  0.812464  0.933226  1
  O  O91  1  0.791717  0.888492  0.846713  1
  O  O92  1  0.878798  0.872483  0.346582  1
  O  O93  1  0.487716  0.312464  0.933226  1
  O  O94  1  0.044768  0.679890  0.581210  1
  O  O95  1  0.372748  0.633635  0.479507  1
