# generated using pymatgen
data_Mg3Al8FeSi6
_symmetry_space_group_name_H-M   'P 1'
_cell_length_a   6.75493609
_cell_length_b   6.75493593
_cell_length_c   7.63466877
_cell_angle_alpha   90.00000000
_cell_angle_beta   90.00000000
_cell_angle_gamma   120.00000075
_symmetry_Int_Tables_number   1
_chemical_formula_structural   Mg3Al8FeSi6
_chemical_formula_sum   'Mg3 Al8 Fe1 Si6'
_cell_volume   301.69166145
_cell_formula_units_Z   1
loop_
 _symmetry_equiv_pos_site_id
 _symmetry_equiv_pos_as_xyz
  1  'x, y, z'
loop_
 _atom_site_type_symbol
 _atom_site_label
 _atom_site_symmetry_multiplicity
 _atom_site_fract_x
 _atom_site_fract_y
 _atom_site_fract_z
 _atom_site_occupancy
  Mg  Mg0  1  0.000000  0.430534  0.500000  1
  Mg  Mg1  1  0.430534  0.000000  0.500000  1
  Mg  Mg2  1  0.569466  0.569466  0.500000  1
  Al  Al3  1  0.333333  0.666667  0.214261  1
  Al  Al4  1  0.333333  0.666667  0.785739  1
  Al  Al5  1  0.666667  0.333333  0.785739  1
  Al  Al6  1  0.642735  0.642735  0.000000  1
  Al  Al7  1  0.000000  0.357265  0.000000  1
  Al  Al8  1  0.666667  0.333333  0.214261  1
  Al  Al9  1  0.000000  0.000000  0.500000  1
  Al  Al10  1  0.357265  0.000000  0.000000  1
  Fe  Fe11  1  0.000000  0.000000  0.000000  1
  Si  Si12  1  0.242066  0.242066  0.768057  1
  Si  Si13  1  1.000000  0.757934  0.231943  1
  Si  Si14  1  0.757934  0.000000  0.231943  1
  Si  Si15  1  0.242066  0.242066  0.231943  1
  Si  Si16  1  1.000000  0.757934  0.768057  1
  Si  Si17  1  0.757934  0.000000  0.768057  1
