# generated using pymatgen
data_KFeO2
_symmetry_space_group_name_H-M   'P 1'
_cell_length_a   5.71202262
_cell_length_b   11.43356734
_cell_length_c   16.27039432
_cell_angle_alpha   90.00000000
_cell_angle_beta   90.00000000
_cell_angle_gamma   90.00000000
_symmetry_Int_Tables_number   1
_chemical_formula_structural   KFeO2
_chemical_formula_sum   'K16 Fe16 O32'
_cell_volume   1062.59985166
_cell_formula_units_Z   16
loop_
 _symmetry_equiv_pos_site_id
 _symmetry_equiv_pos_as_xyz
  1  'x, y, z'
loop_
 _atom_site_type_symbol
 _atom_site_label
 _atom_site_symmetry_multiplicity
 _atom_site_fract_x
 _atom_site_fract_y
 _atom_site_fract_z
 _atom_site_occupancy
  K  K0  1  0.191875  0.733438  0.815966  1
  K  K1  1  0.752168  0.491364  0.561324  1
  K  K2  1  0.808125  0.233438  0.684034  1
  K  K3  1  0.247832  0.991364  0.938676  1
  K  K4  1  0.252168  0.491364  0.938676  1
  K  K5  1  0.308125  0.266562  0.315966  1
  K  K6  1  0.191875  0.766562  0.315966  1
  K  K7  1  0.252168  0.008636  0.438676  1
  K  K8  1  0.308125  0.233438  0.815966  1
  K  K9  1  0.247832  0.508636  0.438676  1
  K  K10  1  0.752168  0.008636  0.061324  1
  K  K11  1  0.691875  0.766562  0.184034  1
  K  K12  1  0.808125  0.266562  0.184034  1
  K  K13  1  0.691875  0.733438  0.684034  1
  K  K14  1  0.747832  0.508636  0.061324  1
  K  K15  1  0.747832  0.991364  0.561324  1
  Fe  Fe16  1  0.253174  0.989587  0.689200  1
  Fe  Fe17  1  0.211847  0.733753  0.564533  1
  Fe  Fe18  1  0.746826  0.010413  0.310800  1
  Fe  Fe19  1  0.788153  0.266247  0.435467  1
  Fe  Fe20  1  0.746826  0.489587  0.810800  1
  Fe  Fe21  1  0.753174  0.510413  0.310800  1
  Fe  Fe22  1  0.753174  0.989587  0.810800  1
  Fe  Fe23  1  0.711847  0.733753  0.935467  1
  Fe  Fe24  1  0.288153  0.233753  0.564533  1
  Fe  Fe25  1  0.253174  0.510413  0.189200  1
  Fe  Fe26  1  0.211847  0.766247  0.064533  1
  Fe  Fe27  1  0.788153  0.233753  0.935467  1
  Fe  Fe28  1  0.711847  0.766247  0.435467  1
  Fe  Fe29  1  0.288153  0.266247  0.064533  1
  Fe  Fe30  1  0.246826  0.010413  0.189200  1
  Fe  Fe31  1  0.246826  0.489587  0.689200  1
  O  O32  1  0.163400  0.085287  0.597949  1
  O  O33  1  0.336600  0.914713  0.097949  1
  O  O34  1  0.073239  0.023216  0.785353  1
  O  O35  1  0.793499  0.170612  0.339715  1
  O  O36  1  0.904175  0.791998  0.022168  1
  O  O37  1  0.706501  0.670612  0.339715  1
  O  O38  1  0.663400  0.414713  0.402051  1
  O  O39  1  0.426761  0.523216  0.785353  1
  O  O40  1  0.595825  0.291998  0.022168  1
  O  O41  1  0.426761  0.976784  0.285353  1
  O  O42  1  0.573239  0.476784  0.214647  1
  O  O43  1  0.926761  0.523216  0.714647  1
  O  O44  1  0.926761  0.976784  0.214647  1
  O  O45  1  0.293499  0.170612  0.160285  1
  O  O46  1  0.793499  0.329388  0.839715  1
  O  O47  1  0.206501  0.670612  0.160285  1
  O  O48  1  0.073239  0.476784  0.285353  1
  O  O49  1  0.095825  0.291998  0.477832  1
  O  O50  1  0.595825  0.208002  0.522168  1
  O  O51  1  0.336600  0.585287  0.597949  1
  O  O52  1  0.663400  0.085287  0.902051  1
  O  O53  1  0.206501  0.829388  0.660285  1
  O  O54  1  0.836600  0.585287  0.902051  1
  O  O55  1  0.904175  0.708002  0.522168  1
  O  O56  1  0.706501  0.829388  0.839715  1
  O  O57  1  0.836600  0.914713  0.402051  1
  O  O58  1  0.573239  0.023216  0.714647  1
  O  O59  1  0.404175  0.708002  0.977832  1
  O  O60  1  0.293499  0.329388  0.660285  1
  O  O61  1  0.404175  0.791998  0.477832  1
  O  O62  1  0.095825  0.208002  0.977832  1
  O  O63  1  0.163400  0.414713  0.097949  1
