# generated using pymatgen
data_VS4
_symmetry_space_group_name_H-M   'P 1'
_cell_length_a   7.30609014
_cell_length_b   8.62159284
_cell_length_c   8.62082215
_cell_angle_alpha   82.21579541
_cell_angle_beta   71.75725729
_cell_angle_gamma   71.75230371
_symmetry_Int_Tables_number   1
_chemical_formula_structural   VS4
_chemical_formula_sum   'V4 S16'
_cell_volume   489.37650936
_cell_formula_units_Z   4
loop_
 _symmetry_equiv_pos_site_id
 _symmetry_equiv_pos_as_xyz
  1  'x, y, z'
loop_
 _atom_site_type_symbol
 _atom_site_label
 _atom_site_symmetry_multiplicity
 _atom_site_fract_x
 _atom_site_fract_y
 _atom_site_fract_z
 _atom_site_occupancy
  V  V0  1  0.116076  0.884383  0.883747  1
  V  V1  1  0.883924  0.115617  0.116253  1
  V  V2  1  0.383923  0.616246  0.615600  1
  V  V3  1  0.616077  0.383754  0.384400  1
  S  S4  1  0.538481  0.672689  0.334463  1
  S  S5  1  0.269096  0.422192  0.527908  1
  S  S6  1  0.461519  0.327311  0.665537  1
  S  S7  1  0.230874  0.972130  0.077766  1
  S  S8  1  0.957833  0.349896  0.173462  1
  S  S9  1  0.438597  0.870082  0.691852  1
  S  S10  1  0.938632  0.191797  0.370060  1
  S  S11  1  0.769126  0.027870  0.922234  1
  S  S12  1  0.730904  0.577808  0.472092  1
  S  S13  1  0.457721  0.673516  0.849959  1
  S  S14  1  0.561403  0.129918  0.308148  1
  S  S15  1  0.061368  0.808203  0.629940  1
  S  S16  1  0.042167  0.650104  0.826538  1
  S  S17  1  0.038410  0.834488  0.172728  1
  S  S18  1  0.542279  0.326484  0.150041  1
  S  S19  1  0.961590  0.165512  0.827272  1
