# generated using pymatgen
data_Nb3Co2Si
_symmetry_space_group_name_H-M   'P 1'
_cell_length_a   7.91305532
_cell_length_b   7.91305547
_cell_length_c   7.91305550
_cell_angle_alpha   59.99999988
_cell_angle_beta   59.99999926
_cell_angle_gamma   60.00000015
_symmetry_Int_Tables_number   1
_chemical_formula_structural   Nb3Co2Si
_chemical_formula_sum   'Nb12 Co8 Si4'
_cell_volume   350.36250582
_cell_formula_units_Z   4
loop_
 _symmetry_equiv_pos_site_id
 _symmetry_equiv_pos_as_xyz
  1  'x, y, z'
loop_
 _atom_site_type_symbol
 _atom_site_label
 _atom_site_symmetry_multiplicity
 _atom_site_fract_x
 _atom_site_fract_y
 _atom_site_fract_z
 _atom_site_occupancy
  Co  Co0  1  0.707609  0.707609  0.707609  1
  Co  Co1  1  0.292391  0.292391  0.622826  1
  Co  Co2  1  0.622826  0.292391  0.292391  1
  Co  Co3  1  0.292391  0.622826  0.292391  1
  Co  Co4  1  0.377174  0.707609  0.707609  1
  Co  Co5  1  0.707609  0.377174  0.707609  1
  Co  Co6  1  0.707609  0.707609  0.377174  1
  Co  Co7  1  0.292391  0.292391  0.292391  1
  Nb  Nb8  1  0.673580  0.076420  0.076420  1
  Nb  Nb9  1  0.923580  0.923580  0.326420  1
  Nb  Nb10  1  0.326420  0.326420  0.923580  1
  Nb  Nb11  1  0.923580  0.326420  0.326420  1
  Nb  Nb12  1  0.923580  0.326420  0.923580  1
  Nb  Nb13  1  0.326420  0.923580  0.326420  1
  Nb  Nb14  1  0.076420  0.673580  0.076420  1
  Nb  Nb15  1  0.076420  0.076420  0.673580  1
  Nb  Nb16  1  0.673580  0.673580  0.076420  1
  Nb  Nb17  1  0.673580  0.076420  0.673580  1
  Nb  Nb18  1  0.326420  0.923580  0.923580  1
  Nb  Nb19  1  0.076420  0.673580  0.673580  1
  Si  Si20  1  0.500000  0.500000  0.500000  1
  Si  Si21  1  0.500000  0.500000  0.000000  1
  Si  Si22  1  0.000000  0.500000  0.500000  1
  Si  Si23  1  0.500000  0.000000  0.500000  1
