# generated using pymatgen
data_Na2Zn(SiO3)2
_symmetry_space_group_name_H-M   'P 1'
_cell_length_a   5.74035683
_cell_length_b   5.74035692
_cell_length_c   10.04454840
_cell_angle_alpha   91.41035109
_cell_angle_beta   91.41035113
_cell_angle_gamma   114.09523599
_symmetry_Int_Tables_number   1
_chemical_formula_structural   Na2Zn(SiO3)2
_chemical_formula_sum   'Na4 Zn2 Si4 O12'
_cell_volume   301.83610550
_cell_formula_units_Z   2
loop_
 _symmetry_equiv_pos_site_id
 _symmetry_equiv_pos_as_xyz
  1  'x, y, z'
loop_
 _atom_site_type_symbol
 _atom_site_label
 _atom_site_symmetry_multiplicity
 _atom_site_fract_x
 _atom_site_fract_y
 _atom_site_fract_z
 _atom_site_occupancy
  Na  Na0  1  0.384647  0.743323  0.103668  1
  Na  Na1  1  0.256677  0.615353  0.396332  1
  Na  Na2  1  0.615353  0.256677  0.896332  1
  Na  Na3  1  0.743323  0.384647  0.603668  1
  Zn  Zn4  1  0.723566  0.276434  0.250000  1
  Zn  Zn5  1  0.276434  0.723566  0.750000  1
  Si  Si6  1  0.160345  0.141803  0.137879  1
  Si  Si7  1  0.839655  0.858197  0.862121  1
  Si  Si8  1  0.141803  0.160345  0.637879  1
  Si  Si9  1  0.858197  0.839655  0.362121  1
  O  O10  1  0.084800  0.915200  0.250000  1
  O  O11  1  0.769015  0.537585  0.390886  1
  O  O12  1  0.629433  0.917394  0.311386  1
  O  O13  1  0.230985  0.462415  0.609114  1
  O  O14  1  0.537585  0.769015  0.890886  1
  O  O15  1  0.462415  0.230985  0.109114  1
  O  O16  1  0.370567  0.082606  0.688614  1
  O  O17  1  0.000000  0.000000  0.500000  1
  O  O18  1  0.917394  0.629433  0.811386  1
  O  O19  1  0.082606  0.370567  0.188614  1
  O  O20  1  0.915200  0.084800  0.750000  1
  O  O21  1  0.000000  0.000000  0.000000  1
