# generated using pymatgen
data_YCo3H2
_symmetry_space_group_name_H-M   'P 1'
_cell_length_a   9.56467652
_cell_length_b   9.56467645
_cell_length_c   9.56467656
_cell_angle_alpha   29.93726909
_cell_angle_beta   29.93726963
_cell_angle_gamma   29.93727030
_symmetry_Int_Tables_number   1
_chemical_formula_structural   YCo3H2
_chemical_formula_sum   'Y3 Co9 H6'
_cell_volume   193.01369824
_cell_formula_units_Z   3
loop_
 _symmetry_equiv_pos_site_id
 _symmetry_equiv_pos_as_xyz
  1  'x, y, z'
loop_
 _atom_site_type_symbol
 _atom_site_label
 _atom_site_symmetry_multiplicity
 _atom_site_fract_x
 _atom_site_fract_y
 _atom_site_fract_z
 _atom_site_occupancy
  Y  Y0  1  0.128066  0.128066  0.128066  1
  Y  Y1  1  0.000000  0.000000  0.000000  1
  Y  Y2  1  0.871934  0.871934  0.871934  1
  Co  Co3  1  0.073222  0.570897  0.570897  1
  Co  Co4  1  0.429104  0.429104  0.926778  1
  Co  Co5  1  0.429104  0.926778  0.429104  1
  Co  Co6  1  0.570897  0.570897  0.073222  1
  Co  Co7  1  0.667945  0.667945  0.667945  1
  Co  Co8  1  0.926778  0.429104  0.429104  1
  Co  Co9  1  0.570897  0.073222  0.570897  1
  Co  Co10  1  0.500000  0.500000  0.500000  1
  Co  Co11  1  0.332055  0.332055  0.332055  1
  H  H12  1  0.140597  0.631410  0.631410  1
  H  H13  1  0.631410  0.631410  0.140597  1
  H  H14  1  0.631410  0.140597  0.631410  1
  H  H15  1  0.859403  0.368590  0.368590  1
  H  H16  1  0.368590  0.859403  0.368590  1
  H  H17  1  0.368590  0.368590  0.859403  1
