# generated using pymatgen
data_Sr2MnGaO5
_symmetry_space_group_name_H-M   'P 1'
_cell_length_a   5.49805738
_cell_length_b   5.69421213
_cell_length_c   8.93957040
_cell_angle_alpha   108.57353502
_cell_angle_beta   107.90937949
_cell_angle_gamma   90.00000000
_symmetry_Int_Tables_number   1
_chemical_formula_structural   Sr2MnGaO5
_chemical_formula_sum   'Sr4 Mn2 Ga2 O10'
_cell_volume   250.94712886
_cell_formula_units_Z   2
loop_
 _symmetry_equiv_pos_site_id
 _symmetry_equiv_pos_as_xyz
  1  'x, y, z'
loop_
 _atom_site_type_symbol
 _atom_site_label
 _atom_site_symmetry_multiplicity
 _atom_site_fract_x
 _atom_site_fract_y
 _atom_site_fract_z
 _atom_site_occupancy
  O  O0  1  0.627303  0.119654  0.499992  1
  O  O1  1  0.127312  0.880346  0.500008  1
  O  O2  1  0.329678  0.405922  0.710306  1
  O  O3  1  0.619372  0.594078  0.289694  1
  O  O4  1  0.829646  0.804376  0.710273  1
  O  O5  1  0.119373  0.195624  0.289727  1
  O  O6  1  0.253453  0.759447  0.013786  1
  O  O7  1  0.239667  0.240553  0.986214  1
  O  O8  1  0.739687  0.245703  0.986227  1
  O  O9  1  0.753460  0.754297  0.013773  1
  Mn  Mn10  1  0.994776  0.000000  0.000000  1
  Mn  Mn11  1  0.494775  0.500000  0.000000  1
  Ga  Ga12  1  0.284371  0.178062  0.500017  1
  Ga  Ga13  1  0.784354  0.821938  0.499983  1
  Sr  Sr14  1  0.110422  0.592764  0.222459  1
  Sr  Sr15  1  0.610425  0.129686  0.222460  1
  Sr  Sr16  1  0.887963  0.407236  0.777541  1
  Sr  Sr17  1  0.387965  0.870314  0.777540  1
