# generated using pymatgen
data_Y3(SiRh)2
_symmetry_space_group_name_H-M   'P 1'
_cell_length_a   5.60081321
_cell_length_b   7.80036673
_cell_length_c   13.12496088
_cell_angle_alpha   90.00000000
_cell_angle_beta   90.00000000
_cell_angle_gamma   90.00000000
_symmetry_Int_Tables_number   1
_chemical_formula_structural   Y3(SiRh)2
_chemical_formula_sum   'Y12 Si8 Rh8'
_cell_volume   573.40850185
_cell_formula_units_Z   4
loop_
 _symmetry_equiv_pos_site_id
 _symmetry_equiv_pos_as_xyz
  1  'x, y, z'
loop_
 _atom_site_type_symbol
 _atom_site_label
 _atom_site_symmetry_multiplicity
 _atom_site_fract_x
 _atom_site_fract_y
 _atom_site_fract_z
 _atom_site_occupancy
  Y  Y0  1  0.137323  0.606737  0.103688  1
  Y  Y1  1  0.137323  0.893263  0.896312  1
  Y  Y2  1  0.862677  0.106737  0.396312  1
  Y  Y3  1  0.862677  0.393263  0.603688  1
  Y  Y4  1  0.862677  0.393263  0.896312  1
  Y  Y5  1  0.862677  0.106737  0.103688  1
  Y  Y6  1  0.137323  0.893263  0.603688  1
  Y  Y7  1  0.137323  0.606737  0.396312  1
  Y  Y8  1  0.370463  0.247663  0.250000  1
  Y  Y9  1  0.370463  0.252337  0.750000  1
  Y  Y10  1  0.629537  0.747663  0.250000  1
  Y  Y11  1  0.629537  0.752337  0.750000  1
  Rh  Rh12  1  0.636945  0.468864  0.090128  1
  Rh  Rh13  1  0.636945  0.031136  0.909872  1
  Rh  Rh14  1  0.363055  0.968864  0.409872  1
  Rh  Rh15  1  0.363055  0.531136  0.590128  1
  Rh  Rh16  1  0.363055  0.531136  0.909872  1
  Rh  Rh17  1  0.363055  0.968864  0.090128  1
  Rh  Rh18  1  0.636945  0.031136  0.590128  1
  Rh  Rh19  1  0.636945  0.468864  0.409872  1
  Si  Si20  1  0.858769  0.395073  0.250000  1
  Si  Si21  1  0.858769  0.104927  0.750000  1
  Si  Si22  1  0.141231  0.895073  0.250000  1
  Si  Si23  1  0.141231  0.604927  0.750000  1
  Si  Si24  1  0.381527  0.250000  0.000000  1
  Si  Si25  1  0.618473  0.750000  0.500000  1
  Si  Si26  1  0.618473  0.750000  0.000000  1
  Si  Si27  1  0.381527  0.250000  0.500000  1
