# generated using pymatgen
data_YbTlSe2
_symmetry_space_group_name_H-M   'P 1'
_cell_length_a   7.49780060
_cell_length_b   7.49780079
_cell_length_c   7.49780044
_cell_angle_alpha   33.06174961
_cell_angle_beta   33.06174688
_cell_angle_gamma   33.06175304
_symmetry_Int_Tables_number   1
_chemical_formula_structural   YbTlSe2
_chemical_formula_sum   'Yb1 Tl1 Se2'
_cell_volume   111.64785269
_cell_formula_units_Z   1
loop_
 _symmetry_equiv_pos_site_id
 _symmetry_equiv_pos_as_xyz
  1  'x, y, z'
loop_
 _atom_site_type_symbol
 _atom_site_label
 _atom_site_symmetry_multiplicity
 _atom_site_fract_x
 _atom_site_fract_y
 _atom_site_fract_z
 _atom_site_occupancy
  Yb  Yb0  1  0.000000  0.000000  0.000000  1
  Tl  Tl1  1  0.500000  0.500000  0.500000  1
  Se  Se2  1  0.256694  0.256694  0.256694  1
  Se  Se3  1  0.743306  0.743306  0.743306  1
