# generated using pymatgen
data_BaH4(CO3)2
_symmetry_space_group_name_H-M   'P 1'
_cell_length_a   7.18769486
_cell_length_b   7.56195134
_cell_length_c   11.16918761
_cell_angle_alpha   90.00000000
_cell_angle_beta   90.00000000
_cell_angle_gamma   104.97226273
_symmetry_Int_Tables_number   1
_chemical_formula_structural   BaH4(CO3)2
_chemical_formula_sum   'Ba4 H16 C8 O24'
_cell_volume   586.46912599
_cell_formula_units_Z   4
loop_
 _symmetry_equiv_pos_site_id
 _symmetry_equiv_pos_as_xyz
  1  'x, y, z'
loop_
 _atom_site_type_symbol
 _atom_site_label
 _atom_site_symmetry_multiplicity
 _atom_site_fract_x
 _atom_site_fract_y
 _atom_site_fract_z
 _atom_site_occupancy
  Ba  Ba0  1  0.207900  0.801838  0.990425  1
  Ba  Ba1  1  0.292100  0.198162  0.490425  1
  Ba  Ba2  1  0.707900  0.801838  0.509575  1
  Ba  Ba3  1  0.792100  0.198162  0.009575  1
  H  H4  1  0.776483  0.363955  0.527081  1
  H  H5  1  0.223517  0.636045  0.472919  1
  H  H6  1  0.260138  0.596172  0.606681  1
  H  H7  1  0.276483  0.363955  0.972919  1
  H  H8  1  0.239862  0.403828  0.106681  1
  H  H9  1  0.739862  0.403828  0.393319  1
  H  H10  1  0.037410  0.541226  0.754366  1
  H  H11  1  0.462590  0.458774  0.254366  1
  H  H12  1  0.760138  0.596172  0.893319  1
  H  H13  1  0.723517  0.636045  0.027081  1
  H  H14  1  0.597023  0.751844  0.785132  1
  H  H15  1  0.537410  0.541226  0.745634  1
  H  H16  1  0.097023  0.751844  0.714868  1
  H  H17  1  0.402977  0.248156  0.214868  1
  H  H18  1  0.962590  0.458774  0.245634  1
  H  H19  1  0.902977  0.248156  0.285132  1
  C  C20  1  0.507863  0.958819  0.247081  1
  C  C21  1  0.928372  0.212751  0.701451  1
  C  C22  1  0.007863  0.958819  0.252919  1
  C  C23  1  0.992137  0.041181  0.747081  1
  C  C24  1  0.428372  0.212751  0.798549  1
  C  C25  1  0.571628  0.787249  0.201451  1
  C  C26  1  0.492137  0.041181  0.752919  1
  C  C27  1  0.071628  0.787249  0.298549  1
  O  O28  1  0.851685  0.349425  0.252001  1
  O  O29  1  0.351685  0.349425  0.247999  1
  O  O30  1  0.498065  0.014930  0.641558  1
  O  O31  1  0.001935  0.985070  0.141558  1
  O  O32  1  0.501935  0.985070  0.358442  1
  O  O33  1  0.807351  0.581151  0.975507  1
  O  O34  1  0.929022  0.234909  0.588870  1
  O  O35  1  0.536403  0.941165  0.834740  1
  O  O36  1  0.383165  0.316054  0.720672  1
  O  O37  1  0.998065  0.014930  0.858442  1
  O  O38  1  0.616835  0.683946  0.279328  1
  O  O39  1  0.463597  0.058835  0.165260  1
  O  O40  1  0.116835  0.683946  0.220672  1
  O  O41  1  0.192649  0.418849  0.024493  1
  O  O42  1  0.307351  0.581151  0.524493  1
  O  O43  1  0.148315  0.650575  0.747999  1
  O  O44  1  0.692649  0.418849  0.475507  1
  O  O45  1  0.570978  0.765091  0.088870  1
  O  O46  1  0.963597  0.058835  0.334740  1
  O  O47  1  0.429022  0.234909  0.911130  1
  O  O48  1  0.883165  0.316054  0.779328  1
  O  O49  1  0.070978  0.765091  0.411130  1
  O  O50  1  0.036403  0.941165  0.665260  1
  O  O51  1  0.648315  0.650575  0.752001  1
