# generated using pymatgen
data_Al24Zn3O40
_symmetry_space_group_name_H-M   'P 1'
_cell_length_a   5.69424552
_cell_length_b   5.72387513
_cell_length_c   28.35292854
_cell_angle_alpha   59.68864168
_cell_angle_beta   59.69589650
_cell_angle_gamma   59.82772409
_symmetry_Int_Tables_number   1
_chemical_formula_structural   Al24Zn3O40
_chemical_formula_sum   'Al24 Zn3 O40'
_cell_volume   649.54634344
_cell_formula_units_Z   1
loop_
 _symmetry_equiv_pos_site_id
 _symmetry_equiv_pos_as_xyz
  1  'x, y, z'
loop_
 _atom_site_type_symbol
 _atom_site_label
 _atom_site_symmetry_multiplicity
 _atom_site_fract_x
 _atom_site_fract_y
 _atom_site_fract_z
 _atom_site_occupancy
  Al  Al0  1  0.498524  0.499062  0.000670  1
  Al  Al1  1  0.496439  0.497664  0.102216  1
  Al  Al2  1  0.496439  0.994816  0.102216  1
  Al  Al3  1  0.134727  0.114804  0.427133  1
  Al  Al4  1  0.993047  0.497493  0.102393  1
  Al  Al5  1  0.499805  0.501017  0.297842  1
  Al  Al6  1  0.881244  0.883674  0.170281  1
  Al  Al7  1  0.499805  0.009966  0.297842  1
  Al  Al8  1  0.473496  0.503396  0.403942  1
  Al  Al9  1  0.005850  0.500865  0.298484  1
  Al  Al10  1  0.510134  0.504404  0.498531  1
  Al  Al11  1  0.494697  0.989177  0.704259  1
  Al  Al12  1  0.510134  0.992809  0.498531  1
  Al  Al13  1  0.507781  0.493500  0.601044  1
  Al  Al14  1  0.865408  0.881263  0.374413  1
  Al  Al15  1  0.121643  0.119433  0.827898  1
  Al  Al16  1  0.494697  0.494832  0.704259  1
  Al  Al17  1  0.862742  0.878001  0.576251  1
  Al  Al18  1  0.990665  0.494286  0.704153  1
  Al  Al19  1  0.504545  0.503226  0.894644  1
  Al  Al20  1  0.883062  0.882842  0.770251  1
  Al  Al21  1  0.504545  0.019007  0.894644  1
  Al  Al22  1  0.020243  0.503951  0.894371  1
  Al  Al23  1  0.877940  0.879078  0.972781  1
  O  O24  1  0.266594  0.268198  0.051672  1
  O  O25  1  0.261863  0.262435  0.142653  1
  O  O26  1  0.266594  0.706848  0.051672  1
  O  O27  1  0.706907  0.267358  0.051675  1
  O  O28  1  0.241561  0.245221  0.259896  1
  O  O29  1  0.265216  0.762492  0.141960  1
  O  O30  1  0.745391  0.746633  0.052269  1
  O  O31  1  0.250551  0.252828  0.348759  1
  O  O32  1  0.241561  0.713738  0.259896  1
  O  O33  1  0.760907  0.266258  0.142139  1
  O  O34  1  0.760907  0.762138  0.142139  1
  O  O35  1  0.712811  0.244200  0.259758  1
  O  O36  1  0.285431  0.238125  0.448529  1
  O  O37  1  0.267532  0.741728  0.349803  1
  O  O38  1  0.301108  0.243925  0.542208  1
  O  O39  1  0.736637  0.281797  0.348516  1
  O  O40  1  0.740644  0.746360  0.253327  1
  O  O41  1  0.285431  0.733798  0.448529  1
  O  O42  1  0.736637  0.738986  0.348516  1
  O  O43  1  0.739768  0.254962  0.450062  1
  O  O44  1  0.263282  0.264791  0.654932  1
  O  O45  1  0.265531  0.745963  0.548508  1
  O  O46  1  0.252940  0.249547  0.749593  1
  O  O47  1  0.728001  0.757463  0.451415  1
  O  O48  1  0.263282  0.697267  0.654932  1
  O  O49  1  0.710571  0.263774  0.552891  1
  O  O50  1  0.705209  0.261701  0.654278  1
  O  O51  1  0.710571  0.761200  0.552891  1
  O  O52  1  0.240166  0.239239  0.855871  1
  O  O53  1  0.264572  0.758998  0.743487  1
  O  O54  1  0.240166  0.741242  0.855871  1
  O  O55  1  0.743007  0.740282  0.655286  1
  O  O56  1  0.759731  0.263278  0.743623  1
  O  O57  1  0.268372  0.268214  0.939040  1
  O  O58  1  0.742058  0.239066  0.855962  1
  O  O59  1  0.759731  0.758875  0.743623  1
  O  O60  1  0.277572  0.741126  0.948035  1
  O  O61  1  0.746718  0.746068  0.852229  1
  O  O62  1  0.740631  0.278077  0.948054  1
  O  O63  1  0.740631  0.741024  0.948054  1
  Zn  Zn64  1  0.124730  0.123021  0.025846  1
  Zn  Zn65  1  0.125369  0.124308  0.225203  1
  Zn  Zn66  1  0.125499  0.118883  0.627347  1
