# generated using pymatgen
data_CdI2
_symmetry_space_group_name_H-M   'P 1'
_cell_length_a   4.33283213
_cell_length_b   4.33283239
_cell_length_c   67.36560710
_cell_angle_alpha   90.00000000
_cell_angle_beta   90.00000000
_cell_angle_gamma   119.99999793
_symmetry_Int_Tables_number   1
_chemical_formula_structural   CdI2
_chemical_formula_sum   'Cd9 I18'
_cell_volume   1095.24838477
_cell_formula_units_Z   9
loop_
 _symmetry_equiv_pos_site_id
 _symmetry_equiv_pos_as_xyz
  1  'x, y, z'
loop_
 _atom_site_type_symbol
 _atom_site_label
 _atom_site_symmetry_multiplicity
 _atom_site_fract_x
 _atom_site_fract_y
 _atom_site_fract_z
 _atom_site_occupancy
  Cd  Cd0  1  0.000000  0.000000  0.805540  1
  Cd  Cd1  1  0.000000  0.000000  0.916630  1
  Cd  Cd2  1  0.000000  0.000000  0.583337  1
  Cd  Cd3  1  0.666667  0.333333  0.027799  1
  Cd  Cd4  1  0.000000  0.000000  0.138889  1
  Cd  Cd5  1  0.000000  0.000000  0.361072  1
  Cd  Cd6  1  0.666667  0.333333  0.694465  1
  Cd  Cd7  1  0.666667  0.333333  0.472232  1
  Cd  Cd8  1  0.666667  0.333333  0.250023  1
  I  I9  1  0.000000  0.000000  0.224407  1
  I  I10  1  0.666667  0.333333  0.335470  1
  I  I11  1  0.333333  0.666667  0.720093  1
  I  I12  1  0.666667  0.333333  0.557720  1
  I  I13  1  0.000000  0.000000  0.446598  1
  I  I14  1  0.333333  0.666667  0.275652  1
  I  I15  1  0.000000  0.000000  0.668845  1
  I  I16  1  0.333333  0.666667  0.053419  1
  I  I17  1  0.333333  0.666667  0.608958  1
  I  I18  1  0.666667  0.333333  0.891013  1
  I  I19  1  0.333333  0.666667  0.942245  1
  I  I20  1  0.666667  0.333333  0.113285  1
  I  I21  1  0.000000  0.000000  0.002183  1
  I  I22  1  0.333333  0.666667  0.164492  1
  I  I23  1  0.666667  0.333333  0.779910  1
  I  I24  1  0.333333  0.666667  0.386681  1
  I  I25  1  0.333333  0.666667  0.831176  1
  I  I26  1  0.333333  0.666667  0.497865  1
