# generated using pymatgen
data_SiO2
_symmetry_space_group_name_H-M   'P 1'
_cell_length_a   13.77955768
_cell_length_b   13.77955765
_cell_length_c   9.03787307
_cell_angle_alpha   90.00000000
_cell_angle_beta   90.00000000
_cell_angle_gamma   120.00000007
_symmetry_Int_Tables_number   1
_chemical_formula_structural   SiO2
_chemical_formula_sum   'Si24 O48'
_cell_volume   1486.16634512
_cell_formula_units_Z   24
loop_
 _symmetry_equiv_pos_site_id
 _symmetry_equiv_pos_as_xyz
  1  'x, y, z'
loop_
 _atom_site_type_symbol
 _atom_site_label
 _atom_site_symmetry_multiplicity
 _atom_site_fract_x
 _atom_site_fract_y
 _atom_site_fract_z
 _atom_site_occupancy
  Si  Si0  1  0.330599  0.869439  0.073596  1
  Si  Si1  1  0.538839  0.869439  0.926404  1
  Si  Si2  1  0.130561  0.461161  0.426404  1
  Si  Si3  1  0.869439  0.538839  0.926404  1
  Si  Si4  1  0.461161  0.130561  0.073596  1
  Si  Si5  1  0.461161  0.330599  0.573596  1
  Si  Si6  1  0.130561  0.669401  0.926404  1
  Si  Si7  1  0.461161  0.330599  0.926404  1
  Si  Si8  1  0.669401  0.130561  0.573596  1
  Si  Si9  1  0.461161  0.130561  0.426404  1
  Si  Si10  1  0.330599  0.461161  0.573596  1
  Si  Si11  1  0.869439  0.330599  0.426404  1
  Si  Si12  1  0.538839  0.669401  0.426404  1
  Si  Si13  1  0.330599  0.461161  0.926404  1
  Si  Si14  1  0.330599  0.869439  0.426404  1
  Si  Si15  1  0.669401  0.130561  0.926404  1
  Si  Si16  1  0.538839  0.669401  0.073596  1
  Si  Si17  1  0.130561  0.669401  0.573596  1
  Si  Si18  1  0.130561  0.461161  0.073596  1
  Si  Si19  1  0.869439  0.330599  0.073596  1
  Si  Si20  1  0.669401  0.538839  0.426404  1
  Si  Si21  1  0.869439  0.538839  0.573596  1
  Si  Si22  1  0.538839  0.869439  0.573596  1
  Si  Si23  1  0.669401  0.538839  0.073596  1
  O  O24  1  0.584392  0.792196  0.500000  1
  O  O25  1  0.415608  0.207804  0.000000  1
  O  O26  1  0.792196  0.207804  0.000000  1
  O  O27  1  0.630993  0.630993  0.041727  1
  O  O28  1  0.207804  0.792196  0.000000  1
  O  O29  1  0.154285  0.675658  0.750000  1
  O  O30  1  0.207804  0.415608  0.000000  1
  O  O31  1  0.845715  0.521373  0.750000  1
  O  O32  1  0.207804  0.792196  0.500000  1
  O  O33  1  0.792196  0.584392  0.000000  1
  O  O34  1  0.418907  0.837815  0.000000  1
  O  O35  1  0.478627  0.154285  0.250000  1
  O  O36  1  0.000000  0.369007  0.041727  1
  O  O37  1  0.630993  0.000000  0.958273  1
  O  O38  1  0.675658  0.154285  0.750000  1
  O  O39  1  0.418907  0.581093  0.500000  1
  O  O40  1  0.521373  0.845715  0.750000  1
  O  O41  1  0.584392  0.792196  0.000000  1
  O  O42  1  0.845715  0.324342  0.250000  1
  O  O43  1  0.581093  0.418907  0.500000  1
  O  O44  1  0.415608  0.207804  0.500000  1
  O  O45  1  0.837815  0.418907  0.500000  1
  O  O46  1  0.207804  0.415608  0.500000  1
  O  O47  1  1.000000  0.630993  0.541727  1
  O  O48  1  1.000000  0.630993  0.958273  1
  O  O49  1  0.630993  0.000000  0.541727  1
  O  O50  1  0.000000  0.369007  0.458273  1
  O  O51  1  0.418907  0.837815  0.500000  1
  O  O52  1  0.369007  0.000000  0.041727  1
  O  O53  1  0.324342  0.845715  0.250000  1
  O  O54  1  0.675658  0.521373  0.250000  1
  O  O55  1  0.478627  0.324342  0.750000  1
  O  O56  1  0.581093  0.418907  0.000000  1
  O  O57  1  0.154285  0.478627  0.250000  1
  O  O58  1  0.369007  0.369007  0.541727  1
  O  O59  1  0.837815  0.418907  0.000000  1
  O  O60  1  0.521373  0.675658  0.250000  1
  O  O61  1  0.369007  0.369007  0.958273  1
  O  O62  1  0.630993  0.630993  0.458273  1
  O  O63  1  0.581093  0.162185  0.000000  1
  O  O64  1  0.162185  0.581093  0.000000  1
  O  O65  1  0.418907  0.581093  0.000000  1
  O  O66  1  0.369007  0.000000  0.458273  1
  O  O67  1  0.792196  0.207804  0.500000  1
  O  O68  1  0.792196  0.584392  0.500000  1
  O  O69  1  0.324342  0.478627  0.750000  1
  O  O70  1  0.581093  0.162185  0.500000  1
  O  O71  1  0.162185  0.581093  0.500000  1
