# generated using pymatgen
data_V2Cd4(TeO5)3
_symmetry_space_group_name_H-M   'P 1'
_cell_length_a   5.47985495
_cell_length_b   16.68679695
_cell_length_c   16.37836946
_cell_angle_alpha   90.00000000
_cell_angle_beta   90.00000000
_cell_angle_gamma   90.00000000
_symmetry_Int_Tables_number   1
_chemical_formula_structural   V2Cd4(TeO5)3
_chemical_formula_sum   'V8 Cd16 Te12 O60'
_cell_volume   1497.65819749
_cell_formula_units_Z   4
loop_
 _symmetry_equiv_pos_site_id
 _symmetry_equiv_pos_as_xyz
  1  'x, y, z'
loop_
 _atom_site_type_symbol
 _atom_site_label
 _atom_site_symmetry_multiplicity
 _atom_site_fract_x
 _atom_site_fract_y
 _atom_site_fract_z
 _atom_site_occupancy
  V  V0  1  0.535251  0.318981  0.833058  1
  V  V1  1  0.058282  0.688721  0.999114  1
  V  V2  1  0.941718  0.188721  0.500886  1
  V  V3  1  0.558282  0.811279  0.000886  1
  V  V4  1  0.441718  0.311279  0.499114  1
  V  V5  1  0.035251  0.181019  0.166942  1
  V  V6  1  0.964749  0.681019  0.333058  1
  V  V7  1  0.464749  0.818981  0.666942  1
  Cd  Cd8  1  0.997256  0.987300  0.336714  1
  Cd  Cd9  1  0.011076  0.165430  0.837122  1
  Cd  Cd10  1  0.924486  0.020152  0.664556  1
  Cd  Cd11  1  0.075514  0.520152  0.835444  1
  Cd  Cd12  1  0.065464  0.015167  0.003848  1
  Cd  Cd13  1  0.424486  0.479848  0.335444  1
  Cd  Cd14  1  0.434536  0.984833  0.503848  1
  Cd  Cd15  1  0.488924  0.834570  0.337122  1
  Cd  Cd16  1  0.934536  0.515167  0.496152  1
  Cd  Cd17  1  0.497256  0.512700  0.663286  1
  Cd  Cd18  1  0.511076  0.334570  0.162878  1
  Cd  Cd19  1  0.002744  0.487300  0.163286  1
  Cd  Cd20  1  0.575514  0.979848  0.164556  1
  Cd  Cd21  1  0.502744  0.012700  0.836714  1
  Cd  Cd22  1  0.988924  0.665430  0.662878  1
  Cd  Cd23  1  0.565464  0.484833  0.996152  1
  Te  Te24  1  0.479183  0.131039  0.324542  1
  Te  Te25  1  0.547149  0.643930  0.822619  1
  Te  Te26  1  0.953399  0.862263  0.500225  1
  Te  Te27  1  0.952851  0.356070  0.322619  1
  Te  Te28  1  0.979183  0.368961  0.675458  1
  Te  Te29  1  0.047149  0.856070  0.177381  1
  Te  Te30  1  0.453399  0.637737  0.499775  1
  Te  Te31  1  0.520817  0.631039  0.175458  1
  Te  Te32  1  0.046601  0.362263  0.999775  1
  Te  Te33  1  0.020817  0.868961  0.824542  1
  Te  Te34  1  0.452851  0.143930  0.677381  1
  Te  Te35  1  0.546601  0.137737  0.000225  1
  O  O36  1  0.436268  0.563190  0.895637  1
  O  O37  1  0.210139  0.123471  0.244206  1
  O  O38  1  0.314410  0.369113  0.572127  1
  O  O39  1  0.311213  0.557586  0.227886  1
  O  O40  1  0.895307  0.121541  0.094912  1
  O  O41  1  0.215533  0.883628  0.424735  1
  O  O42  1  0.240363  0.575065  0.569065  1
  O  O43  1  0.809609  0.440027  0.606110  1
  O  O44  1  0.104693  0.621541  0.405088  1
  O  O45  1  0.814410  0.130887  0.427873  1
  O  O46  1  0.715533  0.616372  0.575265  1
  O  O47  1  0.309609  0.059973  0.393890  1
  O  O48  1  0.259637  0.424935  0.069065  1
  O  O49  1  0.943128  0.635576  0.920752  1
  O  O50  1  0.262628  0.921114  0.242240  1
  O  O51  1  0.740363  0.924935  0.430935  1
  O  O52  1  0.395307  0.378459  0.905088  1
  O  O53  1  0.801667  0.746888  0.040694  1
  O  O54  1  0.220035  0.379897  0.251955  1
  O  O55  1  0.063732  0.436810  0.395637  1
  O  O56  1  0.755377  0.740455  0.383722  1
  O  O57  1  0.811213  0.942414  0.772114  1
  O  O58  1  0.301667  0.753112  0.959306  1
  O  O59  1  0.784467  0.383628  0.075265  1
  O  O60  1  0.688787  0.057586  0.272114  1
  O  O61  1  0.244623  0.240455  0.116278  1
  O  O62  1  0.685845  0.758624  0.711498  1
  O  O63  1  0.279965  0.620103  0.751955  1
  O  O64  1  0.744623  0.259545  0.883722  1
  O  O65  1  0.936268  0.936810  0.104363  1
  O  O66  1  0.422225  0.052842  0.065505  1
  O  O67  1  0.814155  0.241376  0.211498  1
  O  O68  1  0.604693  0.878459  0.594912  1
  O  O69  1  0.314155  0.258624  0.788502  1
  O  O70  1  0.720035  0.120103  0.748045  1
  O  O71  1  0.289861  0.876529  0.744206  1
  O  O72  1  0.556872  0.364424  0.420752  1
  O  O73  1  0.710139  0.376529  0.755794  1
  O  O74  1  0.077775  0.947158  0.565505  1
  O  O75  1  0.690391  0.559973  0.106110  1
  O  O76  1  0.198333  0.246888  0.459306  1
  O  O77  1  0.779965  0.879897  0.248045  1
  O  O78  1  0.789861  0.623471  0.255794  1
  O  O79  1  0.922225  0.447158  0.934495  1
  O  O80  1  0.698333  0.253112  0.540694  1
  O  O81  1  0.185590  0.630887  0.072127  1
  O  O82  1  0.762628  0.578886  0.757760  1
  O  O83  1  0.188787  0.442414  0.727886  1
  O  O84  1  0.737372  0.421114  0.257760  1
  O  O85  1  0.255377  0.759545  0.616278  1
  O  O86  1  0.759637  0.075065  0.930935  1
  O  O87  1  0.577775  0.552842  0.434495  1
  O  O88  1  0.056872  0.135576  0.579248  1
  O  O89  1  0.685590  0.869113  0.927873  1
  O  O90  1  0.563732  0.063190  0.604363  1
  O  O91  1  0.237372  0.078886  0.742240  1
  O  O92  1  0.185845  0.741376  0.288502  1
  O  O93  1  0.284467  0.116372  0.924735  1
  O  O94  1  0.190391  0.940027  0.893890  1
  O  O95  1  0.443128  0.864424  0.079248  1
