# generated using pymatgen
data_Sr2YCoCu2O7
_symmetry_space_group_name_H-M   'P 1'
_cell_length_a   5.43138318
_cell_length_b   5.50303519
_cell_length_c   12.17415611
_cell_angle_alpha   103.06902585
_cell_angle_beta   102.89246586
_cell_angle_gamma   89.99968238
_symmetry_Int_Tables_number   1
_chemical_formula_structural   Sr2YCoCu2O7
_chemical_formula_sum   'Sr4 Y2 Co2 Cu4 O14'
_cell_volume   345.02607481
_cell_formula_units_Z   2
loop_
 _symmetry_equiv_pos_site_id
 _symmetry_equiv_pos_as_xyz
  1  'x, y, z'
loop_
 _atom_site_type_symbol
 _atom_site_label
 _atom_site_symmetry_multiplicity
 _atom_site_fract_x
 _atom_site_fract_y
 _atom_site_fract_z
 _atom_site_occupancy
  Y  Y0  1  0.987558  0.999953  0.000022  1
  Y  Y1  1  0.487544  0.499927  0.000011  1
  Sr  Sr2  1  0.334207  0.336341  0.695664  1
  Sr  Sr3  1  0.638610  0.663692  0.304290  1
  Sr  Sr4  1  0.834234  0.859374  0.695691  1
  Sr  Sr5  1  0.138618  0.140704  0.304307  1
  Co  Co6  1  0.269837  0.686593  0.500008  1
  Co  Co7  1  0.769749  0.313576  0.500006  1
  Cu  Cu8  1  0.914523  0.428543  0.856729  1
  Cu  Cu9  1  0.057848  0.571371  0.143239  1
  Cu  Cu10  1  0.414548  0.928030  0.856770  1
  Cu  Cu11  1  0.557868  0.071919  0.143281  1
  O  O12  1  0.127227  0.361509  0.499986  1
  O  O13  1  0.627348  0.638692  0.499974  1
  O  O14  1  0.178910  0.192909  0.876384  1
  O  O15  1  0.302606  0.806943  0.123625  1
  O  O16  1  0.678933  0.183214  0.876422  1
  O  O17  1  0.802593  0.816684  0.123619  1
  O  O18  1  0.668102  0.681956  0.871251  1
  O  O19  1  0.796995  0.317972  0.128800  1
  O  O20  1  0.168158  0.689080  0.871266  1
  O  O21  1  0.296959  0.310864  0.128734  1
  O  O22  1  0.289399  0.859896  0.649091  1
  O  O23  1  0.640120  0.140179  0.350876  1
  O  O24  1  0.789228  0.289300  0.649070  1
  O  O25  1  0.140280  0.710779  0.350882  1
