# generated using pymatgen
data_K2Ce(NO3)6
_symmetry_space_group_name_H-M   'P 1'
_cell_length_a   6.84003667
_cell_length_b   8.50352306
_cell_length_c   13.06510440
_cell_angle_alpha   91.57392882
_cell_angle_beta   90.00000000
_cell_angle_gamma   90.00000000
_symmetry_Int_Tables_number   1
_chemical_formula_structural   K2Ce(NO3)6
_chemical_formula_sum   'K4 Ce2 N12 O36'
_cell_volume   759.63737686
_cell_formula_units_Z   2
loop_
 _symmetry_equiv_pos_site_id
 _symmetry_equiv_pos_as_xyz
  1  'x, y, z'
loop_
 _atom_site_type_symbol
 _atom_site_label
 _atom_site_symmetry_multiplicity
 _atom_site_fract_x
 _atom_site_fract_y
 _atom_site_fract_z
 _atom_site_occupancy
  K  K0  1  0.779460  0.960392  0.340494  1
  K  K1  1  0.279460  0.539608  0.159506  1
  K  K2  1  0.220540  0.039608  0.659506  1
  K  K3  1  0.720540  0.460392  0.840494  1
  Ce  Ce4  1  0.500000  0.500000  0.500000  1
  Ce  Ce5  1  0.000000  0.000000  0.000000  1
  N  N6  1  0.278387  0.785717  0.887057  1
  N  N7  1  0.767057  0.537895  0.318421  1
  N  N8  1  0.254510  0.781627  0.451194  1
  N  N9  1  0.221613  0.285717  0.387057  1
  N  N10  1  0.267057  0.962105  0.181579  1
  N  N11  1  0.754510  0.718373  0.048806  1
  N  N12  1  0.232943  0.462105  0.681579  1
  N  N13  1  0.745490  0.218373  0.548806  1
  N  N14  1  0.245490  0.281627  0.951194  1
  N  N15  1  0.721613  0.214283  0.112943  1
  N  N16  1  0.778387  0.714283  0.612943  1
  N  N17  1  0.732943  0.037895  0.818421  1
  O  O18  1  0.357827  0.393580  0.941497  1
  O  O19  1  0.717503  0.925987  0.880781  1
  O  O20  1  0.090448  0.294645  0.006938  1
  O  O21  1  0.709510  0.186935  0.016078  1
  O  O22  1  0.857827  0.106420  0.558503  1
  O  O23  1  0.884677  0.127444  0.831255  1
  O  O24  1  0.384677  0.372556  0.668745  1
  O  O25  1  0.610344  0.303265  0.159703  1
  O  O26  1  0.209510  0.313065  0.483922  1
  O  O27  1  0.409552  0.794645  0.506938  1
  O  O28  1  0.639138  0.640484  0.658152  1
  O  O29  1  0.590448  0.205355  0.493062  1
  O  O30  1  0.888025  0.561740  0.250809  1
  O  O31  1  0.111975  0.438260  0.749191  1
  O  O32  1  0.388025  0.938260  0.249191  1
  O  O33  1  0.615323  0.627444  0.331255  1
  O  O34  1  0.642173  0.606420  0.058503  1
  O  O35  1  0.115323  0.872556  0.168745  1
  O  O36  1  0.110344  0.196735  0.340297  1
  O  O37  1  0.889656  0.803265  0.659703  1
  O  O38  1  0.274569  0.146633  0.908559  1
  O  O39  1  0.790490  0.686935  0.516078  1
  O  O40  1  0.217503  0.574013  0.619219  1
  O  O41  1  0.782497  0.425987  0.380781  1
  O  O42  1  0.139138  0.859516  0.841848  1
  O  O43  1  0.389656  0.696735  0.840297  1
  O  O44  1  0.225431  0.646633  0.408559  1
  O  O45  1  0.142173  0.893580  0.441497  1
  O  O46  1  0.909552  0.705355  0.993062  1
  O  O47  1  0.360862  0.359516  0.341848  1
  O  O48  1  0.774569  0.353367  0.591441  1
  O  O49  1  0.282497  0.074013  0.119219  1
  O  O50  1  0.290490  0.813065  0.983922  1
  O  O51  1  0.611975  0.061740  0.750809  1
  O  O52  1  0.860862  0.140484  0.158152  1
  O  O53  1  0.725431  0.853367  0.091441  1
