# generated using pymatgen
data_NdAg(PO3)4
_symmetry_space_group_name_H-M   'P 1'
_cell_length_a   7.37338379
_cell_length_b   10.06763249
_cell_length_c   13.36581729
_cell_angle_alpha   90.00000000
_cell_angle_beta   90.00000000
_cell_angle_gamma   90.48365595
_symmetry_Int_Tables_number   1
_chemical_formula_structural   NdAg(PO3)4
_chemical_formula_sum   'Nd4 Ag4 P16 O48'
_cell_volume   992.14292633
_cell_formula_units_Z   4
loop_
 _symmetry_equiv_pos_site_id
 _symmetry_equiv_pos_as_xyz
  1  'x, y, z'
loop_
 _atom_site_type_symbol
 _atom_site_label
 _atom_site_symmetry_multiplicity
 _atom_site_fract_x
 _atom_site_fract_y
 _atom_site_fract_z
 _atom_site_occupancy
  Nd  Nd0  1  0.987603  0.022087  0.218509  1
  Nd  Nd1  1  0.512397  0.477913  0.718509  1
  Nd  Nd2  1  0.012397  0.977913  0.781491  1
  Nd  Nd3  1  0.487603  0.522087  0.281491  1
  Ag  Ag4  1  1.000787  0.432580  0.277246  1
  Ag  Ag5  1  0.499213  0.067420  0.777246  1
  Ag  Ag6  1  -0.000787  0.567420  0.722754  1
  Ag  Ag7  1  0.500787  0.932580  0.222754  1
  P  P8  1  0.746363  0.253374  0.400146  1
  P  P9  1  0.753637  0.246626  0.900146  1
  P  P10  1  0.253637  0.746626  0.599854  1
  P  P11  1  0.246363  0.753374  0.099854  1
  P  P12  1  0.235249  0.297700  0.090044  1
  P  P13  1  0.264751  0.202300  0.590044  1
  P  P14  1  0.764751  0.702300  0.909956  1
  P  P15  1  0.735249  0.797700  0.409956  1
  P  P16  1  0.623433  0.236932  0.113572  1
  P  P17  1  0.876567  0.263068  0.613572  1
  P  P18  1  0.376567  0.763068  0.886428  1
  P  P19  1  0.123433  0.736932  0.386428  1
  P  P20  1  0.353860  0.195907  0.374120  1
  P  P21  1  0.146140  0.304093  0.874120  1
  P  P22  1  0.646140  0.804093  0.625880  1
  P  P23  1  0.853860  0.695907  0.125880  1
  O  O24  1  0.716376  0.292113  0.013456  1
  O  O25  1  0.783624  0.207887  0.513456  1
  O  O26  1  0.283624  0.707887  0.986544  1
  O  O27  1  0.216376  0.792113  0.486544  1
  O  O28  1  0.897382  0.199640  0.335648  1
  O  O29  1  0.602618  0.300360  0.835648  1
  O  O30  1  0.102618  0.800360  0.664352  1
  O  O31  1  0.397382  0.699640  0.164352  1
  O  O32  1  0.568210  0.164344  0.379164  1
  O  O33  1  0.931790  0.335656  0.879164  1
  O  O34  1  0.431790  0.835656  0.620836  1
  O  O35  1  0.068210  0.664344  0.120836  1
  O  O36  1  0.709181  0.400083  0.392823  1
  O  O37  1  0.790819  0.099917  0.892823  1
  O  O38  1  0.290819  0.599917  0.607177  1
  O  O39  1  0.209181  0.900083  0.107177  1
  O  O40  1  0.280953  0.138237  0.479455  1
  O  O41  1  0.219047  0.361763  0.979455  1
  O  O42  1  0.719047  0.861763  0.520545  1
  O  O43  1  0.780953  0.638237  0.020545  1
  O  O44  1  0.416531  0.209365  0.079535  1
  O  O45  1  0.083469  0.290635  0.579535  1
  O  O46  1  0.583469  0.790635  0.920465  1
  O  O47  1  0.916531  0.709365  0.420465  1
  O  O48  1  0.080185  0.203883  0.109792  1
  O  O49  1  0.419816  0.296117  0.609792  1
  O  O50  1  0.919816  0.796117  0.890208  1
  O  O51  1  0.580184  0.703883  0.390208  1
  O  O52  1  0.264196  0.412884  0.160370  1
  O  O53  1  0.235804  0.087116  0.660370  1
  O  O54  1  0.735804  0.587116  0.839630  1
  O  O55  1  0.764196  0.912884  0.339630  1
  O  O56  1  0.701042  0.104788  0.143054  1
  O  O57  1  0.798958  0.395212  0.643054  1
  O  O58  1  0.298958  0.895212  0.856946  1
  O  O59  1  0.201042  0.604788  0.356946  1
  O  O60  1  0.632048  0.348015  0.187806  1
  O  O61  1  0.867952  0.151985  0.687806  1
  O  O62  1  0.367952  0.651985  0.812194  1
  O  O63  1  0.132048  0.848015  0.312194  1
  O  O64  1  0.279272  0.106611  0.293575  1
  O  O65  1  0.220728  0.393389  0.793575  1
  O  O66  1  0.720728  0.893389  0.706425  1
  O  O67  1  0.779272  0.606611  0.206425  1
  O  O68  1  0.325546  0.343059  0.367549  1
  O  O69  1  0.174454  0.156941  0.867549  1
  O  O70  1  0.674454  0.656941  0.632451  1
  O  O71  1  0.825546  0.843059  0.132451  1
