# generated using pymatgen
data_Li2Yb5B3O13
_symmetry_space_group_name_H-M   'P 1'
_cell_length_a   3.52269355
_cell_length_b   10.53635289
_cell_length_c   15.91847397
_cell_angle_alpha   108.09261613
_cell_angle_beta   90.00000000
_cell_angle_gamma   90.00000000
_symmetry_Int_Tables_number   1
_chemical_formula_structural   Li2Yb5B3O13
_chemical_formula_sum   'Li4 Yb10 B6 O26'
_cell_volume   561.62211672
_cell_formula_units_Z   2
loop_
 _symmetry_equiv_pos_site_id
 _symmetry_equiv_pos_as_xyz
  1  'x, y, z'
loop_
 _atom_site_type_symbol
 _atom_site_label
 _atom_site_symmetry_multiplicity
 _atom_site_fract_x
 _atom_site_fract_y
 _atom_site_fract_z
 _atom_site_occupancy
  Yb  Yb0  1  0.750000  0.190394  0.205369  1
  Yb  Yb1  1  0.250000  0.159193  0.995805  1
  Yb  Yb2  1  0.750000  0.970718  0.619376  1
  Yb  Yb3  1  0.250000  0.527472  0.300701  1
  Yb  Yb4  1  0.750000  0.339370  0.441854  1
  Yb  Yb5  1  0.750000  0.840807  0.004195  1
  Yb  Yb6  1  0.250000  0.660630  0.558146  1
  Yb  Yb7  1  0.250000  0.809606  0.794631  1
  Yb  Yb8  1  0.250000  0.029282  0.380624  1
  Yb  Yb9  1  0.750000  0.472528  0.699299  1
  Li  Li10  1  0.250000  0.247185  0.753817  1
  Li  Li11  1  0.250000  0.610239  0.050101  1
  Li  Li12  1  0.750000  0.389761  0.949899  1
  Li  Li13  1  0.750000  0.752815  0.246183  1
  B  B14  1  0.250000  0.417985  0.113764  1
  B  B15  1  0.750000  0.096711  0.819546  1
  B  B16  1  0.750000  0.582015  0.886236  1
  B  B17  1  0.250000  0.214846  0.576035  1
  B  B18  1  0.250000  0.903289  0.180454  1
  B  B19  1  0.750000  0.785154  0.423965  1
  O  O20  1  0.250000  0.853109  0.249974  1
  O  O21  1  0.750000  0.915195  0.422842  1
  O  O22  1  0.250000  0.313031  0.150987  1
  O  O23  1  0.250000  0.604212  0.686098  1
  O  O24  1  0.250000  0.040936  0.196423  1
  O  O25  1  0.750000  0.137886  0.337778  1
  O  O26  1  0.750000  0.450054  0.836514  1
  O  O27  1  0.750000  0.682279  0.345502  1
  O  O28  1  0.250000  0.931925  0.947471  1
  O  O29  1  0.250000  0.549946  0.163486  1
  O  O30  1  0.750000  0.686969  0.849013  1
  O  O31  1  0.750000  0.146891  0.750026  1
  O  O32  1  0.250000  0.820158  0.094920  1
  O  O33  1  0.750000  0.959064  0.803577  1
  O  O34  1  0.250000  0.477459  0.429968  1
  O  O35  1  0.250000  0.238404  0.495577  1
  O  O36  1  0.750000  0.522541  0.570032  1
  O  O37  1  0.250000  0.317721  0.654498  1
  O  O38  1  0.250000  0.390044  0.022269  1
  O  O39  1  0.250000  0.084805  0.577158  1
  O  O40  1  0.750000  0.609956  0.977731  1
  O  O41  1  0.750000  0.068075  0.052529  1
  O  O42  1  0.750000  0.395788  0.313902  1
  O  O43  1  0.750000  0.761596  0.504423  1
  O  O44  1  0.250000  0.862114  0.662222  1
  O  O45  1  0.750000  0.179842  0.905080  1
