# generated using pymatgen
data_Gd3CuSnS7
_symmetry_space_group_name_H-M   'P 1'
_cell_length_a   9.89389868
_cell_length_b   9.89389835
_cell_length_c   6.22647852
_cell_angle_alpha   90.00000000
_cell_angle_beta   90.00000000
_cell_angle_gamma   120.00000108
_symmetry_Int_Tables_number   1
_chemical_formula_structural   Gd3CuSnS7
_chemical_formula_sum   'Gd6 Cu2 Sn2 S14'
_cell_volume   527.84695900
_cell_formula_units_Z   2
loop_
 _symmetry_equiv_pos_site_id
 _symmetry_equiv_pos_as_xyz
  1  'x, y, z'
loop_
 _atom_site_type_symbol
 _atom_site_label
 _atom_site_symmetry_multiplicity
 _atom_site_fract_x
 _atom_site_fract_y
 _atom_site_fract_z
 _atom_site_occupancy
  Gd  Gd0  1  0.641376  0.858631  0.767571  1
  Gd  Gd1  1  0.358624  0.141369  0.267571  1
  Gd  Gd2  1  0.217255  0.358624  0.767571  1
  Gd  Gd3  1  0.782745  0.641376  0.267571  1
  Gd  Gd4  1  0.858631  0.217255  0.267571  1
  Gd  Gd5  1  0.141369  0.782745  0.767571  1
  Cu  Cu6  1  0.000000  0.000000  0.167388  1
  Cu  Cu7  1  0.000000  0.000000  0.667388  1
  Sn  Sn8  1  0.666667  0.333333  0.833980  1
  Sn  Sn9  1  0.333333  0.666667  0.333980  1
  S  S10  1  0.483957  0.568492  0.513564  1
  S  S11  1  0.084535  0.516043  0.513564  1
  S  S12  1  0.915465  0.483957  0.013564  1
  S  S13  1  0.666667  0.333333  0.449392  1
  S  S14  1  0.892998  0.151531  0.696712  1
  S  S15  1  0.568492  0.084535  0.013564  1
  S  S16  1  0.333333  0.666667  0.949392  1
  S  S17  1  0.431508  0.915465  0.513564  1
  S  S18  1  0.258534  0.107002  0.696712  1
  S  S19  1  0.151531  0.258534  0.196712  1
  S  S20  1  0.741466  0.892998  0.196712  1
  S  S21  1  0.516043  0.431508  0.013564  1
  S  S22  1  0.107002  0.848469  0.196712  1
  S  S23  1  0.848469  0.741466  0.696712  1
