# generated using pymatgen
data_Li6Nd6Sb(TeO8)3
_symmetry_space_group_name_H-M   'P 1'
_cell_length_a   11.01750691
_cell_length_b   11.01750702
_cell_length_c   11.04246858
_cell_angle_alpha   109.49319080
_cell_angle_beta   109.45624302
_cell_angle_gamma   109.37245494
_symmetry_Int_Tables_number   1
_chemical_formula_structural   Li6Nd6Sb(TeO8)3
_chemical_formula_sum   'Li12 Nd12 Sb2 Te6 O48'
_cell_volume   1033.00275533
_cell_formula_units_Z   2
loop_
 _symmetry_equiv_pos_site_id
 _symmetry_equiv_pos_as_xyz
  1  'x, y, z'
loop_
 _atom_site_type_symbol
 _atom_site_label
 _atom_site_symmetry_multiplicity
 _atom_site_fract_x
 _atom_site_fract_y
 _atom_site_fract_z
 _atom_site_occupancy
  Li  Li0  1  0.124827  0.750009  0.875688  1
  Li  Li1  1  0.125187  0.875187  0.250000  1
  Li  Li2  1  0.248994  0.624411  0.374093  1
  Li  Li3  1  0.375440  0.625440  0.750000  1
  Li  Li4  1  0.249682  0.125099  0.874093  1
  Li  Li5  1  0.374321  0.249139  0.624312  1
  Li  Li6  1  0.625679  0.750861  0.375688  1
  Li  Li7  1  0.751006  0.375589  0.625907  1
  Li  Li8  1  0.750318  0.874901  0.125907  1
  Li  Li9  1  0.624560  0.374560  0.250000  1
  Li  Li10  1  0.874813  0.124813  0.750000  1
  Li  Li11  1  0.875173  0.249991  0.124312  1
  Nd  Nd12  1  0.124787  0.374787  0.750000  1
  Nd  Nd13  1  0.251148  0.875832  0.626204  1
  Nd  Nd14  1  0.126491  0.250262  0.374815  1
  Nd  Nd15  1  0.624325  0.874325  0.750000  1
  Nd  Nd16  1  0.250372  0.375056  0.126204  1
  Nd  Nd17  1  0.375447  0.751676  0.125185  1
  Nd  Nd18  1  0.624553  0.248324  0.874815  1
  Nd  Nd19  1  0.749628  0.624944  0.873796  1
  Nd  Nd20  1  0.375675  0.125675  0.250000  1
  Nd  Nd21  1  0.873509  0.749738  0.625185  1
  Nd  Nd22  1  0.748852  0.124168  0.373796  1
  Nd  Nd23  1  0.875213  0.625213  0.250000  1
  O  O24  1  0.092908  0.976603  0.669615  1
  O  O25  1  0.022871  0.329639  0.906174  1
  O  O26  1  0.116333  0.592719  0.922868  1
  O  O27  1  0.076597  0.692920  0.670097  1
  O  O28  1  0.076534  0.883303  0.406174  1
  O  O29  1  0.093020  0.616733  0.423374  1
  O  O30  1  0.170013  0.476375  0.593460  1
  O  O31  1  0.420945  0.827909  0.799763  1
  O  O32  1  0.382915  0.576553  0.906540  1
  O  O33  1  0.306641  0.330354  0.923374  1
  O  O34  1  0.169850  0.193465  0.577132  1
  O  O35  1  0.330104  0.923535  0.307694  1
  O  O36  1  0.023193  0.193046  0.116593  1
  O  O37  1  0.193012  0.576707  0.169615  1
  O  O38  1  0.406129  0.829654  0.522192  1
  O  O39  1  0.299892  0.472453  0.378445  1
  O  O40  1  0.327500  0.905848  0.027226  1
  O  O41  1  0.115842  0.022410  0.192306  1
  O  O42  1  0.405992  0.078553  0.878445  1
  O  O43  1  0.528146  0.621182  0.700237  1
  O  O44  1  0.522823  0.406500  0.829903  1
  O  O45  1  0.378622  0.300275  0.472774  1
  O  O46  1  0.192538  0.116063  0.022192  1
  O  O47  1  0.576453  0.906600  0.383407  1
  O  O48  1  0.807462  0.883937  0.977808  1
  O  O49  1  0.423547  0.093400  0.616593  1
  O  O50  1  0.621378  0.699725  0.527226  1
  O  O51  1  0.477177  0.593500  0.170097  1
  O  O52  1  0.471854  0.378818  0.299763  1
  O  O53  1  0.594008  0.921447  0.121555  1
  O  O54  1  0.884158  0.977590  0.807694  1
  O  O55  1  0.672500  0.094152  0.972774  1
  O  O56  1  0.700108  0.527547  0.621555  1
  O  O57  1  0.593871  0.170346  0.477808  1
  O  O58  1  0.806988  0.423293  0.830385  1
  O  O59  1  0.976807  0.806954  0.883407  1
  O  O60  1  0.669896  0.076465  0.692306  1
  O  O61  1  0.830150  0.806535  0.422868  1
  O  O62  1  0.693359  0.669646  0.076626  1
  O  O63  1  0.617085  0.423447  0.093460  1
  O  O64  1  0.579055  0.172091  0.200237  1
  O  O65  1  0.829987  0.523625  0.406540  1
  O  O66  1  0.906980  0.383267  0.576626  1
  O  O67  1  0.923466  0.116697  0.593826  1
  O  O68  1  0.923403  0.307080  0.329903  1
  O  O69  1  0.883667  0.407281  0.077132  1
  O  O70  1  0.977129  0.670361  0.093826  1
  O  O71  1  0.907092  0.023397  0.330385  1
  Sb  Sb72  1  0.500000  0.500000  0.500000  1
  Sb  Sb73  1  0.500000  0.000000  0.000000  1
  Te  Te74  1  0.000000  0.000000  0.000000  1
  Te  Te75  1  0.500000  0.000000  0.500000  1
  Te  Te76  1  0.500000  0.500000  0.000000  1
  Te  Te77  1  0.000000  0.500000  0.500000  1
  Te  Te78  1  0.000000  0.000000  0.500000  1
  Te  Te79  1  0.000000  0.500000  0.000000  1
