# generated using pymatgen
data_Fe3B7ClO13
_symmetry_space_group_name_H-M   'P 1'
_cell_length_a   8.70812152
_cell_length_b   8.70812160
_cell_length_c   8.70812186
_cell_angle_alpha   60.09052841
_cell_angle_beta   60.09052816
_cell_angle_gamma   60.09052773
_symmetry_Int_Tables_number   1
_chemical_formula_structural   Fe3B7ClO13
_chemical_formula_sum   'Fe6 B14 Cl2 O26'
_cell_volume   467.89502990
_cell_formula_units_Z   2
loop_
 _symmetry_equiv_pos_site_id
 _symmetry_equiv_pos_as_xyz
  1  'x, y, z'
loop_
 _atom_site_type_symbol
 _atom_site_label
 _atom_site_symmetry_multiplicity
 _atom_site_fract_x
 _atom_site_fract_y
 _atom_site_fract_z
 _atom_site_occupancy
  Fe  Fe0  1  0.973249  0.532628  0.974423  1
  Fe  Fe1  1  0.032628  0.473249  0.474423  1
  Fe  Fe2  1  0.473249  0.474423  0.032628  1
  Fe  Fe3  1  0.974423  0.973249  0.532628  1
  Fe  Fe4  1  0.532628  0.974423  0.973249  1
  Fe  Fe5  1  0.474423  0.032628  0.473249  1
  B  B6  1  0.570971  0.573136  0.267980  1
  B  B7  1  0.754607  0.247814  0.245580  1
  B  B8  1  0.103224  0.103224  0.103224  1
  B  B9  1  0.247814  0.245580  0.754607  1
  B  B10  1  0.603224  0.603224  0.603224  1
  B  B11  1  0.073136  0.070971  0.767980  1
  B  B12  1  0.070971  0.767980  0.073136  1
  B  B13  1  0.254607  0.745580  0.747814  1
  B  B14  1  0.745580  0.747814  0.254607  1
  B  B15  1  0.267980  0.570971  0.573136  1
  B  B16  1  0.573136  0.267980  0.570971  1
  B  B17  1  0.767980  0.073136  0.070971  1
  B  B18  1  0.245580  0.754607  0.247814  1
  B  B19  1  0.747814  0.254607  0.745580  1
  Cl  Cl20  1  0.768000  0.768000  0.768000  1
  Cl  Cl21  1  0.268000  0.268000  0.268000  1
  O  O22  1  0.742843  0.602764  0.217904  1
  O  O23  1  0.686976  0.935007  0.115603  1
  O  O24  1  0.486164  0.486164  0.486164  1
  O  O25  1  0.433362  0.749201  0.201972  1
  O  O26  1  0.102764  0.242843  0.717904  1
  O  O27  1  0.217904  0.742843  0.602764  1
  O  O28  1  0.762959  0.446547  0.608557  1
  O  O29  1  0.446547  0.608557  0.762959  1
  O  O30  1  0.262959  0.108557  0.946547  1
  O  O31  1  0.435007  0.186976  0.615603  1
  O  O32  1  0.615603  0.435007  0.186976  1
  O  O33  1  0.717904  0.102764  0.242843  1
  O  O34  1  0.201972  0.433362  0.749201  1
  O  O35  1  0.242843  0.717904  0.102764  1
  O  O36  1  0.749201  0.201972  0.433362  1
  O  O37  1  0.935007  0.115603  0.686976  1
  O  O38  1  0.186976  0.615603  0.435007  1
  O  O39  1  0.108557  0.946547  0.262959  1
  O  O40  1  0.986164  0.986164  0.986164  1
  O  O41  1  0.933362  0.701972  0.249201  1
  O  O42  1  0.602764  0.217904  0.742843  1
  O  O43  1  0.701972  0.249201  0.933362  1
  O  O44  1  0.608557  0.762959  0.446547  1
  O  O45  1  0.946547  0.262959  0.108557  1
  O  O46  1  0.115603  0.686976  0.935007  1
  O  O47  1  0.249201  0.933362  0.701972  1
