# generated using pymatgen
data_PH9C3S2NClO4
_symmetry_space_group_name_H-M   'P 1'
_cell_length_a   5.75249533
_cell_length_b   8.21033884
_cell_length_c   22.59344043
_cell_angle_alpha   90.00000000
_cell_angle_beta   90.00000000
_cell_angle_gamma   93.32587474
_symmetry_Int_Tables_number   1
_chemical_formula_structural   PH9C3S2NClO4
_chemical_formula_sum   'P4 H36 C12 S8 N4 Cl4 O16'
_cell_volume   1065.28946674
_cell_formula_units_Z   4
loop_
 _symmetry_equiv_pos_site_id
 _symmetry_equiv_pos_as_xyz
  1  'x, y, z'
loop_
 _atom_site_type_symbol
 _atom_site_label
 _atom_site_symmetry_multiplicity
 _atom_site_fract_x
 _atom_site_fract_y
 _atom_site_fract_z
 _atom_site_occupancy
  P  P0  1  0.477688  0.204142  0.575213  1
  P  P1  1  0.977688  0.704142  0.924787  1
  P  P2  1  0.522312  0.795858  0.424787  1
  P  P3  1  0.022312  0.295858  0.075213  1
  H  H4  1  0.183038  0.565805  0.088708  1
  H  H5  1  0.213451  0.249930  0.431760  1
  H  H6  1  0.142576  0.774146  0.710836  1
  H  H7  1  0.713451  0.749930  0.068240  1
  H  H8  1  1.001255  0.514471  0.151403  1
  H  H9  1  0.405334  0.213026  0.741079  1
  H  H10  1  0.785171  0.931999  0.356371  1
  H  H11  1  -0.001255  0.485529  0.848597  1
  H  H12  1  0.520938  0.571578  0.247304  1
  H  H13  1  0.812775  0.554776  0.533527  1
  H  H14  1  0.979062  0.928422  0.747304  1
  H  H15  1  0.357424  0.725854  0.210836  1
  H  H16  1  0.479062  0.428422  0.752696  1
  H  H17  1  0.046973  0.402237  0.395836  1
  H  H18  1  0.316962  0.934195  0.588708  1
  H  H19  1  0.905334  0.713026  0.758921  1
  H  H20  1  0.312775  0.054776  0.966473  1
  H  H21  1  0.214829  0.068001  0.643629  1
  H  H22  1  0.687225  0.945224  0.033527  1
  H  H23  1  0.453027  0.097763  0.895836  1
  H  H24  1  0.094666  0.286974  0.241079  1
  H  H25  1  0.857424  0.225854  0.289164  1
  H  H26  1  0.642576  0.274146  0.789164  1
  H  H27  1  0.501255  0.014471  0.348597  1
  H  H28  1  0.683038  0.065805  0.411292  1
  H  H29  1  0.953027  0.597763  0.604164  1
  H  H30  1  0.594666  0.786974  0.258921  1
  H  H31  1  0.786549  0.750070  0.568240  1
  H  H32  1  0.714829  0.568001  0.856371  1
  H  H33  1  0.020938  0.071578  0.252696  1
  H  H34  1  0.187225  0.445224  0.466473  1
  H  H35  1  0.285171  0.431999  0.143629  1
  H  H36  1  0.816962  0.434195  0.911292  1
  H  H37  1  0.546973  0.902237  0.104164  1
  H  H38  1  0.498745  0.985529  0.651403  1
  H  H39  1  0.286549  0.250070  0.931760  1
  C  C40  1  0.128664  0.469313  0.120387  1
  C  C41  1  0.303377  0.119151  0.924117  1
  C  C42  1  0.871336  0.530687  0.879613  1
  C  C43  1  0.045224  0.806310  0.750561  1
  C  C44  1  0.545224  0.306310  0.749439  1
  C  C45  1  0.803377  0.619151  0.575883  1
  C  C46  1  0.628664  0.969313  0.379613  1
  C  C47  1  0.454776  0.693690  0.250561  1
  C  C48  1  0.696623  0.880849  0.075883  1
  C  C49  1  0.196623  0.380849  0.424117  1
  C  C50  1  0.371336  0.030687  0.620387  1
  C  C51  1  0.954776  0.193690  0.249439  1
  S  S52  1  0.044578  0.048104  0.887532  1
  S  S53  1  0.749598  0.195801  0.191058  1
  S  S54  1  0.250402  0.804199  0.808942  1
  S  S55  1  0.955422  0.951896  0.112468  1
  S  S56  1  0.750402  0.304199  0.691058  1
  S  S57  1  0.249598  0.695801  0.308942  1
  S  S58  1  0.455422  0.451896  0.387532  1
  S  S59  1  0.544578  0.548104  0.612468  1
  N  N60  1  0.085753  0.845071  0.871592  1
  N  N61  1  0.585753  0.345071  0.628408  1
  N  N62  1  0.414247  0.654929  0.371592  1
  N  N63  1  0.914247  0.154929  0.128408  1
  Cl  Cl64  1  0.782923  0.109973  0.540606  1
  Cl  Cl65  1  0.217077  0.890027  0.459394  1
  Cl  Cl66  1  0.717077  0.390027  0.040606  1
  Cl  Cl67  1  0.282923  0.609973  0.959394  1
  O  O68  1  0.924633  0.436346  0.698113  1
  O  O69  1  0.175418  0.859271  0.316866  1
  O  O70  1  0.146257  0.953249  0.070938  1
  O  O71  1  0.475515  0.368936  0.331633  1
  O  O72  1  0.353743  0.546751  0.570938  1
  O  O73  1  0.646257  0.453249  0.429062  1
  O  O74  1  0.324582  0.640729  0.816866  1
  O  O75  1  0.853743  0.046751  0.929062  1
  O  O76  1  0.824582  0.140729  0.683134  1
  O  O77  1  0.575367  0.063654  0.198113  1
  O  O78  1  0.524485  0.631064  0.668367  1
  O  O79  1  0.075367  0.563654  0.301887  1
  O  O80  1  0.424633  0.936346  0.801887  1
  O  O81  1  0.975515  0.868936  0.168367  1
  O  O82  1  0.675418  0.359271  0.183134  1
  O  O83  1  0.024485  0.131064  0.831633  1
