# generated using pymatgen
data_USb3O2F17
_symmetry_space_group_name_H-M   'P 1'
_cell_length_a   11.33048729
_cell_length_b   12.33081118
_cell_length_c   12.64894849
_cell_angle_alpha   90.00000000
_cell_angle_beta   90.00000000
_cell_angle_gamma   111.11158283
_symmetry_Int_Tables_number   1
_chemical_formula_structural   USb3O2F17
_chemical_formula_sum   'U4 Sb12 O8 F68'
_cell_volume   1648.62084152
_cell_formula_units_Z   4
loop_
 _symmetry_equiv_pos_site_id
 _symmetry_equiv_pos_as_xyz
  1  'x, y, z'
loop_
 _atom_site_type_symbol
 _atom_site_label
 _atom_site_symmetry_multiplicity
 _atom_site_fract_x
 _atom_site_fract_y
 _atom_site_fract_z
 _atom_site_occupancy
  U  U0  1  0.759063  0.824423  0.904598  1
  U  U1  1  0.259063  0.324423  0.595402  1
  U  U2  1  0.740937  0.675577  0.404598  1
  U  U3  1  0.240937  0.175577  0.095402  1
  Sb  Sb4  1  0.174957  0.415160  0.296997  1
  Sb  Sb5  1  0.159574  0.805840  0.146971  1
  Sb  Sb6  1  0.659574  0.305840  0.353029  1
  Sb  Sb7  1  0.325043  0.084840  0.796997  1
  Sb  Sb8  1  0.825043  0.584840  0.703003  1
  Sb  Sb9  1  0.840426  0.194160  0.853029  1
  Sb  Sb10  1  0.340426  0.694160  0.646971  1
  Sb  Sb11  1  0.296696  0.489928  0.904441  1
  Sb  Sb12  1  0.703304  0.510072  0.095559  1
  Sb  Sb13  1  0.203304  0.010072  0.404441  1
  Sb  Sb14  1  0.674957  0.915160  0.203003  1
  Sb  Sb15  1  0.796696  0.989928  0.595559  1
  O  O16  1  0.574914  0.640960  0.403574  1
  O  O17  1  0.925086  0.859040  0.903574  1
  O  O18  1  0.406773  0.209039  0.093439  1
  O  O19  1  0.093227  0.290961  0.593439  1
  O  O20  1  0.906773  0.709039  0.406561  1
  O  O21  1  0.593227  0.790961  0.906561  1
  O  O22  1  0.074914  0.140960  0.096426  1
  O  O23  1  0.425086  0.359040  0.596426  1
  F  F24  1  0.377055  0.036649  0.407708  1
  F  F25  1  0.293102  0.528608  0.603294  1
  F  F26  1  0.622945  0.963351  0.592292  1
  F  F27  1  0.167394  0.908720  0.520582  1
  F  F28  1  0.270705  0.349399  0.988215  1
  F  F29  1  0.613752  0.162993  0.281438  1
  F  F30  1  0.684037  0.449192  0.730577  1
  F  F31  1  0.731945  0.667211  0.789522  1
  F  F32  1  0.819706  0.122150  0.697161  1
  F  F33  1  0.268055  0.332789  0.210478  1
  F  F34  1  0.262082  0.390177  0.777911  1
  F  F35  1  0.913966  0.576731  0.827130  1
  F  F36  1  0.768055  0.832789  0.289522  1
  F  F37  1  0.180294  0.877850  0.302839  1
  F  F38  1  0.064536  0.262699  0.330890  1
  F  F39  1  0.667394  0.408720  0.979418  1
  F  F40  1  0.721830  0.610000  0.580275  1
  F  F41  1  0.400223  0.011765  0.892851  1
  F  F42  1  0.332606  0.591280  0.020582  1
  F  F43  1  0.237918  0.109823  0.277911  1
  F  F44  1  0.665840  0.161412  0.839742  1
  F  F45  1  0.815963  0.050808  0.230577  1
  F  F46  1  0.386248  0.837007  0.718562  1
  F  F47  1  0.599777  0.988235  0.107149  1
  F  F48  1  0.006127  0.191767  0.842224  1
  F  F49  1  0.564536  0.762699  0.169110  1
  F  F50  1  0.229295  0.150601  0.488215  1
  F  F51  1  0.113752  0.662993  0.218562  1
  F  F52  1  0.122945  0.463351  0.907708  1
  F  F53  1  0.278170  0.390000  0.419725  1
  F  F54  1  0.706898  0.471392  0.396706  1
  F  F55  1  0.356019  0.745585  0.506203  1
  F  F56  1  0.737918  0.609823  0.222089  1
  F  F57  1  0.968160  0.011705  0.617001  1
  F  F58  1  0.900223  0.511765  0.607149  1
  F  F59  1  0.165840  0.661412  0.660258  1
  F  F60  1  0.206898  0.971392  0.103294  1
  F  F61  1  0.435464  0.237301  0.830890  1
  F  F62  1  0.221830  0.110000  0.919725  1
  F  F63  1  0.643981  0.254415  0.493797  1
  F  F64  1  0.319706  0.622150  0.802839  1
  F  F65  1  0.413966  0.076731  0.672870  1
  F  F66  1  0.031840  0.988295  0.382999  1
  F  F67  1  0.993873  0.808233  0.157776  1
  F  F68  1  0.680294  0.377850  0.197161  1
  F  F69  1  0.506127  0.691767  0.657776  1
  F  F70  1  0.856019  0.245585  0.993797  1
  F  F71  1  0.184037  0.949192  0.769423  1
  F  F72  1  0.468160  0.511705  0.882999  1
  F  F73  1  0.770705  0.849399  0.511785  1
  F  F74  1  0.729295  0.650601  0.011785  1
  F  F75  1  0.834160  0.338588  0.339742  1
  F  F76  1  0.586034  0.923269  0.327130  1
  F  F77  1  0.877055  0.536649  0.092292  1
  F  F78  1  0.143981  0.754415  0.006203  1
  F  F79  1  0.793102  0.028608  0.896706  1
  F  F80  1  0.832606  0.091280  0.479418  1
  F  F81  1  0.886248  0.337007  0.781438  1
  F  F82  1  0.315963  0.550808  0.269423  1
  F  F83  1  0.762082  0.890177  0.722089  1
  F  F84  1  0.493873  0.308233  0.342224  1
  F  F85  1  0.099777  0.488235  0.392851  1
  F  F86  1  0.334160  0.838588  0.160258  1
  F  F87  1  0.086034  0.423269  0.172870  1
  F  F88  1  0.778170  0.890000  0.080275  1
  F  F89  1  0.531840  0.488295  0.117001  1
  F  F90  1  0.231945  0.167211  0.710478  1
  F  F91  1  0.935464  0.737301  0.669110  1
