# generated using pymatgen
data_PrMgSi2
_symmetry_space_group_name_H-M   'P 1'
_cell_length_a   4.28497730
_cell_length_b   4.28497751
_cell_length_c   18.67756396
_cell_angle_alpha   96.58685001
_cell_angle_beta   96.58685035
_cell_angle_gamma   90.00000609
_symmetry_Int_Tables_number   1
_chemical_formula_structural   PrMgSi2
_chemical_formula_sum   'Pr4 Mg4 Si8'
_cell_volume   338.39679021
_cell_formula_units_Z   4
loop_
 _symmetry_equiv_pos_site_id
 _symmetry_equiv_pos_as_xyz
  1  'x, y, z'
loop_
 _atom_site_type_symbol
 _atom_site_label
 _atom_site_symmetry_multiplicity
 _atom_site_fract_x
 _atom_site_fract_y
 _atom_site_fract_z
 _atom_site_occupancy
  Pr  Pr0  1  0.547574  0.797574  0.595148  1
  Pr  Pr1  1  0.702426  0.952426  0.904852  1
  Pr  Pr2  1  0.297574  0.047574  0.095148  1
  Pr  Pr3  1  0.452426  0.202426  0.404852  1
  Mg  Mg4  1  0.875134  0.125134  0.250268  1
  Mg  Mg5  1  0.374866  0.624866  0.249732  1
  Mg  Mg6  1  0.625134  0.375134  0.750268  1
  Mg  Mg7  1  0.124866  0.874866  0.749732  1
  Si  Si8  1  0.077257  0.327257  0.654514  1
  Si  Si9  1  0.235871  0.485871  0.971742  1
  Si  Si10  1  0.014129  0.264129  0.528258  1
  Si  Si11  1  0.764129  0.514129  0.028258  1
  Si  Si12  1  0.922743  0.672743  0.345486  1
  Si  Si13  1  0.985871  0.735871  0.471742  1
  Si  Si14  1  0.827257  0.577257  0.154514  1
  Si  Si15  1  0.172743  0.422743  0.845486  1
