# generated using pymatgen
data_K2BiMoPO8
_symmetry_space_group_name_H-M   'P 1'
_cell_length_a   7.14825903
_cell_length_b   12.35570269
_cell_length_c   12.35570267
_cell_angle_alpha   61.23506446
_cell_angle_beta   73.18576197
_cell_angle_gamma   73.18576313
_symmetry_Int_Tables_number   1
_chemical_formula_structural   K2BiMoPO8
_chemical_formula_sum   'K8 Bi4 Mo4 P4 O32'
_cell_volume   900.95486216
_cell_formula_units_Z   4
loop_
 _symmetry_equiv_pos_site_id
 _symmetry_equiv_pos_as_xyz
  1  'x, y, z'
loop_
 _atom_site_type_symbol
 _atom_site_label
 _atom_site_symmetry_multiplicity
 _atom_site_fract_x
 _atom_site_fract_y
 _atom_site_fract_z
 _atom_site_occupancy
  K  K0  1  0.122962  0.765370  0.423545  1
  K  K1  1  0.622962  0.923545  0.265370  1
  K  K2  1  0.811877  0.576455  0.234630  1
  K  K3  1  0.877038  0.234630  0.576455  1
  K  K4  1  0.188123  0.423545  0.765370  1
  K  K5  1  0.311877  0.734630  0.076455  1
  K  K6  1  0.377038  0.076455  0.734630  1
  K  K7  1  0.688123  0.265370  0.923545  1
  Bi  Bi8  1  0.250000  0.329661  0.170339  1
  Bi  Bi9  1  0.750000  0.170339  0.329661  1
  Bi  Bi10  1  0.750000  0.670339  0.829661  1
  Bi  Bi11  1  0.250000  0.829661  0.670339  1
  Mo  Mo12  1  0.167871  0.082129  0.082129  1
  Mo  Mo13  1  0.332129  0.417871  0.417871  1
  Mo  Mo14  1  0.832129  0.917871  0.917871  1
  Mo  Mo15  1  0.667871  0.582129  0.582129  1
  P  P16  1  0.750000  0.427072  0.072928  1
  P  P17  1  0.250000  0.572928  0.927072  1
  P  P18  1  0.750000  0.927072  0.572928  1
  P  P19  1  0.250000  0.072928  0.427072  1
  O  O20  1  0.593106  0.337944  0.139669  1
  O  O21  1  0.586225  0.334246  0.399894  1
  O  O22  1  0.093106  0.639669  0.837944  1
  O  O23  1  0.406894  0.662056  0.860331  1
  O  O24  1  0.285071  0.938255  0.438612  1
  O  O25  1  0.906894  0.360331  0.162056  1
  O  O26  1  0.570719  0.860331  0.662056  1
  O  O27  1  0.785071  0.938612  0.438255  1
  O  O28  1  0.179635  0.399894  0.334246  1
  O  O29  1  0.277853  0.919792  0.143901  1
  O  O30  1  0.222147  0.356099  0.580208  1
  O  O31  1  0.777853  0.643901  0.419792  1
  O  O32  1  0.320365  0.165754  0.100106  1
  O  O33  1  0.070719  0.162056  0.360331  1
  O  O34  1  0.841545  0.856099  0.080208  1
  O  O35  1  0.338061  0.438255  0.938612  1
  O  O36  1  0.661939  0.561745  0.061388  1
  O  O37  1  0.341545  0.580208  0.356099  1
  O  O38  1  0.820365  0.600106  0.665754  1
  O  O39  1  0.086225  0.899894  0.834246  1
  O  O40  1  0.214929  0.061388  0.561745  1
  O  O41  1  0.722147  0.080208  0.856099  1
  O  O42  1  0.913775  0.100106  0.165754  1
  O  O43  1  0.714929  0.061745  0.561388  1
  O  O44  1  0.679635  0.834246  0.899894  1
  O  O45  1  0.158455  0.143901  0.919792  1
  O  O46  1  0.161939  0.561388  0.061745  1
  O  O47  1  0.658455  0.419792  0.643901  1
  O  O48  1  0.413775  0.665754  0.600106  1
  O  O49  1  0.429281  0.139669  0.337944  1
  O  O50  1  0.838061  0.438612  0.938255  1
  O  O51  1  0.929281  0.837944  0.639669  1
