# generated using pymatgen
data_KCa9Mn(PO4)7
_symmetry_space_group_name_H-M   'P 1'
_cell_length_a   13.87156144
_cell_length_b   13.87156150
_cell_length_c   13.87156122
_cell_angle_alpha   44.69547581
_cell_angle_beta   44.69547560
_cell_angle_gamma   44.69547702
_symmetry_Int_Tables_number   1
_chemical_formula_structural   KCa9Mn(PO4)7
_chemical_formula_sum   'K2 Ca18 Mn2 P14 O56'
_cell_volume   1201.02704395
_cell_formula_units_Z   2
loop_
 _symmetry_equiv_pos_site_id
 _symmetry_equiv_pos_as_xyz
  1  'x, y, z'
loop_
 _atom_site_type_symbol
 _atom_site_label
 _atom_site_symmetry_multiplicity
 _atom_site_fract_x
 _atom_site_fract_y
 _atom_site_fract_z
 _atom_site_occupancy
  K  K0  1  0.683954  0.683954  0.683954  1
  K  K1  1  0.183954  0.183954  0.183954  1
  Ca  Ca2  1  0.565068  0.574215  0.160475  1
  Ca  Ca3  1  0.563714  0.973006  0.943895  1
  Ca  Ca4  1  0.346151  0.909699  0.945455  1
  Ca  Ca5  1  0.065068  0.660475  0.074215  1
  Ca  Ca6  1  0.945455  0.346151  0.909699  1
  Ca  Ca7  1  0.160475  0.565068  0.574215  1
  Ca  Ca8  1  0.973006  0.943895  0.563714  1
  Ca  Ca9  1  0.943895  0.563714  0.973006  1
  Ca  Ca10  1  0.473006  0.063714  0.443895  1
  Ca  Ca11  1  0.574215  0.160475  0.565068  1
  Ca  Ca12  1  0.445455  0.409699  0.846151  1
  Ca  Ca13  1  0.074215  0.065068  0.660475  1
  Ca  Ca14  1  0.443895  0.473006  0.063714  1
  Ca  Ca15  1  0.409699  0.846151  0.445455  1
  Ca  Ca16  1  0.846151  0.445455  0.409699  1
  Ca  Ca17  1  0.063714  0.443895  0.473006  1
  Ca  Ca18  1  0.660475  0.074215  0.065068  1
  Ca  Ca19  1  0.909699  0.945455  0.346151  1
  Mn  Mn20  1  0.501389  0.501389  0.501389  1
  Mn  Mn21  1  0.001389  0.001389  0.001389  1
  P  P22  1  0.820549  0.315105  0.272893  1
  P  P23  1  0.187391  0.682374  0.728841  1
  P  P24  1  0.815105  0.320549  0.772893  1
  P  P25  1  0.272893  0.820549  0.315105  1
  P  P26  1  0.687391  0.228841  0.182374  1
  P  P27  1  0.315105  0.272893  0.820549  1
  P  P28  1  0.682374  0.728841  0.187391  1
  P  P29  1  0.772893  0.815105  0.320549  1
  P  P30  1  0.768452  0.768452  0.768452  1
  P  P31  1  0.228841  0.182374  0.687391  1
  P  P32  1  0.728841  0.187391  0.682374  1
  P  P33  1  0.320549  0.772893  0.815105  1
  P  P34  1  0.268452  0.268452  0.268452  1
  P  P35  1  0.182374  0.687391  0.228841  1
  O  O36  1  0.363338  0.616397  0.643859  1
  O  O37  1  0.676204  0.128788  0.851523  1
  O  O38  1  0.616397  0.643859  0.363338  1
  O  O39  1  0.869347  0.395530  0.761911  1
  O  O40  1  0.645190  0.374393  0.370698  1
  O  O41  1  0.641117  0.388754  0.841523  1
  O  O42  1  0.374393  0.370698  0.645190  1
  O  O43  1  0.643859  0.363338  0.616397  1
  O  O44  1  0.761911  0.869347  0.395530  1
  O  O45  1  0.369347  0.261911  0.895530  1
  O  O46  1  0.391419  0.262265  0.111394  1
  O  O47  1  0.191097  0.169314  0.616340  1
  O  O48  1  0.901180  0.144399  0.588771  1
  O  O49  1  0.401180  0.088771  0.644399  1
  O  O50  1  0.169314  0.616340  0.191097  1
  O  O51  1  0.141117  0.341523  0.888754  1
  O  O52  1  0.762265  0.891419  0.611394  1
  O  O53  1  0.870698  0.874393  0.145190  1
  O  O54  1  0.628788  0.176204  0.351523  1
  O  O55  1  0.109635  0.837974  0.394290  1
  O  O56  1  0.261911  0.895530  0.369347  1
  O  O57  1  0.691097  0.116340  0.669314  1
  O  O58  1  0.841523  0.641117  0.388754  1
  O  O59  1  0.088771  0.644399  0.401180  1
  O  O60  1  0.611394  0.762265  0.891419  1
  O  O61  1  0.810023  0.810023  0.810023  1
  O  O62  1  0.395530  0.761911  0.869347  1
  O  O63  1  0.894290  0.337974  0.609635  1
  O  O64  1  0.116340  0.669314  0.691097  1
  O  O65  1  0.888754  0.141117  0.341523  1
  O  O66  1  0.394290  0.109635  0.837974  1
  O  O67  1  0.837974  0.394290  0.109635  1
  O  O68  1  0.111394  0.391419  0.262265  1
  O  O69  1  0.144399  0.588771  0.901180  1
  O  O70  1  0.616340  0.191097  0.169314  1
  O  O71  1  0.262265  0.111394  0.391419  1
  O  O72  1  0.143859  0.116397  0.863338  1
  O  O73  1  0.337974  0.609635  0.894290  1
  O  O74  1  0.669314  0.691097  0.116340  1
  O  O75  1  0.351523  0.628788  0.176204  1
  O  O76  1  0.388754  0.841523  0.641117  1
  O  O77  1  0.128788  0.851523  0.676204  1
  O  O78  1  0.863338  0.143859  0.116397  1
  O  O79  1  0.145190  0.870698  0.874393  1
  O  O80  1  0.874393  0.145190  0.870698  1
  O  O81  1  0.891419  0.611394  0.762265  1
  O  O82  1  0.370698  0.645190  0.374393  1
  O  O83  1  0.851523  0.676204  0.128788  1
  O  O84  1  0.176204  0.351523  0.628788  1
  O  O85  1  0.609635  0.894290  0.337974  1
  O  O86  1  0.341523  0.888754  0.141117  1
  O  O87  1  0.895530  0.369347  0.261911  1
  O  O88  1  0.588771  0.901180  0.144399  1
  O  O89  1  0.310023  0.310023  0.310023  1
  O  O90  1  0.116397  0.863338  0.143859  1
  O  O91  1  0.644399  0.401180  0.088771  1
