# generated using pymatgen
data_HgI2
_symmetry_space_group_name_H-M   'P 1'
_cell_length_a   9.14944071
_cell_length_b   9.14944071
_cell_length_c   13.24801754
_cell_angle_alpha   90.00000000
_cell_angle_beta   90.00000000
_cell_angle_gamma   90.00000000
_symmetry_Int_Tables_number   1
_chemical_formula_structural   HgI2
_chemical_formula_sum   'Hg8 I16'
_cell_volume   1109.02155908
_cell_formula_units_Z   8
loop_
 _symmetry_equiv_pos_site_id
 _symmetry_equiv_pos_as_xyz
  1  'x, y, z'
loop_
 _atom_site_type_symbol
 _atom_site_label
 _atom_site_symmetry_multiplicity
 _atom_site_fract_x
 _atom_site_fract_y
 _atom_site_fract_z
 _atom_site_occupancy
  Hg  Hg0  1  1.001863  0.750000  0.127304  1
  Hg  Hg1  1  0.250000  -0.001863  0.372696  1
  Hg  Hg2  1  0.501863  0.250000  0.872696  1
  Hg  Hg3  1  0.250000  0.501863  0.372696  1
  Hg  Hg4  1  0.498137  0.750000  0.127304  1
  Hg  Hg5  1  0.750000  1.001863  0.627304  1
  Hg  Hg6  1  0.750000  0.498137  0.627304  1
  Hg  Hg7  1  -0.001863  0.250000  0.872696  1
  I  I8  1  0.750000  0.250000  0.005048  1
  I  I9  1  0.250000  0.250000  0.502497  1
  I  I10  1  0.992023  0.007977  0.250000  1
  I  I11  1  0.492023  0.507977  0.750000  1
  I  I12  1  0.750000  0.250000  0.494952  1
  I  I13  1  0.007977  0.507977  0.750000  1
  I  I14  1  0.007977  0.992023  0.750000  1
  I  I15  1  0.250000  0.250000  0.002497  1
  I  I16  1  0.250000  0.750000  0.505048  1
  I  I17  1  0.492023  0.992023  0.750000  1
  I  I18  1  0.250000  0.750000  0.994952  1
  I  I19  1  0.750000  0.750000  0.497503  1
  I  I20  1  0.992023  0.492023  0.250000  1
  I  I21  1  0.507977  0.007977  0.250000  1
  I  I22  1  0.507977  0.492023  0.250000  1
  I  I23  1  0.750000  0.750000  0.997503  1
