# generated using pymatgen
data_LiMo8(P2O11)4
_symmetry_space_group_name_H-M   'P 1'
_cell_length_a   10.00359159
_cell_length_b   9.97328136
_cell_length_c   10.21651752
_cell_angle_alpha   67.29480397
_cell_angle_beta   66.99020200
_cell_angle_gamma   80.56075669
_symmetry_Int_Tables_number   1
_chemical_formula_structural   LiMo8(P2O11)4
_chemical_formula_sum   'Li1 Mo8 P8 O44'
_cell_volume   865.38112022
_cell_formula_units_Z   1
loop_
 _symmetry_equiv_pos_site_id
 _symmetry_equiv_pos_as_xyz
  1  'x, y, z'
loop_
 _atom_site_type_symbol
 _atom_site_label
 _atom_site_symmetry_multiplicity
 _atom_site_fract_x
 _atom_site_fract_y
 _atom_site_fract_z
 _atom_site_occupancy
  Li  Li0  1  0.750000  0.750000  0.000000  1
  O  O1  1  0.979523  0.748180  0.910477  1
  O  O2  1  0.987989  0.742550  0.644002  1
  O  O3  1  0.687550  0.921015  0.805228  1
  O  O4  1  0.690119  0.627428  0.888271  1
  O  O5  1  0.375862  0.935563  0.882784  1
  O  O6  1  0.875782  0.429845  0.884793  1
  O  O7  1  0.942375  0.698512  0.327381  1
  O  O8  1  0.809880  0.872571  0.111729  1
  O  O9  1  0.006728  0.254439  0.090143  1
  O  O10  1  0.012394  0.259299  0.352159  1
  O  O11  1  0.323013  0.073413  0.198742  1
  O  O12  1  0.124138  0.564437  0.117216  1
  O  O13  1  0.317665  0.373020  0.117400  1
  O  O14  1  0.624218  0.070154  0.115208  1
  O  O15  1  0.053286  0.301722  0.678408  1
  O  O16  1  0.446715  0.198278  0.321592  1
  O  O17  1  0.182335  0.126980  0.882599  1
  O  O18  1  0.297785  0.548548  0.251879  1
  O  O19  1  0.799714  0.042204  0.251207  1
  O  O20  1  0.116865  0.868011  0.037760  1
  O  O21  1  0.615196  0.367268  0.039095  1
  O  O22  1  0.176988  0.426588  0.801258  1
  O  O23  1  0.487607  0.240700  0.647841  1
  O  O24  1  0.296419  0.552839  0.518348  1
  O  O25  1  0.797436  0.049015  0.518374  1
  O  O26  1  0.061919  0.999608  0.304307  1
  O  O27  1  0.555823  0.495615  0.311090  1
  O  O28  1  0.256812  0.812235  0.297515  1
  O  O29  1  0.753373  0.311658  0.302330  1
  O  O30  1  0.520476  0.751819  0.089523  1
  O  O31  1  0.493271  0.245560  0.909857  1
  O  O32  1  0.243188  0.687765  0.702484  1
  O  O33  1  0.746628  0.188342  0.697670  1
  O  O34  1  0.438080  0.500391  0.695693  1
  O  O35  1  0.944176  0.004385  0.688910  1
  O  O36  1  0.203581  0.947161  0.481652  1
  O  O37  1  0.702564  0.450986  0.481626  1
  O  O38  1  0.512010  0.757450  0.355997  1
  O  O39  1  0.812450  0.578986  0.194771  1
  O  O40  1  0.383135  0.631990  0.962240  1
  O  O41  1  0.202215  0.951452  0.748121  1
  O  O42  1  0.884804  0.132733  0.960906  1
  O  O43  1  0.700286  0.457796  0.748793  1
  O  O44  1  0.557624  0.801487  0.672619  1
  P  P45  1  0.718405  0.470900  0.883208  1
  P  P46  1  0.218651  0.969770  0.880951  1
  P  P47  1  0.705982  0.457511  0.328601  1
  P  P48  1  0.208035  0.956291  0.327482  1
  P  P49  1  0.794018  0.042489  0.671399  1
  P  P50  1  0.291964  0.543708  0.672518  1
  P  P51  1  0.781595  0.029100  0.116791  1
  P  P52  1  0.281349  0.530230  0.119049  1
  Mo  Mo53  1  0.465119  0.215007  0.144034  1
  Mo  Mo54  1  0.034880  0.284993  0.855967  1
  Mo  Mo55  1  0.426413  0.673250  0.293590  1
  Mo  Mo56  1  0.924790  0.174015  0.292573  1
  Mo  Mo57  1  0.073587  0.826750  0.706411  1
  Mo  Mo58  1  0.575210  0.325985  0.707427  1
  Mo  Mo59  1  0.968887  0.713976  0.148650  1
  Mo  Mo60  1  0.531113  0.786024  0.851350  1
