# generated using pymatgen
data_AgPb4ClO4
_symmetry_space_group_name_H-M   'P 1'
_cell_length_a   6.55146704
_cell_length_b   8.45607803
_cell_length_c   8.45607803
_cell_angle_alpha   90.00000000
_cell_angle_beta   90.00000000
_cell_angle_gamma   90.00000000
_symmetry_Int_Tables_number   1
_chemical_formula_structural   AgPb4ClO4
_chemical_formula_sum   'Ag2 Pb8 Cl2 O8'
_cell_volume   468.46432557
_cell_formula_units_Z   2
loop_
 _symmetry_equiv_pos_site_id
 _symmetry_equiv_pos_as_xyz
  1  'x, y, z'
loop_
 _atom_site_type_symbol
 _atom_site_label
 _atom_site_symmetry_multiplicity
 _atom_site_fract_x
 _atom_site_fract_y
 _atom_site_fract_z
 _atom_site_occupancy
  Ag  Ag0  1  0.904112  0.750000  0.750000  1
  Ag  Ag1  1  0.095888  0.250000  0.250000  1
  Pb  Pb2  1  0.223866  0.893901  0.445600  1
  Pb  Pb3  1  0.223866  0.445600  0.606099  1
  Pb  Pb4  1  0.223866  0.054400  0.893901  1
  Pb  Pb5  1  0.776134  0.106099  0.554400  1
  Pb  Pb6  1  0.776134  0.554400  0.393901  1
  Pb  Pb7  1  0.776134  0.945600  0.106099  1
  Pb  Pb8  1  0.223866  0.606099  0.054400  1
  Pb  Pb9  1  0.776134  0.393901  0.945600  1
  Cl  Cl10  1  0.486916  0.250000  0.250000  1
  Cl  Cl11  1  0.513084  0.750000  0.750000  1
  O  O12  1  0.071319  0.839672  0.002839  1
  O  O13  1  0.071319  0.002839  0.660328  1
  O  O14  1  0.071319  0.660328  0.497161  1
  O  O15  1  0.071319  0.497161  0.839672  1
  O  O16  1  0.928681  0.502839  0.160328  1
  O  O17  1  0.928681  0.339672  0.502839  1
  O  O18  1  0.928681  0.997161  0.339672  1
  O  O19  1  0.928681  0.160328  0.997161  1
