# generated using pymatgen
data_Rb2PtC4(BrN2)2
_symmetry_space_group_name_H-M   'P 1'
_cell_length_a   7.45264828
_cell_length_b   9.11572708
_cell_length_c   9.57919035
_cell_angle_alpha   90.00000000
_cell_angle_beta   90.00000000
_cell_angle_gamma   106.72958711
_symmetry_Int_Tables_number   1
_chemical_formula_structural   Rb2PtC4(BrN2)2
_chemical_formula_sum   'Rb4 Pt2 C8 Br4 N8'
_cell_volume   623.23011272
_cell_formula_units_Z   2
loop_
 _symmetry_equiv_pos_site_id
 _symmetry_equiv_pos_as_xyz
  1  'x, y, z'
loop_
 _atom_site_type_symbol
 _atom_site_label
 _atom_site_symmetry_multiplicity
 _atom_site_fract_x
 _atom_site_fract_y
 _atom_site_fract_z
 _atom_site_occupancy
  Rb  Rb0  1  0.493162  0.119828  0.280275  1
  Rb  Rb1  1  0.506838  0.880172  0.719725  1
  Rb  Rb2  1  0.506838  0.380172  0.780275  1
  Rb  Rb3  1  0.493162  0.619828  0.219725  1
  Pt  Pt4  1  0.000000  0.000000  0.000000  1
  Pt  Pt5  1  0.000000  0.500000  0.500000  1
  C  C6  1  0.189174  0.201969  0.043985  1
  C  C7  1  0.198433  0.392779  0.467323  1
  C  C8  1  0.810826  0.298031  0.543985  1
  C  C9  1  0.198433  0.892779  0.032677  1
  C  C10  1  0.810826  0.798031  0.956015  1
  C  C11  1  0.189174  0.701969  0.456015  1
  C  C12  1  0.801567  0.607221  0.532677  1
  C  C13  1  0.801567  0.107221  0.967323  1
  Br  Br14  1  0.093239  0.533361  0.754888  1
  Br  Br15  1  0.093239  0.033361  0.745112  1
  Br  Br16  1  0.906761  0.966639  0.254888  1
  Br  Br17  1  0.906761  0.466639  0.245112  1
  N  N18  1  0.304359  0.816639  0.430660  1
  N  N19  1  0.317465  0.334899  0.447229  1
  N  N20  1  0.682535  0.165101  0.947229  1
  N  N21  1  0.682535  0.665101  0.552771  1
  N  N22  1  0.317465  0.834899  0.052771  1
  N  N23  1  0.695641  0.683361  0.930660  1
  N  N24  1  0.304359  0.316639  0.069340  1
  N  N25  1  0.695641  0.183361  0.569340  1
