# generated using pymatgen
data_MgAs2S2(OF3)4
_symmetry_space_group_name_H-M   'P 1'
_cell_length_a   10.38397022
_cell_length_b   10.68822808
_cell_length_c   12.62628892
_cell_angle_alpha   90.00000000
_cell_angle_beta   91.20148704
_cell_angle_gamma   90.00000000
_symmetry_Int_Tables_number   1
_chemical_formula_structural   MgAs2S2(OF3)4
_chemical_formula_sum   'Mg4 As8 S8 O16 F48'
_cell_volume   1401.03625896
_cell_formula_units_Z   4
loop_
 _symmetry_equiv_pos_site_id
 _symmetry_equiv_pos_as_xyz
  1  'x, y, z'
loop_
 _atom_site_type_symbol
 _atom_site_label
 _atom_site_symmetry_multiplicity
 _atom_site_fract_x
 _atom_site_fract_y
 _atom_site_fract_z
 _atom_site_occupancy
  Mg  Mg0  1  0.756138  0.769988  0.253886  1
  Mg  Mg1  1  0.743862  0.269988  0.246114  1
  Mg  Mg2  1  0.243862  0.230012  0.746114  1
  Mg  Mg3  1  0.256138  0.730012  0.753886  1
  As  As4  1  0.008600  0.487143  0.690892  1
  As  As5  1  0.991400  0.512857  0.309108  1
  As  As6  1  0.513302  0.475433  0.742347  1
  As  As7  1  0.986698  0.975433  0.757653  1
  As  As8  1  0.508600  0.012857  0.190892  1
  As  As9  1  0.491400  0.987143  0.809108  1
  As  As10  1  0.486698  0.524567  0.257653  1
  As  As11  1  0.013302  0.024567  0.242347  1
  S  S12  1  0.301057  0.227439  0.475896  1
  S  S13  1  0.733546  0.190728  0.509210  1
  S  S14  1  0.233546  0.309272  0.009210  1
  S  S15  1  0.266454  0.809272  0.490790  1
  S  S16  1  0.801057  0.272561  0.975896  1
  S  S17  1  0.698943  0.772561  0.524104  1
  S  S18  1  0.198943  0.727439  0.024104  1
  S  S19  1  0.766454  0.690728  0.990790  1
  O  O20  1  0.763403  0.770246  0.422169  1
  O  O21  1  0.736597  0.270246  0.077831  1
  O  O22  1  0.222024  0.442132  0.992400  1
  O  O23  1  0.246138  0.231747  0.914332  1
  O  O24  1  0.439757  0.226252  0.479081  1
  O  O25  1  0.236597  0.229754  0.577831  1
  O  O26  1  0.060243  0.726252  0.020919  1
  O  O27  1  0.560243  0.773748  0.520919  1
  O  O28  1  0.253862  0.731747  0.585668  1
  O  O29  1  0.939757  0.273748  0.979081  1
  O  O30  1  0.277976  0.942132  0.507600  1
  O  O31  1  0.746138  0.268253  0.414332  1
  O  O32  1  0.777976  0.557868  0.007600  1
  O  O33  1  0.722024  0.057868  0.492400  1
  O  O34  1  0.263403  0.729754  0.922169  1
  O  O35  1  0.753862  0.768253  0.085668  1
  F  F36  1  0.517167  0.511223  0.393538  1
  F  F37  1  0.916981  0.489376  0.805144  1
  F  F38  1  0.910985  0.373390  0.631079  1
  F  F39  1  0.394694  0.861762  0.745226  1
  F  F40  1  0.618696  0.016159  0.088170  1
  F  F41  1  0.416981  0.010624  0.305144  1
  F  F42  1  0.369102  0.407945  0.258605  1
  F  F43  1  0.880822  0.402885  0.239898  1
  F  F44  1  0.121473  0.863055  0.754410  1
  F  F45  1  0.925400  0.613712  0.635563  1
  F  F46  1  0.894694  0.638238  0.245226  1
  F  F47  1  0.017167  0.988777  0.893538  1
  F  F48  1  0.118696  0.483841  0.588170  1
  F  F49  1  0.425400  0.886288  0.135563  1
  F  F50  1  0.621016  0.352469  0.725154  1
  F  F51  1  0.630898  0.592055  0.741395  1
  F  F52  1  0.521992  0.462257  0.880403  1
  F  F53  1  0.110732  0.096201  0.739072  1
  F  F54  1  0.583019  0.989376  0.694856  1
  F  F55  1  0.881304  0.516159  0.411830  1
  F  F56  1  0.589015  0.873390  0.868921  1
  F  F57  1  0.878527  0.136945  0.245590  1
  F  F58  1  0.380822  0.097115  0.739898  1
  F  F59  1  0.119178  0.597115  0.760102  1
  F  F60  1  0.889268  0.903799  0.260928  1
  F  F61  1  0.105306  0.361762  0.754774  1
  F  F62  1  0.378984  0.647531  0.274846  1
  F  F63  1  0.478008  0.537743  0.119597  1
  F  F64  1  0.878984  0.852469  0.774846  1
  F  F65  1  0.619178  0.902885  0.260102  1
  F  F66  1  0.021992  0.037743  0.380403  1
  F  F67  1  0.389268  0.596201  0.760928  1
  F  F68  1  0.381304  0.983841  0.911830  1
  F  F69  1  0.410985  0.126610  0.131079  1
  F  F70  1  0.121016  0.147531  0.225154  1
  F  F71  1  0.621473  0.636945  0.254410  1
  F  F72  1  0.982833  0.011223  0.106462  1
  F  F73  1  0.610732  0.403799  0.239072  1
  F  F74  1  0.482833  0.488777  0.606462  1
  F  F75  1  0.130898  0.907945  0.241395  1
  F  F76  1  0.074600  0.386288  0.364437  1
  F  F77  1  0.574600  0.113712  0.864437  1
  F  F78  1  0.083019  0.510624  0.194856  1
  F  F79  1  0.605306  0.138238  0.254774  1
  F  F80  1  0.378527  0.363055  0.745590  1
  F  F81  1  0.869102  0.092055  0.758605  1
  F  F82  1  0.978008  0.962257  0.619597  1
  F  F83  1  0.089015  0.626610  0.368921  1
