# generated using pymatgen
data_NdCrS2O
_symmetry_space_group_name_H-M   'P 1'
_cell_length_a   3.73079366
_cell_length_b   6.11108718
_cell_length_c   7.98173411
_cell_angle_alpha   89.91731929
_cell_angle_beta   90.00091268
_cell_angle_gamma   107.77405655
_symmetry_Int_Tables_number   1
_chemical_formula_structural   NdCrS2O
_chemical_formula_sum   'Nd2 Cr2 S4 O2'
_cell_volume   173.29080939
_cell_formula_units_Z   2
loop_
 _symmetry_equiv_pos_site_id
 _symmetry_equiv_pos_as_xyz
  1  'x, y, z'
loop_
 _atom_site_type_symbol
 _atom_site_label
 _atom_site_symmetry_multiplicity
 _atom_site_fract_x
 _atom_site_fract_y
 _atom_site_fract_z
 _atom_site_occupancy
  Nd  Nd0  1  0.734292  0.468469  0.206118  1
  Nd  Nd1  1  0.265658  0.531538  0.793913  1
  Cr  Cr2  1  0.999843  0.999810  0.999995  1
  Cr  Cr3  1  0.500262  0.000156  0.499924  1
  S  S4  1  0.862852  0.725678  0.528961  1
  S  S5  1  0.544850  0.089712  0.801800  1
  S  S6  1  0.455114  0.910314  0.198215  1
  S  S7  1  0.137252  0.274462  0.471071  1
  O  O8  1  0.166560  0.333234  0.061027  1
  O  O9  1  0.833317  0.666628  0.938974  1
