# generated using pymatgen
data_Ni(BO2)2
_symmetry_space_group_name_H-M   'P 1'
_cell_length_a   4.45686140
_cell_length_b   5.44066969
_cell_length_c   5.44066969
_cell_angle_alpha   61.74703893
_cell_angle_beta   74.45214041
_cell_angle_gamma   74.45213855
_symmetry_Int_Tables_number   1
_chemical_formula_structural   Ni(BO2)2
_chemical_formula_sum   'Ni2 B4 O8'
_cell_volume   110.39787227
_cell_formula_units_Z   2
loop_
 _symmetry_equiv_pos_site_id
 _symmetry_equiv_pos_as_xyz
  1  'x, y, z'
loop_
 _atom_site_type_symbol
 _atom_site_label
 _atom_site_symmetry_multiplicity
 _atom_site_fract_x
 _atom_site_fract_y
 _atom_site_fract_z
 _atom_site_occupancy
  Ni  Ni0  1  0.250000  0.654095  0.345905  1
  Ni  Ni1  1  0.750000  0.345905  0.654095  1
  B  B2  1  0.872426  0.707198  0.922299  1
  B  B3  1  0.627574  0.077701  0.292802  1
  B  B4  1  0.127574  0.292802  0.077701  1
  B  B5  1  0.372426  0.922299  0.707198  1
  O  O6  1  0.980339  0.505799  0.205383  1
  O  O7  1  0.019661  0.494201  0.794617  1
  O  O8  1  0.469225  0.227018  0.047778  1
  O  O9  1  0.519661  0.794617  0.494201  1
  O  O10  1  0.030775  0.952222  0.772982  1
  O  O11  1  0.969225  0.047778  0.227018  1
  O  O12  1  0.480339  0.205383  0.505799  1
  O  O13  1  0.530775  0.772982  0.952222  1
