# generated using pymatgen
data_Fe2SiO4
_symmetry_space_group_name_H-M   'P 1'
_cell_length_a   4.88566932
_cell_length_b   6.16628406
_cell_length_c   10.62705176
_cell_angle_alpha   90.00000000
_cell_angle_beta   90.00000000
_cell_angle_gamma   90.00000000
_symmetry_Int_Tables_number   1
_chemical_formula_structural   Fe2SiO4
_chemical_formula_sum   'Fe8 Si4 O16'
_cell_volume   320.15507623
_cell_formula_units_Z   4
loop_
 _symmetry_equiv_pos_site_id
 _symmetry_equiv_pos_as_xyz
  1  'x, y, z'
loop_
 _atom_site_type_symbol
 _atom_site_label
 _atom_site_symmetry_multiplicity
 _atom_site_fract_x
 _atom_site_fract_y
 _atom_site_fract_z
 _atom_site_occupancy
  O  O0  1  0.213033  0.463476  0.664999  1
  O  O1  1  0.713034  0.536523  0.835001  1
  O  O2  1  0.786967  0.963478  0.335001  1
  O  O3  1  0.286966  0.036523  0.164999  1
  O  O4  1  0.786967  0.536523  0.335001  1
  O  O5  1  0.286966  0.463476  0.164999  1
  O  O6  1  0.213033  0.036523  0.664999  1
  O  O7  1  0.713034  0.963478  0.835001  1
  O  O8  1  0.789524  0.750000  0.547878  1
  O  O9  1  0.289525  0.250001  0.952122  1
  O  O10  1  0.210477  0.250001  0.452122  1
  O  O11  1  0.710476  0.750000  0.047878  1
  O  O12  1  0.236131  0.750000  0.908177  1
  O  O13  1  0.736132  0.250001  0.591823  1
  O  O14  1  0.263868  0.750000  0.408177  1
  O  O15  1  0.763869  0.250001  0.091823  1
  Si  Si16  1  0.927543  0.750000  0.403916  1
  Si  Si17  1  0.427542  0.250001  0.096084  1
  Si  Si18  1  0.072457  0.250001  0.596084  1
  Si  Si19  1  0.572458  0.750000  0.903916  1
  Fe  Fe20  1  0.515140  0.250001  0.778776  1
  Fe  Fe21  1  0.984861  0.250001  0.278776  1
  Fe  Fe22  1  0.484860  0.750000  0.221224  1
  Fe  Fe23  1  0.015139  0.750000  0.721224  1
  Fe  Fe24  1  0.499999  0.500000  0.500000  1
  Fe  Fe25  1  0.000000  0.500000  0.000000  1
  Fe  Fe26  1  0.499999  0.000000  0.500000  1
  Fe  Fe27  1  0.000000  0.000000  0.000000  1
