# generated using pymatgen
data_Ge3Os2
_symmetry_space_group_name_H-M   'P 1'
_cell_length_a   5.82337344
_cell_length_b   5.82337344
_cell_length_c   9.37394907
_cell_angle_alpha   90.00000000
_cell_angle_beta   90.00000000
_cell_angle_gamma   90.00000000
_symmetry_Int_Tables_number   1
_chemical_formula_structural   Ge3Os2
_chemical_formula_sum   'Ge12 Os8'
_cell_volume   317.88634453
_cell_formula_units_Z   4
loop_
 _symmetry_equiv_pos_site_id
 _symmetry_equiv_pos_as_xyz
  1  'x, y, z'
loop_
 _atom_site_type_symbol
 _atom_site_label
 _atom_site_symmetry_multiplicity
 _atom_site_fract_x
 _atom_site_fract_y
 _atom_site_fract_z
 _atom_site_occupancy
  Os  Os0  1  0.000000  0.500000  0.375757  1
  Os  Os1  1  0.500000  0.000000  0.624243  1
  Os  Os2  1  0.500000  0.000000  0.124243  1
  Os  Os3  1  0.000000  0.500000  0.875757  1
  Os  Os4  1  0.500000  0.500000  0.250000  1
  Os  Os5  1  0.500000  0.500000  0.750000  1
  Os  Os6  1  0.000000  0.000000  0.000000  1
  Os  Os7  1  0.000000  0.000000  0.500000  1
  Ge  Ge8  1  0.217551  0.350342  0.084912  1
  Ge  Ge9  1  0.350342  0.782449  0.915088  1
  Ge  Ge10  1  0.649658  0.217551  0.915088  1
  Ge  Ge11  1  0.782449  0.649658  0.084912  1
  Ge  Ge12  1  0.350342  0.217551  0.415088  1
  Ge  Ge13  1  0.649658  0.782449  0.415088  1
  Ge  Ge14  1  0.782449  0.350342  0.584912  1
  Ge  Ge15  1  0.217551  0.649658  0.584912  1
  Ge  Ge16  1  0.171116  0.171116  0.750000  1
  Ge  Ge17  1  0.171116  0.828884  0.250000  1
  Ge  Ge18  1  0.828884  0.171116  0.250000  1
  Ge  Ge19  1  0.828884  0.828884  0.750000  1
