# generated using pymatgen
data_TiCl3
_symmetry_space_group_name_H-M   'P 1'
_cell_length_a   6.13177365
_cell_length_b   6.09809111
_cell_length_c   19.33794206
_cell_angle_alpha   89.87389976
_cell_angle_beta   89.74918446
_cell_angle_gamma   59.81712214
_symmetry_Int_Tables_number   1
_chemical_formula_structural   TiCl3
_chemical_formula_sum   'Ti6 Cl18'
_cell_volume   625.04815505
_cell_formula_units_Z   6
loop_
 _symmetry_equiv_pos_site_id
 _symmetry_equiv_pos_as_xyz
  1  'x, y, z'
loop_
 _atom_site_type_symbol
 _atom_site_label
 _atom_site_symmetry_multiplicity
 _atom_site_fract_x
 _atom_site_fract_y
 _atom_site_fract_z
 _atom_site_occupancy
  Ti  Ti0  1  0.341959  0.680896  0.334520  1
  Ti  Ti1  1  0.658041  0.319104  0.665480  1
  Ti  Ti2  1  0.340554  0.318892  0.000000  1
  Ti  Ti3  1  0.977145  0.680896  0.665480  1
  Ti  Ti4  1  0.659446  0.681108  1.000000  1
  Ti  Ti5  1  0.022855  0.319104  0.334520  1
  Cl  Cl6  1  0.645385  0.354228  0.928318  1
  Cl  Cl7  1  0.671625  0.645962  0.737034  1
  Cl  Cl8  1  0.964359  1.000000  0.740738  1
  Cl  Cl9  1  0.669680  1.000000  0.590465  1
  Cl  Cl10  1  0.330320  0.000000  0.409535  1
  Cl  Cl11  1  0.350463  1.000000  0.925240  1
  Cl  Cl12  1  0.963872  0.353635  0.593996  1
  Cl  Cl13  1  0.317586  0.354038  0.737034  1
  Cl  Cl14  1  0.036128  0.646365  0.406004  1
  Cl  Cl15  1  0.317507  0.646365  0.593996  1
  Cl  Cl16  1  0.354615  0.645772  0.071682  1
  Cl  Cl17  1  -0.000387  0.645772  0.928318  1
  Cl  Cl18  1  0.035641  0.000000  0.259262  1
  Cl  Cl19  1  0.328375  0.354038  0.262966  1
  Cl  Cl20  1  0.682493  0.353635  0.406004  1
  Cl  Cl21  1  1.000387  0.354228  0.071682  1
  Cl  Cl22  1  0.649537  0.000000  0.074760  1
  Cl  Cl23  1  0.682414  0.645962  0.262966  1
