# generated using pymatgen
data_Se2S(NCl)2
_symmetry_space_group_name_H-M   'P 1'
_cell_length_a   7.60387227
_cell_length_b   10.87700240
_cell_length_c   17.22362912
_cell_angle_alpha   90.00000000
_cell_angle_beta   90.00000000
_cell_angle_gamma   90.00000000
_symmetry_Int_Tables_number   1
_chemical_formula_structural   Se2S(NCl)2
_chemical_formula_sum   'Se16 S8 N16 Cl16'
_cell_volume   1424.52049679
_cell_formula_units_Z   8
loop_
 _symmetry_equiv_pos_site_id
 _symmetry_equiv_pos_as_xyz
  1  'x, y, z'
loop_
 _atom_site_type_symbol
 _atom_site_label
 _atom_site_symmetry_multiplicity
 _atom_site_fract_x
 _atom_site_fract_y
 _atom_site_fract_z
 _atom_site_occupancy
  Se  Se0  1  0.716067  0.144880  0.926343  1
  Se  Se1  1  0.862270  0.450096  0.601963  1
  Se  Se2  1  0.637730  0.450096  0.101963  1
  Se  Se3  1  0.283933  0.855120  0.073657  1
  Se  Se4  1  0.716067  0.644880  0.573657  1
  Se  Se5  1  0.783933  0.644880  0.073657  1
  Se  Se6  1  0.362270  0.049904  0.601963  1
  Se  Se7  1  0.137730  0.549904  0.398037  1
  Se  Se8  1  0.216067  0.355120  0.926343  1
  Se  Se9  1  0.862270  0.950096  0.898037  1
  Se  Se10  1  0.783933  0.144880  0.426343  1
  Se  Se11  1  0.283933  0.355120  0.426343  1
  Se  Se12  1  0.362270  0.549904  0.898037  1
  Se  Se13  1  0.637730  0.950096  0.398037  1
  Se  Se14  1  0.216067  0.855120  0.573657  1
  Se  Se15  1  0.137730  0.049904  0.101963  1
  S  S16  1  0.790261  0.605392  0.738114  1
  S  S17  1  0.209739  0.894608  0.238114  1
  S  S18  1  0.290261  0.394608  0.761886  1
  S  S19  1  0.709739  0.105392  0.261886  1
  S  S20  1  0.709739  0.605392  0.238114  1
  S  S21  1  0.790261  0.105392  0.761886  1
  S  S22  1  0.290261  0.894608  0.738114  1
  S  S23  1  0.209739  0.394608  0.261886  1
  N  N24  1  0.377742  0.015692  0.704920  1
  N  N25  1  0.877742  0.984308  0.795080  1
  N  N26  1  0.206047  0.311947  0.825663  1
  N  N27  1  0.293953  0.811947  0.174337  1
  N  N28  1  0.706047  0.188053  0.825663  1
  N  N29  1  0.706047  0.688053  0.674337  1
  N  N30  1  0.793953  0.688053  0.174337  1
  N  N31  1  0.293953  0.311947  0.325663  1
  N  N32  1  0.206047  0.811947  0.674337  1
  N  N33  1  0.622258  0.484308  0.204920  1
  N  N34  1  0.122258  0.015692  0.204920  1
  N  N35  1  0.793953  0.188053  0.325663  1
  N  N36  1  0.122258  0.515692  0.295080  1
  N  N37  1  0.877742  0.484308  0.704920  1
  N  N38  1  0.622258  0.984308  0.295080  1
  N  N39  1  0.377742  0.515692  0.795080  1
  Cl  Cl40  1  0.320211  0.537819  0.066513  1
  Cl  Cl41  1  0.895659  0.821412  0.387460  1
  Cl  Cl42  1  0.679789  0.962181  0.566513  1
  Cl  Cl43  1  0.395659  0.178588  0.112540  1
  Cl  Cl44  1  0.179789  0.537819  0.566513  1
  Cl  Cl45  1  0.179789  0.037819  0.933487  1
  Cl  Cl46  1  0.604341  0.821412  0.887460  1
  Cl  Cl47  1  0.320211  0.037819  0.433487  1
  Cl  Cl48  1  0.820211  0.462181  0.433487  1
  Cl  Cl49  1  0.395659  0.678588  0.387460  1
  Cl  Cl50  1  0.104341  0.678588  0.887460  1
  Cl  Cl51  1  0.604341  0.321412  0.612540  1
  Cl  Cl52  1  0.820211  0.962181  0.066513  1
  Cl  Cl53  1  0.104341  0.178588  0.612540  1
  Cl  Cl54  1  0.679789  0.462181  0.933487  1
  Cl  Cl55  1  0.895659  0.321412  0.112540  1
