# generated using pymatgen
data_CsNb3SBr7
_symmetry_space_group_name_H-M   'P 1'
_cell_length_a   7.16060430
_cell_length_b   10.37701015
_cell_length_c   19.57216153
_cell_angle_alpha   90.00000000
_cell_angle_beta   90.00000000
_cell_angle_gamma   97.68885823
_symmetry_Int_Tables_number   1
_chemical_formula_structural   CsNb3SBr7
_chemical_formula_sum   'Cs4 Nb12 S4 Br28'
_cell_volume   1441.24697838
_cell_formula_units_Z   4
loop_
 _symmetry_equiv_pos_site_id
 _symmetry_equiv_pos_as_xyz
  1  'x, y, z'
loop_
 _atom_site_type_symbol
 _atom_site_label
 _atom_site_symmetry_multiplicity
 _atom_site_fract_x
 _atom_site_fract_y
 _atom_site_fract_z
 _atom_site_occupancy
  Cs  Cs0  1  0.231278  0.884600  0.594798  1
  Cs  Cs1  1  0.731278  0.884600  0.905202  1
  Cs  Cs2  1  0.268722  0.115400  0.094798  1
  Cs  Cs3  1  0.768722  0.115400  0.405202  1
  Nb  Nb4  1  0.865284  0.578747  0.172315  1
  Nb  Nb5  1  0.962584  0.579227  0.327720  1
  Nb  Nb6  1  0.537416  0.420773  0.827720  1
  Nb  Nb7  1  0.365284  0.578747  0.327685  1
  Nb  Nb8  1  0.786897  0.174589  0.669874  1
  Nb  Nb9  1  0.213103  0.825411  0.330126  1
  Nb  Nb10  1  0.634716  0.421253  0.672315  1
  Nb  Nb11  1  0.286897  0.174589  0.830126  1
  Nb  Nb12  1  0.134716  0.421253  0.827685  1
  Nb  Nb13  1  0.713103  0.825411  0.169874  1
  Nb  Nb14  1  0.462584  0.579227  0.172280  1
  Nb  Nb15  1  0.037416  0.420773  0.672280  1
  S  S16  1  0.182515  0.673260  0.237685  1
  S  S17  1  0.317485  0.326740  0.737685  1
  S  S18  1  0.682515  0.673260  0.262315  1
  S  S19  1  0.817485  0.326740  0.762315  1
  Br  Br20  1  0.989069  0.956425  0.249917  1
  Br  Br21  1  0.862353  0.555233  0.586036  1
  Br  Br22  1  0.489069  0.956425  0.250083  1
  Br  Br23  1  0.050623  0.240775  0.920568  1
  Br  Br24  1  0.259130  0.057259  0.401429  1
  Br  Br25  1  0.050209  0.238993  0.579861  1
  Br  Br26  1  0.759130  0.057259  0.098571  1
  Br  Br27  1  0.874692  0.369144  0.249830  1
  Br  Br28  1  0.510931  0.043575  0.749917  1
  Br  Br29  1  0.740870  0.942741  0.598571  1
  Br  Br30  1  0.362353  0.555233  0.913964  1
  Br  Br31  1  0.449377  0.759225  0.420568  1
  Br  Br32  1  0.010931  0.043575  0.750083  1
  Br  Br33  1  0.949377  0.759225  0.079432  1
  Br  Br34  1  0.137647  0.444767  0.413964  1
  Br  Br35  1  0.637647  0.444767  0.086036  1
  Br  Br36  1  0.240870  0.942741  0.901429  1
  Br  Br37  1  0.125308  0.630856  0.750170  1
  Br  Br38  1  0.449791  0.761007  0.079861  1
  Br  Br39  1  0.857451  0.533512  0.898996  1
  Br  Br40  1  0.949791  0.761007  0.420139  1
  Br  Br41  1  0.374692  0.369144  0.250170  1
  Br  Br42  1  0.550623  0.240775  0.579432  1
  Br  Br43  1  0.142549  0.466488  0.101004  1
  Br  Br44  1  0.642549  0.466488  0.398996  1
  Br  Br45  1  0.625308  0.630856  0.749830  1
  Br  Br46  1  0.357451  0.533512  0.601004  1
  Br  Br47  1  0.550209  0.238993  0.920139  1
