# generated using pymatgen
data_Eu(CoAs)2
_symmetry_space_group_name_H-M   'P 1'
_cell_length_a   3.95599880
_cell_length_b   3.95581171
_cell_length_c   6.23587662
_cell_angle_alpha   108.45709992
_cell_angle_beta   108.48537934
_cell_angle_gamma   90.03992905
_symmetry_Int_Tables_number   1
_chemical_formula_structural   Eu(CoAs)2
_chemical_formula_sum   'Eu1 Co2 As2'
_cell_volume   87.23474887
_cell_formula_units_Z   1
loop_
 _symmetry_equiv_pos_site_id
 _symmetry_equiv_pos_as_xyz
  1  'x, y, z'
loop_
 _atom_site_type_symbol
 _atom_site_label
 _atom_site_symmetry_multiplicity
 _atom_site_fract_x
 _atom_site_fract_y
 _atom_site_fract_z
 _atom_site_occupancy
  Eu  Eu0  1  0.000000  0.000000  0.000000  1
  Co  Co1  1  0.249974  0.749895  0.499993  1
  Co  Co2  1  0.750026  0.250105  0.500007  1
  As  As3  1  0.360486  0.360151  0.720933  1
  As  As4  1  0.639514  0.639849  0.279067  1
