# generated using pymatgen
data_Cu4Sn7S16
_symmetry_space_group_name_H-M   'P 1'
_cell_length_a   12.97221892
_cell_length_b   12.97221912
_cell_length_c   38.92708594
_cell_angle_alpha   33.30176542
_cell_angle_beta   33.30176407
_cell_angle_gamma   33.29464870
_symmetry_Int_Tables_number   1
_chemical_formula_structural   Cu4Sn7S16
_chemical_formula_sum   'Cu12 Sn21 S48'
_cell_volume   1757.95023119
_cell_formula_units_Z   3
loop_
 _symmetry_equiv_pos_site_id
 _symmetry_equiv_pos_as_xyz
  1  'x, y, z'
loop_
 _atom_site_type_symbol
 _atom_site_label
 _atom_site_symmetry_multiplicity
 _atom_site_fract_x
 _atom_site_fract_y
 _atom_site_fract_z
 _atom_site_occupancy
  Cu  Cu0  1  0.998286  0.998286  0.001219  1
  Cu  Cu1  1  0.187950  0.187950  0.062844  1
  Cu  Cu2  1  0.300946  0.300946  0.100158  1
  Cu  Cu3  1  0.999784  0.999784  0.333202  1
  Cu  Cu4  1  0.188288  0.188288  0.395983  1
  Cu  Cu5  1  0.300570  0.300570  0.433761  1
  Cu  Cu6  1  0.002011  0.002011  0.665676  1
  Cu  Cu7  1  0.709052  0.709052  0.236491  1
  Cu  Cu8  1  0.188246  0.188246  0.729398  1
  Cu  Cu9  1  0.291702  0.291702  0.763686  1
  Cu  Cu10  1  0.709110  0.709110  0.569741  1
  Cu  Cu11  1  0.709175  0.709175  0.902873  1
  S  S12  1  0.124638  0.124638  0.041484  1
  S  S13  1  0.118668  0.118668  0.213465  1
  S  S14  1  0.118578  0.641477  0.039378  1
  S  S15  1  0.641477  0.118578  0.039378  1
  S  S16  1  0.374579  0.374579  0.124879  1
  S  S17  1  0.124576  0.124576  0.374843  1
  S  S18  1  0.132493  0.619885  0.206607  1
  S  S19  1  0.619847  0.619847  0.044135  1
  S  S20  1  0.619885  0.132493  0.206607  1
  S  S21  1  0.379862  0.865864  0.126701  1
  S  S22  1  0.379997  0.379997  0.288601  1
  S  S23  1  0.865864  0.379862  0.126701  1
  S  S24  1  0.118150  0.118150  0.547341  1
  S  S25  1  0.118624  0.640605  0.372893  1
  S  S26  1  0.623242  0.623242  0.207681  1
  S  S27  1  0.640605  0.118624  0.372893  1
  S  S28  1  0.360113  0.883367  0.294560  1
  S  S29  1  0.374549  0.374549  0.458224  1
  S  S30  1  0.883367  0.360113  0.294560  1
  S  S31  1  0.883247  0.883247  0.120320  1
  S  S32  1  0.124563  0.124563  0.708238  1
  S  S33  1  0.132294  0.619903  0.539950  1
  S  S34  1  0.619903  0.132294  0.539950  1
  S  S35  1  0.619800  0.619800  0.377528  1
  S  S36  1  0.380313  0.866113  0.459741  1
  S  S37  1  0.380102  0.380102  0.621753  1
  S  S38  1  0.866113  0.380313  0.459741  1
  S  S39  1  0.876880  0.876880  0.292348  1
  S  S40  1  0.118621  0.118621  0.879149  1
  S  S41  1  0.118196  0.638684  0.706035  1
  S  S42  1  0.622876  0.622876  0.541149  1
  S  S43  1  0.638684  0.118196  0.706035  1
  S  S44  1  0.360122  0.883119  0.628004  1
  S  S45  1  0.375466  0.375466  0.791852  1
  S  S46  1  0.883119  0.360122  0.628004  1
  S  S47  1  0.883343  0.883343  0.453512  1
  S  S48  1  0.131913  0.620389  0.873505  1
  S  S49  1  0.620389  0.131913  0.873505  1
  S  S50  1  0.620436  0.620436  0.710628  1
  S  S51  1  0.379588  0.865411  0.793430  1
  S  S52  1  0.379600  0.379600  0.955458  1
  S  S53  1  0.865411  0.379588  0.793430  1
  S  S54  1  0.877167  0.877167  0.625066  1
  S  S55  1  0.623248  0.623248  0.874159  1
  S  S56  1  0.359844  0.883939  0.961089  1
  S  S57  1  0.883939  0.359844  0.961089  1
  S  S58  1  0.883815  0.883815  0.786455  1
  S  S59  1  0.876089  0.876089  0.959362  1
  Sn  Sn60  1  0.250055  0.747866  0.083260  1
  Sn  Sn61  1  0.250042  0.250042  0.249203  1
  Sn  Sn62  1  0.747866  0.250055  0.083260  1
  Sn  Sn63  1  0.497570  0.497570  0.165852  1
  Sn  Sn64  1  0.245395  0.754592  0.251551  1
  Sn  Sn65  1  0.754577  0.754577  0.081804  1
  Sn  Sn66  1  0.754592  0.245395  0.251551  1
  Sn  Sn67  1  0.249797  0.249797  0.582713  1
  Sn  Sn68  1  0.249895  0.747594  0.416726  1
  Sn  Sn69  1  0.747594  0.249895  0.416726  1
  Sn  Sn70  1  0.497388  0.497388  0.499264  1
  Sn  Sn71  1  0.245009  0.755447  0.584486  1
  Sn  Sn72  1  0.754620  0.754620  0.415171  1
  Sn  Sn73  1  0.755447  0.245009  0.584486  1
  Sn  Sn74  1  0.250684  0.250684  0.915545  1
  Sn  Sn75  1  0.250429  0.746958  0.750236  1
  Sn  Sn76  1  0.746958  0.250429  0.750236  1
  Sn  Sn77  1  0.497631  0.497631  0.832394  1
  Sn  Sn78  1  0.245152  0.753584  0.918453  1
  Sn  Sn79  1  0.754380  0.754380  0.748176  1
  Sn  Sn80  1  0.753584  0.245152  0.918453  1
