# generated using pymatgen
data_Cs2GeO3
_symmetry_space_group_name_H-M   'P 1'
_cell_length_a   7.06088203
_cell_length_b   14.35698860
_cell_length_c   16.98209249
_cell_angle_alpha   90.00000000
_cell_angle_beta   95.63008630
_cell_angle_gamma   90.00000000
_symmetry_Int_Tables_number   1
_chemical_formula_structural   Cs2GeO3
_chemical_formula_sum   'Cs24 Ge12 O36'
_cell_volume   1713.22110593
_cell_formula_units_Z   12
loop_
 _symmetry_equiv_pos_site_id
 _symmetry_equiv_pos_as_xyz
  1  'x, y, z'
loop_
 _atom_site_type_symbol
 _atom_site_label
 _atom_site_symmetry_multiplicity
 _atom_site_fract_x
 _atom_site_fract_y
 _atom_site_fract_z
 _atom_site_occupancy
  Cs  Cs0  1  0.746527  0.087014  0.469428  1
  Cs  Cs1  1  0.066149  0.491079  0.719703  1
  Cs  Cs2  1  0.681498  0.695592  0.805520  1
  Cs  Cs3  1  0.757322  0.880689  0.636873  1
  Cs  Cs4  1  0.566149  0.008921  0.219703  1
  Cs  Cs5  1  0.257322  0.619311  0.136873  1
  Cs  Cs6  1  0.933851  0.508921  0.280297  1
  Cs  Cs7  1  0.742678  0.380689  0.863127  1
  Cs  Cs8  1  0.318502  0.304408  0.194480  1
  Cs  Cs9  1  0.242678  0.119311  0.363127  1
  Cs  Cs10  1  0.753473  0.587014  0.030572  1
  Cs  Cs11  1  0.583032  0.611041  0.584633  1
  Cs  Cs12  1  0.246527  0.412986  0.969428  1
  Cs  Cs13  1  0.950136  0.348472  0.507426  1
  Cs  Cs14  1  0.049864  0.651528  0.492574  1
  Cs  Cs15  1  0.916968  0.111041  0.915367  1
  Cs  Cs16  1  0.818502  0.195592  0.694480  1
  Cs  Cs17  1  0.083032  0.888959  0.084633  1
  Cs  Cs18  1  0.181498  0.804408  0.305520  1
  Cs  Cs19  1  0.253473  0.912986  0.530572  1
  Cs  Cs20  1  0.549864  0.848472  0.992574  1
  Cs  Cs21  1  0.416968  0.388959  0.415367  1
  Cs  Cs22  1  0.450136  0.151528  0.007426  1
  Cs  Cs23  1  0.433851  0.991079  0.780297  1
  Ge  Ge24  1  0.676459  0.753346  0.217998  1
  Ge  Ge25  1  0.169560  0.653400  0.897378  1
  Ge  Ge26  1  0.830440  0.346600  0.102622  1
  Ge  Ge27  1  0.669560  0.846600  0.397378  1
  Ge  Ge28  1  0.330440  0.153400  0.602622  1
  Ge  Ge29  1  0.032739  0.874054  0.866004  1
  Ge  Ge30  1  0.467261  0.374054  0.633996  1
  Ge  Ge31  1  0.823541  0.253346  0.282002  1
  Ge  Ge32  1  0.967261  0.125946  0.133996  1
  Ge  Ge33  1  0.323541  0.246654  0.782002  1
  Ge  Ge34  1  0.532739  0.625946  0.366004  1
  Ge  Ge35  1  0.176459  0.746654  0.717998  1
  O  O36  1  0.697249  0.550473  0.416611  1
  O  O37  1  0.866468  0.863221  0.466413  1
  O  O38  1  0.372601  0.773008  0.666704  1
  O  O39  1  0.197249  0.949527  0.916611  1
  O  O40  1  0.996605  0.565290  0.889972  1
  O  O41  1  0.262335  0.670710  0.800983  1
  O  O42  1  0.705813  0.408184  0.642360  1
  O  O43  1  0.099384  0.854048  0.765275  1
  O  O44  1  0.599384  0.645952  0.265275  1
  O  O45  1  0.366468  0.636779  0.966413  1
  O  O46  1  0.900616  0.145952  0.234725  1
  O  O47  1  0.503395  0.065290  0.610028  1
  O  O48  1  0.205813  0.091816  0.142360  1
  O  O49  1  0.633532  0.363221  0.033587  1
  O  O50  1  0.496605  0.934710  0.389972  1
  O  O51  1  0.956721  0.238567  0.081548  1
  O  O52  1  0.524886  0.197942  0.835163  1
  O  O53  1  0.133532  0.136779  0.533587  1
  O  O54  1  0.294187  0.591816  0.357640  1
  O  O55  1  0.627399  0.226992  0.333296  1
  O  O56  1  0.400616  0.354048  0.734725  1
  O  O57  1  0.127399  0.273008  0.833296  1
  O  O58  1  0.975114  0.697942  0.664837  1
  O  O59  1  0.872601  0.726992  0.166704  1
  O  O60  1  0.024886  0.302058  0.335163  1
  O  O61  1  0.794187  0.908184  0.857640  1
  O  O62  1  0.543279  0.738567  0.418452  1
  O  O63  1  0.302751  0.449527  0.583389  1
  O  O64  1  0.475114  0.802058  0.164837  1
  O  O65  1  0.456721  0.261433  0.581548  1
  O  O66  1  0.003395  0.434710  0.110028  1
  O  O67  1  0.043279  0.761433  0.918452  1
  O  O68  1  0.237665  0.170710  0.699017  1
  O  O69  1  0.737665  0.329290  0.199017  1
  O  O70  1  0.802751  0.050473  0.083389  1
  O  O71  1  0.762335  0.829290  0.300983  1
