# generated using pymatgen
data_Na2NbAsO6
_symmetry_space_group_name_H-M   'P 1'
_cell_length_a   7.42882589
_cell_length_b   9.23160336
_cell_length_c   9.23160277
_cell_angle_alpha   73.03483323
_cell_angle_beta   75.27833971
_cell_angle_gamma   75.27834219
_symmetry_Int_Tables_number   1
_chemical_formula_structural   Na2NbAsO6
_chemical_formula_sum   'Na8 Nb4 As4 O24'
_cell_volume   574.48227722
_cell_formula_units_Z   4
loop_
 _symmetry_equiv_pos_site_id
 _symmetry_equiv_pos_as_xyz
  1  'x, y, z'
loop_
 _atom_site_type_symbol
 _atom_site_label
 _atom_site_symmetry_multiplicity
 _atom_site_fract_x
 _atom_site_fract_y
 _atom_site_fract_z
 _atom_site_occupancy
  Na  Na0  1  0.059572  0.648264  0.070423  1
  Na  Na1  1  0.559572  0.070423  0.648264  1
  Na  Na2  1  0.940428  0.351736  0.929577  1
  Na  Na3  1  0.250000  0.994885  0.005115  1
  Na  Na4  1  0.440428  0.929577  0.351736  1
  Na  Na5  1  0.750000  0.453650  0.546350  1
  Na  Na6  1  0.750000  0.005115  0.994885  1
  Na  Na7  1  0.250000  0.546350  0.453650  1
  Nb  Nb8  1  0.616128  0.291743  0.286772  1
  Nb  Nb9  1  0.116128  0.286772  0.291743  1
  Nb  Nb10  1  0.883872  0.713228  0.708257  1
  Nb  Nb11  1  0.383872  0.708257  0.713228  1
  As  As12  1  0.953289  0.940987  0.316054  1
  As  As13  1  0.453289  0.316054  0.940987  1
  As  As14  1  0.546711  0.683946  0.059013  1
  As  As15  1  0.046711  0.059013  0.683946  1
  O  O16  1  0.061896  0.480282  0.319632  1
  O  O17  1  0.938104  0.519718  0.680368  1
  O  O18  1  0.496038  0.476717  0.791102  1
  O  O19  1  0.971959  0.873271  0.160473  1
  O  O20  1  0.624597  0.789498  0.686597  1
  O  O21  1  0.375403  0.210502  0.313403  1
  O  O22  1  0.724308  0.046943  0.359765  1
  O  O23  1  0.471959  0.160473  0.873271  1
  O  O24  1  0.875403  0.313403  0.210502  1
  O  O25  1  0.124597  0.686597  0.789498  1
  O  O26  1  0.775692  0.640235  0.953057  1
  O  O27  1  0.438104  0.680368  0.519718  1
  O  O28  1  0.003962  0.208898  0.523283  1
  O  O29  1  0.131344  0.044009  0.276835  1
  O  O30  1  0.631344  0.276835  0.044009  1
  O  O31  1  0.028041  0.126729  0.839527  1
  O  O32  1  0.996038  0.791102  0.476717  1
  O  O33  1  0.868656  0.955991  0.723165  1
  O  O34  1  0.528041  0.839527  0.126729  1
  O  O35  1  0.561896  0.319632  0.480282  1
  O  O36  1  0.275692  0.953057  0.640235  1
  O  O37  1  0.368656  0.723165  0.955991  1
  O  O38  1  0.503962  0.523283  0.208898  1
  O  O39  1  0.224308  0.359765  0.046943  1
