# generated using pymatgen
data_Sr2Cu3(ClO2)2
_symmetry_space_group_name_H-M   'P 1'
_cell_length_a   5.49015584
_cell_length_b   5.49025287
_cell_length_c   7.55566790
_cell_angle_alpha   111.31293612
_cell_angle_beta   111.31248785
_cell_angle_gamma   89.99226946
_symmetry_Int_Tables_number   1
_chemical_formula_structural   Sr2Cu3(ClO2)2
_chemical_formula_sum   'Sr2 Cu3 Cl2 O4'
_cell_volume   195.36164449
_cell_formula_units_Z   1
loop_
 _symmetry_equiv_pos_site_id
 _symmetry_equiv_pos_as_xyz
  1  'x, y, z'
loop_
 _atom_site_type_symbol
 _atom_site_label
 _atom_site_symmetry_multiplicity
 _atom_site_fract_x
 _atom_site_fract_y
 _atom_site_fract_z
 _atom_site_occupancy
  O  O0  1  0.749298  0.250654  0.000000  1
  O  O1  1  0.250702  0.749349  1.000001  1
  Sr  Sr2  1  0.361063  0.361060  0.722138  1
  Cl  Cl3  1  0.749988  0.250009  0.499999  1
  Cu  Cu4  1  1.000001  -0.000001  0.999999  1
  O  O5  1  0.250693  0.250644  0.000002  1
  Cl  Cl6  1  0.250011  0.749990  0.500002  1
  Sr  Sr7  1  0.638939  0.638938  0.277862  1
  Cu  Cu8  1  0.499998  1.000000  0.999999  1
  Cu  Cu9  1  0.000001  0.500001  1.000000  1
  O  O10  1  0.749306  0.749355  0.999998  1
