# generated using pymatgen
data_Na4CO4
_symmetry_space_group_name_H-M   'P 1'
_cell_length_a   4.74785362
_cell_length_b   4.74786264
_cell_length_c   4.74783625
_cell_angle_alpha   89.76222506
_cell_angle_beta   89.76241775
_cell_angle_gamma   89.76244572
_symmetry_Int_Tables_number   1
_chemical_formula_structural   Na4CO4
_chemical_formula_sum   'Na4 C1 O4'
_cell_volume   107.02371528
_cell_formula_units_Z   1
loop_
 _symmetry_equiv_pos_site_id
 _symmetry_equiv_pos_as_xyz
  1  'x, y, z'
loop_
 _atom_site_type_symbol
 _atom_site_label
 _atom_site_symmetry_multiplicity
 _atom_site_fract_x
 _atom_site_fract_y
 _atom_site_fract_z
 _atom_site_occupancy
  O  O0  1  0.439347  0.453343  0.800722  1
  Na  Na1  1  0.343846  0.925612  0.884280  1
  O  O2  1  0.799176  0.799175  0.799174  1
  Na  Na3  1  0.343363  0.343366  0.343368  1
  C  C4  1  0.623413  0.623412  0.623412  1
  O  O5  1  0.800722  0.439347  0.453343  1
  Na  Na6  1  0.925612  0.884278  0.343840  1
  O  O7  1  0.453344  0.800722  0.439345  1
  Na  Na8  1  0.884278  0.343845  0.925616  1
