# generated using pymatgen
data_P4C2Se3N2
_symmetry_space_group_name_H-M   'P 1'
_cell_length_a   6.85375928
_cell_length_b   12.51167950
_cell_length_c   14.24437590
_cell_angle_alpha   107.53436487
_cell_angle_beta   90.00166330
_cell_angle_gamma   89.99845612
_symmetry_Int_Tables_number   1
_chemical_formula_structural   P4C2Se3N2
_chemical_formula_sum   'P16 Se12 C8 N8'
_cell_volume   1164.72975304
_cell_formula_units_Z   4
loop_
 _symmetry_equiv_pos_site_id
 _symmetry_equiv_pos_as_xyz
  1  'x, y, z'
loop_
 _atom_site_type_symbol
 _atom_site_label
 _atom_site_symmetry_multiplicity
 _atom_site_fract_x
 _atom_site_fract_y
 _atom_site_fract_z
 _atom_site_occupancy
  P  P0  1  0.501081  0.364402  0.105147  1
  P  P1  1  0.706818  0.251031  0.148962  1
  P  P2  1  0.537410  0.382379  0.395357  1
  P  P3  1  0.293175  0.748966  0.851039  1
  P  P4  1  0.771308  -0.006496  0.339865  1
  P  P5  1  0.037427  0.117630  0.604628  1
  P  P6  1  0.728695  0.493493  0.339869  1
  P  P7  1  0.462576  0.617622  0.604642  1
  P  P8  1  0.793175  0.751039  0.148955  1
  P  P9  1  0.962591  0.882372  0.395370  1
  P  P10  1  0.228702  1.006500  0.660136  1
  P  P11  1  0.498916  0.635594  0.894852  1
  P  P12  1  1.001104  0.135600  0.894845  1
  P  P13  1  0.271296  0.506506  0.660130  1
  P  P14  1  0.206829  0.248961  0.851045  1
  P  P15  1  -0.001081  0.864400  0.105157  1
  Se  Se16  1  0.500244  0.221431  0.264871  1
  Se  Se17  1  0.499750  0.778566  0.735132  1
  C  C18  1  0.220845  0.162130  0.535325  1
  Se  Se19  1  0.495174  0.526141  0.236718  1
  Se  Se20  1  0.435019  0.129509  0.762118  1
  C  C21  1  0.835462  0.906743  0.025134  1
  Se  Se22  1  1.000234  0.278568  0.735127  1
  C  C23  1  0.279140  0.662137  0.535319  1
  C  C24  1  0.664528  0.406728  0.025141  1
  C  C25  1  0.720845  0.337865  0.464682  1
  C  C26  1  0.779165  0.837872  0.464672  1
  C  C27  1  0.335472  0.593263  0.974856  1
  C  C28  1  0.164548  0.093260  0.974874  1
  Se  Se29  1  0.004807  0.026143  0.236726  1
  Se  Se30  1  0.935008  0.370479  0.237890  1
  Se  Se31  1  0.064982  0.629520  0.762110  1
  Se  Se32  1  0.504821  0.473856  0.763278  1
  Se  Se33  1  0.995202  0.973860  0.763279  1
  Se  Se34  1  0.564980  0.870493  0.237884  1
  Se  Se35  1  -0.000229  0.721432  0.264869  1
  N  N36  1  0.257439  0.070196  0.035196  1
  N  N37  1  0.668473  0.813434  0.517490  1
  N  N38  1  0.757428  0.429799  0.964815  1
  N  N39  1  0.331525  0.186567  0.482508  1
  N  N40  1  0.242572  0.570194  0.035187  1
  N  N41  1  0.168464  0.686572  0.482509  1
  N  N42  1  0.831527  0.313430  0.517490  1
  N  N43  1  0.742552  0.929810  0.964801  1
