# generated using pymatgen
data_NbTe4I
_symmetry_space_group_name_H-M   'P 1'
_cell_length_a   8.11250245
_cell_length_b   13.48288570
_cell_length_c   16.11595372
_cell_angle_alpha   90.00000000
_cell_angle_beta   90.00000000
_cell_angle_gamma   99.27609958
_symmetry_Int_Tables_number   1
_chemical_formula_structural   NbTe4I
_chemical_formula_sum   'Nb8 Te32 I8'
_cell_volume   1739.71053724
_cell_formula_units_Z   8
loop_
 _symmetry_equiv_pos_site_id
 _symmetry_equiv_pos_as_xyz
  1  'x, y, z'
loop_
 _atom_site_type_symbol
 _atom_site_label
 _atom_site_symmetry_multiplicity
 _atom_site_fract_x
 _atom_site_fract_y
 _atom_site_fract_z
 _atom_site_occupancy
  Nb  Nb0  1  0.755246  0.755608  0.756084  1
  Nb  Nb1  1  0.244754  0.744392  0.256084  1
  Nb  Nb2  1  0.244754  0.244392  0.243916  1
  Nb  Nb3  1  0.755246  0.255608  0.743916  1
  Nb  Nb4  1  0.753799  0.504575  0.748973  1
  Nb  Nb5  1  0.246201  0.995425  0.248973  1
  Nb  Nb6  1  0.246201  0.495425  0.251027  1
  Nb  Nb7  1  0.753799  0.004575  0.751027  1
  Te  Te8  1  0.984198  0.640528  0.842761  1
  Te  Te9  1  0.015802  0.859472  0.342761  1
  Te  Te10  1  0.015802  0.359472  0.157239  1
  Te  Te11  1  0.984198  0.140528  0.657239  1
  Te  Te12  1  0.991253  0.665848  0.667352  1
  Te  Te13  1  0.008747  0.834152  0.167352  1
  Te  Te14  1  0.008747  0.334152  0.332648  1
  Te  Te15  1  0.991253  0.165848  0.832648  1
  Te  Te16  1  0.521283  0.602705  0.664351  1
  Te  Te17  1  0.478717  0.897295  0.164351  1
  Te  Te18  1  0.478717  0.397295  0.335649  1
  Te  Te19  1  0.521283  0.102705  0.835649  1
  Te  Te20  1  0.521700  0.613008  0.840331  1
  Te  Te21  1  0.478300  0.886992  0.340331  1
  Te  Te22  1  0.478300  0.386992  0.159669  1
  Te  Te23  1  0.521700  0.113008  0.659669  1
  Te  Te24  1  0.471818  0.851754  0.720121  1
  Te  Te25  1  0.528182  0.648246  0.220121  1
  Te  Te26  1  0.528182  0.148246  0.279879  1
  Te  Te27  1  0.471818  0.351754  0.779879  1
  Te  Te28  1  0.742377  0.875464  0.609369  1
  Te  Te29  1  0.257623  0.624536  0.109369  1
  Te  Te30  1  0.257623  0.124536  0.390631  1
  Te  Te31  1  0.742377  0.375464  0.890631  1
  Te  Te32  1  0.035340  0.909741  0.790462  1
  Te  Te33  1  0.964660  0.590259  0.290462  1
  Te  Te34  1  0.964660  0.090259  0.209538  1
  Te  Te35  1  0.035340  0.409741  0.709538  1
  Te  Te36  1  0.760907  0.885614  0.899468  1
  Te  Te37  1  0.239093  0.614386  0.399468  1
  Te  Te38  1  0.239093  0.114386  0.100532  1
  Te  Te39  1  0.760907  0.385614  0.600532  1
  I  I40  1  0.377086  0.856340  0.970044  1
  I  I41  1  0.622914  0.643660  0.470044  1
  I  I42  1  0.622914  0.143660  0.029956  1
  I  I43  1  0.377086  0.356340  0.529956  1
  I  I44  1  0.127678  0.883564  0.534358  1
  I  I45  1  0.872322  0.616436  0.034358  1
  I  I46  1  0.872322  0.116436  0.465642  1
  I  I47  1  0.127678  0.383564  0.965642  1
