# generated using pymatgen
data_NaErO2
_symmetry_space_group_name_H-M   'P 1'
_cell_length_a   5.91776910
_cell_length_b   6.05849540
_cell_length_c   7.36751443
_cell_angle_alpha   104.81328763
_cell_angle_beta   104.02952385
_cell_angle_gamma   112.77861041
_symmetry_Int_Tables_number   1
_chemical_formula_structural   NaErO2
_chemical_formula_sum   'Na4 Er4 O8'
_cell_volume   217.49472555
_cell_formula_units_Z   4
loop_
 _symmetry_equiv_pos_site_id
 _symmetry_equiv_pos_as_xyz
  1  'x, y, z'
loop_
 _atom_site_type_symbol
 _atom_site_label
 _atom_site_symmetry_multiplicity
 _atom_site_fract_x
 _atom_site_fract_y
 _atom_site_fract_z
 _atom_site_occupancy
  O  O0  1  0.061861  0.766975  0.627078  1
  O  O1  1  0.565217  0.360103  0.627078  1
  O  O2  1  0.938139  0.233025  0.372922  1
  O  O3  1  0.434783  0.639897  0.372922  1
  O  O4  1  0.833051  0.540226  0.123817  1
  O  O5  1  0.709234  0.916409  0.876183  1
  O  O6  1  0.166949  0.459774  0.876183  1
  O  O7  1  0.290766  0.083591  0.123817  1
  Na  Na8  1  0.430180  0.180180  0.860360  1
  Na  Na9  1  0.194291  0.944291  0.388582  1
  Na  Na10  1  0.569820  0.819820  0.139640  1
  Na  Na11  1  0.805709  0.055709  0.611418  1
  Er  Er12  1  0.317139  0.567139  0.634279  1
  Er  Er13  1  0.682861  0.432861  0.365721  1
  Er  Er14  1  0.056707  0.306707  0.113415  1
  Er  Er15  1  0.943293  0.693293  0.886585  1
