# generated using pymatgen
data_HoCoSi
_symmetry_space_group_name_H-M   'P 1'
_cell_length_a   4.18324962
_cell_length_b   6.88570320
_cell_length_c   6.88247334
_cell_angle_alpha   90.00000000
_cell_angle_beta   90.00000000
_cell_angle_gamma   90.00000000
_symmetry_Int_Tables_number   1
_chemical_formula_structural   HoCoSi
_chemical_formula_sum   'Ho4 Co4 Si4'
_cell_volume   198.24699684
_cell_formula_units_Z   4
loop_
 _symmetry_equiv_pos_site_id
 _symmetry_equiv_pos_as_xyz
  1  'x, y, z'
loop_
 _atom_site_type_symbol
 _atom_site_label
 _atom_site_symmetry_multiplicity
 _atom_site_fract_x
 _atom_site_fract_y
 _atom_site_fract_z
 _atom_site_occupancy
  Ho  Ho0  1  0.750000  0.018309  0.812388  1
  Ho  Ho1  1  0.250000  0.981691  0.187612  1
  Ho  Ho2  1  0.750000  0.518309  0.687612  1
  Ho  Ho3  1  0.250000  0.481691  0.312388  1
  Co  Co4  1  0.750000  0.854861  0.434284  1
  Co  Co5  1  0.250000  0.145139  0.565716  1
  Co  Co6  1  0.750000  0.354861  0.065716  1
  Co  Co7  1  0.250000  0.645139  0.934284  1
  Si  Si8  1  0.750000  0.194867  0.393060  1
  Si  Si9  1  0.250000  0.805133  0.606940  1
  Si  Si10  1  0.750000  0.694867  0.106940  1
  Si  Si11  1  0.250000  0.305133  0.893060  1
