# generated using pymatgen
data_TmFeO3
_symmetry_space_group_name_H-M   'P 1'
_cell_length_a   6.07278763
_cell_length_b   6.07278769
_cell_length_c   11.75543435
_cell_angle_alpha   90.00000000
_cell_angle_beta   90.00000000
_cell_angle_gamma   119.99999963
_symmetry_Int_Tables_number   1
_chemical_formula_structural   TmFeO3
_chemical_formula_sum   'Tm6 Fe6 O18'
_cell_volume   375.44429160
_cell_formula_units_Z   6
loop_
 _symmetry_equiv_pos_site_id
 _symmetry_equiv_pos_as_xyz
  1  'x, y, z'
loop_
 _atom_site_type_symbol
 _atom_site_label
 _atom_site_symmetry_multiplicity
 _atom_site_fract_x
 _atom_site_fract_y
 _atom_site_fract_z
 _atom_site_occupancy
  Tm  Tm0  1  0.666667  0.333333  0.732429  1
  Tm  Tm1  1  0.666667  0.333333  0.232429  1
  Tm  Tm2  1  0.000000  0.000000  0.275767  1
  Tm  Tm3  1  0.333333  0.666667  0.232429  1
  Tm  Tm4  1  0.000000  0.000000  0.775767  1
  Tm  Tm5  1  0.333333  0.666667  0.732429  1
  Fe  Fe6  1  0.334014  0.000000  0.000783  1
  Fe  Fe7  1  1.000000  0.334014  0.000783  1
  Fe  Fe8  1  0.000000  0.665986  0.500783  1
  Fe  Fe9  1  0.665986  0.000000  0.500783  1
  Fe  Fe10  1  0.665986  0.665986  0.000783  1
  Fe  Fe11  1  0.334014  0.334014  0.500783  1
  O  O12  1  0.000000  0.361496  0.836315  1
  O  O13  1  0.305195  0.305195  0.666947  1
  O  O14  1  0.666667  0.333333  0.023096  1
  O  O15  1  1.000000  0.694805  0.666947  1
  O  O16  1  0.666667  0.333333  0.523096  1
  O  O17  1  0.000000  0.000000  0.474950  1
  O  O18  1  0.361496  0.000000  0.836315  1
  O  O19  1  0.333333  0.666667  0.523096  1
  O  O20  1  0.305195  0.000000  0.166947  1
  O  O21  1  0.638504  0.000000  0.336315  1
  O  O22  1  0.638504  0.638504  0.836315  1
  O  O23  1  0.361496  0.361496  0.336315  1
  O  O24  1  1.000000  0.638504  0.336315  1
  O  O25  1  0.000000  0.305195  0.166947  1
  O  O26  1  0.694805  0.000000  0.666947  1
  O  O27  1  0.694805  0.694805  0.166947  1
  O  O28  1  0.000000  0.000000  0.974950  1
  O  O29  1  0.333333  0.666667  0.023096  1
