# generated using pymatgen
data_Na14Mn2O9
_symmetry_space_group_name_H-M   'P 1'
_cell_length_a   6.73706198
_cell_length_b   6.73706198
_cell_length_c   9.44004595
_cell_angle_alpha   90.00000000
_cell_angle_beta   90.00000000
_cell_angle_gamma   120.00000000
_symmetry_Int_Tables_number   1
_chemical_formula_structural   Na14Mn2O9
_chemical_formula_sum   'Na14 Mn2 O9'
_cell_volume   371.06144018
_cell_formula_units_Z   1
loop_
 _symmetry_equiv_pos_site_id
 _symmetry_equiv_pos_as_xyz
  1  'x, y, z'
loop_
 _atom_site_type_symbol
 _atom_site_label
 _atom_site_symmetry_multiplicity
 _atom_site_fract_x
 _atom_site_fract_y
 _atom_site_fract_z
 _atom_site_occupancy
  O  O0  1  0.304990  0.947601  0.337358  1
  O  O1  1  0.642611  0.695010  0.337358  1
  O  O2  1  0.052399  0.357389  0.337358  1
  O  O3  1  0.695010  0.052399  0.662642  1
  O  O4  1  0.357389  0.304990  0.662642  1
  O  O5  1  0.947601  0.642611  0.662642  1
  O  O6  1  0.000000  0.000000  0.000000  1
  O  O7  1  0.666667  0.333333  0.961442  1
  O  O8  1  0.333333  0.666667  0.038558  1
  Na  Na9  1  0.320355  0.361191  0.908588  1
  Na  Na10  1  0.959164  0.320355  0.091412  1
  Na  Na11  1  0.638809  0.959164  0.908588  1
  Na  Na12  1  0.690502  0.067330  0.408624  1
  Na  Na13  1  0.040836  0.679645  0.908588  1
  Na  Na14  1  0.000000  0.000000  0.251745  1
  Na  Na15  1  0.000000  0.000000  0.748255  1
  Na  Na16  1  0.679645  0.638809  0.091412  1
  Na  Na17  1  0.067330  0.376828  0.591376  1
  Na  Na18  1  0.376828  0.309498  0.408624  1
  Na  Na19  1  0.932670  0.623172  0.408624  1
  Na  Na20  1  0.309498  0.932670  0.591376  1
  Na  Na21  1  0.623172  0.690502  0.591376  1
  Na  Na22  1  0.361191  0.040836  0.091412  1
  Mn  Mn23  1  0.666667  0.333333  0.737869  1
  Mn  Mn24  1  0.333333  0.666667  0.262131  1
