# generated using pymatgen
data_WOF4
_symmetry_space_group_name_H-M   'P 1'
_cell_length_a   5.42994708
_cell_length_b   8.75555309
_cell_length_c   8.75555282
_cell_angle_alpha   112.09487013
_cell_angle_beta   91.73411086
_cell_angle_gamma   91.73411172
_symmetry_Int_Tables_number   1
_chemical_formula_structural   WOF4
_chemical_formula_sum   'W4 O4 F16'
_cell_volume   385.12255776
_cell_formula_units_Z   4
loop_
 _symmetry_equiv_pos_site_id
 _symmetry_equiv_pos_as_xyz
  1  'x, y, z'
loop_
 _atom_site_type_symbol
 _atom_site_label
 _atom_site_symmetry_multiplicity
 _atom_site_fract_x
 _atom_site_fract_y
 _atom_site_fract_z
 _atom_site_occupancy
  W  W0  1  1.000000  0.813600  0.186400  1
  W  W1  1  0.000000  0.186400  0.813600  1
  W  W2  1  0.232975  0.760539  0.760539  1
  W  W3  1  0.767025  0.239461  0.239461  1
  F  F4  1  0.545270  0.856515  0.856515  1
  F  F5  1  0.454730  0.143485  0.143485  1
  F  F6  1  0.928310  0.658558  0.658558  1
  F  F7  1  0.071690  0.341442  0.341442  1
  O  O8  1  0.119027  0.787005  0.974145  1
  O  O9  1  0.880973  0.025855  0.212995  1
  O  O10  1  0.880973  0.212995  0.025855  1
  O  O11  1  0.119027  0.974145  0.787005  1
  F  F12  1  0.348469  0.551902  0.734786  1
  F  F13  1  0.651531  0.265214  0.448098  1
  F  F14  1  0.651531  0.448098  0.265214  1
  F  F15  1  0.348469  0.734786  0.551902  1
  F  F16  1  0.695252  0.708773  0.086885  1
  F  F17  1  0.304748  0.913115  0.291227  1
  F  F18  1  0.304748  0.291227  0.913115  1
  F  F19  1  0.695252  0.086885  0.708773  1
  F  F20  1  0.119850  0.606653  0.164573  1
  F  F21  1  0.880150  0.835427  0.393347  1
  F  F22  1  0.880150  0.393347  0.835427  1
  F  F23  1  0.119850  0.164573  0.606653  1
