# generated using pymatgen
data_V2Cd(PO5)2
_symmetry_space_group_name_H-M   'P 1'
_cell_length_a   6.84780810
_cell_length_b   6.84780797
_cell_length_c   8.89397198
_cell_angle_alpha   102.54071300
_cell_angle_beta   102.54071271
_cell_angle_gamma   115.84716624
_symmetry_Int_Tables_number   1
_chemical_formula_structural   V2Cd(PO5)2
_chemical_formula_sum   'V4 Cd2 P4 O20'
_cell_volume   342.52950641
_cell_formula_units_Z   2
loop_
 _symmetry_equiv_pos_site_id
 _symmetry_equiv_pos_as_xyz
  1  'x, y, z'
loop_
 _atom_site_type_symbol
 _atom_site_label
 _atom_site_symmetry_multiplicity
 _atom_site_fract_x
 _atom_site_fract_y
 _atom_site_fract_z
 _atom_site_occupancy
  V  V0  1  0.093634  0.364947  0.739717  1
  V  V1  1  0.614947  0.843634  0.239717  1
  V  V2  1  0.625230  0.353917  0.260283  1
  V  V3  1  0.603917  0.375230  0.760283  1
  Cd  Cd4  1  0.999389  0.999389  0.000000  1
  Cd  Cd5  1  0.249389  0.749389  0.500000  1
  P  P6  1  0.202042  0.202846  0.416668  1
  P  P7  1  0.452846  0.952042  0.916668  1
  P  P8  1  0.786178  0.785374  0.583332  1
  P  P9  1  0.035374  0.536178  0.083332  1
  O  O10  1  0.344489  0.132162  0.533386  1
  O  O11  1  0.891100  0.609934  0.970968  1
  O  O12  1  0.859934  0.641100  0.470968  1
  O  O13  1  0.997359  0.026320  0.693591  1
  O  O14  1  0.690358  0.664801  0.699499  1
  O  O15  1  0.553768  0.082729  0.806409  1
  O  O16  1  0.823383  0.327042  0.667777  1
  O  O17  1  0.061102  0.348776  0.966614  1
  O  O18  1  0.659266  0.155606  0.332223  1
  O  O19  1  0.332729  0.303768  0.306409  1
  O  O20  1  0.276320  0.747359  0.193591  1
  O  O21  1  0.405606  0.409266  0.832223  1
  O  O22  1  0.598776  0.811102  0.466614  1
  O  O23  1  0.382162  0.094489  0.033386  1
  O  O24  1  0.914801  0.440358  0.199499  1
  O  O25  1  0.577042  0.573383  0.167777  1
  O  O26  1  0.638966  0.920132  0.029032  1
  O  O27  1  0.965302  0.990859  0.300501  1
  O  O28  1  0.170132  0.388966  0.529032  1
  O  O29  1  0.240859  0.715302  0.800501  1
