# generated using pymatgen
data_WN3F5
_symmetry_space_group_name_H-M   'P 1'
_cell_length_a   5.50464777
_cell_length_b   10.07437268
_cell_length_c   11.37560565
_cell_angle_alpha   90.00000000
_cell_angle_beta   102.74145369
_cell_angle_gamma   90.00000000
_symmetry_Int_Tables_number   1
_chemical_formula_structural   WN3F5
_chemical_formula_sum   'W4 N12 F20'
_cell_volume   615.30975075
_cell_formula_units_Z   4
loop_
 _symmetry_equiv_pos_site_id
 _symmetry_equiv_pos_as_xyz
  1  'x, y, z'
loop_
 _atom_site_type_symbol
 _atom_site_label
 _atom_site_symmetry_multiplicity
 _atom_site_fract_x
 _atom_site_fract_y
 _atom_site_fract_z
 _atom_site_occupancy
  N  N0  1  0.595405  0.164114  0.992917  1
  N  N1  1  0.404595  0.664114  0.507083  1
  N  N2  1  0.404595  0.835886  0.007083  1
  N  N3  1  0.595405  0.335886  0.492917  1
  N  N4  1  0.523447  0.749200  0.052699  1
  N  N5  1  0.476553  0.249200  0.447301  1
  N  N6  1  0.351846  0.343989  0.901092  1
  N  N7  1  0.648154  0.843989  0.598908  1
  N  N8  1  0.648154  0.656011  0.098908  1
  N  N9  1  0.351846  0.156011  0.401092  1
  N  N10  1  0.476553  0.250800  0.947301  1
  N  N11  1  0.523447  0.750800  0.552699  1
  F  F12  1  0.855589  0.367746  0.790928  1
  F  F13  1  0.571811  0.428152  0.221178  1
  F  F14  1  0.571811  0.071848  0.721178  1
  F  F15  1  0.428189  0.928152  0.278822  1
  F  F16  1  0.087830  0.922727  0.409379  1
  F  F17  1  0.912170  0.422727  0.090621  1
  F  F18  1  0.912170  0.077273  0.590621  1
  F  F19  1  0.087830  0.577273  0.909379  1
  F  F20  1  0.204825  0.141020  0.156508  1
  F  F21  1  0.795175  0.641020  0.343492  1
  F  F22  1  0.795175  0.858980  0.843492  1
  F  F23  1  0.204825  0.358980  0.656508  1
  F  F24  1  0.144411  0.632254  0.209072  1
  F  F25  1  0.855589  0.132254  0.290928  1
  F  F26  1  0.953318  0.575378  0.669725  1
  F  F27  1  0.046682  0.075378  0.830275  1
  F  F28  1  0.046682  0.424622  0.330275  1
  F  F29  1  0.953318  0.924622  0.169725  1
  F  F30  1  0.428189  0.571848  0.778822  1
  F  F31  1  0.144411  0.867746  0.709072  1
  W  W32  1  0.150933  0.462851  0.787041  1
  W  W33  1  0.849067  0.962851  0.712959  1
  W  W34  1  0.849067  0.537149  0.212959  1
  W  W35  1  0.150933  0.037149  0.287041  1
