# generated using pymatgen
data_MnNb3O6
_symmetry_space_group_name_H-M   'P 1'
_cell_length_a   6.62831280
_cell_length_b   7.09803994
_cell_length_c   7.09803993
_cell_angle_alpha   60.66390684
_cell_angle_beta   62.16599928
_cell_angle_gamma   62.16599928
_symmetry_Int_Tables_number   1
_chemical_formula_structural   MnNb3O6
_chemical_formula_sum   'Mn2 Nb6 O12'
_cell_volume   244.84861830
_cell_formula_units_Z   2
loop_
 _symmetry_equiv_pos_site_id
 _symmetry_equiv_pos_as_xyz
  1  'x, y, z'
loop_
 _atom_site_type_symbol
 _atom_site_label
 _atom_site_symmetry_multiplicity
 _atom_site_fract_x
 _atom_site_fract_y
 _atom_site_fract_z
 _atom_site_occupancy
  O  O0  1  0.141982  0.830030  0.438775  1
  O  O1  1  0.410787  0.169970  0.561225  1
  O  O2  1  0.858018  0.561225  0.169970  1
  O  O3  1  0.589213  0.438775  0.830030  1
  O  O4  1  0.858018  0.169970  0.561225  1
  O  O5  1  0.589213  0.830030  0.438775  1
  O  O6  1  0.141982  0.438775  0.830030  1
  O  O7  1  0.410787  0.561225  0.169970  1
  O  O8  1  0.855048  0.144952  0.144952  1
  O  O9  1  0.144952  0.855048  0.855048  1
  O  O10  1  0.349951  0.150049  0.150049  1
  O  O11  1  0.650049  0.849951  0.849951  1
  Mn  Mn12  1  0.252291  0.000000  0.000000  1
  Mn  Mn13  1  0.747709  0.000000  0.000000  1
  Nb  Nb14  1  0.777780  0.943305  0.501136  1
  Nb  Nb15  1  0.222220  0.056695  0.498864  1
  Nb  Nb16  1  0.802093  0.500000  0.500000  1
  Nb  Nb17  1  0.197907  0.500000  0.500000  1
  Nb  Nb18  1  0.777780  0.501136  0.943305  1
  Nb  Nb19  1  0.222220  0.498864  0.056695  1
