# generated using pymatgen
data_NdNiSb3
_symmetry_space_group_name_H-M   'P 1'
_cell_length_a   6.26861538
_cell_length_b   12.60610574
_cell_length_c   18.53485476
_cell_angle_alpha   90.00000000
_cell_angle_beta   90.00000000
_cell_angle_gamma   90.00000000
_symmetry_Int_Tables_number   1
_chemical_formula_structural   NdNiSb3
_chemical_formula_sum   'Nd12 Ni12 Sb36'
_cell_volume   1464.67664570
_cell_formula_units_Z   12
loop_
 _symmetry_equiv_pos_site_id
 _symmetry_equiv_pos_as_xyz
  1  'x, y, z'
loop_
 _atom_site_type_symbol
 _atom_site_label
 _atom_site_symmetry_multiplicity
 _atom_site_fract_x
 _atom_site_fract_y
 _atom_site_fract_z
 _atom_site_occupancy
  Nd  Nd0  1  0.059654  0.694323  0.750000  1
  Nd  Nd1  1  0.527569  0.700496  0.916393  1
  Nd  Nd2  1  0.972431  0.700496  0.083607  1
  Nd  Nd3  1  0.972431  0.700496  0.416393  1
  Nd  Nd4  1  0.027569  0.299504  0.583607  1
  Nd  Nd5  1  0.027569  0.299504  0.916393  1
  Nd  Nd6  1  0.940346  0.305677  0.250000  1
  Nd  Nd7  1  0.440346  0.694323  0.250000  1
  Nd  Nd8  1  0.559654  0.305677  0.750000  1
  Nd  Nd9  1  0.472431  0.299504  0.416393  1
  Nd  Nd10  1  0.527569  0.700496  0.583607  1
  Nd  Nd11  1  0.472431  0.299504  0.083607  1
  Ni  Ni12  1  0.750000  0.103470  0.000000  1
  Ni  Ni13  1  0.250000  0.896530  0.500000  1
  Ni  Ni14  1  0.750000  0.103470  0.500000  1
  Ni  Ni15  1  0.250000  0.896530  0.000000  1
  Ni  Ni16  1  0.173347  0.100192  0.175937  1
  Ni  Ni17  1  0.826653  0.899808  0.824063  1
  Ni  Ni18  1  0.326653  0.100192  0.675937  1
  Ni  Ni19  1  0.173347  0.100192  0.324063  1
  Ni  Ni20  1  0.673347  0.899808  0.324063  1
  Ni  Ni21  1  0.326653  0.100192  0.824063  1
  Ni  Ni22  1  0.826653  0.899808  0.675937  1
  Ni  Ni23  1  0.673347  0.899808  0.175937  1
  Sb  Sb24  1  0.459028  0.025863  0.086732  1
  Sb  Sb25  1  0.704383  0.503694  0.166008  1
  Sb  Sb26  1  0.815693  0.057314  0.250000  1
  Sb  Sb27  1  0.750000  0.496343  0.000000  1
  Sb  Sb28  1  0.555131  0.777299  0.750000  1
  Sb  Sb29  1  0.204383  0.496306  0.166008  1
  Sb  Sb30  1  0.250000  0.503657  0.000000  1
  Sb  Sb31  1  0.295617  0.496306  0.833992  1
  Sb  Sb32  1  0.795617  0.503694  0.666008  1
  Sb  Sb33  1  0.704383  0.503694  0.333992  1
  Sb  Sb34  1  0.444869  0.222701  0.250000  1
  Sb  Sb35  1  0.959028  0.974137  0.086732  1
  Sb  Sb36  1  0.526350  0.226485  0.584141  1
  Sb  Sb37  1  0.540972  0.974137  0.586732  1
  Sb  Sb38  1  0.026350  0.773515  0.915859  1
  Sb  Sb39  1  0.973650  0.226485  0.084141  1
  Sb  Sb40  1  0.526350  0.226485  0.915859  1
  Sb  Sb41  1  0.040972  0.025863  0.586732  1
  Sb  Sb42  1  0.959028  0.974137  0.413268  1
  Sb  Sb43  1  0.055131  0.222701  0.750000  1
  Sb  Sb44  1  0.473650  0.773515  0.415859  1
  Sb  Sb45  1  0.944869  0.777299  0.250000  1
  Sb  Sb46  1  0.684307  0.057314  0.750000  1
  Sb  Sb47  1  0.459028  0.025863  0.413268  1
  Sb  Sb48  1  0.973650  0.226485  0.415859  1
  Sb  Sb49  1  0.250000  0.503657  0.500000  1
  Sb  Sb50  1  0.750000  0.496343  0.500000  1
  Sb  Sb51  1  0.040972  0.025863  0.913268  1
  Sb  Sb52  1  0.026350  0.773515  0.584141  1
  Sb  Sb53  1  0.295617  0.496306  0.666008  1
  Sb  Sb54  1  0.184307  0.942686  0.750000  1
  Sb  Sb55  1  0.795617  0.503694  0.833992  1
  Sb  Sb56  1  0.204383  0.496306  0.333992  1
  Sb  Sb57  1  0.473650  0.773515  0.084141  1
  Sb  Sb58  1  0.540972  0.974137  0.913268  1
  Sb  Sb59  1  0.315693  0.942686  0.250000  1
