# generated using pymatgen
data_Na2Zr(WO4)3
_symmetry_space_group_name_H-M   'P 1'
_cell_length_a   5.11111059
_cell_length_b   5.11111105
_cell_length_c   19.51015413
_cell_angle_alpha   97.52656825
_cell_angle_beta   97.52656900
_cell_angle_gamma   89.99999435
_symmetry_Int_Tables_number   1
_chemical_formula_structural   Na2Zr(WO4)3
_chemical_formula_sum   'Na4 Zr2 W6 O24'
_cell_volume   500.85166685
_cell_formula_units_Z   2
loop_
 _symmetry_equiv_pos_site_id
 _symmetry_equiv_pos_as_xyz
  1  'x, y, z'
loop_
 _atom_site_type_symbol
 _atom_site_label
 _atom_site_symmetry_multiplicity
 _atom_site_fract_x
 _atom_site_fract_y
 _atom_site_fract_z
 _atom_site_occupancy
  Na  Na0  1  0.514303  0.514303  0.028606  1
  Na  Na1  1  0.323168  0.323168  0.646336  1
  Na  Na2  1  0.073168  0.573168  0.146336  1
  Na  Na3  1  0.264303  0.764303  0.528606  1
  Zr  Zr4  1  0.677735  0.677735  0.355470  1
  Zr  Zr5  1  0.427735  0.927735  0.855470  1
  W  W6  1  0.595422  0.095422  0.190845  1
  W  W7  1  0.845422  0.845422  0.690845  1
  W  W8  1  0.901233  0.401233  0.802466  1
  W  W9  1  0.995365  0.995365  0.990729  1
  W  W10  1  0.151233  0.151233  0.302466  1
  W  W11  1  0.745365  0.245365  0.490729  1
  O  O12  1  0.842572  0.382397  0.289302  1
  O  O13  1  0.695938  0.119235  0.940768  1
  O  O14  1  0.302382  0.292747  0.222834  1
  O  O15  1  0.680087  0.552382  0.722834  1
  O  O16  1  0.571534  0.945938  0.440768  1
  O  O17  1  0.579097  0.947039  0.633070  1
  O  O18  1  0.697039  0.303974  0.133070  1
  O  O19  1  0.869235  0.494830  0.440768  1
  O  O20  1  0.523365  0.406400  0.544567  1
  O  O21  1  0.888167  0.773365  0.044567  1
  O  O22  1  0.920452  0.930087  0.222834  1
  O  O23  1  0.042747  0.170452  0.722834  1
  O  O24  1  0.356152  0.410806  0.362632  1
  O  O25  1  0.701826  0.606152  0.862632  1
  O  O26  1  0.053974  0.686032  0.633070  1
  O  O27  1  0.436032  0.829097  0.133070  1
  O  O28  1  0.156400  0.271202  0.044567  1
  O  O29  1  0.656903  0.092572  0.789302  1
  O  O30  1  0.132397  0.696729  0.789302  1
  O  O31  1  0.021202  0.138167  0.544567  1
  O  O32  1  0.446729  0.906903  0.289302  1
  O  O33  1  0.160806  0.256480  0.862632  1
  O  O34  1  0.006480  0.951826  0.362632  1
  O  O35  1  0.244830  0.821534  0.940768  1
