# generated using pymatgen
data_Er3Si3O10F
_symmetry_space_group_name_H-M   'P 1'
_cell_length_a   7.34041164
_cell_length_b   10.40298030
_cell_length_c   11.17641994
_cell_angle_alpha   90.00000000
_cell_angle_beta   90.00000000
_cell_angle_gamma   97.31783333
_symmetry_Int_Tables_number   1
_chemical_formula_structural   Er3Si3O10F
_chemical_formula_sum   'Er12 Si12 O40 F4'
_cell_volume   846.50401446
_cell_formula_units_Z   4
loop_
 _symmetry_equiv_pos_site_id
 _symmetry_equiv_pos_as_xyz
  1  'x, y, z'
loop_
 _atom_site_type_symbol
 _atom_site_label
 _atom_site_symmetry_multiplicity
 _atom_site_fract_x
 _atom_site_fract_y
 _atom_site_fract_z
 _atom_site_occupancy
  Er  Er0  1  0.698092  0.503047  0.598231  1
  Er  Er1  1  0.801908  0.996953  0.098231  1
  Er  Er2  1  0.301908  0.496953  0.401769  1
  Er  Er3  1  0.198092  0.003047  0.901769  1
  Er  Er4  1  0.593774  0.188975  0.729314  1
  Er  Er5  1  0.906226  0.311025  0.229314  1
  Er  Er6  1  0.406226  0.811025  0.270686  1
  Er  Er7  1  0.093774  0.688975  0.770686  1
  Er  Er8  1  0.737392  0.482215  0.968644  1
  Er  Er9  1  0.762608  0.017785  0.468644  1
  Er  Er10  1  0.262608  0.517785  0.031356  1
  Er  Er11  1  0.237392  0.982215  0.531356  1
  F  F12  1  0.803230  0.559863  0.785190  1
  F  F13  1  0.696770  0.940137  0.285190  1
  F  F14  1  0.196770  0.440137  0.214810  1
  F  F15  1  0.303230  0.059863  0.714810  1
  Si  Si16  1  0.974863  0.259219  0.914066  1
  Si  Si17  1  0.525137  0.240781  0.414066  1
  Si  Si18  1  0.025137  0.740781  0.085934  1
  Si  Si19  1  0.474863  0.759219  0.585934  1
  Si  Si20  1  0.768111  0.890204  0.755591  1
  Si  Si21  1  0.731889  0.609796  0.255591  1
  Si  Si22  1  0.231889  0.109796  0.244409  1
  Si  Si23  1  0.268111  0.390204  0.744409  1
  Si  Si24  1  0.505721  0.791412  0.963512  1
  Si  Si25  1  0.994279  0.708588  0.463512  1
  Si  Si26  1  0.494279  0.208588  0.036488  1
  Si  Si27  1  0.005721  0.291412  0.536488  1
  O  O28  1  0.986768  0.636805  0.974480  1
  O  O29  1  0.513232  0.863195  0.474480  1
  O  O30  1  0.013232  0.363195  0.025520  1
  O  O31  1  0.486768  0.136805  0.525520  1
  O  O32  1  0.958640  0.106814  0.949629  1
  O  O33  1  0.541360  0.393186  0.449629  1
  O  O34  1  0.041360  0.893186  0.050371  1
  O  O35  1  0.458640  0.606814  0.550371  1
  O  O36  1  0.788549  0.303254  0.857007  1
  O  O37  1  0.711451  0.196746  0.357007  1
  O  O38  1  0.211451  0.696746  0.142993  1
  O  O39  1  0.288549  0.803254  0.642993  1
  O  O40  1  0.655286  0.768819  0.678069  1
  O  O41  1  0.844714  0.731181  0.178069  1
  O  O42  1  0.344714  0.231181  0.321931  1
  O  O43  1  0.155286  0.268819  0.821931  1
  O  O44  1  0.731080  0.018769  0.680730  1
  O  O45  1  0.768920  0.481231  0.180730  1
  O  O46  1  0.268920  0.981231  0.319270  1
  O  O47  1  0.231080  0.518769  0.819270  1
  O  O48  1  0.985955  0.879781  0.773583  1
  O  O49  1  0.514045  0.620219  0.273583  1
  O  O50  1  0.014045  0.120219  0.226417  1
  O  O51  1  0.485955  0.379781  0.726417  1
  O  O52  1  0.682352  0.877612  0.892902  1
  O  O53  1  0.817648  0.622388  0.392902  1
  O  O54  1  0.317648  0.122388  0.107098  1
  O  O55  1  0.182352  0.377612  0.607098  1
  O  O56  1  0.813252  0.308731  0.605072  1
  O  O57  1  0.686748  0.191269  0.105072  1
  O  O58  1  0.186748  0.691269  0.394928  1
  O  O59  1  0.313252  0.808731  0.894928  1
  O  O60  1  0.534028  0.637283  0.978824  1
  O  O61  1  0.965972  0.862717  0.478824  1
  O  O62  1  0.465972  0.362717  0.021176  1
  O  O63  1  0.034028  0.137283  0.521176  1
  O  O64  1  0.973753  0.628674  0.590645  1
  O  O65  1  0.526247  0.871326  0.090645  1
  O  O66  1  0.026247  0.371326  0.409355  1
  O  O67  1  0.473753  0.128674  0.909355  1
