# generated using pymatgen
data_AsH5C2(OF3)2
_symmetry_space_group_name_H-M   'P 1'
_cell_length_a   5.47966394
_cell_length_b   11.97950836
_cell_length_c   11.68789382
_cell_angle_alpha   90.00000000
_cell_angle_beta   95.36114510
_cell_angle_gamma   90.00000000
_symmetry_Int_Tables_number   1
_chemical_formula_structural   AsH5C2(OF3)2
_chemical_formula_sum   'As4 H20 C8 O8 F24'
_cell_volume   763.88012850
_cell_formula_units_Z   4
loop_
 _symmetry_equiv_pos_site_id
 _symmetry_equiv_pos_as_xyz
  1  'x, y, z'
loop_
 _atom_site_type_symbol
 _atom_site_label
 _atom_site_symmetry_multiplicity
 _atom_site_fract_x
 _atom_site_fract_y
 _atom_site_fract_z
 _atom_site_occupancy
  As  As0  1  0.117572  0.288801  0.570116  1
  As  As1  1  0.882428  0.711199  0.429884  1
  As  As2  1  0.117572  0.211199  0.070116  1
  As  As3  1  0.882428  0.788801  0.929884  1
  H  H4  1  0.299250  0.889805  0.225318  1
  H  H5  1  0.681356  0.364271  0.796520  1
  H  H6  1  0.700750  0.110195  0.774682  1
  H  H7  1  0.382886  0.091515  0.890466  1
  H  H8  1  0.182899  0.967530  0.604295  1
  H  H9  1  0.407939  0.871095  0.558381  1
  H  H10  1  0.592061  0.371095  0.941619  1
  H  H11  1  0.617114  0.591515  0.609534  1
  H  H12  1  0.617114  0.908485  0.109534  1
  H  H13  1  0.318644  0.864271  0.703480  1
  H  H14  1  0.592061  0.128905  0.441619  1
  H  H15  1  0.299250  0.610195  0.725318  1
  H  H16  1  0.817101  0.032470  0.395705  1
  H  H17  1  0.382886  0.408485  0.390466  1
  H  H18  1  0.700750  0.389805  0.274682  1
  H  H19  1  0.182899  0.532470  0.104295  1
  H  H20  1  0.407939  0.628905  0.058381  1
  H  H21  1  0.681356  0.135729  0.296520  1
  H  H22  1  0.817101  0.467530  0.895705  1
  H  H23  1  0.318644  0.635729  0.203480  1
  C  C24  1  0.653546  0.418015  0.869767  1
  C  C25  1  0.653546  0.081985  0.369767  1
  C  C26  1  0.547111  0.052768  0.755284  1
  C  C27  1  0.346454  0.918015  0.630233  1
  C  C28  1  0.346454  0.581985  0.130233  1
  C  C29  1  0.452889  0.947232  0.244716  1
  C  C30  1  0.547111  0.447232  0.255284  1
  C  C31  1  0.452889  0.552768  0.744716  1
  O  O32  1  0.626806  0.541121  0.680316  1
  O  O33  1  0.626806  0.958879  0.180316  1
  O  O34  1  0.449962  0.003728  0.337367  1
  O  O35  1  0.550038  0.503728  0.162633  1
  O  O36  1  0.550038  0.996272  0.662633  1
  O  O37  1  0.449962  0.496272  0.837367  1
  O  O38  1  0.373194  0.041121  0.819684  1
  O  O39  1  0.373194  0.458879  0.319684  1
  F  F40  1  0.173593  0.153839  0.516983  1
  F  F41  1  0.323513  0.239012  0.192743  1
  F  F42  1  0.379636  0.160625  -0.001738  1
  F  F43  1  0.620364  0.839375  1.001738  1
  F  F44  1  0.868610  0.261497  0.140317  1
  F  F45  1  0.868610  0.238503  0.640317  1
  F  F46  1  0.131390  0.738503  0.859683  1
  F  F47  1  0.923145  0.925586  0.879434  1
  F  F48  1  0.925602  0.318239  0.443618  1
  F  F49  1  0.173593  0.346161  0.016983  1
  F  F50  1  0.676487  0.760988  0.807257  1
  F  F51  1  0.676487  0.739012  0.307257  1
  F  F52  1  0.074398  0.681761  0.556382  1
  F  F53  1  0.923145  0.574414  0.379434  1
  F  F54  1  0.826407  0.653839  0.983017  1
  F  F55  1  0.076855  0.074414  0.120566  1
  F  F56  1  0.826407  0.846161  0.483017  1
  F  F57  1  0.925602  0.181761  0.943618  1
  F  F58  1  0.076855  0.425586  0.620566  1
  F  F59  1  0.379636  0.339375  0.498262  1
  F  F60  1  0.131390  0.761497  0.359683  1
  F  F61  1  0.620364  0.660625  0.501738  1
  F  F62  1  0.323513  0.260988  0.692743  1
  F  F63  1  0.074398  0.818239  0.056382  1
