# generated using pymatgen
data_V6O13
_symmetry_space_group_name_H-M   'P 1'
_cell_length_a   3.76531159
_cell_length_b   11.71056260
_cell_length_c   11.71056294
_cell_angle_alpha   118.23836225
_cell_angle_beta   90.00000000
_cell_angle_gamma   90.00000000
_symmetry_Int_Tables_number   1
_chemical_formula_structural   V6O13
_chemical_formula_sum   'V12 O26'
_cell_volume   454.91041930
_cell_formula_units_Z   2
loop_
 _symmetry_equiv_pos_site_id
 _symmetry_equiv_pos_as_xyz
  1  'x, y, z'
loop_
 _atom_site_type_symbol
 _atom_site_label
 _atom_site_symmetry_multiplicity
 _atom_site_fract_x
 _atom_site_fract_y
 _atom_site_fract_z
 _atom_site_occupancy
  V  V0  1  0.750000  0.714811  0.580797  1
  V  V1  1  0.250000  0.580797  0.714811  1
  V  V2  1  0.250000  0.399363  0.899363  1
  V  V3  1  0.750000  0.600637  0.100637  1
  V  V4  1  0.750000  0.899363  0.399363  1
  V  V5  1  0.250000  0.214811  0.080797  1
  V  V6  1  0.250000  0.100637  0.600637  1
  V  V7  1  0.750000  0.785189  0.919203  1
  V  V8  1  0.250000  0.285189  0.419203  1
  V  V9  1  0.750000  0.080797  0.214811  1
  V  V10  1  0.250000  0.919203  0.785189  1
  V  V11  1  0.750000  0.419203  0.285189  1
  O  O12  1  0.250000  0.501311  0.802932  1
  O  O13  1  0.250000  0.302932  1.001311  1
  O  O14  1  0.750000  1.001311  0.302932  1
  O  O15  1  0.750000  0.070253  0.570253  1
  O  O16  1  0.750000  0.274694  0.370248  1
  O  O17  1  0.750000  0.429747  0.929747  1
  O  O18  1  0.750000  0.802932  0.501311  1
  O  O19  1  0.250000  0.774694  0.870248  1
  O  O20  1  0.250000  0.129752  0.225306  1
  O  O21  1  0.750000  0.629752  0.725306  1
  O  O22  1  0.750000  0.225306  0.129752  1
  O  O23  1  0.250000  0.447686  0.552314  1
  O  O24  1  0.750000  0.870248  0.774694  1
  O  O25  1  0.250000  0.250000  0.750000  1
  O  O26  1  0.250000  0.725306  0.629752  1
  O  O27  1  0.750000  0.498689  0.197068  1
  O  O28  1  0.250000  0.570253  0.070253  1
  O  O29  1  0.250000  0.929747  0.429747  1
  O  O30  1  0.250000  0.370248  0.274694  1
  O  O31  1  0.250000  0.052314  0.947686  1
  O  O32  1  0.750000  0.750000  0.250000  1
  O  O33  1  0.750000  0.552314  0.447686  1
  O  O34  1  0.750000  0.697068  -0.001311  1
  O  O35  1  0.750000  0.947686  0.052314  1
  O  O36  1  0.250000  -0.001311  0.697068  1
  O  O37  1  0.250000  0.197068  0.498689  1
