# generated using pymatgen
data_K5Tl3O
_symmetry_space_group_name_H-M   'P 1'
_cell_length_a   8.48478639
_cell_length_b   8.97190403
_cell_length_c   17.32240069
_cell_angle_alpha   90.00000000
_cell_angle_beta   104.16594592
_cell_angle_gamma   90.00000000
_symmetry_Int_Tables_number   1
_chemical_formula_structural   K5Tl3O
_chemical_formula_sum   'K20 Tl12 O4'
_cell_volume   1278.56313698
_cell_formula_units_Z   4
loop_
 _symmetry_equiv_pos_site_id
 _symmetry_equiv_pos_as_xyz
  1  'x, y, z'
loop_
 _atom_site_type_symbol
 _atom_site_label
 _atom_site_symmetry_multiplicity
 _atom_site_fract_x
 _atom_site_fract_y
 _atom_site_fract_z
 _atom_site_occupancy
  K  K0  1  0.044415  0.250000  0.535245  1
  K  K1  1  0.319724  0.532570  0.639533  1
  K  K2  1  0.549422  0.467602  0.100134  1
  K  K3  1  0.509067  0.750000  0.464734  1
  K  K4  1  0.124535  0.250000  0.745921  1
  K  K5  1  0.196235  0.250000  0.986219  1
  K  K6  1  0.549422  0.032398  0.100134  1
  K  K7  1  0.803765  0.750000  0.013781  1
  K  K8  1  0.450578  0.532398  0.899866  1
  K  K9  1  0.680276  0.467430  0.360467  1
  K  K10  1  0.955585  0.750000  0.464755  1
  K  K11  1  0.490933  0.250000  0.535266  1
  K  K12  1  0.680276  0.032570  0.360467  1
  K  K13  1  0.621633  0.250000  0.745875  1
  K  K14  1  0.450578  0.967602  0.899866  1
  K  K15  1  0.378367  0.750000  0.254125  1
  K  K16  1  0.875465  0.750000  0.254079  1
  K  K17  1  0.319724  0.967430  0.639533  1
  K  K18  1  0.789775  0.250000  0.986441  1
  K  K19  1  0.210225  0.750000  0.013559  1
  Tl  Tl20  1  0.184568  0.054979  0.369147  1
  Tl  Tl21  1  0.923908  0.962897  0.847932  1
  Tl  Tl22  1  0.338052  0.250000  0.251601  1
  Tl  Tl23  1  0.661948  0.750000  0.748399  1
  Tl  Tl24  1  0.913500  0.250000  0.251561  1
  Tl  Tl25  1  0.076092  0.037103  0.152068  1
  Tl  Tl26  1  0.923908  0.537103  0.847932  1
  Tl  Tl27  1  0.815432  0.554979  0.630853  1
  Tl  Tl28  1  0.086500  0.750000  0.748439  1
  Tl  Tl29  1  0.815432  0.945021  0.630853  1
  Tl  Tl30  1  0.184568  0.445021  0.369147  1
  Tl  Tl31  1  0.076092  0.462897  0.152068  1
  O  O32  1  0.487680  0.250000  0.975519  1
  O  O33  1  0.512320  0.750000  0.024481  1
  O  O34  1  0.324497  0.250000  0.649047  1
  O  O35  1  0.675503  0.750000  0.350953  1
