# generated using pymatgen
data_TmB4
_symmetry_space_group_name_H-M   'P 1'
_cell_length_a   3.98380974
_cell_length_b   7.05293207
_cell_length_c   7.05293207
_cell_angle_alpha   90.00000000
_cell_angle_beta   90.00000000
_cell_angle_gamma   90.00000000
_symmetry_Int_Tables_number   1
_chemical_formula_structural   TmB4
_chemical_formula_sum   'Tm4 B16'
_cell_volume   198.17003726
_cell_formula_units_Z   4
loop_
 _symmetry_equiv_pos_site_id
 _symmetry_equiv_pos_as_xyz
  1  'x, y, z'
loop_
 _atom_site_type_symbol
 _atom_site_label
 _atom_site_symmetry_multiplicity
 _atom_site_fract_x
 _atom_site_fract_y
 _atom_site_fract_z
 _atom_site_occupancy
  Tm  Tm0  1  -0.000000  0.683931  0.183931  1
  Tm  Tm1  1  0.000000  0.316069  0.816069  1
  Tm  Tm2  1  0.000000  0.816069  0.683931  1
  Tm  Tm3  1  -0.000000  0.183931  0.316069  1
  B  B4  1  0.500000  0.413413  0.086587  1
  B  B5  1  0.796901  0.500000  0.500000  1
  B  B6  1  0.500000  0.823129  0.961422  1
  B  B7  1  0.500000  0.538578  0.676871  1
  B  B8  1  0.203099  0.500000  0.500000  1
  B  B9  1  0.500000  0.461422  0.323130  1
  B  B10  1  0.203099  -0.000000  0.000000  1
  B  B11  1  0.500000  0.176871  0.038578  1
  B  B12  1  0.500000  0.323130  0.538578  1
  B  B13  1  0.500000  0.038578  0.823129  1
  B  B14  1  0.500000  0.086587  0.586587  1
  B  B15  1  0.500000  0.676871  0.461422  1
  B  B16  1  0.500000  0.913413  0.413413  1
  B  B17  1  0.500000  0.586587  0.913413  1
  B  B18  1  0.500000  0.961422  0.176871  1
  B  B19  1  0.796901  -0.000000  0.000000  1
