# generated using pymatgen
data_CsPr9Nb(Br5N2)3
_symmetry_space_group_name_H-M   'P 1'
_cell_length_a   12.46944189
_cell_length_b   12.46944225
_cell_length_c   13.86577028
_cell_angle_alpha   90.00000000
_cell_angle_beta   90.00000000
_cell_angle_gamma   119.99999905
_symmetry_Int_Tables_number   1
_chemical_formula_structural   CsPr9Nb(Br5N2)3
_chemical_formula_sum   'Cs2 Pr18 Nb2 Br30 N12'
_cell_volume   1867.10473529
_cell_formula_units_Z   2
loop_
 _symmetry_equiv_pos_site_id
 _symmetry_equiv_pos_as_xyz
  1  'x, y, z'
loop_
 _atom_site_type_symbol
 _atom_site_label
 _atom_site_symmetry_multiplicity
 _atom_site_fract_x
 _atom_site_fract_y
 _atom_site_fract_z
 _atom_site_occupancy
  Cs  Cs0  1  0.000000  0.000000  0.250000  1
  Cs  Cs1  1  0.000000  0.000000  0.750000  1
  Pr  Pr2  1  0.975304  0.417921  0.250000  1
  Pr  Pr3  1  0.722430  0.184166  0.065069  1
  Pr  Pr4  1  0.184166  0.461736  0.565069  1
  Pr  Pr5  1  0.815834  0.538264  0.434931  1
  Pr  Pr6  1  0.277570  0.815834  0.934931  1
  Pr  Pr7  1  0.582079  0.557383  0.250000  1
  Pr  Pr8  1  0.538264  0.722430  0.934931  1
  Pr  Pr9  1  0.538264  0.722430  0.565069  1
  Pr  Pr10  1  0.815834  0.538264  0.065069  1
  Pr  Pr11  1  0.277570  0.815834  0.565069  1
  Pr  Pr12  1  0.461736  0.277570  0.434931  1
  Pr  Pr13  1  0.184166  0.461736  0.934931  1
  Pr  Pr14  1  0.442617  0.024696  0.250000  1
  Pr  Pr15  1  0.557383  0.975304  0.750000  1
  Pr  Pr16  1  0.461736  0.277570  0.065069  1
  Pr  Pr17  1  0.024696  0.582079  0.750000  1
  Pr  Pr18  1  0.417921  0.442617  0.750000  1
  Pr  Pr19  1  0.722430  0.184166  0.434931  1
  Nb  Nb20  1  0.666667  0.333333  0.250000  1
  Nb  Nb21  1  0.333333  0.666667  0.750000  1
  Br  Br22  1  0.136121  0.612315  0.091612  1
  Br  Br23  1  0.057054  0.327109  0.750000  1
  Br  Br24  1  0.863879  0.387685  0.591612  1
  Br  Br25  1  0.755256  0.011468  0.595840  1
  Br  Br26  1  0.672891  0.729944  0.750000  1
  Br  Br27  1  0.011468  0.256213  0.095840  1
  Br  Br28  1  0.988532  0.743787  0.904160  1
  Br  Br29  1  0.612315  0.476194  0.591612  1
  Br  Br30  1  0.729944  0.057054  0.250000  1
  Br  Br31  1  0.327109  0.270056  0.250000  1
  Br  Br32  1  0.863879  0.387685  0.908388  1
  Br  Br33  1  0.988532  0.743787  0.595840  1
  Br  Br34  1  0.387685  0.523806  0.091612  1
  Br  Br35  1  0.270056  0.942946  0.750000  1
  Br  Br36  1  0.136121  0.612315  0.408388  1
  Br  Br37  1  0.942946  0.672891  0.250000  1
  Br  Br38  1  0.244744  0.988532  0.095840  1
  Br  Br39  1  0.011468  0.256213  0.404160  1
  Br  Br40  1  0.256213  0.244744  0.595840  1
  Br  Br41  1  0.523806  0.136121  0.591612  1
  Br  Br42  1  0.612315  0.476194  0.908388  1
  Br  Br43  1  0.743787  0.755256  0.095840  1
  Br  Br44  1  0.244744  0.988532  0.404160  1
  Br  Br45  1  0.387685  0.523806  0.408388  1
  Br  Br46  1  0.476194  0.863879  0.091612  1
  Br  Br47  1  0.755256  0.011468  0.904160  1
  Br  Br48  1  0.256213  0.244744  0.904160  1
  Br  Br49  1  0.476194  0.863879  0.408388  1
  Br  Br50  1  0.743787  0.755256  0.404160  1
  Br  Br51  1  0.523806  0.136121  0.908388  1
  N  N52  1  0.372676  0.560439  0.851169  1
  N  N53  1  0.372676  0.560439  0.648831  1
  N  N54  1  0.439561  0.812236  0.851169  1
  N  N55  1  0.812236  0.372676  0.351169  1
  N  N56  1  0.560439  0.187764  0.351169  1
  N  N57  1  0.560439  0.187764  0.148831  1
  N  N58  1  0.187764  0.627324  0.851169  1
  N  N59  1  0.627324  0.439561  0.351169  1
  N  N60  1  0.812236  0.372676  0.148831  1
  N  N61  1  0.187764  0.627324  0.648831  1
  N  N62  1  0.627324  0.439561  0.148831  1
  N  N63  1  0.439561  0.812236  0.648831  1
