# generated using pymatgen
data_CeTmS3
_symmetry_space_group_name_H-M   'P 1'
_cell_length_a   3.92729890
_cell_length_b   10.95439890
_cell_length_c   21.45927396
_cell_angle_alpha   101.56839416
_cell_angle_beta   90.00000000
_cell_angle_gamma   90.00000000
_symmetry_Int_Tables_number   1
_chemical_formula_structural   CeTmS3
_chemical_formula_sum   'Ce8 Tm8 S24'
_cell_volume   904.44974936
_cell_formula_units_Z   8
loop_
 _symmetry_equiv_pos_site_id
 _symmetry_equiv_pos_as_xyz
  1  'x, y, z'
loop_
 _atom_site_type_symbol
 _atom_site_label
 _atom_site_symmetry_multiplicity
 _atom_site_fract_x
 _atom_site_fract_y
 _atom_site_fract_z
 _atom_site_occupancy
  Ce  Ce0  1  0.250000  0.700524  0.537894  1
  Ce  Ce1  1  0.250000  0.806656  0.732255  1
  Ce  Ce2  1  0.750000  0.407907  0.136573  1
  Ce  Ce3  1  0.750000  0.193344  0.267745  1
  Ce  Ce4  1  0.750000  0.299476  0.462106  1
  Ce  Ce5  1  0.250000  0.195738  0.766340  1
  Ce  Ce6  1  0.750000  0.804262  0.233660  1
  Ce  Ce7  1  0.250000  0.592093  0.863427  1
  Tm  Tm8  1  0.250000  0.677897  0.046403  1
  Tm  Tm9  1  0.750000  0.053825  0.582250  1
  Tm  Tm10  1  0.250000  0.529919  0.352228  1
  Tm  Tm11  1  0.750000  0.977556  0.911769  1
  Tm  Tm12  1  0.750000  0.322103  0.953597  1
  Tm  Tm13  1  0.750000  0.470081  0.647772  1
  Tm  Tm14  1  0.250000  0.022444  0.088231  1
  Tm  Tm15  1  0.250000  0.946175  0.417750  1
  S  S16  1  0.750000  0.706401  0.635200  1
  S  S17  1  0.250000  0.538214  0.729463  1
  S  S18  1  0.250000  0.952336  0.634237  1
  S  S19  1  0.250000  0.862860  0.964210  1
  S  S20  1  0.250000  0.624802  0.164336  1
  S  S21  1  0.250000  0.442088  0.555623  1
  S  S22  1  0.250000  0.994329  0.221900  1
  S  S23  1  0.250000  0.157519  0.900402  1
  S  S24  1  0.250000  0.145548  0.514377  1
  S  S25  1  0.750000  0.585696  0.962260  1
  S  S26  1  0.750000  0.375198  0.835664  1
  S  S27  1  0.750000  0.047664  0.365763  1
  S  S28  1  0.750000  0.137140  0.035790  1
  S  S29  1  0.750000  0.557912  0.444377  1
  S  S30  1  0.750000  0.842481  0.099598  1
  S  S31  1  0.750000  0.854452  0.485623  1
  S  S32  1  0.750000  0.005671  0.778100  1
  S  S33  1  0.750000  0.461786  0.270537  1
  S  S34  1  0.250000  0.248036  0.174767  1
  S  S35  1  0.250000  0.293599  0.364800  1
  S  S36  1  0.750000  0.751964  0.825233  1
  S  S37  1  0.250000  0.414304  0.037740  1
  S  S38  1  0.250000  0.754380  0.322997  1
  S  S39  1  0.750000  0.245620  0.677003  1
