# generated using pymatgen
data_Hg6Cl3O2
_symmetry_space_group_name_H-M   'P 1'
_cell_length_a   14.16764563
_cell_length_b   14.16764572
_cell_length_c   14.16764557
_cell_angle_alpha   109.47121894
_cell_angle_beta   109.47121903
_cell_angle_gamma   109.47122427
_symmetry_Int_Tables_number   1
_chemical_formula_structural   Hg6Cl3O2
_chemical_formula_sum   'Hg48 Cl24 O16'
_cell_volume   2189.12804510
_cell_formula_units_Z   8
loop_
 _symmetry_equiv_pos_site_id
 _symmetry_equiv_pos_as_xyz
  1  'x, y, z'
loop_
 _atom_site_type_symbol
 _atom_site_label
 _atom_site_symmetry_multiplicity
 _atom_site_fract_x
 _atom_site_fract_y
 _atom_site_fract_z
 _atom_site_occupancy
  Hg  Hg0  1  0.002224  0.182215  0.660285  1
  Hg  Hg1  1  0.660285  0.158061  0.478070  1
  Hg  Hg2  1  0.158061  0.478070  0.660285  1
  Hg  Hg3  1  0.817785  0.339715  0.997776  1
  Hg  Hg4  1  0.317785  0.320009  0.478070  1
  Hg  Hg5  1  0.682215  0.679991  0.521930  1
  Hg  Hg6  1  0.320009  0.341939  0.002224  1
  Hg  Hg7  1  0.679991  0.521930  0.682215  1
  Hg  Hg8  1  0.841939  0.820009  0.502224  1
  Hg  Hg9  1  0.497776  0.839715  0.317785  1
  Hg  Hg10  1  0.820009  0.817785  0.978070  1
  Hg  Hg11  1  0.660285  0.002224  0.182215  1
  Hg  Hg12  1  0.478070  0.317785  0.320009  1
  Hg  Hg13  1  0.497776  0.158061  0.179991  1
  Hg  Hg14  1  0.679991  0.658061  0.997776  1
  Hg  Hg15  1  0.978070  0.658061  0.160285  1
  Hg  Hg16  1  0.179991  0.497776  0.158061  1
  Hg  Hg17  1  0.160285  0.978070  0.658061  1
  Hg  Hg18  1  0.320009  0.478070  0.317785  1
  Hg  Hg19  1  0.841939  0.521930  0.339715  1
  Hg  Hg20  1  0.521930  0.682215  0.679991  1
  Hg  Hg21  1  0.820009  0.502224  0.841939  1
  Hg  Hg22  1  0.978070  0.820009  0.817785  1
  Hg  Hg23  1  0.341939  0.839715  0.021930  1
  Hg  Hg24  1  0.658061  0.997776  0.679991  1
  Hg  Hg25  1  0.502224  0.160285  0.682215  1
  Hg  Hg26  1  0.158061  0.179991  0.497776  1
  Hg  Hg27  1  0.021930  0.341939  0.839715  1
  Hg  Hg28  1  0.839715  0.021930  0.341939  1
  Hg  Hg29  1  0.339715  0.997776  0.817785  1
  Hg  Hg30  1  0.182215  0.660285  0.002224  1
  Hg  Hg31  1  0.839715  0.317785  0.497776  1
  Hg  Hg32  1  0.502224  0.841939  0.820009  1
  Hg  Hg33  1  0.179991  0.182215  0.021930  1
  Hg  Hg34  1  0.521930  0.339715  0.841939  1
  Hg  Hg35  1  0.658061  0.160285  0.978070  1
  Hg  Hg36  1  0.160285  0.682215  0.502224  1
  Hg  Hg37  1  0.682215  0.502224  0.160285  1
  Hg  Hg38  1  0.182215  0.021930  0.179991  1
  Hg  Hg39  1  0.317785  0.497776  0.839715  1
  Hg  Hg40  1  0.997776  0.679991  0.658061  1
  Hg  Hg41  1  0.021930  0.179991  0.182215  1
  Hg  Hg42  1  0.817785  0.978070  0.820009  1
  Hg  Hg43  1  0.002224  0.320009  0.341939  1
  Hg  Hg44  1  0.341939  0.002224  0.320009  1
  Hg  Hg45  1  0.997776  0.817785  0.339715  1
  Hg  Hg46  1  0.478070  0.660285  0.158061  1
  Hg  Hg47  1  0.339715  0.841939  0.521930  1
  Cl  Cl48  1  0.263149  0.236851  0.750000  1
  Cl  Cl49  1  0.763149  0.250000  0.736851  1
  Cl  Cl50  1  0.526299  0.513149  0.263149  1
  Cl  Cl51  1  0.736851  0.473701  0.486851  1
  Cl  Cl52  1  0.986851  0.513149  0.750000  1
  Cl  Cl53  1  0.513149  0.750000  0.986851  1
  Cl  Cl54  1  0.473701  0.486851  0.736851  1
  Cl  Cl55  1  0.236851  0.986851  0.973701  1
  Cl  Cl56  1  0.973701  0.236851  0.986851  1
  Cl  Cl57  1  0.013149  0.026299  0.763149  1
  Cl  Cl58  1  0.750000  0.263149  0.236851  1
  Cl  Cl59  1  0.013149  0.486851  0.250000  1
  Cl  Cl60  1  0.750000  0.986851  0.513149  1
  Cl  Cl61  1  0.763149  0.013149  0.026299  1
  Cl  Cl62  1  0.250000  0.736851  0.763149  1
  Cl  Cl63  1  0.026299  0.763149  0.013149  1
  Cl  Cl64  1  0.263149  0.526299  0.513149  1
  Cl  Cl65  1  0.736851  0.763149  0.250000  1
  Cl  Cl66  1  0.250000  0.013149  0.486851  1
  Cl  Cl67  1  0.236851  0.750000  0.263149  1
  Cl  Cl68  1  0.986851  0.973701  0.236851  1
  Cl  Cl69  1  0.486851  0.736851  0.473701  1
  Cl  Cl70  1  0.486851  0.250000  0.013149  1
  Cl  Cl71  1  0.513149  0.263149  0.526299  1
  O  O72  1  1.000000  0.596907  0.500000  1
  O  O73  1  0.000000  0.403093  0.500000  1
  O  O74  1  0.903093  0.500000  0.000000  1
  O  O75  1  0.096907  0.500000  1.000000  1
  O  O76  1  0.500000  1.000000  0.403093  1
  O  O77  1  0.096907  0.096907  0.096907  1
  O  O78  1  0.500000  0.000000  0.596907  1
  O  O79  1  0.000000  0.903093  0.500000  1
  O  O80  1  0.500000  0.000000  0.096907  1
  O  O81  1  0.403093  0.403093  0.403093  1
  O  O82  1  1.000000  0.096907  0.500000  1
  O  O83  1  0.903093  0.903093  0.903093  1
  O  O84  1  0.596907  0.500000  1.000000  1
  O  O85  1  0.596907  0.596907  0.596907  1
  O  O86  1  0.403093  0.500000  0.000000  1
  O  O87  1  0.500000  1.000000  0.903093  1
