# generated using pymatgen
data_UAg2(WO5)2
_symmetry_space_group_name_H-M   'P 1'
_cell_length_a   7.67739644
_cell_length_b   8.78842969
_cell_length_c   12.77858627
_cell_angle_alpha   90.00000000
_cell_angle_beta   90.00000000
_cell_angle_gamma   90.00000000
_symmetry_Int_Tables_number   1
_chemical_formula_structural   UAg2(WO5)2
_chemical_formula_sum   'U4 Ag8 W8 O40'
_cell_volume   862.20008010
_cell_formula_units_Z   4
loop_
 _symmetry_equiv_pos_site_id
 _symmetry_equiv_pos_as_xyz
  1  'x, y, z'
loop_
 _atom_site_type_symbol
 _atom_site_label
 _atom_site_symmetry_multiplicity
 _atom_site_fract_x
 _atom_site_fract_y
 _atom_site_fract_z
 _atom_site_occupancy
  U  U0  1  0.750000  0.524681  0.499949  1
  U  U1  1  0.250000  0.475319  0.500051  1
  U  U2  1  0.750000  0.024681  0.000051  1
  U  U3  1  0.250000  0.975319  0.999949  1
  Ag  Ag4  1  0.750000  0.327955  0.794773  1
  Ag  Ag5  1  0.750000  0.689832  0.191393  1
  Ag  Ag6  1  0.250000  0.810168  0.691393  1
  Ag  Ag7  1  0.250000  0.310168  0.808607  1
  Ag  Ag8  1  0.750000  0.189832  0.308607  1
  Ag  Ag9  1  0.750000  0.827955  0.705227  1
  Ag  Ag10  1  0.250000  0.672045  0.205227  1
  Ag  Ag11  1  0.250000  0.172045  0.294773  1
  W  W12  1  0.499837  0.350165  0.076335  1
  W  W13  1  0.500163  0.149835  0.576335  1
  W  W14  1  0.499837  0.850165  0.423665  1
  W  W15  1  0.999837  0.149835  0.576335  1
  W  W16  1  0.500163  0.649835  0.923665  1
  W  W17  1  0.000163  0.850165  0.423665  1
  W  W18  1  0.000163  0.350165  0.076335  1
  W  W19  1  0.999837  0.649835  0.923665  1
  O  O20  1  0.250000  0.497076  0.642445  1
  O  O21  1  0.250000  0.862747  0.424003  1
  O  O22  1  0.750000  0.543834  0.643806  1
  O  O23  1  0.250000  0.997076  0.857555  1
  O  O24  1  0.750000  0.502924  0.357555  1
  O  O25  1  0.487050  0.209582  0.710292  1
  O  O26  1  0.750000  0.043834  0.856194  1
  O  O27  1  0.512950  0.790418  0.289708  1
  O  O28  1  0.987050  0.790418  0.289708  1
  O  O29  1  0.524747  0.351760  0.509500  1
  O  O30  1  0.250000  0.956166  0.143806  1
  O  O31  1  0.487050  0.709582  0.789708  1
  O  O32  1  0.024747  0.648240  0.490500  1
  O  O33  1  0.012950  0.209582  0.710292  1
  O  O34  1  0.024747  0.148240  0.009500  1
  O  O35  1  0.475253  0.148240  0.009500  1
  O  O36  1  0.012950  0.709582  0.789708  1
  O  O37  1  0.476732  0.934486  0.588760  1
  O  O38  1  0.750000  0.637253  0.924003  1
  O  O39  1  0.250000  0.362747  0.075997  1
  O  O40  1  0.023268  0.434486  0.911240  1
  O  O41  1  0.023268  0.934486  0.588760  1
  O  O42  1  0.750000  0.813322  0.456091  1
  O  O43  1  0.975253  0.351760  0.509500  1
  O  O44  1  0.976732  0.065514  0.411240  1
  O  O45  1  0.750000  0.313322  0.043909  1
  O  O46  1  0.250000  0.686678  0.956091  1
  O  O47  1  0.524747  0.851760  0.990500  1
  O  O48  1  0.250000  0.456166  0.356194  1
  O  O49  1  0.750000  0.137253  0.575997  1
  O  O50  1  0.523268  0.565514  0.088760  1
  O  O51  1  0.750000  0.002924  0.142445  1
  O  O52  1  0.523268  0.065514  0.411240  1
  O  O53  1  0.976732  0.565514  0.088760  1
  O  O54  1  0.987050  0.290418  0.210292  1
  O  O55  1  0.512950  0.290418  0.210292  1
  O  O56  1  0.476732  0.434486  0.911240  1
  O  O57  1  0.975253  0.851760  0.990500  1
  O  O58  1  0.475253  0.648240  0.490500  1
  O  O59  1  0.250000  0.186678  0.543909  1
