# generated using pymatgen
data_Ba2H14C4O15
_symmetry_space_group_name_H-M   'P 1'
_cell_length_a   7.85295923
_cell_length_b   7.81439044
_cell_length_c   14.39483264
_cell_angle_alpha   79.45844271
_cell_angle_beta   74.17678667
_cell_angle_gamma   59.83336478
_symmetry_Int_Tables_number   1
_chemical_formula_structural   Ba2H14C4O15
_chemical_formula_sum   'Ba4 H28 C8 O30'
_cell_volume   733.65968593
_cell_formula_units_Z   2
loop_
 _symmetry_equiv_pos_site_id
 _symmetry_equiv_pos_as_xyz
  1  'x, y, z'
loop_
 _atom_site_type_symbol
 _atom_site_label
 _atom_site_symmetry_multiplicity
 _atom_site_fract_x
 _atom_site_fract_y
 _atom_site_fract_z
 _atom_site_occupancy
  Ba  Ba0  1  0.622201  0.916890  0.719036  1
  Ba  Ba1  1  0.258121  0.583119  0.780950  1
  Ba  Ba2  1  0.377799  0.083110  0.280964  1
  Ba  Ba3  1  0.741879  0.416881  0.219050  1
  C  C4  1  0.958987  0.777533  0.476881  1
  C  C5  1  0.213402  0.722490  0.023028  1
  C  C6  1  0.041013  0.222467  0.523119  1
  C  C7  1  0.786598  0.277510  0.976972  1
  C  C8  1  0.097849  0.629221  0.546557  1
  C  C9  1  0.273568  0.870805  0.953400  1
  C  C10  1  0.902151  0.370779  0.453443  1
  C  C11  1  0.726432  0.129195  0.046600  1
  O  O12  1  0.789482  0.914407  0.514111  1
  O  O13  1  0.218081  0.585558  0.985799  1
  O  O14  1  0.210518  0.085593  0.485889  1
  O  O15  1  0.781919  0.414442  0.014201  1
  O  O16  1  0.028686  0.752292  0.386443  1
  O  O17  1  0.167330  0.747721  0.113486  1
  O  O18  1  0.971314  0.247708  0.613557  1
  O  O19  1  0.832670  0.252279  0.886514  1
  O  O20  1  0.030783  0.654139  0.636046  1
  O  O21  1  0.320872  0.845942  0.863888  1
  O  O22  1  0.969217  0.345861  0.363954  1
  O  O23  1  0.679128  0.154058  0.136112  1
  O  O24  1  0.271568  0.495865  0.507841  1
  O  O25  1  0.275260  0.004105  0.992138  1
  O  O26  1  0.728432  0.504135  0.492159  1
  O  O27  1  0.724740  0.995895  0.007862  1
  O  O28  1  0.414270  0.809812  0.617741  1
  O  O29  1  0.841791  0.690226  0.882264  1
  O  O30  1  0.585730  0.190188  0.382259  1
  O  O31  1  0.158209  0.309774  0.117736  1
  O  O32  1  0.468062  0.186726  0.869030  1
  O  O33  1  0.523858  0.313186  0.630992  1
  O  O34  1  0.531938  0.813274  0.130970  1
  O  O35  1  0.476142  0.686814  0.369008  1
  O  O36  1  0.936156  0.979896  0.757346  1
  O  O37  1  0.673353  0.520204  0.742677  1
  O  O38  1  0.063844  0.020104  0.242654  1
  O  O39  1  0.326647  0.479796  0.257323  1
  O  O40  1  0.192767  0.250030  0.749995  1
  O  O41  1  0.807233  0.749970  0.250005  1
  H  H42  1  0.336029  0.913749  0.571484  1
  H  H43  1  0.821241  0.586316  0.928530  1
  H  H44  1  0.663971  0.086251  0.428516  1
  H  H45  1  0.178759  0.413684  0.071470  1
  H  H46  1  0.528827  0.707039  0.576267  1
  H  H47  1  0.812144  0.792989  0.923735  1
  H  H48  1  0.471173  0.292961  0.423733  1
  H  H49  1  0.187856  0.207011  0.076265  1
  H  H50  1  0.384873  0.128887  0.914177  1
  H  H51  1  0.427997  0.371080  0.585823  1
  H  H52  1  0.615127  0.871113  0.085823  1
  H  H53  1  0.572003  0.628920  0.414177  1
  H  H54  1  0.573094  0.155002  0.903811  1
  H  H55  1  0.631976  0.344875  0.596257  1
  H  H56  1  0.426906  0.844998  0.096189  1
  H  H57  1  0.368024  0.655125  0.403743  1
  H  H58  1  0.970706  0.059545  0.700827  1
  H  H59  1  0.731054  0.440560  0.799199  1
  H  H60  1  0.029294  0.940455  0.299173  1
  H  H61  1  0.268946  0.559440  0.200801  1
  H  H62  1  0.894294  0.061185  0.813014  1
  H  H63  1  0.768406  0.438880  0.687018  1
  H  H64  1  0.105706  0.938815  0.186986  1
  H  H65  1  0.231594  0.561120  0.312982  1
  H  H66  1  0.126520  0.281830  0.695679  1
  H  H67  1  0.104045  0.218216  0.804322  1
  H  H68  1  0.873480  0.718170  0.304321  1
  H  H69  1  0.895955  0.781784  0.195678  1
