# generated using pymatgen
data_KPrPdO3
_symmetry_space_group_name_H-M   'P 1'
_cell_length_a   3.98975386
_cell_length_b   7.01153977
_cell_length_c   7.59068120
_cell_angle_alpha   104.47345332
_cell_angle_beta   90.00000000
_cell_angle_gamma   106.52976361
_symmetry_Int_Tables_number   1
_chemical_formula_structural   KPrPdO3
_chemical_formula_sum   'K2 Pr2 Pd2 O6'
_cell_volume   196.52864078
_cell_formula_units_Z   2
loop_
 _symmetry_equiv_pos_site_id
 _symmetry_equiv_pos_as_xyz
  1  'x, y, z'
loop_
 _atom_site_type_symbol
 _atom_site_label
 _atom_site_symmetry_multiplicity
 _atom_site_fract_x
 _atom_site_fract_y
 _atom_site_fract_z
 _atom_site_occupancy
  K  K0  1  0.643319  0.286638  0.565429  1
  K  K1  1  0.356681  0.713362  0.434571  1
  Pr  Pr2  1  0.350442  0.700884  0.920423  1
  Pr  Pr3  1  0.649558  0.299116  0.079577  1
  Pd  Pd4  1  0.993464  0.986928  0.227548  1
  Pd  Pd5  1  0.006536  0.013072  0.772452  1
  O  O6  1  0.168165  0.336330  0.866019  1
  O  O7  1  0.152088  0.304176  0.280636  1
  O  O8  1  0.506742  0.013483  0.809657  1
  O  O9  1  0.847912  0.695824  0.719364  1
  O  O10  1  0.831835  0.663670  0.133981  1
  O  O11  1  0.493258  0.986517  0.190343  1
