# generated using pymatgen
data_Tb2Au5F21
_symmetry_space_group_name_H-M   'P 1'
_cell_length_a   8.10804249
_cell_length_b   9.19516242
_cell_length_c   12.14294984
_cell_angle_alpha   89.00942223
_cell_angle_beta   89.22965998
_cell_angle_gamma   89.21856911
_symmetry_Int_Tables_number   1
_chemical_formula_structural   Tb2Au5F21
_chemical_formula_sum   'Tb4 Au10 F42'
_cell_volume   905.01632155
_cell_formula_units_Z   2
loop_
 _symmetry_equiv_pos_site_id
 _symmetry_equiv_pos_as_xyz
  1  'x, y, z'
loop_
 _atom_site_type_symbol
 _atom_site_label
 _atom_site_symmetry_multiplicity
 _atom_site_fract_x
 _atom_site_fract_y
 _atom_site_fract_z
 _atom_site_occupancy
  Au  Au0  1  0.173324  0.276116  0.595924  1
  Au  Au1  1  0.826676  0.723884  0.404076  1
  Tb  Tb2  1  0.671459  0.316521  0.496807  1
  Tb  Tb3  1  0.328541  0.683479  0.503193  1
  Au  Au4  1  0.558482  0.510368  0.791006  1
  Au  Au5  1  0.441518  0.489632  0.208994  1
  Au  Au6  1  0.834106  0.775722  0.094303  1
  Au  Au7  1  0.165894  0.224278  0.905697  1
  Au  Au8  1  0.440168  0.014662  0.294692  1
  Au  Au9  1  0.559832  0.985338  0.705308  1
  Au  Au10  1  0.022699  0.250334  0.246501  1
  Au  Au11  1  0.977301  0.749666  0.753499  1
  Tb  Tb12  1  0.666591  0.183213  0.001151  1
  Tb  Tb13  1  0.333409  0.816787  0.998849  1
  F  F14  1  0.684440  0.408890  0.675191  1
  F  F15  1  0.315560  0.591110  0.324809  1
  F  F16  1  0.860122  0.257835  0.125246  1
  F  F17  1  0.139878  0.742165  0.874754  1
  F  F18  1  0.699874  0.402791  0.896013  1
  F  F19  1  0.300126  0.597209  0.103987  1
  F  F20  1  0.148002  0.413816  0.834168  1
  F  F21  1  0.851998  0.586184  0.165832  1
  F  F22  1  0.666771  0.099741  0.818615  1
  F  F23  1  0.333229  0.900259  0.181385  1
  F  F24  1  0.500000  0.000000  0.000000  1
  F  F25  1  0.529704  0.127520  0.416163  1
  F  F26  1  0.470296  0.872480  0.583837  1
  F  F27  1  0.931524  0.281137  0.582916  1
  F  F28  1  0.068476  0.718863  0.417084  1
  F  F29  1  0.500000  0.500000  0.500000  1
  F  F30  1  0.189969  0.244348  0.359441  1
  F  F31  1  0.810031  0.755652  0.640559  1
  F  F32  1  0.850639  0.230157  0.363446  1
  F  F33  1  0.149361  0.769843  0.636554  1
  F  F34  1  0.826881  0.518261  0.459710  1
  F  F35  1  0.173119  0.481739  0.540290  1
  F  F36  1  0.700122  0.091313  0.598226  1
  F  F37  1  0.299878  0.908687  0.401774  1
  F  F38  1  0.165642  0.081811  0.659825  1
  F  F39  1  0.834358  0.918189  0.340175  1
  F  F40  1  0.584117  0.739032  0.390127  1
  F  F41  1  0.415883  0.260968  0.609873  1
  F  F42  1  0.587708  0.384504  0.311477  1
  F  F43  1  0.412292  0.615496  0.688523  1
  F  F44  1  0.447985  0.612551  0.913021  1
  F  F45  1  0.552015  0.387449  0.086979  1
  F  F46  1  0.176299  0.023651  0.970433  1
  F  F47  1  0.823701  0.976349  0.029567  1
  F  F48  1  0.417332  0.880547  0.811600  1
  F  F49  1  0.582668  0.119453  0.188400  1
  F  F50  1  0.925083  0.203468  0.902660  1
  F  F51  1  0.074917  0.796532  0.097340  1
  F  F52  1  0.407520  0.252783  0.906506  1
  F  F53  1  0.592480  0.747217  0.093494  1
  F  F54  1  0.800952  0.733169  0.862703  1
  F  F55  1  0.199048  0.266831  0.137297  1
