# generated using pymatgen
data_CoNiH24(SO10)2
_symmetry_space_group_name_H-M   'P 1'
_cell_length_a   6.20838141
_cell_length_b   6.20838145
_cell_length_c   24.60047935
_cell_angle_alpha   81.68854029
_cell_angle_beta   81.68854023
_cell_angle_gamma   71.03555104
_symmetry_Int_Tables_number   1
_chemical_formula_structural   CoNiH24(SO10)2
_chemical_formula_sum   'Co2 Ni2 H48 S4 O40'
_cell_volume   882.47749376
_cell_formula_units_Z   2
loop_
 _symmetry_equiv_pos_site_id
 _symmetry_equiv_pos_as_xyz
  1  'x, y, z'
loop_
 _atom_site_type_symbol
 _atom_site_label
 _atom_site_symmetry_multiplicity
 _atom_site_fract_x
 _atom_site_fract_y
 _atom_site_fract_z
 _atom_site_occupancy
  Co  Co0  1  0.000000  0.000000  0.500000  1
  Co  Co1  1  0.000000  0.000000  0.000000  1
  Ni  Ni2  1  0.948853  0.051147  0.750000  1
  Ni  Ni3  1  0.051147  0.948853  0.250000  1
  S  S4  1  0.581723  0.676798  0.623925  1
  S  S5  1  0.323202  0.418277  0.876075  1
  S  S6  1  0.418277  0.323202  0.376075  1
  S  S7  1  0.676798  0.581723  0.123925  1
  O  O8  1  0.458845  0.569844  0.670805  1
  O  O9  1  0.430156  0.541155  0.829195  1
  O  O10  1  0.541155  0.430156  0.329195  1
  O  O11  1  0.569844  0.458845  0.170805  1
  O  O12  1  0.826143  0.623232  0.634548  1
  O  O13  1  0.376768  0.173857  0.865452  1
  O  O14  1  0.173857  0.376768  0.365452  1
  O  O15  1  0.623232  0.826143  0.134548  1
  O  O16  1  0.469546  0.930789  0.617172  1
  O  O17  1  0.069211  0.530454  0.882828  1
  O  O18  1  0.530454  0.069211  0.382828  1
  O  O19  1  0.930789  0.469546  0.117172  1
  O  O20  1  0.576613  0.585245  0.571032  1
  O  O21  1  0.414755  0.423387  0.928968  1
  O  O22  1  0.423387  0.414755  0.428968  1
  O  O23  1  0.585245  0.576613  0.071032  1
  O  O24  1  0.244943  0.136154  0.520160  1
  O  O25  1  0.863846  0.755057  0.979840  1
  O  O26  1  0.755057  0.863846  0.479840  1
  O  O27  1  0.136154  0.244943  0.020160  1
  O  O28  1  0.137257  0.674677  0.544404  1
  O  O29  1  0.325323  0.862743  0.955596  1
  O  O30  1  0.862743  0.325323  0.455596  1
  O  O31  1  0.674677  0.137257  0.044404  1
  O  O32  1  0.200251  0.869993  0.429878  1
  O  O33  1  0.130007  0.799749  0.070122  1
  O  O34  1  0.799749  0.130007  0.570122  1
  O  O35  1  0.869993  0.200251  0.929878  1
  O  O36  1  0.098916  0.197835  0.680369  1
  O  O37  1  0.802165  0.901084  0.819631  1
  O  O38  1  0.901084  0.802165  0.319631  1
  O  O39  1  0.197835  0.098916  0.180369  1
  O  O40  1  0.639846  0.128802  0.717071  1
  O  O41  1  0.871198  0.360154  0.782929  1
  O  O42  1  0.360154  0.871198  0.282929  1
  O  O43  1  0.128802  0.639846  0.217072  1
  O  O44  1  0.031829  0.728108  0.718896  1
  O  O45  1  0.271892  0.968171  0.781104  1
  O  O46  1  0.968171  0.271892  0.281104  1
  O  O47  1  0.728108  0.031829  0.218896  1
  H  H48  1  0.342889  0.066514  0.550106  1
  H  H49  1  0.933486  0.657111  0.949894  1
  H  H50  1  0.657111  0.933486  0.449894  1
  H  H51  1  0.066514  0.342889  0.050106  1
  H  H52  1  0.301376  0.252416  0.496712  1
  H  H53  1  0.747584  0.698624  0.003288  1
  H  H54  1  0.698624  0.747584  0.503288  1
  H  H55  1  0.252416  0.301376  0.996712  1
  H  H56  1  0.292372  0.639622  0.556041  1
  H  H57  1  0.360378  0.707628  0.943959  1
  H  H58  1  0.707628  0.360378  0.443959  1
  H  H59  1  0.639622  0.292372  0.056041  1
  H  H60  1  0.035021  0.645538  0.577404  1
  H  H61  1  0.354462  0.964979  0.922596  1
  H  H62  1  0.964979  0.354462  0.422596  1
  H  H63  1  0.645538  0.035021  0.077404  1
  H  H64  1  0.315725  0.938353  0.409528  1
  H  H65  1  0.061647  0.684275  0.090472  1
  H  H66  1  0.684275  0.061647  0.590472  1
  H  H67  1  0.938353  0.315725  0.909528  1
  H  H68  1  0.271719  0.701227  0.432033  1
  H  H69  1  0.298773  0.728281  0.067967  1
  H  H70  1  0.728281  0.298773  0.567967  1
  H  H71  1  0.701227  0.271719  0.932033  1
  H  H72  1  0.220813  0.099159  0.656105  1
  H  H73  1  0.900841  0.779187  0.843895  1
  H  H74  1  0.779187  0.900841  0.343895  1
  H  H75  1  0.099159  0.220813  0.156105  1
  H  H76  1  0.999980  0.324849  0.657560  1
  H  H77  1  0.675151  0.000020  0.842440  1
  H  H78  1  0.000020  0.675151  0.342440  1
  H  H79  1  0.324849  0.999980  0.157560  1
  H  H80  1  0.567866  0.287328  0.700583  1
  H  H81  1  0.712672  0.432134  0.799417  1
  H  H82  1  0.432134  0.712672  0.299417  1
  H  H83  1  0.287328  0.567866  0.200583  1
  H  H84  1  0.517147  0.070843  0.737126  1
  H  H85  1  0.929157  0.482853  0.762874  1
  H  H86  1  0.482853  0.929157  0.262874  1
  H  H87  1  0.070843  0.517147  0.237126  1
  H  H88  1  0.192931  0.669850  0.701352  1
  H  H89  1  0.330150  0.807069  0.798648  1
  H  H90  1  0.807069  0.330150  0.298648  1
  H  H91  1  0.669850  0.192931  0.201352  1
  H  H92  1  0.935576  0.735544  0.689499  1
  H  H93  1  0.264456  0.064424  0.810501  1
  H  H94  1  0.064424  0.264456  0.310501  1
  H  H95  1  0.735544  0.935576  0.189499  1
