# generated using pymatgen
data_Bi6PtCl10
_symmetry_space_group_name_H-M   'P 1'
_cell_length_a   9.95781054
_cell_length_b   17.03233150
_cell_length_c   26.93796487
_cell_angle_alpha   90.00000000
_cell_angle_beta   90.00000000
_cell_angle_gamma   90.00000000
_symmetry_Int_Tables_number   1
_chemical_formula_structural   Bi6PtCl10
_chemical_formula_sum   'Bi48 Pt8 Cl80'
_cell_volume   4568.80626207
_cell_formula_units_Z   8
loop_
 _symmetry_equiv_pos_site_id
 _symmetry_equiv_pos_as_xyz
  1  'x, y, z'
loop_
 _atom_site_type_symbol
 _atom_site_label
 _atom_site_symmetry_multiplicity
 _atom_site_fract_x
 _atom_site_fract_y
 _atom_site_fract_z
 _atom_site_occupancy
  Bi  Bi0  1  0.147548  0.927750  0.573344  1
  Bi  Bi1  1  0.343091  0.632418  0.991466  1
  Bi  Bi2  1  0.156909  0.132418  0.508534  1
  Bi  Bi3  1  0.294917  0.420938  0.250000  1
  Bi  Bi4  1  0.352452  0.427750  0.926656  1
  Bi  Bi5  1  0.632860  0.356830  0.320289  1
  Bi  Bi6  1  0.316235  0.444940  0.433028  1
  Bi  Bi7  1  0.656909  0.367582  0.491466  1
  Bi  Bi8  1  0.816235  0.055060  0.566972  1
  Bi  Bi9  1  0.132860  0.143170  0.679711  1
  Bi  Bi10  1  0.367140  0.643170  0.679711  1
  Bi  Bi11  1  0.852452  0.072250  0.426656  1
  Bi  Bi12  1  0.806295  0.275781  0.679494  1
  Bi  Bi13  1  0.867140  0.856830  0.320289  1
  Bi  Bi14  1  0.316235  0.444940  0.066972  1
  Bi  Bi15  1  0.806295  0.275781  0.820506  1
  Bi  Bi16  1  0.367140  0.643170  0.820289  1
  Bi  Bi17  1  0.705083  0.579062  0.750000  1
  Bi  Bi18  1  0.306295  0.224219  0.179494  1
  Bi  Bi19  1  0.132860  0.143170  0.820289  1
  Bi  Bi20  1  0.816235  0.055060  0.933028  1
  Bi  Bi21  1  0.852452  0.072250  0.073344  1
  Bi  Bi22  1  0.843091  0.867582  0.008534  1
  Bi  Bi23  1  0.183765  0.944940  0.433028  1
  Bi  Bi24  1  0.193705  0.724219  0.179494  1
  Bi  Bi25  1  0.352452  0.427750  0.573344  1
  Bi  Bi26  1  0.156909  0.132418  0.991466  1
  Bi  Bi27  1  0.343091  0.632418  0.508534  1
  Bi  Bi28  1  0.147548  0.927750  0.926656  1
  Bi  Bi29  1  0.306295  0.224219  0.320506  1
  Bi  Bi30  1  0.647548  0.572250  0.426656  1
  Bi  Bi31  1  0.376430  0.838877  0.750000  1
  Bi  Bi32  1  0.794917  0.079062  0.750000  1
  Bi  Bi33  1  0.647548  0.572250  0.073344  1
  Bi  Bi34  1  0.205083  0.920938  0.250000  1
  Bi  Bi35  1  0.876430  0.661123  0.250000  1
  Bi  Bi36  1  0.693705  0.775781  0.820506  1
  Bi  Bi37  1  0.843091  0.867582  0.491466  1
  Bi  Bi38  1  0.867140  0.856830  0.179711  1
  Bi  Bi39  1  0.123570  0.338877  0.750000  1
  Bi  Bi40  1  0.683765  0.555060  0.933028  1
  Bi  Bi41  1  0.632860  0.356830  0.179711  1
  Bi  Bi42  1  0.193705  0.724219  0.320506  1
  Bi  Bi43  1  0.683765  0.555060  0.566972  1
  Bi  Bi44  1  0.623570  0.161123  0.250000  1
  Bi  Bi45  1  0.693705  0.775781  0.679494  1
  Bi  Bi46  1  0.656909  0.367582  0.008534  1
  Bi  Bi47  1  0.183765  0.944940  0.066972  1
  Pt  Pt48  1  0.535797  0.705459  0.750000  1
  Pt  Pt49  1  0.035797  0.794541  0.250000  1
  Pt  Pt50  1  0.464203  0.294541  0.250000  1
  Pt  Pt51  1  0.500000  0.500000  0.000000  1
  Pt  Pt52  1  0.000000  0.000000  0.000000  1
  Pt  Pt53  1  0.500000  0.500000  0.500000  1
  Pt  Pt54  1  0.964203  0.205459  0.750000  1
  Pt  Pt55  1  0.000000  0.000000  0.500000  1
  Cl  Cl56  1  0.461822  0.092523  0.320942  1
  Cl  Cl57  1  0.860721  0.637618  0.679695  1
  Cl  Cl58  1  0.788682  0.227646  0.175734  1
  Cl  Cl59  1  0.315749  0.058031  0.579881  1
  Cl  Cl60  1  0.211318  0.772354  0.675734  1
  Cl  Cl61  1  0.711318  0.727646  0.324266  1
  Cl  Cl62  1  0.143160  0.159154  0.250000  1
  Cl  Cl63  1  0.963953  0.002263  0.845134  1
  Cl  Cl64  1  0.356840  0.659154  0.250000  1
  Cl  Cl65  1  0.486088  0.704709  0.066530  1
  Cl  Cl66  1  0.288682  0.272354  0.824266  1
  Cl  Cl67  1  0.531340  0.698067  0.905852  1
  Cl  Cl68  1  0.184251  0.558031  0.920119  1
  Cl  Cl69  1  0.684251  0.941969  0.079881  1
  Cl  Cl70  1  0.668050  0.918470  0.560045  1
  Cl  Cl71  1  0.184251  0.558031  0.579881  1
  Cl  Cl72  1  0.139279  0.362382  0.320305  1
  Cl  Cl73  1  0.986088  0.795291  0.933470  1
  Cl  Cl74  1  0.961822  0.407477  0.679058  1
  Cl  Cl75  1  0.463953  0.497737  0.345134  1
  Cl  Cl76  1  0.279325  0.062755  0.750000  1
  Cl  Cl77  1  0.513912  0.295291  0.933470  1
  Cl  Cl78  1  0.818179  0.636872  0.493399  1
  Cl  Cl79  1  0.486088  0.704709  0.433470  1
  Cl  Cl80  1  0.668050  0.918470  0.939955  1
  Cl  Cl81  1  0.038178  0.592523  0.320942  1
  Cl  Cl82  1  0.531340  0.698067  0.594148  1
  Cl  Cl83  1  0.288682  0.272354  0.675734  1
  Cl  Cl84  1  0.331950  0.081530  0.060045  1
  Cl  Cl85  1  0.031340  0.801933  0.094148  1
  Cl  Cl86  1  0.788682  0.227646  0.324266  1
  Cl  Cl87  1  0.181821  0.363128  0.993399  1
  Cl  Cl88  1  0.360721  0.862382  0.179695  1
  Cl  Cl89  1  0.711318  0.727646  0.175734  1
  Cl  Cl90  1  0.963953  0.002263  0.654866  1
  Cl  Cl91  1  0.961822  0.407477  0.820942  1
  Cl  Cl92  1  0.720675  0.937245  0.250000  1
  Cl  Cl93  1  0.513912  0.295291  0.566530  1
  Cl  Cl94  1  0.779325  0.437245  0.250000  1
  Cl  Cl95  1  0.168050  0.581530  0.439955  1
  Cl  Cl96  1  0.013912  0.204709  0.433470  1
  Cl  Cl97  1  0.860721  0.637618  0.820305  1
  Cl  Cl98  1  0.031340  0.801933  0.405852  1
  Cl  Cl99  1  0.360721  0.862382  0.320305  1
  Cl  Cl100  1  0.036047  0.997737  0.154866  1
  Cl  Cl101  1  0.318179  0.863128  0.993399  1
  Cl  Cl102  1  0.643160  0.340846  0.750000  1
  Cl  Cl103  1  0.315749  0.058031  0.920119  1
  Cl  Cl104  1  0.968660  0.198067  0.594148  1
  Cl  Cl105  1  0.831950  0.418470  0.939955  1
  Cl  Cl106  1  0.536047  0.502263  0.845134  1
  Cl  Cl107  1  0.815749  0.441969  0.079881  1
  Cl  Cl108  1  0.468660  0.301933  0.094148  1
  Cl  Cl109  1  0.986088  0.795291  0.566530  1
  Cl  Cl110  1  0.220675  0.562755  0.750000  1
  Cl  Cl111  1  0.639279  0.137618  0.679695  1
  Cl  Cl112  1  0.538178  0.907477  0.820942  1
  Cl  Cl113  1  0.463953  0.497737  0.154866  1
  Cl  Cl114  1  0.036047  0.997737  0.345134  1
  Cl  Cl115  1  0.681821  0.136872  0.493399  1
  Cl  Cl116  1  0.856840  0.840846  0.750000  1
  Cl  Cl117  1  0.468660  0.301933  0.405852  1
  Cl  Cl118  1  0.038178  0.592523  0.179058  1
  Cl  Cl119  1  0.815749  0.441969  0.420119  1
  Cl  Cl120  1  0.818179  0.636872  0.006601  1
  Cl  Cl121  1  0.538178  0.907477  0.679058  1
  Cl  Cl122  1  0.639279  0.137618  0.820305  1
  Cl  Cl123  1  0.168050  0.581530  0.060045  1
  Cl  Cl124  1  0.461822  0.092523  0.179058  1
  Cl  Cl125  1  0.139279  0.362382  0.179695  1
  Cl  Cl126  1  0.536047  0.502263  0.654866  1
  Cl  Cl127  1  0.681821  0.136872  0.006601  1
  Cl  Cl128  1  0.211318  0.772354  0.824266  1
  Cl  Cl129  1  0.831950  0.418470  0.560045  1
  Cl  Cl130  1  0.968660  0.198067  0.905852  1
  Cl  Cl131  1  0.181821  0.363128  0.506601  1
  Cl  Cl132  1  0.684251  0.941969  0.420119  1
  Cl  Cl133  1  0.331950  0.081530  0.439955  1
  Cl  Cl134  1  0.013912  0.204709  0.066530  1
  Cl  Cl135  1  0.318179  0.863128  0.506601  1
