# generated using pymatgen
data_Ba14Na21CaN6
_symmetry_space_group_name_H-M   'P 1'
_cell_length_a   12.42119106
_cell_length_b   12.42119142
_cell_length_c   14.04150784
_cell_angle_alpha   101.84858274
_cell_angle_beta   104.43043050
_cell_angle_gamma   119.08963253
_symmetry_Int_Tables_number   1
_chemical_formula_structural   Ba14Na21CaN6
_chemical_formula_sum   'Ba14 Na21 Ca1 N6'
_cell_volume   1691.48686527
_cell_formula_units_Z   1
loop_
 _symmetry_equiv_pos_site_id
 _symmetry_equiv_pos_as_xyz
  1  'x, y, z'
loop_
 _atom_site_type_symbol
 _atom_site_label
 _atom_site_symmetry_multiplicity
 _atom_site_fract_x
 _atom_site_fract_y
 _atom_site_fract_z
 _atom_site_occupancy
  Ba  Ba0  1  0.493890  0.204269  0.272788  1
  Ba  Ba1  1  0.931482  0.221102  0.727212  1
  Ba  Ba2  1  0.506110  0.795731  0.727212  1
  Ba  Ba3  1  0.809897  0.170162  0.406405  1
  Ba  Ba4  1  0.190103  0.829838  0.593595  1
  Ba  Ba5  1  0.861094  0.372174  0.233269  1
  Ba  Ba6  1  0.236243  0.596507  0.406405  1
  Ba  Ba7  1  0.068518  0.778898  0.272788  1
  Ba  Ba8  1  0.190648  0.398275  0.588923  1
  Ba  Ba9  1  0.809352  0.601725  0.411077  1
  Ba  Ba10  1  0.923518  0.808150  0.731668  1
  Ba  Ba11  1  0.138906  0.627826  0.766731  1
  Ba  Ba12  1  0.076482  0.191850  0.268332  1
  Ba  Ba13  1  0.763757  0.403493  0.593595  1
  Na  Na14  1  0.279752  0.203247  0.780420  1
  Na  Na15  1  0.345810  0.175866  0.521676  1
  Na  Na16  1  0.594946  0.194430  0.789376  1
  Na  Na17  1  0.604030  0.446231  0.050261  1
  Na  Na18  1  0.422827  0.499331  0.219580  1
  Na  Na19  1  0.180404  0.180404  0.000000  1
  Na  Na20  1  0.405054  0.805570  0.210624  1
  Na  Na21  1  0.123806  0.471181  0.056072  1
  Na  Na22  1  0.654190  0.824134  0.478324  1
  Na  Na23  1  0.415108  0.067734  0.943928  1
  Na  Na24  1  0.577173  0.500669  0.780420  1
  Na  Na25  1  0.162664  0.868869  0.031533  1
  Na  Na26  1  0.584892  0.932266  0.056072  1
  Na  Na27  1  0.876194  0.528819  0.943928  1
  Na  Na28  1  0.000000  0.000000  0.500000  1
  Na  Na29  1  0.837336  0.131131  0.968467  1
  Na  Na30  1  0.720248  0.796753  0.219580  1
  Na  Na31  1  0.819596  0.819596  0.000000  1
  Na  Na32  1  0.395970  0.553769  0.949739  1
  Na  Na33  1  0.500000  0.000000  0.500000  1
  Na  Na34  1  0.500000  0.500000  0.500000  1
  Ca  Ca35  1  0.000000  0.500000  0.500000  1
  N  N36  1  0.034676  0.344083  0.378760  1
  N  N37  1  0.966259  0.363060  0.617824  1
  N  N38  1  0.033741  0.636940  0.382176  1
  N  N39  1  0.745237  0.348436  0.382176  1
  N  N40  1  0.965324  0.655917  0.621240  1
  N  N41  1  0.254763  0.651564  0.617824  1
