# generated using pymatgen
data_NbP2Se2Cl5
_symmetry_space_group_name_H-M   'P 1'
_cell_length_a   6.87766443
_cell_length_b   14.00933138
_cell_length_c   27.56698802
_cell_angle_alpha   90.00000000
_cell_angle_beta   93.92933356
_cell_angle_gamma   90.00000000
_symmetry_Int_Tables_number   1
_chemical_formula_structural   NbP2Se2Cl5
_chemical_formula_sum   'Nb8 P16 Se16 Cl40'
_cell_volume   2649.87642535
_cell_formula_units_Z   8
loop_
 _symmetry_equiv_pos_site_id
 _symmetry_equiv_pos_as_xyz
  1  'x, y, z'
loop_
 _atom_site_type_symbol
 _atom_site_label
 _atom_site_symmetry_multiplicity
 _atom_site_fract_x
 _atom_site_fract_y
 _atom_site_fract_z
 _atom_site_occupancy
  Nb  Nb0  1  0.671112  0.609603  0.700092  1
  Nb  Nb1  1  0.217206  0.708773  0.472160  1
  Nb  Nb2  1  0.828888  0.109603  0.799908  1
  Nb  Nb3  1  0.328888  0.390397  0.299908  1
  Nb  Nb4  1  0.782794  0.291227  0.527840  1
  Nb  Nb5  1  0.171112  0.890397  0.200092  1
  Nb  Nb6  1  0.282794  0.208773  0.027840  1
  Nb  Nb7  1  0.717206  0.791227  0.972160  1
  P  P8  1  0.067633  0.838908  0.400644  1
  P  P9  1  0.047455  0.910100  0.294598  1
  P  P10  1  0.088727  0.922648  0.617940  1
  P  P11  1  0.432367  0.338908  0.099356  1
  P  P12  1  0.411273  0.422648  0.882060  1
  P  P13  1  0.952545  0.089900  0.705402  1
  P  P14  1  0.223494  0.422194  0.142932  1
  P  P15  1  0.932367  0.161092  0.599356  1
  P  P16  1  0.723494  0.077806  0.642932  1
  P  P17  1  0.567633  0.661092  0.900644  1
  P  P18  1  0.911273  0.077352  0.382060  1
  P  P19  1  0.452545  0.410100  0.205402  1
  P  P20  1  0.588727  0.577352  0.117940  1
  P  P21  1  0.776506  0.577806  0.857068  1
  P  P22  1  0.276506  0.922194  0.357068  1
  P  P23  1  0.547455  0.589900  0.794598  1
  Se  Se24  1  0.359228  0.552490  0.929845  1
  Se  Se25  1  0.247006  0.071630  0.382873  1
  Se  Se26  1  0.140772  0.052490  0.570155  1
  Se  Se27  1  0.664645  0.532030  0.196820  1
  Se  Se28  1  0.752994  0.928370  0.617127  1
  Se  Se29  1  0.640772  0.447510  0.070155  1
  Se  Se30  1  0.252994  0.571630  0.117127  1
  Se  Se31  1  0.442627  0.727848  0.829231  1
  Se  Se32  1  0.557373  0.272152  0.170769  1
  Se  Se33  1  0.747006  0.428370  0.882873  1
  Se  Se34  1  0.335355  0.467970  0.803180  1
  Se  Se35  1  0.942627  0.772152  0.329231  1
  Se  Se36  1  0.859228  0.947510  0.429845  1
  Se  Se37  1  0.057373  0.227848  0.670769  1
  Se  Se38  1  0.835355  0.032030  0.303180  1
  Se  Se39  1  0.164645  0.967970  0.696820  1
  Cl  Cl40  1  0.988663  0.395544  0.573799  1
  Cl  Cl41  1  0.653761  0.393027  0.469222  1
  Cl  Cl42  1  0.103617  0.015975  0.822346  1
  Cl  Cl43  1  0.450439  0.690301  0.414734  1
  Cl  Cl44  1  0.334338  0.030194  0.226143  1
  Cl  Cl45  1  0.626380  0.147250  0.502677  1
  Cl  Cl46  1  0.791507  0.631512  0.625328  1
  Cl  Cl47  1  0.396383  0.515975  0.677654  1
  Cl  Cl48  1  0.603617  0.484025  0.322346  1
  Cl  Cl49  1  0.346239  0.606973  0.530778  1
  Cl  Cl50  1  0.165662  0.530194  0.273857  1
  Cl  Cl51  1  0.592061  0.200242  0.754662  1
  Cl  Cl52  1  0.092061  0.299758  0.254662  1
  Cl  Cl53  1  0.873620  0.647250  0.997323  1
  Cl  Cl54  1  0.540834  0.257573  0.298098  1
  Cl  Cl55  1  0.708493  0.131512  0.874672  1
  Cl  Cl56  1  0.040834  0.242427  0.798098  1
  Cl  Cl57  1  0.126380  0.352750  0.002677  1
  Cl  Cl58  1  0.459166  0.742427  0.701902  1
  Cl  Cl59  1  0.942453  0.760284  0.511908  1
  Cl  Cl60  1  0.208493  0.368488  0.374672  1
  Cl  Cl61  1  0.291507  0.868488  0.125328  1
  Cl  Cl62  1  0.959166  0.757573  0.201902  1
  Cl  Cl63  1  0.373620  0.852750  0.497323  1
  Cl  Cl64  1  0.442453  0.739716  0.011908  1
  Cl  Cl65  1  0.907939  0.700242  0.745338  1
  Cl  Cl66  1  0.511337  0.895544  0.926201  1
  Cl  Cl67  1  0.049561  0.190301  0.085266  1
  Cl  Cl68  1  0.665662  0.969806  0.773857  1
  Cl  Cl69  1  0.896383  0.984025  0.177654  1
  Cl  Cl70  1  0.557547  0.260284  0.988092  1
  Cl  Cl71  1  0.950439  0.809699  0.914734  1
  Cl  Cl72  1  0.153761  0.106973  0.969222  1
  Cl  Cl73  1  0.834338  0.469806  0.726143  1
  Cl  Cl74  1  0.057547  0.239716  0.488092  1
  Cl  Cl75  1  0.549561  0.309699  0.585266  1
  Cl  Cl76  1  0.846239  0.893027  0.030778  1
  Cl  Cl77  1  0.407939  0.799758  0.245338  1
  Cl  Cl78  1  0.488663  0.104456  0.073799  1
  Cl  Cl79  1  0.011337  0.604456  0.426201  1
