# generated using pymatgen
data_BiAsO4
_symmetry_space_group_name_H-M   'P 1'
_cell_length_a   5.15149702
_cell_length_b   5.15149670
_cell_length_c   6.96150758
_cell_angle_alpha   111.71553275
_cell_angle_beta   111.71553137
_cell_angle_gamma   90.00000630
_symmetry_Int_Tables_number   1
_chemical_formula_structural   BiAsO4
_chemical_formula_sum   'Bi2 As2 O8'
_cell_volume   157.43413561
_cell_formula_units_Z   2
loop_
 _symmetry_equiv_pos_site_id
 _symmetry_equiv_pos_as_xyz
  1  'x, y, z'
loop_
 _atom_site_type_symbol
 _atom_site_label
 _atom_site_symmetry_multiplicity
 _atom_site_fract_x
 _atom_site_fract_y
 _atom_site_fract_z
 _atom_site_occupancy
  Bi  Bi0  1  0.625000  0.875000  0.250000  1
  Bi  Bi1  1  0.375000  0.125000  0.750000  1
  As  As2  1  0.125000  0.375000  0.250000  1
  As  As3  1  0.875000  0.625000  0.750000  1
  O  O4  1  0.058323  0.699439  0.404724  1
  O  O5  1  0.941677  0.300561  0.595276  1
  O  O6  1  0.800561  0.153599  0.095276  1
  O  O7  1  0.346401  0.205284  0.404724  1
  O  O8  1  0.705284  0.558323  0.904724  1
  O  O9  1  0.294716  0.441677  0.095276  1
  O  O10  1  0.653599  0.794716  0.595276  1
  O  O11  1  0.199439  0.846401  0.904724  1
