# generated using pymatgen
data_NdAlO3
_symmetry_space_group_name_H-M   'P 1'
_cell_length_a   5.33349385
_cell_length_b   5.33349385
_cell_length_c   5.33349385
_cell_angle_alpha   60.59373465
_cell_angle_beta   60.59373461
_cell_angle_gamma   60.59373471
_symmetry_Int_Tables_number   1
_chemical_formula_structural   NdAlO3
_chemical_formula_sum   'Nd2 Al2 O6'
_cell_volume   108.71904433
_cell_formula_units_Z   2
loop_
 _symmetry_equiv_pos_site_id
 _symmetry_equiv_pos_as_xyz
  1  'x, y, z'
loop_
 _atom_site_type_symbol
 _atom_site_label
 _atom_site_symmetry_multiplicity
 _atom_site_fract_x
 _atom_site_fract_y
 _atom_site_fract_z
 _atom_site_occupancy
  O  O0  1  0.303429  0.750000  0.196571  1
  O  O1  1  0.750000  0.196571  0.303429  1
  O  O2  1  0.196571  0.303429  0.750000  1
  O  O3  1  0.696571  0.250000  0.803429  1
  O  O4  1  0.803429  0.696571  0.250000  1
  O  O5  1  0.250000  0.803429  0.696571  1
  Al  Al6  1  0.500000  0.500000  0.500000  1
  Al  Al7  1  0.000000  0.000000  0.000000  1
  Nd  Nd8  1  0.750000  0.750000  0.750000  1
  Nd  Nd9  1  0.250000  0.250000  0.250000  1
