# generated using pymatgen
data_Mo5As4
_symmetry_space_group_name_H-M   'P 1'
_cell_length_a   3.16418452
_cell_length_b   6.90874511
_cell_length_c   6.90874431
_cell_angle_alpha   86.99401134
_cell_angle_beta   76.76189647
_cell_angle_gamma   76.76187843
_symmetry_Int_Tables_number   1
_chemical_formula_structural   Mo5As4
_chemical_formula_sum   'Mo5 As4'
_cell_volume   143.10891252
_cell_formula_units_Z   1
loop_
 _symmetry_equiv_pos_site_id
 _symmetry_equiv_pos_as_xyz
  1  'x, y, z'
loop_
 _atom_site_type_symbol
 _atom_site_label
 _atom_site_symmetry_multiplicity
 _atom_site_fract_x
 _atom_site_fract_y
 _atom_site_fract_z
 _atom_site_occupancy
  Mo  Mo0  1  0.948883  0.393380  0.708852  1
  Mo  Mo1  1  -0.000000  -0.000000  -0.000000  1
  Mo  Mo2  1  0.342263  0.708852  0.606620  1
  Mo  Mo3  1  0.657737  0.291148  0.393380  1
  Mo  Mo4  1  0.051117  0.606620  0.291148  1
  As  As5  1  0.674288  0.683839  0.967585  1
  As  As6  1  0.325712  0.316161  0.032415  1
  As  As7  1  0.358127  0.967585  0.316161  1
  As  As8  1  0.641873  0.032415  0.683839  1
