# generated using pymatgen
data_Ce2CuGe6
_symmetry_space_group_name_H-M   'P 1'
_cell_length_a   4.17789388
_cell_length_b   4.11328697
_cell_length_c   10.99079844
_cell_angle_alpha   100.78499852
_cell_angle_beta   90.00000000
_cell_angle_gamma   90.00000000
_symmetry_Int_Tables_number   1
_chemical_formula_structural   Ce2CuGe6
_chemical_formula_sum   'Ce2 Cu1 Ge6'
_cell_volume   185.53926882
_cell_formula_units_Z   1
loop_
 _symmetry_equiv_pos_site_id
 _symmetry_equiv_pos_as_xyz
  1  'x, y, z'
loop_
 _atom_site_type_symbol
 _atom_site_label
 _atom_site_symmetry_multiplicity
 _atom_site_fract_x
 _atom_site_fract_y
 _atom_site_fract_z
 _atom_site_occupancy
  Cu  Cu0  1  0.500000  0.225717  0.451433  1
  Ge  Ge1  1  0.000000  0.284529  0.569058  1
  Ge  Ge2  1  0.500000  0.785124  0.570247  1
  Ge  Ge3  1  0.500000  0.900693  0.801386  1
  Ge  Ge4  1  0.000000  0.399824  0.799649  1
  Ge  Ge5  1  0.500000  0.545597  0.091195  1
  Ge  Ge6  1  0.500000  0.116380  0.232759  1
  Ce  Ce7  1  0.000000  0.669825  0.339650  1
  Ce  Ce8  1  0.000000  0.003312  0.006623  1
