# generated using pymatgen
data_BaZnFeF7
_symmetry_space_group_name_H-M   'P 1'
_cell_length_a   5.69930605
_cell_length_b   9.72661415
_cell_length_c   10.11361837
_cell_angle_alpha   90.00000000
_cell_angle_beta   90.00000000
_cell_angle_gamma   93.12432883
_symmetry_Int_Tables_number   1
_chemical_formula_structural   BaZnFeF7
_chemical_formula_sum   'Ba4 Zn4 Fe4 F28'
_cell_volume   559.81460034
_cell_formula_units_Z   4
loop_
 _symmetry_equiv_pos_site_id
 _symmetry_equiv_pos_as_xyz
  1  'x, y, z'
loop_
 _atom_site_type_symbol
 _atom_site_label
 _atom_site_symmetry_multiplicity
 _atom_site_fract_x
 _atom_site_fract_y
 _atom_site_fract_z
 _atom_site_occupancy
  Ba  Ba0  1  0.261990  0.498757  0.321441  1
  Ba  Ba1  1  0.738010  0.001243  0.821441  1
  Ba  Ba2  1  0.738010  0.501243  0.678559  1
  Ba  Ba3  1  0.261990  0.998757  0.178559  1
  Zn  Zn4  1  0.700543  0.810580  0.398115  1
  Zn  Zn5  1  0.299457  0.689420  0.898115  1
  Zn  Zn6  1  0.700543  0.310580  0.101885  1
  Zn  Zn7  1  0.299457  0.189420  0.601885  1
  Fe  Fe8  1  0.196931  0.811869  0.609659  1
  Fe  Fe9  1  0.803069  0.188131  0.390341  1
  Fe  Fe10  1  0.196931  0.311869  0.890341  1
  Fe  Fe11  1  0.803069  0.688131  0.109659  1
  F  F12  1  0.110165  0.123478  0.442517  1
  F  F13  1  0.365478  0.369371  0.049537  1
  F  F14  1  0.473083  0.752902  0.708940  1
  F  F15  1  0.526917  0.247098  0.291060  1
  F  F16  1  0.890077  0.366956  0.458733  1
  F  F17  1  0.259275  0.497970  0.810928  1
  F  F18  1  0.024596  0.752651  0.776478  1
  F  F19  1  0.109923  0.133044  0.958733  1
  F  F20  1  0.365478  0.869371  0.450463  1
  F  F21  1  0.526917  0.747098  0.208940  1
  F  F22  1  0.110165  0.623478  0.057483  1
  F  F23  1  0.889835  0.876522  0.557483  1
  F  F24  1  0.975404  0.747349  0.276478  1
  F  F25  1  0.389319  0.875002  0.958310  1
  F  F26  1  0.109923  0.633044  0.541267  1
  F  F27  1  0.890077  0.866956  0.041267  1
  F  F28  1  0.975404  0.247349  0.223522  1
  F  F29  1  0.889835  0.376522  0.942517  1
  F  F30  1  0.610681  0.624998  0.458310  1
  F  F31  1  0.634522  0.630629  0.950463  1
  F  F32  1  0.610681  0.124998  0.041690  1
  F  F33  1  0.024596  0.252651  0.723522  1
  F  F34  1  0.389319  0.375002  0.541690  1
  F  F35  1  0.740725  0.002030  0.310928  1
  F  F36  1  0.740725  0.502030  0.189072  1
  F  F37  1  0.259275  0.997970  0.689072  1
  F  F38  1  0.634522  0.130629  0.549537  1
  F  F39  1  0.473083  0.252902  0.791060  1
