# generated using pymatgen
data_U6Co30Si19
_symmetry_space_group_name_H-M   'P 1'
_cell_length_a   20.96324605
_cell_length_b   20.96324602
_cell_length_c   3.64874117
_cell_angle_alpha   90.00000000
_cell_angle_beta   90.00000000
_cell_angle_gamma   120.00000006
_symmetry_Int_Tables_number   1
_chemical_formula_structural   U6Co30Si19
_chemical_formula_sum   'U12 Co60 Si38'
_cell_volume   1388.64345406
_cell_formula_units_Z   2
loop_
 _symmetry_equiv_pos_site_id
 _symmetry_equiv_pos_as_xyz
  1  'x, y, z'
loop_
 _atom_site_type_symbol
 _atom_site_label
 _atom_site_symmetry_multiplicity
 _atom_site_fract_x
 _atom_site_fract_y
 _atom_site_fract_z
 _atom_site_occupancy
  U  U0  1  0.774189  0.036628  0.250000  1
  U  U1  1  0.518327  0.134290  0.250000  1
  U  U2  1  0.384036  0.518327  0.750000  1
  U  U3  1  0.615964  0.481673  0.250000  1
  U  U4  1  0.737562  0.774189  0.750000  1
  U  U5  1  0.262438  0.225811  0.250000  1
  U  U6  1  0.134290  0.615964  0.750000  1
  U  U7  1  0.225811  0.963372  0.750000  1
  U  U8  1  0.481673  0.865710  0.750000  1
  U  U9  1  0.036628  0.262438  0.750000  1
  U  U10  1  0.865710  0.384036  0.250000  1
  U  U11  1  0.963372  0.737562  0.250000  1
  Co  Co12  1  0.394750  0.101656  0.750000  1
  Co  Co13  1  0.947317  0.144226  0.250000  1
  Co  Co14  1  0.003344  0.355983  0.250000  1
  Co  Co15  1  0.913073  0.924977  0.750000  1
  Co  Co16  1  0.795869  0.593548  0.250000  1
  Co  Co17  1  0.861087  0.155344  0.750000  1
  Co  Co18  1  0.554212  0.659141  0.750000  1
  Co  Co19  1  0.855774  0.803091  0.250000  1
  Co  Co20  1  0.355983  0.352638  0.750000  1
  Co  Co21  1  0.138913  0.844656  0.250000  1
  Co  Co22  1  0.302466  0.755977  0.750000  1
  Co  Co23  1  0.294257  0.138913  0.750000  1
  Co  Co24  1  0.548856  0.041961  0.750000  1
  Co  Co25  1  0.011904  0.086927  0.750000  1
  Co  Co26  1  0.605250  0.898344  0.250000  1
  Co  Co27  1  0.253662  0.646431  0.250000  1
  Co  Co28  1  0.546490  0.302466  0.250000  1
  Co  Co29  1  0.924977  0.011904  0.250000  1
  Co  Co30  1  0.052683  0.855774  0.750000  1
  Co  Co31  1  0.392770  0.746338  0.250000  1
  Co  Co32  1  0.746338  0.353569  0.750000  1
  Co  Co33  1  0.445788  0.340859  0.250000  1
  Co  Co34  1  0.506895  0.548856  0.250000  1
  Co  Co35  1  0.144226  0.196909  0.750000  1
  Co  Co36  1  0.353569  0.607230  0.250000  1
  Co  Co37  1  0.196909  0.052683  0.250000  1
  Co  Co38  1  0.493105  0.451144  0.750000  1
  Co  Co39  1  0.104929  0.445788  0.750000  1
  Co  Co40  1  0.988096  0.913073  0.250000  1
  Co  Co41  1  0.155344  0.294257  0.250000  1
  Co  Co42  1  0.647362  0.003344  0.750000  1
  Co  Co43  1  0.706906  0.605250  0.750000  1
  Co  Co44  1  0.406452  0.202321  0.250000  1
  Co  Co45  1  0.895071  0.554212  0.250000  1
  Co  Co46  1  0.803091  0.947317  0.750000  1
  Co  Co47  1  0.101656  0.706906  0.250000  1
  Co  Co48  1  0.086927  0.075023  0.250000  1
  Co  Co49  1  0.041961  0.493105  0.250000  1
  Co  Co50  1  0.958039  0.506895  0.750000  1
  Co  Co51  1  0.705743  0.861087  0.250000  1
  Co  Co52  1  0.797679  0.204131  0.250000  1
  Co  Co53  1  0.697534  0.244023  0.250000  1
  Co  Co54  1  0.755977  0.453510  0.250000  1
  Co  Co55  1  0.451144  0.958039  0.250000  1
  Co  Co56  1  0.244023  0.546490  0.750000  1
  Co  Co57  1  0.340859  0.895071  0.750000  1
  Co  Co58  1  0.898344  0.293094  0.750000  1
  Co  Co59  1  0.646431  0.392770  0.750000  1
  Co  Co60  1  0.453510  0.697534  0.750000  1
  Co  Co61  1  0.202321  0.795869  0.750000  1
  Co  Co62  1  0.293094  0.394750  0.250000  1
  Co  Co63  1  0.593548  0.797679  0.750000  1
  Co  Co64  1  0.659141  0.104929  0.250000  1
  Co  Co65  1  0.844656  0.705743  0.750000  1
  Co  Co66  1  0.352638  0.996656  0.250000  1
  Co  Co67  1  0.607230  0.253662  0.750000  1
  Co  Co68  1  0.996656  0.644017  0.750000  1
  Co  Co69  1  0.644017  0.647362  0.250000  1
  Co  Co70  1  0.075023  0.988096  0.750000  1
  Co  Co71  1  0.204131  0.406452  0.750000  1
  Si  Si72  1  0.104003  0.933281  0.250000  1
  Si  Si73  1  0.615080  0.738750  0.250000  1
  Si  Si74  1  0.571202  0.986094  0.250000  1
  Si  Si75  1  0.428798  0.013906  0.750000  1
  Si  Si76  1  0.066719  0.170722  0.250000  1
  Si  Si77  1  0.333333  0.666667  0.750000  1
  Si  Si78  1  0.777103  0.263028  0.750000  1
  Si  Si79  1  0.829278  0.895997  0.250000  1
  Si  Si80  1  0.163700  0.525068  0.250000  1
  Si  Si81  1  0.585108  0.571202  0.750000  1
  Si  Si82  1  0.083385  0.765347  0.750000  1
  Si  Si83  1  0.234653  0.318039  0.750000  1
  Si  Si84  1  0.666667  0.333333  0.250000  1
  Si  Si85  1  0.263028  0.485925  0.250000  1
  Si  Si86  1  0.318039  0.083385  0.250000  1
  Si  Si87  1  0.261250  0.876331  0.250000  1
  Si  Si88  1  0.013906  0.585108  0.250000  1
  Si  Si89  1  0.765347  0.681961  0.250000  1
  Si  Si90  1  0.222897  0.736972  0.250000  1
  Si  Si91  1  0.681961  0.916615  0.750000  1
  Si  Si92  1  0.384920  0.261250  0.750000  1
  Si  Si93  1  0.876331  0.615080  0.750000  1
  Si  Si94  1  0.514075  0.777103  0.250000  1
  Si  Si95  1  0.933281  0.829278  0.750000  1
  Si  Si96  1  0.361368  0.836300  0.250000  1
  Si  Si97  1  0.916615  0.234653  0.250000  1
  Si  Si98  1  0.474932  0.638632  0.250000  1
  Si  Si99  1  0.170722  0.104003  0.750000  1
  Si  Si100  1  0.836300  0.474932  0.750000  1
  Si  Si101  1  0.414892  0.428798  0.250000  1
  Si  Si102  1  0.525068  0.361368  0.750000  1
  Si  Si103  1  0.895997  0.066719  0.750000  1
  Si  Si104  1  0.738750  0.123669  0.750000  1
  Si  Si105  1  0.485925  0.222897  0.750000  1
  Si  Si106  1  0.638632  0.163700  0.750000  1
  Si  Si107  1  0.986094  0.414892  0.750000  1
  Si  Si108  1  0.736972  0.514075  0.750000  1
  Si  Si109  1  0.123669  0.384920  0.250000  1
