# generated using pymatgen
data_SiO2
_symmetry_space_group_name_H-M   'P 1'
_cell_length_a   5.08547840
_cell_length_b   7.05829313
_cell_length_c   7.05829339
_cell_angle_alpha   72.05829752
_cell_angle_beta   68.88454618
_cell_angle_gamma   68.88454204
_symmetry_Int_Tables_number   1
_chemical_formula_structural   SiO2
_chemical_formula_sum   'Si4 O8'
_cell_volume   215.79989911
_cell_formula_units_Z   4
loop_
 _symmetry_equiv_pos_site_id
 _symmetry_equiv_pos_as_xyz
  1  'x, y, z'
loop_
 _atom_site_type_symbol
 _atom_site_label
 _atom_site_symmetry_multiplicity
 _atom_site_fract_x
 _atom_site_fract_y
 _atom_site_fract_z
 _atom_site_occupancy
  Si  Si0  1  0.601128  0.255357  0.543532  1
  Si  Si1  1  0.400017  0.744643  0.456468  1
  Si  Si2  1  0.900017  0.956468  0.244643  1
  Si  Si3  1  0.101128  0.043532  0.755357  1
  O  O4  1  0.776573  0.128658  0.718545  1
  O  O5  1  0.069401  0.000000  1.000000  1
  O  O6  1  0.276573  0.218545  0.628658  1
  O  O7  1  0.623775  0.871342  0.281455  1
  O  O8  1  0.284526  0.826960  0.673040  1
  O  O9  1  0.784526  0.173040  0.326960  1
  O  O10  1  0.569401  0.500000  0.500000  1
  O  O11  1  0.123775  0.781455  0.371342  1
