# generated using pymatgen
data_RbMgF3
_symmetry_space_group_name_H-M   'P 1'
_cell_length_a   6.90687520
_cell_length_b   6.90687548
_cell_length_c   14.35836508
_cell_angle_alpha   90.00000000
_cell_angle_beta   90.00000000
_cell_angle_gamma   119.99999865
_symmetry_Int_Tables_number   1
_chemical_formula_structural   RbMgF3
_chemical_formula_sum   'Rb6 Mg6 F18'
_cell_volume   593.19688892
_cell_formula_units_Z   6
loop_
 _symmetry_equiv_pos_site_id
 _symmetry_equiv_pos_as_xyz
  1  'x, y, z'
loop_
 _atom_site_type_symbol
 _atom_site_label
 _atom_site_symmetry_multiplicity
 _atom_site_fract_x
 _atom_site_fract_y
 _atom_site_fract_z
 _atom_site_occupancy
  Rb  Rb0  1  0.333333  0.666667  0.137837  1
  Rb  Rb1  1  0.333333  0.666667  0.362163  1
  Rb  Rb2  1  0.666667  0.333333  0.862163  1
  Rb  Rb3  1  0.666667  0.333333  0.637837  1
  Rb  Rb4  1  0.000000  0.000000  0.250000  1
  Rb  Rb5  1  0.000000  0.000000  0.750000  1
  Mg  Mg6  1  0.333333  0.666667  0.659495  1
  Mg  Mg7  1  0.666667  0.333333  0.159495  1
  Mg  Mg8  1  0.666667  0.333333  0.340505  1
  Mg  Mg9  1  0.000000  0.000000  0.500000  1
  Mg  Mg10  1  0.333333  0.666667  0.840505  1
  Mg  Mg11  1  0.000000  0.000000  0.000000  1
  F  F12  1  0.544153  0.455847  0.250000  1
  F  F13  1  0.730791  0.865396  0.084812  1
  F  F14  1  0.730791  0.865396  0.415188  1
  F  F15  1  0.269209  0.134604  0.915188  1
  F  F16  1  0.134604  0.865396  0.084812  1
  F  F17  1  0.865396  0.134604  0.584812  1
  F  F18  1  0.455847  0.911694  0.750000  1
  F  F19  1  0.134604  0.865396  0.415188  1
  F  F20  1  0.134604  0.269209  0.415188  1
  F  F21  1  0.544153  0.088306  0.250000  1
  F  F22  1  0.269209  0.134604  0.584812  1
  F  F23  1  0.134604  0.269209  0.084812  1
  F  F24  1  0.865396  0.134604  0.915188  1
  F  F25  1  0.088306  0.544153  0.750000  1
  F  F26  1  0.455847  0.544153  0.750000  1
  F  F27  1  0.911694  0.455847  0.250000  1
  F  F28  1  0.865396  0.730791  0.915188  1
  F  F29  1  0.865396  0.730791  0.584812  1
