# generated using pymatgen
data_SiO2
_symmetry_space_group_name_H-M   'P 1'
_cell_length_a   12.74830718
_cell_length_b   12.74830718
_cell_length_c   3.77618209
_cell_angle_alpha   90.00000000
_cell_angle_beta   90.00000000
_cell_angle_gamma   120.00000001
_symmetry_Int_Tables_number   1
_chemical_formula_structural   SiO2
_chemical_formula_sum   'Si12 O24'
_cell_volume   531.48204677
_cell_formula_units_Z   12
loop_
 _symmetry_equiv_pos_site_id
 _symmetry_equiv_pos_as_xyz
  1  'x, y, z'
loop_
 _atom_site_type_symbol
 _atom_site_label
 _atom_site_symmetry_multiplicity
 _atom_site_fract_x
 _atom_site_fract_y
 _atom_site_fract_z
 _atom_site_occupancy
  Si  Si0  1  0.141872  0.455309  0.345521  1
  Si  Si1  1  0.686563  0.141872  0.345521  1
  Si  Si2  1  0.455309  0.141872  0.654479  1
  Si  Si3  1  0.686563  0.544691  0.654479  1
  Si  Si4  1  0.858128  0.544691  0.345521  1
  Si  Si5  1  0.544691  0.858128  0.654479  1
  Si  Si6  1  0.455309  0.313437  0.345521  1
  Si  Si7  1  0.141872  0.686563  0.654479  1
  Si  Si8  1  0.544691  0.686563  0.345521  1
  Si  Si9  1  0.313437  0.858128  0.345521  1
  Si  Si10  1  0.858128  0.313437  0.654479  1
  Si  Si11  1  0.313437  0.455309  0.654479  1
  O  O12  1  0.754391  0.508782  0.000000  1
  O  O13  1  0.820983  0.641967  0.500000  1
  O  O14  1  0.591532  0.408468  0.500000  1
  O  O15  1  0.613970  0.000000  0.500000  1
  O  O16  1  0.820983  0.179017  0.500000  1
  O  O17  1  0.408468  0.816937  0.500000  1
  O  O18  1  0.245609  0.754391  0.000000  1
  O  O19  1  0.179017  0.358033  0.500000  1
  O  O20  1  0.491218  0.245609  0.000000  1
  O  O21  1  0.754391  0.245609  0.000000  1
  O  O22  1  0.408468  0.591532  0.500000  1
  O  O23  1  0.000000  0.613970  0.500000  1
  O  O24  1  0.183063  0.591532  0.500000  1
  O  O25  1  0.358033  0.179017  0.500000  1
  O  O26  1  0.386030  0.386030  0.500000  1
  O  O27  1  0.641967  0.820983  0.500000  1
  O  O28  1  0.508782  0.754391  0.000000  1
  O  O29  1  1.000000  0.386030  0.500000  1
  O  O30  1  0.179017  0.820983  0.500000  1
  O  O31  1  0.386030  0.000000  0.500000  1
  O  O32  1  0.816937  0.408468  0.500000  1
  O  O33  1  0.245609  0.491218  0.000000  1
  O  O34  1  0.591532  0.183063  0.500000  1
  O  O35  1  0.613970  0.613970  0.500000  1
