# generated using pymatgen
data_Na3SO4F
_symmetry_space_group_name_H-M   'P 1'
_cell_length_a   7.03592338
_cell_length_b   11.59844753
_cell_length_c   18.29677033
_cell_angle_alpha   107.59404437
_cell_angle_beta   90.00000000
_cell_angle_gamma   90.00000000
_symmetry_Int_Tables_number   1
_chemical_formula_structural   Na3SO4F
_chemical_formula_sum   'Na36 S12 O48 F12'
_cell_volume   1423.27722360
_cell_formula_units_Z   12
loop_
 _symmetry_equiv_pos_site_id
 _symmetry_equiv_pos_as_xyz
  1  'x, y, z'
loop_
 _atom_site_type_symbol
 _atom_site_label
 _atom_site_symmetry_multiplicity
 _atom_site_fract_x
 _atom_site_fract_y
 _atom_site_fract_z
 _atom_site_occupancy
  Na  Na0  1  0.022296  0.550894  0.773424  1
  Na  Na1  1  0.750000  0.699341  0.650979  1
  Na  Na2  1  0.477020  0.708506  0.970139  1
  Na  Na3  1  0.977704  0.449106  0.226576  1
  Na  Na4  1  0.477704  0.550894  0.773424  1
  Na  Na5  1  0.250000  0.873408  0.116336  1
  Na  Na6  1  0.499604  0.733043  0.244597  1
  Na  Na7  1  0.999604  0.266957  0.755403  1
  Na  Na8  1  0.750000  0.562245  0.106425  1
  Na  Na9  1  0.000396  0.733043  0.244597  1
  Na  Na10  1  0.750000  0.184307  0.148452  1
  Na  Na11  1  0.022980  0.708506  0.970139  1
  Na  Na12  1  0.482637  0.189855  0.465230  1
  Na  Na13  1  0.750000  0.126592  0.883664  1
  Na  Na14  1  0.027297  0.029692  0.279072  1
  Na  Na15  1  0.517363  0.810145  0.534770  1
  Na  Na16  1  0.000000  0.500000  0.500000  1
  Na  Na17  1  0.250000  0.437755  0.893575  1
  Na  Na18  1  0.500000  0.000000  0.000000  1
  Na  Na19  1  0.522980  0.291494  0.029861  1
  Na  Na20  1  0.250000  0.300659  0.349021  1
  Na  Na21  1  0.522296  0.449106  0.226576  1
  Na  Na22  1  0.750000  0.095076  0.605999  1
  Na  Na23  1  0.017363  0.189855  0.465230  1
  Na  Na24  1  0.982637  0.810145  0.534770  1
  Na  Na25  1  0.500000  0.500000  0.500000  1
  Na  Na26  1  0.250000  0.904924  0.394001  1
  Na  Na27  1  0.472703  0.029692  0.279072  1
  Na  Na28  1  0.250000  0.397538  0.614790  1
  Na  Na29  1  0.527297  0.970308  0.720928  1
  Na  Na30  1  0.250000  0.815693  0.851548  1
  Na  Na31  1  0.500396  0.266957  0.755403  1
  Na  Na32  1  0.750000  0.602462  0.385210  1
  Na  Na33  1  0.972703  0.970308  0.720928  1
  Na  Na34  1  0.000000  0.000000  0.000000  1
  Na  Na35  1  0.977020  0.291494  0.029861  1
  S  S36  1  0.250000  0.192776  0.161738  1
  S  S37  1  0.250000  0.543443  0.085153  1
  S  S38  1  0.250000  0.702224  0.653564  1
  S  S39  1  0.250000  0.612142  0.374726  1
  S  S40  1  0.750000  0.387858  0.625274  1
  S  S41  1  0.250000  0.082814  0.597158  1
  S  S42  1  0.250000  0.119396  0.869694  1
  S  S43  1  0.750000  0.297776  0.346436  1
  S  S44  1  0.750000  0.807224  0.838262  1
  S  S45  1  0.750000  0.917186  0.402842  1
  S  S46  1  0.750000  0.880604  0.130306  1
  S  S47  1  0.750000  0.456557  0.914847  1
  O  O48  1  0.250000  0.721638  0.443613  1
  O  O49  1  0.750000  0.683844  0.780431  1
  O  O50  1  0.250000  1.000347  0.807744  1
  O  O51  1  0.577166  0.821255  0.887332  1
  O  O52  1  0.250000  0.961971  0.537373  1
  O  O53  1  0.076376  0.095013  0.645929  1
  O  O54  1  0.923624  0.904987  0.354071  1
  O  O55  1  0.922834  0.821255  0.887332  1
  O  O56  1  0.250000  0.422461  0.024520  1
  O  O57  1  0.923785  0.224389  0.347217  1
  O  O58  1  0.750000  0.901533  0.798059  1
  O  O59  1  0.576215  0.224389  0.347217  1
  O  O60  1  0.750000  -0.000347  0.192256  1
  O  O61  1  0.422974  0.128082  0.918232  1
  O  O62  1  0.923338  0.446344  0.866362  1
  O  O63  1  0.750000  0.358624  0.952293  1
  O  O64  1  0.422834  0.178745  0.112668  1
  O  O65  1  0.250000  0.650535  0.303747  1
  O  O66  1  0.423785  0.775611  0.652783  1
  O  O67  1  0.250000  0.180365  0.559504  1
  O  O68  1  0.750000  0.819635  0.440496  1
  O  O69  1  0.250000  0.219659  0.834182  1
  O  O70  1  0.750000  0.038029  0.462627  1
  O  O71  1  0.750000  0.405294  0.415873  1
  O  O72  1  0.576376  0.904987  0.354071  1
  O  O73  1  0.750000  0.278362  0.556387  1
  O  O74  1  0.077166  0.178745  0.112668  1
  O  O75  1  0.577026  0.871918  0.081768  1
  O  O76  1  0.250000  0.594706  0.584127  1
  O  O77  1  0.077026  0.128082  0.918232  1
  O  O78  1  0.922849  0.462862  0.624990  1
  O  O79  1  0.750000  0.349465  0.696253  1
  O  O80  1  0.750000  0.336292  0.275498  1
  O  O81  1  0.576662  0.446344  0.866362  1
  O  O82  1  0.076662  0.553656  0.133638  1
  O  O83  1  0.922974  0.871918  0.081768  1
  O  O84  1  0.250000  0.663708  0.724502  1
  O  O85  1  0.423624  0.095013  0.645929  1
  O  O86  1  0.077151  0.537138  0.375010  1
  O  O87  1  0.250000  0.098467  0.201941  1
  O  O88  1  0.750000  0.577539  0.975480  1
  O  O89  1  0.750000  0.780341  0.165818  1
  O  O90  1  0.076215  0.775611  0.652783  1
  O  O91  1  0.423338  0.553656  0.133638  1
  O  O92  1  0.577151  0.462862  0.624990  1
  O  O93  1  0.250000  0.641376  0.047707  1
  O  O94  1  0.250000  0.316156  0.219569  1
  O  O95  1  0.422849  0.537138  0.375010  1
  F  F96  1  0.750000  0.373337  0.124575  1
  F  F97  1  0.750000  0.136835  0.762730  1
  F  F98  1  0.750000  0.123853  0.010444  1
  F  F99  1  0.250000  0.394756  0.742189  1
  F  F100  1  0.250000  0.093061  0.377969  1
  F  F101  1  0.750000  0.605244  0.257811  1
  F  F102  1  0.250000  0.876147  0.989556  1
  F  F103  1  0.250000  0.626663  0.875425  1
  F  F104  1  0.250000  0.863165  0.237270  1
  F  F105  1  0.750000  0.906939  0.622031  1
  F  F106  1  0.750000  0.643513  0.521032  1
  F  F107  1  0.250000  0.356487  0.478968  1
