# generated using pymatgen
data_Ta3P
_symmetry_space_group_name_H-M   'P 1'
_cell_length_a   5.04535278
_cell_length_b   10.22482560
_cell_length_c   10.22482560
_cell_angle_alpha   90.00000000
_cell_angle_beta   90.00000000
_cell_angle_gamma   90.00000000
_symmetry_Int_Tables_number   1
_chemical_formula_structural   Ta3P
_chemical_formula_sum   'Ta24 P8'
_cell_volume   527.47679250
_cell_formula_units_Z   8
loop_
 _symmetry_equiv_pos_site_id
 _symmetry_equiv_pos_as_xyz
  1  'x, y, z'
loop_
 _atom_site_type_symbol
 _atom_site_label
 _atom_site_symmetry_multiplicity
 _atom_site_fract_x
 _atom_site_fract_y
 _atom_site_fract_z
 _atom_site_occupancy
  Ta  Ta0  1  0.750000  0.342747  0.157253  1
  Ta  Ta1  1  0.250000  0.157253  0.157253  1
  Ta  Ta2  1  0.750000  0.842747  0.842747  1
  Ta  Ta3  1  0.500000  0.395825  0.750000  1
  Ta  Ta4  1  0.750000  0.049366  0.049366  1
  Ta  Ta5  1  0.750000  0.157253  0.342747  1
  Ta  Ta6  1  0.000000  0.750000  0.104175  1
  Ta  Ta7  1  0.250000  0.342747  0.342747  1
  Ta  Ta8  1  0.250000  0.049366  0.450634  1
  Ta  Ta9  1  0.000000  0.250000  0.895825  1
  Ta  Ta10  1  0.250000  0.549366  0.549366  1
  Ta  Ta11  1  0.750000  0.950634  0.549366  1
  Ta  Ta12  1  0.500000  0.604175  0.250000  1
  Ta  Ta13  1  0.250000  0.950634  0.950634  1
  Ta  Ta14  1  0.250000  0.657253  0.842747  1
  Ta  Ta15  1  0.000000  0.250000  0.604175  1
  Ta  Ta16  1  0.750000  0.549366  0.950634  1
  Ta  Ta17  1  0.500000  0.895825  0.250000  1
  Ta  Ta18  1  0.750000  0.450634  0.450634  1
  Ta  Ta19  1  0.250000  0.842747  0.657253  1
  Ta  Ta20  1  0.500000  0.104175  0.750000  1
  Ta  Ta21  1  0.750000  0.657253  0.657253  1
  Ta  Ta22  1  0.250000  0.450634  0.049366  1
  Ta  Ta23  1  0.000000  0.750000  0.395825  1
  P  P24  1  0.000000  0.542587  0.250000  1
  P  P25  1  0.000000  0.042587  0.750000  1
  P  P26  1  0.500000  0.750000  0.457413  1
  P  P27  1  0.500000  0.750000  0.042587  1
  P  P28  1  0.000000  0.957413  0.250000  1
  P  P29  1  0.500000  0.250000  0.957413  1
  P  P30  1  0.500000  0.250000  0.542587  1
  P  P31  1  0.000000  0.457413  0.750000  1
