# generated using pymatgen
data_CsK4TlO4
_symmetry_space_group_name_H-M   'P 1'
_cell_length_a   6.96513296
_cell_length_b   12.24873178
_cell_length_c   21.73200742
_cell_angle_alpha   90.00000000
_cell_angle_beta   90.00000000
_cell_angle_gamma   90.00000000
_symmetry_Int_Tables_number   1
_chemical_formula_structural   CsK4TlO4
_chemical_formula_sum   'Cs8 K32 Tl8 O32'
_cell_volume   1854.04546851
_cell_formula_units_Z   8
loop_
 _symmetry_equiv_pos_site_id
 _symmetry_equiv_pos_as_xyz
  1  'x, y, z'
loop_
 _atom_site_type_symbol
 _atom_site_label
 _atom_site_symmetry_multiplicity
 _atom_site_fract_x
 _atom_site_fract_y
 _atom_site_fract_z
 _atom_site_occupancy
  Cs  Cs0  1  0.417039  0.660230  1.001048  1
  Cs  Cs1  1  0.582961  0.339770  -0.001048  1
  Cs  Cs2  1  0.082961  0.660230  0.501048  1
  Cs  Cs3  1  0.917039  0.839770  1.001048  1
  Cs  Cs4  1  0.917039  0.339770  0.498952  1
  Cs  Cs5  1  0.582961  0.839770  0.501048  1
  Cs  Cs6  1  0.082961  0.160230  -0.001048  1
  Cs  Cs7  1  0.417039  0.160230  0.498952  1
  K  K8  1  0.419104  0.575811  0.251292  1
  K  K9  1  0.910685  0.173642  0.175007  1
  K  K10  1  0.089315  0.826358  0.824993  1
  K  K11  1  0.911697  0.057373  0.566650  1
  K  K12  1  0.408538  0.196642  0.854554  1
  K  K13  1  0.911697  0.557373  0.933350  1
  K  K14  1  0.411697  0.442627  0.566650  1
  K  K15  1  0.091462  0.696642  0.145446  1
  K  K16  1  0.580896  0.424189  0.748708  1
  K  K17  1  0.910685  0.673642  0.324993  1
  K  K18  1  0.589315  0.673642  0.824993  1
  K  K19  1  0.410685  0.326358  0.175007  1
  K  K20  1  0.419104  0.075811  0.248708  1
  K  K21  1  0.088303  0.942627  0.433350  1
  K  K22  1  0.591462  0.303358  0.354554  1
  K  K23  1  0.089315  0.326358  0.675007  1
  K  K24  1  0.408538  0.696642  0.645446  1
  K  K25  1  0.088303  0.442627  0.066650  1
  K  K26  1  0.080896  0.075811  0.748708  1
  K  K27  1  0.588303  0.057373  0.066650  1
  K  K28  1  0.908538  0.803358  0.645446  1
  K  K29  1  0.091462  0.196642  0.354554  1
  K  K30  1  0.410685  0.826358  0.324993  1
  K  K31  1  0.580896  0.924189  0.751292  1
  K  K32  1  0.591462  0.803358  0.145446  1
  K  K33  1  0.080896  0.575811  0.751292  1
  K  K34  1  0.919104  0.424189  0.248708  1
  K  K35  1  0.919104  0.924189  0.251292  1
  K  K36  1  0.908538  0.303358  0.854554  1
  K  K37  1  0.588303  0.557373  0.433350  1
  K  K38  1  0.589315  0.173642  0.675007  1
  K  K39  1  0.411697  0.942627  0.933350  1
  Tl  Tl40  1  0.808687  0.037231  0.872801  1
  Tl  Tl41  1  0.691313  0.037231  0.372801  1
  Tl  Tl42  1  0.191313  0.462769  0.372801  1
  Tl  Tl43  1  0.808687  0.537231  0.627199  1
  Tl  Tl44  1  0.308687  0.962769  0.627199  1
  Tl  Tl45  1  0.308687  0.462769  0.872801  1
  Tl  Tl46  1  0.691313  0.537231  0.127199  1
  Tl  Tl47  1  0.191313  0.962769  0.127199  1
  O  O48  1  0.336744  0.880374  0.049407  1
  O  O49  1  0.216257  0.873313  0.712048  1
  O  O50  1  0.715113  0.364074  0.634325  1
  O  O51  1  0.374888  0.042191  0.375976  1
  O  O52  1  0.284887  0.635926  0.365675  1
  O  O53  1  0.283743  0.873313  0.212048  1
  O  O54  1  0.783743  0.126687  0.287952  1
  O  O55  1  0.716257  0.126687  0.787952  1
  O  O56  1  0.163256  0.880374  0.549407  1
  O  O57  1  0.163256  0.380374  0.950593  1
  O  O58  1  0.663256  0.119626  0.950593  1
  O  O59  1  0.374888  0.542191  0.124024  1
  O  O60  1  0.216257  0.373313  0.787952  1
  O  O61  1  0.336744  0.380374  0.450593  1
  O  O62  1  0.284887  0.135926  0.134325  1
  O  O63  1  0.874888  0.957809  0.124024  1
  O  O64  1  0.715113  0.864074  0.865675  1
  O  O65  1  0.215113  0.635926  0.865675  1
  O  O66  1  0.836744  0.119626  0.450593  1
  O  O67  1  0.874888  0.457809  0.375976  1
  O  O68  1  0.625112  0.457809  0.875976  1
  O  O69  1  0.663256  0.619626  0.549407  1
  O  O70  1  0.125112  0.542191  0.624024  1
  O  O71  1  0.784887  0.864074  0.365675  1
  O  O72  1  0.625112  0.957809  0.624024  1
  O  O73  1  0.283743  0.373313  0.287952  1
  O  O74  1  0.784887  0.364074  0.134325  1
  O  O75  1  0.783743  0.626687  0.212048  1
  O  O76  1  0.125112  0.042191  0.875976  1
  O  O77  1  0.836744  0.619626  0.049407  1
  O  O78  1  0.716257  0.626687  0.712048  1
  O  O79  1  0.215113  0.135926  0.634325  1
