# generated using pymatgen
data_MnO2
_symmetry_space_group_name_H-M   'P 1'
_cell_length_a   2.90415769
_cell_length_b   6.16426404
_cell_length_c   3.84481040
_cell_angle_alpha   90.00009847
_cell_angle_beta   90.00003307
_cell_angle_gamma   90.00001410
_symmetry_Int_Tables_number   1
_chemical_formula_structural   MnO2
_chemical_formula_sum   'Mn2 O4'
_cell_volume   68.82977585
_cell_formula_units_Z   2
loop_
 _symmetry_equiv_pos_site_id
 _symmetry_equiv_pos_as_xyz
  1  'x, y, z'
loop_
 _atom_site_type_symbol
 _atom_site_label
 _atom_site_symmetry_multiplicity
 _atom_site_fract_x
 _atom_site_fract_y
 _atom_site_fract_z
 _atom_site_occupancy
  Mn  Mn0  1  -0.000001  0.968307  1.000000  1
  Mn  Mn1  1  0.500000  0.281704  0.500001  1
  O  O2  1  0.000000  0.046805  0.500000  1
  O  O3  1  0.500000  0.203198  0.000000  1
  O  O4  1  -0.000000  0.462573  0.500000  1
  O  O5  1  0.500000  0.787413  0.999999  1
