# generated using pymatgen
data_Yb11GaSb9
_symmetry_space_group_name_H-M   'P 1'
_cell_length_a   11.81453357
_cell_length_b   11.98589695
_cell_length_c   11.98589692
_cell_angle_alpha   62.26487157
_cell_angle_beta   60.47182549
_cell_angle_gamma   60.47182675
_symmetry_Int_Tables_number   1
_chemical_formula_structural   Yb11GaSb9
_chemical_formula_sum   'Yb22 Ga2 Sb18'
_cell_volume   1228.28227548
_cell_formula_units_Z   2
loop_
 _symmetry_equiv_pos_site_id
 _symmetry_equiv_pos_as_xyz
  1  'x, y, z'
loop_
 _atom_site_type_symbol
 _atom_site_label
 _atom_site_symmetry_multiplicity
 _atom_site_fract_x
 _atom_site_fract_y
 _atom_site_fract_z
 _atom_site_occupancy
  Yb  Yb0  1  0.186410  0.189226  0.068851  1
  Yb  Yb1  1  0.677102  0.322898  0.322898  1
  Yb  Yb2  1  0.752090  0.887268  0.430566  1
  Yb  Yb3  1  0.555513  0.068851  0.189226  1
  Yb  Yb4  1  0.659389  0.672635  0.329985  1
  Yb  Yb5  1  0.430076  0.387268  0.930566  1
  Yb  Yb6  1  0.837991  0.172635  0.829985  1
  Yb  Yb7  1  0.337991  0.329985  0.672635  1
  Yb  Yb8  1  0.177102  0.822898  0.822898  1
  Yb  Yb9  1  0.728372  0.064062  0.617793  1
  Yb  Yb10  1  0.686410  0.568851  0.689226  1
  Yb  Yb11  1  0.311771  0.425056  0.318449  1
  Yb  Yb12  1  0.930076  0.430566  0.887268  1
  Yb  Yb13  1  0.944725  0.318449  0.425056  1
  Yb  Yb14  1  0.228372  0.117793  0.564062  1
  Yb  Yb15  1  0.159389  0.829985  0.172635  1
  Yb  Yb16  1  0.811771  0.818449  0.925056  1
  Yb  Yb17  1  0.055513  0.689226  0.568851  1
  Yb  Yb18  1  0.589774  0.617793  0.064062  1
  Yb  Yb19  1  0.252090  0.930566  0.387268  1
  Yb  Yb20  1  0.089774  0.564062  0.117793  1
  Yb  Yb21  1  0.444725  0.925056  0.818449  1
  Ga  Ga22  1  0.392214  0.607786  0.607786  1
  Ga  Ga23  1  0.892214  0.107786  0.107786  1
  Sb  Sb24  1  0.874380  0.882386  0.110524  1
  Sb  Sb25  1  0.161667  0.551440  0.828940  1
  Sb  Sb26  1  0.632711  0.382386  0.610524  1
  Sb  Sb27  1  0.032821  0.392347  0.613251  1
  Sb  Sb28  1  0.251612  0.248388  0.248388  1
  Sb  Sb29  1  0.961582  0.613251  0.392347  1
  Sb  Sb30  1  0.661667  0.328940  0.051440  1
  Sb  Sb31  1  0.751612  0.748388  0.748388  1
  Sb  Sb32  1  0.457953  0.828940  0.551440  1
  Sb  Sb33  1  0.532821  0.113251  0.892347  1
  Sb  Sb34  1  0.132711  0.110524  0.882386  1
  Sb  Sb35  1  0.957953  0.051440  0.328940  1
  Sb  Sb36  1  0.461582  0.892347  0.113251  1
  Sb  Sb37  1  0.503051  0.139433  0.495806  1
  Sb  Sb38  1  0.361709  0.639433  0.995806  1
  Sb  Sb39  1  0.003051  0.995806  0.639433  1
  Sb  Sb40  1  0.374380  0.610524  0.382386  1
  Sb  Sb41  1  0.861709  0.495806  0.139433  1
