# generated using pymatgen
data_NaFe3Si3O10
_symmetry_space_group_name_H-M   'P 1'
_cell_length_a   9.04175258
_cell_length_b   9.83323682
_cell_length_c   10.46051129
_cell_angle_alpha   65.12885002
_cell_angle_beta   83.47051889
_cell_angle_gamma   65.88613650
_symmetry_Int_Tables_number   1
_chemical_formula_structural   NaFe3Si3O10
_chemical_formula_sum   'Na4 Fe12 Si12 O40'
_cell_volume   768.25360599
_cell_formula_units_Z   4
loop_
 _symmetry_equiv_pos_site_id
 _symmetry_equiv_pos_as_xyz
  1  'x, y, z'
loop_
 _atom_site_type_symbol
 _atom_site_label
 _atom_site_symmetry_multiplicity
 _atom_site_fract_x
 _atom_site_fract_y
 _atom_site_fract_z
 _atom_site_occupancy
  Na  Na0  1  0.611160  0.633578  0.577786  1
  Na  Na1  1  0.631174  0.612922  0.048316  1
  Na  Na2  1  0.388840  0.366422  0.422214  1
  Na  Na3  1  0.368826  0.387078  0.951684  1
  Fe  Fe4  1  0.151006  0.180832  0.051802  1
  Fe  Fe5  1  0.818872  0.851522  0.467341  1
  Fe  Fe6  1  0.848994  0.819168  0.948198  1
  Fe  Fe7  1  0.263781  0.262985  0.743518  1
  Fe  Fe8  1  0.181128  0.148478  0.532659  1
  Fe  Fe9  1  0.941309  0.934603  0.158418  1
  Fe  Fe10  1  0.933333  0.941818  0.653643  1
  Fe  Fe11  1  0.066667  0.058182  0.346357  1
  Fe  Fe12  1  0.500000  0.000000  0.000000  1
  Fe  Fe13  1  0.736219  0.737015  0.256482  1
  Fe  Fe14  1  0.000000  0.500000  0.500000  1
  Fe  Fe15  1  0.058691  0.065397  0.841582  1
  Si  Si16  1  0.448662  0.053619  0.296498  1
  Si  Si17  1  0.223673  0.663258  0.061785  1
  Si  Si18  1  0.551338  0.946381  0.703502  1
  Si  Si19  1  0.342143  0.767247  0.249252  1
  Si  Si20  1  0.671450  0.233567  0.242198  1
  Si  Si21  1  0.046630  0.443920  0.204836  1
  Si  Si22  1  0.657857  0.232754  0.750748  1
  Si  Si23  1  0.239254  0.662446  0.548163  1
  Si  Si24  1  0.760746  0.337554  0.451837  1
  Si  Si25  1  0.776327  0.336742  0.938215  1
  Si  Si26  1  0.953370  0.556080  0.795164  1
  Si  Si27  1  0.328550  0.766433  0.757802  1
  O  O28  1  0.276124  0.069059  0.918521  1
  O  O29  1  0.372462  0.679274  0.423881  1
  O  O30  1  0.627538  0.320726  0.576119  1
  O  O31  1  0.824223  0.067684  0.791767  1
  O  O32  1  0.936204  0.167150  0.986115  1
  O  O33  1  0.666886  0.360846  0.309848  1
  O  O34  1  0.129673  0.398867  0.852668  1
  O  O35  1  0.926858  0.171147  0.491548  1
  O  O36  1  0.396154  0.124682  0.635779  1
  O  O37  1  0.163948  0.931805  0.713964  1
  O  O38  1  0.887532  0.604187  0.634401  1
  O  O39  1  0.929841  0.724310  0.341821  1
  O  O40  1  0.042020  0.288752  0.186522  1
  O  O41  1  0.175777  0.932316  0.208233  1
  O  O42  1  0.603104  0.882670  0.871962  1
  O  O43  1  0.070159  0.275690  0.658179  1
  O  O44  1  0.723876  0.930941  0.081479  1
  O  O45  1  0.678759  0.366908  0.798683  1
  O  O46  1  0.490987  0.803859  0.704427  1
  O  O47  1  0.185733  0.501808  0.100208  1
  O  O48  1  0.112468  0.395813  0.365599  1
  O  O49  1  0.063796  0.832850  0.013885  1
  O  O50  1  0.703564  0.950201  0.604164  1
  O  O51  1  0.957980  0.711248  0.813478  1
  O  O52  1  0.350656  0.661691  0.932801  1
  O  O53  1  0.396896  0.117330  0.128038  1
  O  O54  1  0.649344  0.338309  0.067199  1
  O  O55  1  0.507807  0.783643  0.174963  1
  O  O56  1  0.218708  0.495181  0.571202  1
  O  O57  1  0.073142  0.828853  0.508452  1
  O  O58  1  0.333114  0.639154  0.690152  1
  O  O59  1  0.603846  0.875318  0.364221  1
  O  O60  1  0.492193  0.216357  0.825037  1
  O  O61  1  0.836052  0.068195  0.286036  1
  O  O62  1  0.296436  0.049799  0.395836  1
  O  O63  1  0.814267  0.498192  0.899792  1
  O  O64  1  0.509013  0.196141  0.295573  1
  O  O65  1  0.781292  0.504819  0.428798  1
  O  O66  1  0.870327  0.601133  0.147331  1
  O  O67  1  0.321241  0.633092  0.201317  1
