# generated using pymatgen
data_SbBr5F6
_symmetry_space_group_name_H-M   'P 1'
_cell_length_a   7.47793456
_cell_length_b   7.47358229
_cell_length_c   13.23539772
_cell_angle_alpha   95.13796794
_cell_angle_beta   111.33246565
_cell_angle_gamma   101.32833090
_symmetry_Int_Tables_number   1
_chemical_formula_structural   SbBr5F6
_chemical_formula_sum   'Sb2 Br10 F12'
_cell_volume   665.00251642
_cell_formula_units_Z   2
loop_
 _symmetry_equiv_pos_site_id
 _symmetry_equiv_pos_as_xyz
  1  'x, y, z'
loop_
 _atom_site_type_symbol
 _atom_site_label
 _atom_site_symmetry_multiplicity
 _atom_site_fract_x
 _atom_site_fract_y
 _atom_site_fract_z
 _atom_site_occupancy
  Br  Br0  1  0.500000  0.000000  0.500000  1
  Br  Br1  1  0.000000  0.000000  0.000000  1
  Br  Br2  1  0.873035  0.139547  0.572850  1
  Br  Br3  1  0.066349  0.300436  0.926942  1
  Br  Br4  1  0.126965  0.860453  0.427150  1
  Br  Br5  1  0.933651  0.699564  0.073058  1
  Br  Br6  1  0.987422  0.924514  0.677697  1
  Br  Br7  1  0.746488  0.309066  0.821865  1
  Br  Br8  1  0.012578  0.075486  0.322303  1
  Br  Br9  1  0.253512  0.690934  0.178135  1
  Sb  Sb10  1  0.608733  0.358651  0.249986  1
  Sb  Sb11  1  0.391267  0.641349  0.750014  1
  F  F12  1  0.652624  0.625754  0.273454  1
  F  F13  1  0.852219  0.378662  0.226397  1
  F  F14  1  0.347376  0.374246  0.726546  1
  F  F15  1  0.147781  0.621338  0.773603  1
  F  F16  1  0.371839  0.339511  0.276754  1
  F  F17  1  0.563465  0.094818  0.223641  1
  F  F18  1  0.628161  0.660489  0.723246  1
  F  F19  1  0.436535  0.905182  0.776359  1
  F  F20  1  0.759679  0.371642  0.404961  1
  F  F21  1  0.466627  0.354239  0.095143  1
  F  F22  1  0.240321  0.628358  0.595039  1
  F  F23  1  0.533373  0.645761  0.904857  1
