# generated using pymatgen
data_PH8C2NO4
_symmetry_space_group_name_H-M   'P 1'
_cell_length_a   7.85770711
_cell_length_b   8.95624762
_cell_length_c   9.09561506
_cell_angle_alpha   103.12239266
_cell_angle_beta   90.00000000
_cell_angle_gamma   90.00000000
_symmetry_Int_Tables_number   1
_chemical_formula_structural   PH8C2NO4
_chemical_formula_sum   'P4 H32 C8 N4 O16'
_cell_volume   623.39413073
_cell_formula_units_Z   4
loop_
 _symmetry_equiv_pos_site_id
 _symmetry_equiv_pos_as_xyz
  1  'x, y, z'
loop_
 _atom_site_type_symbol
 _atom_site_label
 _atom_site_symmetry_multiplicity
 _atom_site_fract_x
 _atom_site_fract_y
 _atom_site_fract_z
 _atom_site_occupancy
  P  P0  1  0.476377  0.612292  0.235124  1
  P  P1  1  0.523623  0.387708  0.764876  1
  P  P2  1  0.023623  0.112292  0.235124  1
  P  P3  1  0.976377  0.887708  0.764876  1
  H  H4  1  0.984796  0.764119  0.448813  1
  H  H5  1  0.515204  0.264119  0.448813  1
  H  H6  1  0.137521  0.652006  0.098295  1
  H  H7  1  0.382761  0.976072  0.820837  1
  H  H8  1  0.442869  0.688693  0.719199  1
  H  H9  1  0.790154  0.723191  0.365120  1
  H  H10  1  1.001740  0.140894  -0.001462  1
  H  H11  1  0.942869  0.811307  0.280801  1
  H  H12  1  0.015204  0.235881  0.551187  1
  H  H13  1  0.990809  0.500127  0.342615  1
  H  H14  1  0.362479  0.152006  0.098295  1
  H  H15  1  0.498260  0.640894  -0.001462  1
  H  H16  1  0.209846  0.276809  0.634880  1
  H  H17  1  0.484796  0.735881  0.551187  1
  H  H18  1  0.709846  0.223191  0.365120  1
  H  H19  1  0.509191  1.000127  0.342615  1
  H  H20  1  0.637521  0.847994  0.901705  1
  H  H21  1  0.009191  0.499873  0.657385  1
  H  H22  1  0.057131  0.188693  0.719199  1
  H  H23  1  0.557131  0.311307  0.280801  1
  H  H24  1  0.821918  0.539573  0.880936  1
  H  H25  1  0.882761  0.523928  0.179163  1
  H  H26  1  0.290154  0.776809  0.634880  1
  H  H27  1  0.678082  0.039573  0.880936  1
  H  H28  1  0.862479  0.347994  0.901705  1
  H  H29  1  0.490809  -0.000127  0.657385  1
  H  H30  1  -0.001740  0.859106  1.001462  1
  H  H31  1  0.501740  0.359106  1.001462  1
  H  H32  1  0.117239  0.476072  0.820837  1
  H  H33  1  0.178082  0.460427  0.119064  1
  H  H34  1  0.617239  0.023928  0.179163  1
  H  H35  1  0.321918  0.960427  0.119064  1
  C  C36  1  0.519353  0.074022  0.261886  1
  C  C37  1  0.480647  0.925978  0.738114  1
  C  C38  1  0.147355  0.578178  0.179746  1
  C  C39  1  0.019353  0.425978  0.738114  1
  C  C40  1  0.980647  0.574022  0.261886  1
  C  C41  1  0.647355  0.921822  0.820254  1
  C  C42  1  0.352645  0.078178  0.179746  1
  C  C43  1  0.852645  0.421822  0.820254  1
  N  N44  1  0.921808  0.728693  0.344469  1
  N  N45  1  0.078192  0.271307  0.655531  1
  N  N46  1  0.421808  0.771307  0.655531  1
  N  N47  1  0.578192  0.228693  0.344469  1
  O  O48  1  0.923898  0.187120  0.374420  1
  O  O49  1  0.423898  0.312880  0.625580  1
  O  O50  1  0.076102  0.812880  0.625580  1
  O  O51  1  0.779487  0.863050  0.712257  1
  O  O52  1  0.503324  0.705383  0.107752  1
  O  O53  1  0.220513  0.136950  0.287743  1
  O  O54  1  0.009231  0.057809  0.831289  1
  O  O55  1  0.996676  0.205383  0.107752  1
  O  O56  1  0.003324  0.794617  0.892248  1
  O  O57  1  0.509231  0.442191  0.168711  1
  O  O58  1  0.496676  0.294617  0.892248  1
  O  O59  1  0.990769  0.942191  0.168711  1
  O  O60  1  0.279487  0.636950  0.287743  1
  O  O61  1  0.720513  0.363050  0.712257  1
  O  O62  1  0.490769  0.557809  0.831289  1
  O  O63  1  0.576102  0.687120  0.374420  1
