# generated using pymatgen
data_Ba5Cu4ClF17
_symmetry_space_group_name_H-M   'P 1'
_cell_length_a   10.88786621
_cell_length_b   10.88786657
_cell_length_c   13.02938713
_cell_angle_alpha   90.00000000
_cell_angle_beta   90.00000000
_cell_angle_gamma   119.99999895
_symmetry_Int_Tables_number   1
_chemical_formula_structural   Ba5Cu4ClF17
_chemical_formula_sum   'Ba15 Cu12 Cl3 F51'
_cell_volume   1337.64290344
_cell_formula_units_Z   3
loop_
 _symmetry_equiv_pos_site_id
 _symmetry_equiv_pos_as_xyz
  1  'x, y, z'
loop_
 _atom_site_type_symbol
 _atom_site_label
 _atom_site_symmetry_multiplicity
 _atom_site_fract_x
 _atom_site_fract_y
 _atom_site_fract_z
 _atom_site_occupancy
  Ba  Ba0  1  1.000000  0.268569  0.308541  1
  Ba  Ba1  1  0.666667  0.333333  0.839599  1
  Ba  Ba2  1  0.731431  0.731431  0.308541  1
  Ba  Ba3  1  0.333333  0.666667  0.839599  1
  Ba  Ba4  1  0.333333  0.666667  0.160401  1
  Ba  Ba5  1  0.731431  0.731431  0.691459  1
  Ba  Ba6  1  1.000000  0.268569  0.691459  1
  Ba  Ba7  1  0.666667  0.333333  0.160401  1
  Ba  Ba8  1  0.000000  0.755938  0.000000  1
  Ba  Ba9  1  0.268569  0.000000  0.691459  1
  Ba  Ba10  1  0.244062  0.244062  0.000000  1
  Ba  Ba11  1  0.755938  0.000000  0.000000  1
  Ba  Ba12  1  0.666667  0.333333  0.500000  1
  Ba  Ba13  1  0.333333  0.666667  0.500000  1
  Ba  Ba14  1  0.268569  0.000000  0.308541  1
  Cu  Cu15  1  0.000000  0.762106  0.500000  1
  Cu  Cu16  1  0.421128  0.000000  0.000000  1
  Cu  Cu17  1  0.762106  0.000000  0.500000  1
  Cu  Cu18  1  0.595965  0.000000  0.734560  1
  Cu  Cu19  1  1.000000  0.421128  0.000000  1
  Cu  Cu20  1  0.404035  0.404035  0.265440  1
  Cu  Cu21  1  0.000000  0.595965  0.734560  1
  Cu  Cu22  1  0.578872  0.578872  0.000000  1
  Cu  Cu23  1  0.237894  0.237894  0.500000  1
  Cu  Cu24  1  0.000000  0.595965  0.265440  1
  Cu  Cu25  1  0.595965  0.000000  0.265440  1
  Cu  Cu26  1  0.404035  0.404035  0.734560  1
  Cl  Cl27  1  0.000000  0.000000  0.165767  1
  Cl  Cl28  1  0.000000  0.000000  0.834233  1
  Cl  Cl29  1  0.000000  0.000000  0.500000  1
  F  F30  1  0.758222  0.144542  0.190132  1
  F  F31  1  0.368878  0.162983  0.500000  1
  F  F32  1  0.570058  0.143941  0.665076  1
  F  F33  1  0.243806  0.000000  0.000000  1
  F  F34  1  0.855458  0.613680  0.809868  1
  F  F35  1  0.143941  0.570058  0.665076  1
  F  F36  1  0.573884  0.429942  0.665076  1
  F  F37  1  0.856059  0.426116  0.665076  1
  F  F38  1  0.143941  0.570058  0.334924  1
  F  F39  1  0.633206  0.161459  0.000000  1
  F  F40  1  0.205895  0.837017  0.500000  1
  F  F41  1  1.000000  0.243806  0.000000  1
  F  F42  1  0.429942  0.573884  0.665076  1
  F  F43  1  0.855458  0.613680  0.190132  1
  F  F44  1  0.837017  0.205895  0.500000  1
  F  F45  1  0.758222  0.144542  0.809868  1
  F  F46  1  0.528253  0.366794  0.000000  1
  F  F47  1  0.227824  0.227824  0.355672  1
  F  F48  1  0.429624  0.000000  0.852407  1
  F  F49  1  0.386320  0.241778  0.809868  1
  F  F50  1  0.426116  0.856059  0.334924  1
  F  F51  1  0.426116  0.856059  0.665076  1
  F  F52  1  0.613680  0.855458  0.809868  1
  F  F53  1  0.573884  0.429942  0.334924  1
  F  F54  1  0.144542  0.758222  0.190132  1
  F  F55  1  0.429942  0.573884  0.334924  1
  F  F56  1  0.613680  0.855458  0.190132  1
  F  F57  1  0.000000  0.772176  0.644328  1
  F  F58  1  0.366794  0.528253  0.000000  1
  F  F59  1  0.000000  0.429624  0.852407  1
  F  F60  1  0.161459  0.633206  0.000000  1
  F  F61  1  0.162983  0.368878  0.500000  1
  F  F62  1  0.429624  0.000000  0.147593  1
  F  F63  1  0.241778  0.386320  0.190132  1
  F  F64  1  0.772176  0.000000  0.355672  1
  F  F65  1  0.241778  0.386320  0.809868  1
  F  F66  1  0.000000  0.429624  0.147593  1
  F  F67  1  0.386320  0.241778  0.190132  1
  F  F68  1  0.570376  0.570376  0.147593  1
  F  F69  1  0.227824  0.227824  0.644328  1
  F  F70  1  0.794105  0.631122  0.500000  1
  F  F71  1  0.856059  0.426116  0.334924  1
  F  F72  1  0.570376  0.570376  0.852407  1
  F  F73  1  0.631122  0.794105  0.500000  1
  F  F74  1  0.000000  0.772176  0.355672  1
  F  F75  1  0.144542  0.758222  0.809868  1
  F  F76  1  0.471747  0.838541  0.000000  1
  F  F77  1  0.772176  0.000000  0.644328  1
  F  F78  1  0.838541  0.471747  0.000000  1
  F  F79  1  0.570058  0.143941  0.334924  1
  F  F80  1  0.756194  0.756194  0.000000  1
