# generated using pymatgen
data_K9Bi5O13
_symmetry_space_group_name_H-M   'P 1'
_cell_length_a   5.82338744
_cell_length_b   15.37680236
_cell_length_c   26.11596621
_cell_angle_alpha   102.30628592
_cell_angle_beta   90.00000000
_cell_angle_gamma   90.00000000
_symmetry_Int_Tables_number   1
_chemical_formula_structural   K9Bi5O13
_chemical_formula_sum   'K36 Bi20 O52'
_cell_volume   2284.82134078
_cell_formula_units_Z   4
loop_
 _symmetry_equiv_pos_site_id
 _symmetry_equiv_pos_as_xyz
  1  'x, y, z'
loop_
 _atom_site_type_symbol
 _atom_site_label
 _atom_site_symmetry_multiplicity
 _atom_site_fract_x
 _atom_site_fract_y
 _atom_site_fract_z
 _atom_site_occupancy
  K  K0  1  0.740616  0.825903  0.300406  1
  K  K1  1  0.259384  0.174097  0.699594  1
  K  K2  1  0.236101  0.424599  0.302257  1
  K  K3  1  0.736101  0.075401  0.197743  1
  K  K4  1  0.731467  0.055353  0.614210  1
  K  K5  1  0.250634  0.686547  0.918849  1
  K  K6  1  0.768533  0.555353  0.114210  1
  K  K7  1  0.754961  0.797428  0.439503  1
  K  K8  1  0.186390  0.928898  0.100170  1
  K  K9  1  0.744127  0.303328  0.497402  1
  K  K10  1  0.249560  0.942726  0.240433  1
  K  K11  1  0.750440  0.057274  0.759567  1
  K  K12  1  0.313610  0.428898  0.600170  1
  K  K13  1  0.745778  0.806958  0.718304  1
  K  K14  1  0.245039  0.202572  0.560497  1
  K  K15  1  0.750634  0.813453  0.581151  1
  K  K16  1  0.813610  0.071102  0.899830  1
  K  K17  1  0.755873  0.803328  0.997402  1
  K  K18  1  0.245778  0.693042  0.781696  1
  K  K19  1  0.254961  0.702572  0.060497  1
  K  K20  1  0.255873  0.696672  0.502598  1
  K  K21  1  0.268533  0.944647  0.385790  1
  K  K22  1  0.231467  0.444647  0.885790  1
  K  K23  1  0.263899  0.924599  0.802257  1
  K  K24  1  0.240616  0.674097  0.199594  1
  K  K25  1  0.749366  0.313453  0.081151  1
  K  K26  1  0.244127  0.196672  0.002598  1
  K  K27  1  0.745039  0.297428  0.939503  1
  K  K28  1  0.749560  0.557274  0.259567  1
  K  K29  1  0.249366  0.186547  0.418849  1
  K  K30  1  0.686390  0.571102  0.399830  1
  K  K31  1  0.754222  0.306958  0.218304  1
  K  K32  1  0.763899  0.575401  0.697743  1
  K  K33  1  0.759384  0.325903  0.800406  1
  K  K34  1  0.254222  0.193042  0.281696  1
  K  K35  1  0.250440  0.442726  0.740433  1
  Bi  Bi36  1  0.721072  0.545908  0.968815  1
  Bi  Bi37  1  0.702822  0.799408  0.162671  1
  Bi  Bi38  1  0.257265  0.922463  0.661207  1
  Bi  Bi39  1  0.761491  0.325225  0.364599  1
  Bi  Bi40  1  0.297178  0.200592  0.837329  1
  Bi  Bi41  1  0.738509  0.825225  0.864599  1
  Bi  Bi42  1  0.778928  0.045908  0.468815  1
  Bi  Bi43  1  0.298678  0.933864  0.958714  1
  Bi  Bi44  1  0.242735  0.422463  0.161207  1
  Bi  Bi45  1  0.798678  0.566136  0.541286  1
  Bi  Bi46  1  0.701322  0.066136  0.041286  1
  Bi  Bi47  1  0.202822  0.700592  0.337329  1
  Bi  Bi48  1  0.201322  0.433864  0.458714  1
  Bi  Bi49  1  0.238509  0.674775  0.635401  1
  Bi  Bi50  1  0.261491  0.174775  0.135401  1
  Bi  Bi51  1  0.757265  0.577537  0.838793  1
  Bi  Bi52  1  0.742735  0.077537  0.338793  1
  Bi  Bi53  1  0.221072  0.954092  0.531185  1
  Bi  Bi54  1  0.797178  0.299408  0.662671  1
  Bi  Bi55  1  0.278928  0.454092  0.031185  1
  O  O56  1  0.231047  0.799613  0.696892  1
  O  O57  1  0.755664  0.695347  0.199055  1
  O  O58  1  0.200456  0.086108  0.786498  1
  O  O59  1  0.730472  0.453549  0.897083  1
  O  O60  1  0.744336  0.195347  0.699055  1
  O  O61  1  0.838644  0.770864  0.089163  1
  O  O62  1  0.124466  0.333640  0.376627  1
  O  O63  1  0.661356  0.270864  0.589163  1
  O  O64  1  0.663146  0.953749  0.962251  1
  O  O65  1  0.142970  0.311505  0.653941  1
  O  O66  1  0.235820  0.084955  0.184852  1
  O  O67  1  0.264180  0.584955  0.684852  1
  O  O68  1  0.756652  0.153975  0.417529  1
  O  O69  1  0.243348  0.846025  0.582471  1
  O  O70  1  0.357030  0.811505  0.153941  1
  O  O71  1  0.299544  0.586108  0.286498  1
  O  O72  1  0.737039  0.167101  0.000595  1
  O  O73  1  0.731047  0.700387  0.803108  1
  O  O74  1  0.255664  0.804653  0.300945  1
  O  O75  1  0.700456  0.413892  0.713502  1
  O  O76  1  0.108055  0.563742  0.829591  1
  O  O77  1  0.875534  0.666360  0.623373  1
  O  O78  1  0.762961  0.667101  0.500595  1
  O  O79  1  0.860897  0.936804  0.521100  1
  O  O80  1  0.237039  0.332899  0.499405  1
  O  O81  1  0.799544  0.913892  0.213502  1
  O  O82  1  0.391945  0.063742  0.329591  1
  O  O83  1  0.857030  0.688495  0.346059  1
  O  O84  1  0.336854  0.046251  0.037749  1
  O  O85  1  0.338644  0.729136  0.410837  1
  O  O86  1  0.642970  0.188495  0.846059  1
  O  O87  1  0.161356  0.229136  0.910837  1
  O  O88  1  0.735820  0.415045  0.315148  1
  O  O89  1  0.256652  0.346025  0.082471  1
  O  O90  1  0.764180  0.915045  0.815148  1
  O  O91  1  0.163146  0.546251  0.537749  1
  O  O92  1  0.375534  0.833640  0.876627  1
  O  O93  1  0.608055  0.936258  0.670409  1
  O  O94  1  0.639103  0.436804  0.021100  1
  O  O95  1  0.769528  0.953549  0.397083  1
  O  O96  1  0.743348  0.653975  0.917529  1
  O  O97  1  0.624466  0.166360  0.123373  1
  O  O98  1  0.269528  0.546451  0.102917  1
  O  O99  1  0.268953  0.299613  0.196892  1
  O  O100  1  0.139103  0.063196  0.478900  1
  O  O101  1  0.244336  0.304653  0.800945  1
  O  O102  1  0.262961  0.832899  0.999405  1
  O  O103  1  0.230472  0.046451  0.602917  1
  O  O104  1  0.360897  0.563196  0.978900  1
  O  O105  1  0.891945  0.436258  0.170409  1
  O  O106  1  0.836854  0.453749  0.462251  1
  O  O107  1  0.768953  0.200387  0.303108  1
