# generated using pymatgen
data_NaLiY2F8
_symmetry_space_group_name_H-M   'P 1'
_cell_length_a   6.75994474
_cell_length_b   6.76507641
_cell_length_c   7.12761466
_cell_angle_alpha   90.00000000
_cell_angle_beta   90.00000000
_cell_angle_gamma   103.20362619
_symmetry_Int_Tables_number   1
_chemical_formula_structural   NaLiY2F8
_chemical_formula_sum   'Na2 Li2 Y4 F16'
_cell_volume   317.33996624
_cell_formula_units_Z   2
loop_
 _symmetry_equiv_pos_site_id
 _symmetry_equiv_pos_as_xyz
  1  'x, y, z'
loop_
 _atom_site_type_symbol
 _atom_site_label
 _atom_site_symmetry_multiplicity
 _atom_site_fract_x
 _atom_site_fract_y
 _atom_site_fract_z
 _atom_site_occupancy
  Na  Na0  1  0.657768  0.658001  0.250000  1
  Na  Na1  1  0.342232  0.341999  0.750000  1
  Li  Li2  1  0.000000  0.000000  0.000000  1
  Li  Li3  1  0.000000  0.000000  0.500000  1
  Y  Y4  1  0.549721  0.923328  0.750000  1
  Y  Y5  1  0.923325  0.549555  0.750000  1
  Y  Y6  1  0.450279  0.076672  0.250000  1
  Y  Y7  1  0.076675  0.450445  0.250000  1
  F  F8  1  0.691093  0.254193  0.750000  1
  F  F9  1  0.745780  0.308627  0.250000  1
  F  F10  1  0.338944  0.063985  0.550840  1
  F  F11  1  0.661056  0.936015  0.449160  1
  F  F12  1  0.308907  0.745807  0.250000  1
  F  F13  1  0.064223  0.339287  0.550884  1
  F  F14  1  0.661056  0.936015  0.050840  1
  F  F15  1  0.254220  0.691373  0.750000  1
  F  F16  1  0.087857  0.087774  0.250000  1
  F  F17  1  0.608660  0.608685  0.750000  1
  F  F18  1  0.064223  0.339287  0.949116  1
  F  F19  1  0.912143  0.912226  0.750000  1
  F  F20  1  0.935778  0.660713  0.449116  1
  F  F21  1  0.391340  0.391315  0.250000  1
  F  F22  1  0.338944  0.063985  0.949160  1
  F  F23  1  0.935778  0.660713  0.050884  1
