# generated using pymatgen
data_K3Fe(CN)6
_symmetry_space_group_name_H-M   'P 1'
_cell_length_a   7.11207133
_cell_length_b   8.43281553
_cell_length_c   10.53803184
_cell_angle_alpha   90.00000000
_cell_angle_beta   90.00000000
_cell_angle_gamma   107.17358445
_symmetry_Int_Tables_number   1
_chemical_formula_structural   K3Fe(CN)6
_chemical_formula_sum   'K6 Fe2 C12 N12'
_cell_volume   603.83750055
_cell_formula_units_Z   2
loop_
 _symmetry_equiv_pos_site_id
 _symmetry_equiv_pos_as_xyz
  1  'x, y, z'
loop_
 _atom_site_type_symbol
 _atom_site_label
 _atom_site_symmetry_multiplicity
 _atom_site_fract_x
 _atom_site_fract_y
 _atom_site_fract_z
 _atom_site_occupancy
  K  K0  1  0.498662  0.875254  0.271909  1
  K  K1  1  0.501338  0.624746  0.771909  1
  K  K2  1  0.501338  0.124746  0.728091  1
  K  K3  1  0.498662  0.375254  0.228091  1
  K  K4  1  0.000000  0.500000  0.000000  1
  K  K5  1  0.000000  0.000000  0.500000  1
  Fe  Fe6  1  0.000000  0.000000  0.000000  1
  Fe  Fe7  1  0.000000  0.500000  0.500000  1
  C  C8  1  0.880968  0.971601  0.835892  1
  C  C9  1  0.119032  0.528399  0.335892  1
  C  C10  1  0.119032  0.028399  0.164108  1
  C  C11  1  0.880968  0.471601  0.664108  1
  N  N12  1  0.802371  0.952129  0.736222  1
  N  N13  1  0.197629  0.547871  0.236222  1
  N  N14  1  0.197629  0.047871  0.263778  1
  N  N15  1  0.802371  0.452129  0.763778  1
  C  C16  1  0.817489  0.794455  0.051749  1
  C  C17  1  0.182511  0.705545  0.551749  1
  C  C18  1  0.182511  0.205545  0.948251  1
  C  C19  1  0.817489  0.294455  0.448251  1
  N  N20  1  0.706880  0.666479  0.082799  1
  N  N21  1  0.293120  0.833521  0.582799  1
  N  N22  1  0.293120  0.333521  0.917201  1
  N  N23  1  0.706880  0.166479  0.417201  1
  C  C24  1  0.816743  0.112717  0.054550  1
  C  C25  1  0.183257  0.387283  0.554550  1
  C  C26  1  0.183257  0.887283  0.945450  1
  C  C27  1  0.816743  0.612717  0.445450  1
  N  N28  1  0.706052  0.183903  0.088634  1
  N  N29  1  0.293948  0.316097  0.588634  1
  N  N30  1  0.293948  0.816097  0.911366  1
  N  N31  1  0.706052  0.683903  0.411366  1
