# generated using pymatgen
data_K2V3P4O17
_symmetry_space_group_name_H-M   'P 1'
_cell_length_a   7.38296926
_cell_length_b   11.65079165
_cell_length_c   17.72623299
_cell_angle_alpha   90.00000000
_cell_angle_beta   90.00000000
_cell_angle_gamma   90.00000000
_symmetry_Int_Tables_number   1
_chemical_formula_structural   K2V3P4O17
_chemical_formula_sum   'K8 V12 P16 O68'
_cell_volume   1524.76512249
_cell_formula_units_Z   4
loop_
 _symmetry_equiv_pos_site_id
 _symmetry_equiv_pos_as_xyz
  1  'x, y, z'
loop_
 _atom_site_type_symbol
 _atom_site_label
 _atom_site_symmetry_multiplicity
 _atom_site_fract_x
 _atom_site_fract_y
 _atom_site_fract_z
 _atom_site_occupancy
  K  K0  1  0.256320  0.043131  0.354604  1
  K  K1  1  0.256320  0.456869  0.854604  1
  K  K2  1  0.735888  0.369163  0.671319  1
  K  K3  1  0.235888  0.869163  0.828681  1
  K  K4  1  0.756320  0.956869  0.645396  1
  K  K5  1  0.756320  0.543131  0.145396  1
  K  K6  1  0.235888  0.630837  0.328681  1
  K  K7  1  0.735888  0.130837  0.171319  1
  V  V8  1  0.243269  0.161470  0.689007  1
  V  V9  1  0.738105  0.161285  0.398265  1
  V  V10  1  0.743269  0.661470  0.810993  1
  V  V11  1  0.238105  0.838715  0.601735  1
  V  V12  1  0.743269  0.838530  0.310993  1
  V  V13  1  0.965450  0.998114  0.000757  1
  V  V14  1  0.238105  0.661285  0.101735  1
  V  V15  1  0.243269  0.338530  0.189007  1
  V  V16  1  0.738105  0.338715  0.898265  1
  V  V17  1  0.465450  0.001886  0.999243  1
  V  V18  1  0.465450  0.498114  0.499243  1
  V  V19  1  0.965450  0.501886  0.500757  1
  P  P20  1  0.437199  0.209682  0.525924  1
  P  P21  1  0.542026  0.110954  0.825917  1
  P  P22  1  0.542026  0.389046  0.325917  1
  P  P23  1  0.531854  0.711864  0.969930  1
  P  P24  1  0.444465  0.888340  0.170915  1
  P  P25  1  0.531854  0.788136  0.469930  1
  P  P26  1  0.944465  0.388340  0.329085  1
  P  P27  1  0.042026  0.889046  0.174083  1
  P  P28  1  0.437199  0.290318  0.025924  1
  P  P29  1  0.944465  0.111660  0.829085  1
  P  P30  1  0.031854  0.288136  0.030070  1
  P  P31  1  0.937199  0.709682  0.974076  1
  P  P32  1  0.937199  0.790318  0.474076  1
  P  P33  1  0.444465  0.611660  0.670915  1
  P  P34  1  0.031854  0.211864  0.530070  1
  P  P35  1  0.042026  0.610954  0.674083  1
  O  O36  1  0.966856  0.532944  0.612811  1
  O  O37  1  0.466856  0.467056  0.387189  1
  O  O38  1  0.732317  0.708125  0.008546  1
  O  O39  1  0.463222  0.834634  0.968969  1
  O  O40  1  0.043046  0.629164  0.026299  1
  O  O41  1  0.744361  0.066965  0.805028  1
  O  O42  1  0.415054  0.866893  0.519158  1
  O  O43  1  0.427303  0.762443  0.146713  1
  O  O44  1  0.915054  0.133107  0.480842  1
  O  O45  1  0.514276  0.967648  0.109099  1
  O  O46  1  0.244361  0.933035  0.194972  1
  O  O47  1  0.511864  0.331505  0.524352  1
  O  O48  1  0.966856  0.967056  0.112811  1
  O  O49  1  0.543046  0.129164  0.473701  1
  O  O50  1  0.232317  0.208125  0.491454  1
  O  O51  1  0.552965  0.593168  0.742674  1
  O  O52  1  0.740023  0.046067  0.344637  1
  O  O53  1  0.441599  0.408165  0.252164  1
  O  O54  1  0.240023  0.546067  0.155363  1
  O  O55  1  0.941599  0.591835  0.747836  1
  O  O56  1  0.740023  0.453933  0.844637  1
  O  O57  1  0.747035  0.793844  0.780116  1
  O  O58  1  0.545432  0.662662  0.889862  1
  O  O59  1  0.237321  0.008212  0.009073  1
  O  O60  1  0.011864  0.831505  0.975648  1
  O  O61  1  0.963222  0.334634  0.531031  1
  O  O62  1  0.556071  0.262525  0.349195  1
  O  O63  1  0.056071  0.762525  0.150805  1
  O  O64  1  0.963222  0.165366  0.031031  1
  O  O65  1  0.737321  0.508212  0.490927  1
  O  O66  1  0.052965  0.406832  0.257326  1
  O  O67  1  0.545432  0.837338  0.389862  1
  O  O68  1  0.043046  0.870836  0.526299  1
  O  O69  1  0.247035  0.206156  0.219884  1
  O  O70  1  0.045432  0.162662  0.610138  1
  O  O71  1  0.014276  0.467648  0.390901  1
  O  O72  1  0.431350  0.161979  0.606385  1
  O  O73  1  0.747035  0.706156  0.280116  1
  O  O74  1  0.244361  0.566965  0.694972  1
  O  O75  1  0.045432  0.337338  0.110138  1
  O  O76  1  0.556071  0.237475  0.849195  1
  O  O77  1  0.466856  0.032944  0.887189  1
  O  O78  1  0.011864  0.668495  0.475648  1
  O  O79  1  0.427303  0.737557  0.646713  1
  O  O80  1  0.931350  0.838021  0.393615  1
  O  O81  1  0.052965  0.093168  0.757326  1
  O  O82  1  0.543046  0.370836  0.973701  1
  O  O83  1  0.463222  0.665366  0.468969  1
  O  O84  1  0.744361  0.433035  0.305028  1
  O  O85  1  0.441599  0.091835  0.752164  1
  O  O86  1  0.431350  0.338021  0.106385  1
  O  O87  1  0.552965  0.906832  0.242674  1
  O  O88  1  0.927303  0.262443  0.353287  1
  O  O89  1  0.915054  0.366893  0.980842  1
  O  O90  1  0.941599  0.908165  0.247836  1
  O  O91  1  0.232317  0.291875  0.991454  1
  O  O92  1  0.237321  0.491788  0.509073  1
  O  O93  1  0.247035  0.293844  0.719884  1
  O  O94  1  0.514276  0.532352  0.609099  1
  O  O95  1  0.737321  0.991788  0.990927  1
  O  O96  1  0.511864  0.168495  0.024352  1
  O  O97  1  0.240023  0.953933  0.655363  1
  O  O98  1  0.732317  0.791875  0.508546  1
  O  O99  1  0.056071  0.737475  0.650805  1
  O  O100  1  0.927303  0.237557  0.853287  1
  O  O101  1  0.931350  0.661979  0.893615  1
  O  O102  1  0.415054  0.633107  0.019158  1
  O  O103  1  0.014276  0.032352  0.890901  1
