# generated using pymatgen
data_Ho2Te4O11
_symmetry_space_group_name_H-M   'P 1'
_cell_length_a   5.15996880
_cell_length_b   6.74497809
_cell_length_c   16.03330652
_cell_angle_alpha   80.03347204
_cell_angle_beta   80.74126620
_cell_angle_gamma   67.50647291
_symmetry_Int_Tables_number   1
_chemical_formula_structural   Ho2Te4O11
_chemical_formula_sum   'Ho4 Te8 O22'
_cell_volume   505.03209502
_cell_formula_units_Z   2
loop_
 _symmetry_equiv_pos_site_id
 _symmetry_equiv_pos_as_xyz
  1  'x, y, z'
loop_
 _atom_site_type_symbol
 _atom_site_label
 _atom_site_symmetry_multiplicity
 _atom_site_fract_x
 _atom_site_fract_y
 _atom_site_fract_z
 _atom_site_occupancy
  Ho  Ho0  1  0.630911  0.201667  0.037038  1
  Ho  Ho1  1  0.869555  0.298384  0.462978  1
  Ho  Ho2  1  0.369089  0.798333  0.962962  1
  Ho  Ho3  1  0.130445  0.701616  0.537022  1
  Te  Te4  1  0.589643  0.881282  0.374962  1
  Te  Te5  1  0.845614  0.618941  0.125049  1
  Te  Te6  1  0.410357  0.118718  0.625038  1
  Te  Te7  1  0.154386  0.381059  0.874951  1
  Te  Te8  1  0.157328  0.045407  0.198066  1
  Te  Te9  1  0.400665  0.454730  0.301909  1
  Te  Te10  1  0.842672  0.954593  0.801934  1
  Te  Te11  1  0.599335  0.545270  0.698091  1
  O  O12  1  0.685338  0.132893  0.372656  1
  O  O13  1  0.190651  0.367209  0.127368  1
  O  O14  1  0.314662  0.867107  0.627344  1
  O  O15  1  0.809349  0.632791  0.872632  1
  O  O16  1  0.246288  0.967737  0.448110  1
  O  O17  1  0.662078  0.532316  0.051910  1
  O  O18  1  0.753712  0.032263  0.551890  1
  O  O19  1  0.337922  0.467684  0.948090  1
  O  O20  1  0.824974  0.682720  0.455458  1
  O  O21  1  0.963126  0.817344  0.044536  1
  O  O22  1  0.175026  0.317280  0.544542  1
  O  O23  1  0.036874  0.182656  0.955464  1
  O  O24  1  0.447521  0.547168  0.404409  1
  O  O25  1  0.399173  0.952872  0.095576  1
  O  O26  1  0.552479  0.452832  0.595591  1
  O  O27  1  0.600827  0.047128  0.904424  1
  O  O28  1  0.090907  0.368939  0.333272  1
  O  O29  1  0.793121  0.131023  0.166729  1
  O  O30  1  0.909093  0.631061  0.666728  1
  O  O31  1  0.206879  0.868977  0.833271  1
  O  O32  1  0.145802  0.750040  0.249995  1
  O  O33  1  0.854198  0.249960  0.750005  1
