# generated using pymatgen
data_Ba3V4O13
_symmetry_space_group_name_H-M   'P 1'
_cell_length_a   9.10878510
_cell_length_b   9.31901395
_cell_length_c   10.43608336
_cell_angle_alpha   109.83638177
_cell_angle_beta   90.00000000
_cell_angle_gamma   119.25651411
_symmetry_Int_Tables_number   1
_chemical_formula_structural   Ba3V4O13
_chemical_formula_sum   'Ba6 V8 O26'
_cell_volume   712.00906950
_cell_formula_units_Z   2
loop_
 _symmetry_equiv_pos_site_id
 _symmetry_equiv_pos_as_xyz
  1  'x, y, z'
loop_
 _atom_site_type_symbol
 _atom_site_label
 _atom_site_symmetry_multiplicity
 _atom_site_fract_x
 _atom_site_fract_y
 _atom_site_fract_z
 _atom_site_occupancy
  Ba  Ba0  1  0.965429  0.593607  0.808211  1
  Ba  Ba1  1  0.114984  0.000000  0.250000  1
  Ba  Ba2  1  0.034571  0.406393  0.191789  1
  Ba  Ba3  1  0.371823  0.406393  0.691789  1
  Ba  Ba4  1  0.628177  0.593607  0.308211  1
  Ba  Ba5  1  0.885016  0.000000  0.750000  1
  V  V6  1  0.097639  0.819332  0.499558  1
  V  V7  1  0.278307  0.180668  0.000442  1
  V  V8  1  0.372938  0.772955  0.133242  1
  V  V9  1  0.400017  0.772955  0.633242  1
  V  V10  1  0.721693  0.819332  0.999558  1
  V  V11  1  0.627062  0.227045  0.866758  1
  V  V12  1  0.599983  0.227045  0.366758  1
  V  V13  1  0.902361  0.180668  0.500442  1
  O  O14  1  0.385397  0.662237  0.226662  1
  O  O15  1  0.489980  0.326571  0.437179  1
  O  O16  1  0.144349  0.956887  0.959473  1
  O  O17  1  0.961378  0.750536  0.607934  1
  O  O18  1  0.210843  0.249464  0.892066  1
  O  O19  1  0.855651  0.043113  0.040527  1
  O  O20  1  0.736656  0.239824  0.498727  1
  O  O21  1  0.263344  0.760176  0.501273  1
  O  O22  1  0.987996  0.710563  0.329735  1
  O  O23  1  0.723159  0.337763  0.273338  1
  O  O24  1  0.789157  0.750536  0.107934  1
  O  O25  1  0.496832  0.760176  0.001273  1
  O  O26  1  0.038622  0.249464  0.392066  1
  O  O27  1  0.439334  0.000000  0.250000  1
  O  O28  1  0.503168  0.239824  0.998727  1
  O  O29  1  0.187462  0.043113  0.540527  1
  O  O30  1  0.012004  0.289437  0.670265  1
  O  O31  1  0.276841  0.662237  0.726662  1
  O  O32  1  0.722566  0.710563  0.829735  1
  O  O33  1  0.836591  0.326571  0.937179  1
  O  O34  1  0.163409  0.673429  0.062821  1
  O  O35  1  0.614603  0.337763  0.773338  1
  O  O36  1  0.510020  0.673429  0.562821  1
  O  O37  1  0.560666  0.000000  0.750000  1
  O  O38  1  0.277434  0.289437  0.170265  1
  O  O39  1  0.812538  0.956887  0.459473  1
