# generated using pymatgen
data_Tl3AsS4
_symmetry_space_group_name_H-M   'P 1'
_cell_length_a   9.27887093
_cell_length_b   9.34548956
_cell_length_c   11.13504387
_cell_angle_alpha   90.00000000
_cell_angle_beta   90.00000000
_cell_angle_gamma   90.00000000
_symmetry_Int_Tables_number   1
_chemical_formula_structural   Tl3AsS4
_chemical_formula_sum   'Tl12 As4 S16'
_cell_volume   965.58191451
_cell_formula_units_Z   4
loop_
 _symmetry_equiv_pos_site_id
 _symmetry_equiv_pos_as_xyz
  1  'x, y, z'
loop_
 _atom_site_type_symbol
 _atom_site_label
 _atom_site_symmetry_multiplicity
 _atom_site_fract_x
 _atom_site_fract_y
 _atom_site_fract_z
 _atom_site_occupancy
  S  S0  1  0.004325  0.930389  0.750000  1
  S  S1  1  0.495675  0.430389  0.250000  1
  S  S2  1  0.504325  0.569611  0.750000  1
  S  S3  1  0.995675  0.069611  0.250000  1
  S  S4  1  0.842276  0.533086  0.588932  1
  S  S5  1  0.342276  0.966914  0.911068  1
  S  S6  1  0.657724  0.033086  0.411068  1
  S  S7  1  0.157724  0.466914  0.088932  1
  S  S8  1  0.157724  0.466914  0.411068  1
  S  S9  1  0.657724  0.033086  0.088932  1
  S  S10  1  0.342276  0.966914  0.588932  1
  S  S11  1  0.842276  0.533086  0.911068  1
  S  S12  1  0.689439  0.238491  0.750000  1
  S  S13  1  0.189439  0.261509  0.750000  1
  S  S14  1  0.810561  0.738491  0.250000  1
  S  S15  1  0.310561  0.761509  0.250000  1
  As  As16  1  0.280226  0.526013  0.250000  1
  As  As17  1  0.219774  0.026013  0.750000  1
  As  As18  1  0.780226  0.973987  0.250000  1
  As  As19  1  0.719774  0.473987  0.750000  1
  Tl  Tl20  1  0.926469  0.194559  0.555840  1
  Tl  Tl21  1  0.426469  0.305441  0.944160  1
  Tl  Tl22  1  0.573531  0.694559  0.444160  1
  Tl  Tl23  1  0.073531  0.805441  0.055840  1
  Tl  Tl24  1  0.073531  0.805441  0.444160  1
  Tl  Tl25  1  0.573531  0.694559  0.055840  1
  Tl  Tl26  1  0.426469  0.305441  0.555840  1
  Tl  Tl27  1  0.926469  0.194559  0.944160  1
  Tl  Tl28  1  0.402514  0.105609  0.250000  1
  Tl  Tl29  1  0.902514  0.394391  0.250000  1
  Tl  Tl30  1  0.097486  0.605609  0.750000  1
  Tl  Tl31  1  0.597486  0.894391  0.750000  1
