# generated using pymatgen
data_BTe3(OF5)3
_symmetry_space_group_name_H-M   'P 1'
_cell_length_a   9.39613361
_cell_length_b   9.39613345
_cell_length_c   9.45257355
_cell_angle_alpha   90.00000000
_cell_angle_beta   90.00000000
_cell_angle_gamma   120.00000052
_symmetry_Int_Tables_number   1
_chemical_formula_structural   BTe3(OF5)3
_chemical_formula_sum   'B2 Te6 O6 F30'
_cell_volume   722.73494661
_cell_formula_units_Z   2
loop_
 _symmetry_equiv_pos_site_id
 _symmetry_equiv_pos_as_xyz
  1  'x, y, z'
loop_
 _atom_site_type_symbol
 _atom_site_label
 _atom_site_symmetry_multiplicity
 _atom_site_fract_x
 _atom_site_fract_y
 _atom_site_fract_z
 _atom_site_occupancy
  B  B0  1  0.666667  0.333333  0.750000  1
  B  B1  1  0.333333  0.666667  0.250000  1
  Te  Te2  1  0.643208  0.998389  0.250000  1
  Te  Te3  1  0.644819  0.643208  0.750000  1
  Te  Te4  1  0.998389  0.355181  0.750000  1
  Te  Te5  1  0.355181  0.356792  0.250000  1
  Te  Te6  1  0.356792  0.001611  0.750000  1
  Te  Te7  1  0.001611  0.644819  0.250000  1
  O  O8  1  0.586942  0.163808  0.750000  1
  O  O9  1  0.413058  0.836192  0.250000  1
  O  O10  1  0.163808  0.576866  0.250000  1
  O  O11  1  0.836192  0.423134  0.750000  1
  O  O12  1  0.423134  0.586942  0.250000  1
  O  O13  1  0.576866  0.413058  0.750000  1
  F  F14  1  0.198641  0.309287  0.108266  1
  F  F15  1  0.889354  0.198641  0.608266  1
  F  F16  1  0.115301  0.513524  0.888091  1
  F  F17  1  0.601777  0.115301  0.111909  1
  F  F18  1  0.398223  0.884699  0.888091  1
  F  F19  1  0.690713  0.889354  0.108266  1
  F  F20  1  0.115301  0.513524  0.611909  1
  F  F21  1  0.837599  0.701618  0.250000  1
  F  F22  1  0.601777  0.115301  0.388091  1
  F  F23  1  0.486476  0.601777  0.611909  1
  F  F24  1  0.135980  0.837599  0.750000  1
  F  F25  1  0.298382  0.135980  0.250000  1
  F  F26  1  0.513524  0.398223  0.388091  1
  F  F27  1  0.701618  0.864020  0.750000  1
  F  F28  1  0.309287  0.110646  0.608266  1
  F  F29  1  0.801359  0.690713  0.608266  1
  F  F30  1  0.801359  0.690713  0.891734  1
  F  F31  1  0.309287  0.110646  0.891734  1
  F  F32  1  0.198641  0.309287  0.391734  1
  F  F33  1  0.110646  0.801359  0.108266  1
  F  F34  1  0.110646  0.801359  0.391734  1
  F  F35  1  0.864020  0.162401  0.250000  1
  F  F36  1  0.486476  0.601777  0.888091  1
  F  F37  1  0.398223  0.884699  0.611909  1
  F  F38  1  0.162401  0.298382  0.750000  1
  F  F39  1  0.690713  0.889354  0.391734  1
  F  F40  1  0.884699  0.486476  0.111909  1
  F  F41  1  0.884699  0.486476  0.388091  1
  F  F42  1  0.513524  0.398223  0.111909  1
  F  F43  1  0.889354  0.198641  0.891734  1
