# generated using pymatgen
data_H12C4INO3
_symmetry_space_group_name_H-M   'P 1'
_cell_length_a   7.18364444
_cell_length_b   8.64123320
_cell_length_c   13.67327153
_cell_angle_alpha   90.00000000
_cell_angle_beta   90.00000000
_cell_angle_gamma   90.00000000
_symmetry_Int_Tables_number   1
_chemical_formula_structural   H12C4INO3
_chemical_formula_sum   'H48 C16 I4 N4 O12'
_cell_volume   848.77580721
_cell_formula_units_Z   4
loop_
 _symmetry_equiv_pos_site_id
 _symmetry_equiv_pos_as_xyz
  1  'x, y, z'
loop_
 _atom_site_type_symbol
 _atom_site_label
 _atom_site_symmetry_multiplicity
 _atom_site_fract_x
 _atom_site_fract_y
 _atom_site_fract_z
 _atom_site_occupancy
  H  H0  1  0.542658  0.522404  0.811393  1
  H  H1  1  0.750000  0.725491  0.211702  1
  H  H2  1  0.125062  0.850341  0.182330  1
  H  H3  1  0.579911  0.576000  0.091697  1
  H  H4  1  0.078765  0.866757  0.402779  1
  H  H5  1  0.874938  0.350341  0.317670  1
  H  H6  1  0.624639  0.872920  0.807156  1
  H  H7  1  0.124639  0.127080  0.192844  1
  H  H8  1  0.250000  0.274509  0.788298  1
  H  H9  1  0.625062  0.149659  0.817670  1
  H  H10  1  0.920089  0.924000  0.591697  1
  H  H11  1  0.079911  0.424000  0.908303  1
  H  H12  1  0.078765  0.633243  0.902779  1
  H  H13  1  0.875361  0.872920  0.807156  1
  H  H14  1  0.042658  0.477596  0.188607  1
  H  H15  1  0.079911  0.076000  0.408303  1
  H  H16  1  0.920089  0.576000  0.091697  1
  H  H17  1  0.421235  0.633243  0.902779  1
  H  H18  1  0.921235  0.133243  0.597221  1
  H  H19  1  0.578765  0.133243  0.597221  1
  H  H20  1  0.250000  0.225491  0.288298  1
  H  H21  1  0.750000  0.263827  0.728564  1
  H  H22  1  0.578765  0.366757  0.097221  1
  H  H23  1  0.374938  0.649659  0.682330  1
  H  H24  1  0.750000  0.236173  0.228564  1
  H  H25  1  0.957342  0.522404  0.811393  1
  H  H26  1  0.750000  0.774509  0.711702  1
  H  H27  1  0.375361  0.127080  0.192844  1
  H  H28  1  0.375361  0.372920  0.692844  1
  H  H29  1  0.457342  0.022404  0.688607  1
  H  H30  1  0.957342  0.977596  0.311393  1
  H  H31  1  0.875361  0.627080  0.307156  1
  H  H32  1  0.542658  0.977596  0.311393  1
  H  H33  1  0.124639  0.372920  0.692844  1
  H  H34  1  0.624639  0.627080  0.307156  1
  H  H35  1  0.374938  0.850341  0.182330  1
  H  H36  1  0.125062  0.649659  0.682330  1
  H  H37  1  0.250000  0.763827  0.771436  1
  H  H38  1  0.579911  0.924000  0.591697  1
  H  H39  1  0.421235  0.866757  0.402779  1
  H  H40  1  0.921235  0.366757  0.097221  1
  H  H41  1  0.420089  0.076000  0.408303  1
  H  H42  1  0.874938  0.149659  0.817670  1
  H  H43  1  0.420089  0.424000  0.908303  1
  H  H44  1  0.250000  0.736173  0.271436  1
  H  H45  1  0.625062  0.350341  0.317670  1
  H  H46  1  0.042658  0.022404  0.688607  1
  H  H47  1  0.457342  0.477596  0.188607  1
  C  C48  1  0.250000  0.656494  0.728334  1
  C  C49  1  0.750000  0.625896  0.261405  1
  C  C50  1  0.250000  0.374104  0.738595  1
  C  C51  1  0.578680  0.025713  0.639893  1
  C  C52  1  0.921320  0.025713  0.639893  1
  C  C53  1  0.250000  0.843506  0.228334  1
  C  C54  1  0.250000  0.125896  0.238595  1
  C  C55  1  0.078680  0.974287  0.360107  1
  C  C56  1  0.921320  0.474287  0.139893  1
  C  C57  1  0.750000  0.874104  0.761405  1
  C  C58  1  0.078680  0.525713  0.860107  1
  C  C59  1  0.750000  0.156494  0.771666  1
  C  C60  1  0.421320  0.974287  0.360107  1
  C  C61  1  0.578680  0.474287  0.139893  1
  C  C62  1  0.750000  0.343506  0.271666  1
  C  C63  1  0.421320  0.525713  0.860107  1
  I  I64  1  0.250000  0.460391  0.469248  1
  I  I65  1  0.750000  0.539609  0.530752  1
  I  I66  1  0.750000  0.960391  0.030752  1
  I  I67  1  0.250000  0.039609  0.969248  1
  N  N68  1  0.250000  0.520941  0.797100  1
  N  N69  1  0.750000  0.479059  0.202900  1
  N  N70  1  0.250000  0.979059  0.297100  1
  N  N71  1  0.750000  0.020941  0.702900  1
  O  O72  1  0.053087  0.174008  0.981803  1
  O  O73  1  0.053087  0.325992  0.481803  1
  O  O74  1  0.250000  0.000725  0.837722  1
  O  O75  1  0.553087  0.674008  0.518197  1
  O  O76  1  0.946913  0.825992  0.018197  1
  O  O77  1  0.553087  0.825992  0.018197  1
  O  O78  1  0.946913  0.674008  0.518197  1
  O  O79  1  0.446913  0.325992  0.481803  1
  O  O80  1  0.750000  0.500725  0.662278  1
  O  O81  1  0.250000  0.499275  0.337722  1
  O  O82  1  0.446913  0.174008  0.981803  1
  O  O83  1  0.750000  0.999275  0.162278  1
