# generated using pymatgen
data_SbCNCl5
_symmetry_space_group_name_H-M   'P 1'
_cell_length_a   6.41589954
_cell_length_b   11.42728652
_cell_length_c   13.07430035
_cell_angle_alpha   91.23202997
_cell_angle_beta   90.00000000
_cell_angle_gamma   90.00000000
_symmetry_Int_Tables_number   1
_chemical_formula_structural   SbCNCl5
_chemical_formula_sum   'Sb4 C4 N4 Cl20'
_cell_volume   958.33801897
_cell_formula_units_Z   4
loop_
 _symmetry_equiv_pos_site_id
 _symmetry_equiv_pos_as_xyz
  1  'x, y, z'
loop_
 _atom_site_type_symbol
 _atom_site_label
 _atom_site_symmetry_multiplicity
 _atom_site_fract_x
 _atom_site_fract_y
 _atom_site_fract_z
 _atom_site_occupancy
  Sb  Sb0  1  0.976308  0.266487  0.366342  1
  Sb  Sb1  1  0.023692  0.733513  0.633658  1
  Sb  Sb2  1  0.476308  0.733513  0.133658  1
  Sb  Sb3  1  0.523692  0.266487  0.866342  1
  C  C4  1  0.076545  0.963546  0.017579  1
  C  C5  1  0.923455  0.036454  0.982421  1
  C  C6  1  0.576545  0.036454  0.482421  1
  C  C7  1  0.423455  0.963546  0.517579  1
  N  N8  1  0.293629  0.901593  0.547492  1
  N  N9  1  0.206371  0.901593  0.047492  1
  N  N10  1  0.793629  0.098407  0.952508  1
  N  N11  1  0.706371  0.098407  0.452508  1
  Cl  Cl12  1  0.154761  0.243326  0.523683  1
  Cl  Cl13  1  0.261594  0.609870  0.546475  1
  Cl  Cl14  1  0.345239  0.243326  0.023683  1
  Cl  Cl15  1  0.145127  0.093447  0.304690  1
  Cl  Cl16  1  0.645127  0.906553  0.195310  1
  Cl  Cl17  1  0.811374  0.594792  0.707569  1
  Cl  Cl18  1  0.311374  0.405208  0.792431  1
  Cl  Cl19  1  0.845239  0.756674  0.476317  1
  Cl  Cl20  1  0.761594  0.390130  0.953525  1
  Cl  Cl21  1  0.730655  0.240823  0.233122  1
  Cl  Cl22  1  0.654761  0.756674  0.976317  1
  Cl  Cl23  1  0.688626  0.594792  0.207569  1
  Cl  Cl24  1  0.269345  0.759177  0.766878  1
  Cl  Cl25  1  0.738406  0.390130  0.453525  1
  Cl  Cl26  1  0.188626  0.405208  0.292431  1
  Cl  Cl27  1  0.230655  0.759177  0.266878  1
  Cl  Cl28  1  0.854873  0.906553  0.695310  1
  Cl  Cl29  1  0.769345  0.240823  0.733122  1
  Cl  Cl30  1  0.354873  0.093447  0.804690  1
  Cl  Cl31  1  0.238406  0.609870  0.046475  1
