# generated using pymatgen
data_MgSiO3
_symmetry_space_group_name_H-M   'P 1'
_cell_length_a   9.36821207
_cell_length_b   8.88274101
_cell_length_c   5.37199115
_cell_angle_alpha   90.00000000
_cell_angle_beta   90.00000000
_cell_angle_gamma   90.00000000
_symmetry_Int_Tables_number   1
_chemical_formula_structural   MgSiO3
_chemical_formula_sum   'Mg8 Si8 O24'
_cell_volume   447.03240064
_cell_formula_units_Z   8
loop_
 _symmetry_equiv_pos_site_id
 _symmetry_equiv_pos_as_xyz
  1  'x, y, z'
loop_
 _atom_site_type_symbol
 _atom_site_label
 _atom_site_symmetry_multiplicity
 _atom_site_fract_x
 _atom_site_fract_y
 _atom_site_fract_z
 _atom_site_occupancy
  Mg  Mg0  1  -0.000000  0.900934  0.250000  1
  Mg  Mg1  1  0.500000  0.599066  0.750000  1
  Mg  Mg2  1  -0.000000  0.099066  0.750000  1
  Mg  Mg3  1  0.500000  0.400934  0.250000  1
  Mg  Mg4  1  -0.000000  0.738317  0.750000  1
  Mg  Mg5  1  0.500000  0.761683  0.250000  1
  Mg  Mg6  1  -0.000000  0.261683  0.250000  1
  Mg  Mg7  1  0.500000  0.238317  0.750000  1
  Si  Si8  1  0.292059  0.909583  0.561024  1
  Si  Si9  1  0.207941  0.590417  0.061024  1
  Si  Si10  1  0.792059  0.590417  0.438976  1
  Si  Si11  1  0.707941  0.909583  0.938976  1
  Si  Si12  1  0.707941  0.090417  0.438976  1
  Si  Si13  1  0.792059  0.409583  0.938976  1
  Si  Si14  1  0.207941  0.409583  0.561024  1
  Si  Si15  1  0.292059  0.090417  0.061024  1
  O  O16  1  0.881868  0.093980  0.424289  1
  O  O17  1  0.618132  0.406020  0.924289  1
  O  O18  1  0.381868  0.406020  0.575711  1
  O  O19  1  0.118132  0.093980  0.075711  1
  O  O20  1  0.118132  0.906020  0.575711  1
  O  O21  1  0.381868  0.593980  0.075711  1
  O  O22  1  0.618132  0.593980  0.424289  1
  O  O23  1  0.881868  0.906020  0.924289  1
  O  O24  1  0.620993  0.246458  0.431966  1
  O  O25  1  0.879007  0.253542  0.931966  1
  O  O26  1  0.120993  0.253542  0.568034  1
  O  O27  1  0.379007  0.246458  0.068034  1
  O  O28  1  0.379007  0.753542  0.568034  1
  O  O29  1  0.120993  0.746458  0.068034  1
  O  O30  1  0.879007  0.746458  0.431966  1
  O  O31  1  0.620993  0.753542  0.931966  1
  O  O32  1  0.847803  0.527594  0.718196  1
  O  O33  1  0.652197  0.972406  0.218196  1
  O  O34  1  0.347803  0.972406  0.281804  1
  O  O35  1  0.152197  0.527594  0.781804  1
  O  O36  1  0.152197  0.472406  0.281804  1
  O  O37  1  0.347803  0.027594  0.781804  1
  O  O38  1  0.652197  0.027594  0.718196  1
  O  O39  1  0.847803  0.472406  0.218196  1
