# generated using pymatgen
data_Li6Mn5(P2O7)4
_symmetry_space_group_name_H-M   'P 1'
_cell_length_a   13.20790099
_cell_length_b   9.22273913
_cell_length_c   10.69110744
_cell_angle_alpha   65.90308644
_cell_angle_beta   88.00672503
_cell_angle_gamma   73.55773354
_symmetry_Int_Tables_number   1
_chemical_formula_structural   Li6Mn5(P2O7)4
_chemical_formula_sum   'Li12 Mn10 P16 O56'
_cell_volume   1135.34703336
_cell_formula_units_Z   2
loop_
 _symmetry_equiv_pos_site_id
 _symmetry_equiv_pos_as_xyz
  1  'x, y, z'
loop_
 _atom_site_type_symbol
 _atom_site_label
 _atom_site_symmetry_multiplicity
 _atom_site_fract_x
 _atom_site_fract_y
 _atom_site_fract_z
 _atom_site_occupancy
  Li  Li0  1  0.575170  0.878813  0.609720  1
  Li  Li1  1  0.694836  0.107465  0.861645  1
  Li  Li2  1  0.924830  0.121187  0.390280  1
  Li  Li3  1  0.750000  0.500000  0.500000  1
  Li  Li4  1  0.304891  0.910889  0.129477  1
  Li  Li5  1  0.419597  0.127621  0.394679  1
  Li  Li6  1  0.195109  0.089111  0.870523  1
  Li  Li7  1  0.523982  0.808816  0.008575  1
  Li  Li8  1  0.976018  0.191184  0.991425  1
  Li  Li9  1  0.080403  0.872379  0.605321  1
  Li  Li10  1  0.250000  0.500000  0.500000  1
  Li  Li11  1  0.805164  0.892535  0.138355  1
  Mn  Mn12  1  0.359766  0.901340  0.705822  1
  Mn  Mn13  1  0.181340  0.487990  0.243590  1
  Mn  Mn14  1  0.680160  0.496841  0.239918  1
  Mn  Mn15  1  0.318660  0.512010  0.756410  1
  Mn  Mn16  1  0.009317  0.814148  0.985440  1
  Mn  Mn17  1  0.819840  0.503159  0.760082  1
  Mn  Mn18  1  0.490683  0.185852  0.014560  1
  Mn  Mn19  1  0.855043  0.901363  0.700887  1
  Mn  Mn20  1  0.644957  0.098637  0.299113  1
  Mn  Mn21  1  0.140234  0.098660  0.294178  1
  P  P22  1  0.351598  0.805891  0.440135  1
  P  P23  1  0.647697  0.200473  0.557165  1
  P  P24  1  0.540603  0.818129  0.298588  1
  P  P25  1  0.278116  0.717244  0.961918  1
  P  P26  1  0.436173  0.448642  0.189093  1
  P  P27  1  0.780076  0.713890  0.961873  1
  P  P28  1  0.039062  0.808759  0.298107  1
  P  P29  1  0.567010  0.543324  0.808163  1
  P  P30  1  0.460938  0.191241  0.701893  1
  P  P31  1  0.852303  0.799527  0.442835  1
  P  P32  1  0.719924  0.286110  0.038127  1
  P  P33  1  0.932990  0.456676  0.191837  1
  P  P34  1  0.148402  0.194109  0.559865  1
  P  P35  1  0.959397  0.181871  0.701412  1
  P  P36  1  0.221884  0.282757  0.038082  1
  P  P37  1  0.063827  0.551358  0.810907  1
  O  O38  1  0.876433  0.911842  0.505419  1
  O  O39  1  0.038263  0.280909  0.606753  1
  O  O40  1  0.489845  0.273326  0.191100  1
  O  O41  1  0.461737  0.719091  0.393247  1
  O  O42  1  0.623567  0.088158  0.494581  1
  O  O43  1  0.809253  0.664632  0.543548  1
  O  O44  1  0.537493  0.290936  0.600717  1
  O  O45  1  0.718765  0.091927  0.692480  1
  O  O46  1  0.643779  0.684180  0.316320  1
  O  O47  1  0.367773  0.544584  0.039225  1
  O  O48  1  0.012349  0.556639  0.172267  1
  O  O49  1  0.487651  0.443361  0.827733  1
  O  O50  1  0.355717  0.322797  0.682352  1
  O  O51  1  0.673573  0.148124  0.035459  1
  O  O52  1  0.950753  0.060923  0.639855  1
  O  O53  1  0.188276  0.333020  0.459083  1
  O  O54  1  0.177066  0.704837  0.035312  1
  O  O55  1  0.513537  0.545217  0.184319  1
  O  O56  1  0.144283  0.677203  0.317648  1
  O  O57  1  0.311724  0.666980  0.540917  1
  O  O58  1  0.650670  0.528546  0.708951  1
  O  O59  1  0.826427  0.851876  0.964541  1
  O  O60  1  0.183847  0.140728  0.034630  1
  O  O61  1  0.220263  0.088885  0.694716  1
  O  O62  1  0.781235  0.908073  0.307520  1
  O  O63  1  0.010155  0.726674  0.808900  1
  O  O64  1  0.011894  0.083667  0.852717  1
  O  O65  1  0.125963  0.081791  0.496131  1
  O  O66  1  0.856221  0.315820  0.683680  1
  O  O67  1  0.867772  0.537538  0.039301  1
  O  O68  1  0.982921  0.896441  0.149748  1
  O  O69  1  0.316153  0.859272  0.965370  1
  O  O70  1  0.679362  0.713569  0.035235  1
  O  O71  1  0.690747  0.335368  0.456452  1
  O  O72  1  0.986463  0.454783  0.815681  1
  O  O73  1  0.279737  0.911115  0.305284  1
  O  O74  1  0.770805  0.725653  0.814254  1
  O  O75  1  0.488106  0.916334  0.147283  1
  O  O76  1  0.374037  0.918209  0.503869  1
  O  O77  1  0.046744  0.936008  0.352998  1
  O  O78  1  0.986034  0.274325  0.216686  1
  O  O79  1  0.270561  0.727405  0.814541  1
  O  O80  1  0.849330  0.471454  0.291049  1
  O  O81  1  0.962507  0.709064  0.399283  1
  O  O82  1  0.632228  0.462462  0.960699  1
  O  O83  1  0.729195  0.274347  0.185746  1
  O  O84  1  0.322934  0.295163  0.964688  1
  O  O85  1  0.356086  0.436760  0.296780  1
  O  O86  1  0.229439  0.272595  0.185459  1
  O  O87  1  0.549247  0.939077  0.360145  1
  O  O88  1  0.513966  0.725675  0.783314  1
  O  O89  1  0.820638  0.286431  0.964765  1
  O  O90  1  0.143914  0.563240  0.703220  1
  O  O91  1  0.453256  0.063992  0.647002  1
  O  O92  1  0.517079  0.103559  0.850252  1
  O  O93  1  0.132227  0.455416  0.960775  1
