# generated using pymatgen
data_Sb
_symmetry_space_group_name_H-M   'P 1'
_cell_length_a   4.05737007
_cell_length_b   6.15227290
_cell_length_c   6.15227235
_cell_angle_alpha   83.75775994
_cell_angle_beta   70.74666669
_cell_angle_gamma   70.74666692
_symmetry_Int_Tables_number   1
_chemical_formula_structural   Sb
_chemical_formula_sum   Sb4
_cell_volume   136.87496178
_cell_formula_units_Z   4
loop_
 _symmetry_equiv_pos_site_id
 _symmetry_equiv_pos_as_xyz
  1  'x, y, z'
loop_
 _atom_site_type_symbol
 _atom_site_label
 _atom_site_symmetry_multiplicity
 _atom_site_fract_x
 _atom_site_fract_y
 _atom_site_fract_z
 _atom_site_occupancy
  Sb  Sb0  1  0.650122  0.199757  0.500000  1
  Sb  Sb1  1  0.150122  0.500000  0.199757  1
  Sb  Sb2  1  0.349878  0.800243  0.500000  1
  Sb  Sb3  1  0.849878  0.500000  0.800243  1
