# generated using pymatgen
data_Mg(AlCl4)2
_symmetry_space_group_name_H-M   'P 1'
_cell_length_a   8.20955221
_cell_length_b   9.80948928
_cell_length_c   10.18330032
_cell_angle_alpha   71.58315939
_cell_angle_beta   66.22857236
_cell_angle_gamma   65.26326025
_symmetry_Int_Tables_number   1
_chemical_formula_structural   Mg(AlCl4)2
_chemical_formula_sum   'Mg2 Al4 Cl16'
_cell_volume   670.85345510
_cell_formula_units_Z   2
loop_
 _symmetry_equiv_pos_site_id
 _symmetry_equiv_pos_as_xyz
  1  'x, y, z'
loop_
 _atom_site_type_symbol
 _atom_site_label
 _atom_site_symmetry_multiplicity
 _atom_site_fract_x
 _atom_site_fract_y
 _atom_site_fract_z
 _atom_site_occupancy
  Mg  Mg0  1  0.001837  0.750000  0.250000  1
  Mg  Mg1  1  0.998163  0.250000  0.750000  1
  Al  Al2  1  0.331214  0.359817  0.468189  1
  Al  Al3  1  0.159220  0.140183  0.031811  1
  Al  Al4  1  0.668786  0.640183  0.531811  1
  Al  Al5  1  0.840780  0.859817  0.968189  1
  Cl  Cl6  1  0.616776  0.239020  0.451022  1
  Cl  Cl7  1  0.306818  0.260980  0.048978  1
  Cl  Cl8  1  0.383224  0.760980  0.548978  1
  Cl  Cl9  1  0.693182  0.739020  0.951022  1
  Cl  Cl10  1  0.175745  0.215343  0.487129  1
  Cl  Cl11  1  0.878217  0.284657  0.012871  1
  Cl  Cl12  1  0.824255  0.784657  0.512871  1
  Cl  Cl13  1  0.121783  0.715343  0.987129  1
  Cl  Cl14  1  0.311054  0.548140  0.282682  1
  Cl  Cl15  1  0.141876  0.951860  0.217318  1
  Cl  Cl16  1  0.688946  0.451860  0.717318  1
  Cl  Cl17  1  0.858124  0.048140  0.782682  1
  Cl  Cl18  1  0.160878  0.448204  0.671535  1
  Cl  Cl19  1  0.280617  0.051796  0.828465  1
  Cl  Cl20  1  0.839122  0.551796  0.328465  1
  Cl  Cl21  1  0.719383  0.948204  0.171535  1
