# generated using pymatgen
data_Rb5CeCu2(NO2)12
_symmetry_space_group_name_H-M   'P 1'
_cell_length_a   10.98676819
_cell_length_b   10.98676819
_cell_length_c   10.98676819
_cell_angle_alpha   90.00000000
_cell_angle_beta   90.00000000
_cell_angle_gamma   90.00000000
_symmetry_Int_Tables_number   1
_chemical_formula_structural   Rb5CeCu2(NO2)12
_chemical_formula_sum   'Rb10 Ce2 Cu4 N24 O48'
_cell_volume   1326.20262832
_cell_formula_units_Z   2
loop_
 _symmetry_equiv_pos_site_id
 _symmetry_equiv_pos_as_xyz
  1  'x, y, z'
loop_
 _atom_site_type_symbol
 _atom_site_label
 _atom_site_symmetry_multiplicity
 _atom_site_fract_x
 _atom_site_fract_y
 _atom_site_fract_z
 _atom_site_occupancy
  Rb  Rb0  1  0.500000  0.500000  0.000000  1
  Rb  Rb1  1  0.500000  0.000000  0.500000  1
  Rb  Rb2  1  0.250000  0.750000  0.750000  1
  Rb  Rb3  1  0.750000  0.250000  0.250000  1
  Rb  Rb4  1  0.750000  0.250000  0.750000  1
  Rb  Rb5  1  0.000000  0.000000  0.000000  1
  Rb  Rb6  1  0.750000  0.750000  0.250000  1
  Rb  Rb7  1  0.250000  0.750000  0.250000  1
  Rb  Rb8  1  0.000000  0.500000  0.500000  1
  Rb  Rb9  1  0.250000  0.250000  0.750000  1
  Ce  Ce10  1  0.250000  0.250000  0.250000  1
  Ce  Ce11  1  0.750000  0.750000  0.750000  1
  Cu  Cu12  1  0.000000  0.000000  0.500000  1
  Cu  Cu13  1  0.500000  0.000000  0.000000  1
  Cu  Cu14  1  0.000000  0.500000  0.000000  1
  Cu  Cu15  1  0.500000  0.500000  0.500000  1
  N  N16  1  0.509030  0.505638  0.693417  1
  N  N17  1  0.806583  0.990970  0.505638  1
  N  N18  1  0.693417  0.990970  0.994362  1
  N  N19  1  0.505638  0.806583  0.990970  1
  N  N20  1  0.990970  0.994362  0.693417  1
  N  N21  1  0.005638  0.306583  0.009030  1
  N  N22  1  0.306583  0.009030  0.005638  1
  N  N23  1  0.806583  0.509030  0.994362  1
  N  N24  1  0.505638  0.693417  0.509030  1
  N  N25  1  0.009030  0.494362  0.193417  1
  N  N26  1  0.994362  0.806583  0.509030  1
  N  N27  1  0.490970  0.494362  0.306583  1
  N  N28  1  0.509030  0.994362  0.806583  1
  N  N29  1  0.005638  0.193417  0.490970  1
  N  N30  1  0.693417  0.509030  0.505638  1
  N  N31  1  0.494362  0.193417  0.009030  1
  N  N32  1  0.494362  0.306583  0.490970  1
  N  N33  1  0.193417  0.009030  0.494362  1
  N  N34  1  0.994362  0.693417  0.990970  1
  N  N35  1  0.990970  0.505638  0.806583  1
  N  N36  1  0.490970  0.005638  0.193417  1
  N  N37  1  0.009030  0.005638  0.306583  1
  N  N38  1  0.193417  0.490970  0.005638  1
  N  N39  1  0.306583  0.490970  0.494362  1
  O  O40  1  0.504562  0.251044  0.911105  1
  O  O41  1  0.004562  0.751044  0.088895  1
  O  O42  1  0.411105  0.004562  0.748956  1
  O  O43  1  0.248956  0.588895  0.504562  1
  O  O44  1  0.911105  0.504562  0.251044  1
  O  O45  1  0.251466  0.103362  0.460561  1
  O  O46  1  0.396638  0.460561  0.248534  1
  O  O47  1  0.960561  0.748534  0.603362  1
  O  O48  1  0.588895  0.995438  0.251044  1
  O  O49  1  0.039439  0.251466  0.396638  1
  O  O50  1  0.088895  0.004562  0.751044  1
  O  O51  1  0.396638  0.039439  0.251466  1
  O  O52  1  0.748956  0.411105  0.004562  1
  O  O53  1  0.896638  0.960561  0.751466  1
  O  O54  1  0.039439  0.248534  0.103362  1
  O  O55  1  0.911105  0.995438  0.248956  1
  O  O56  1  0.896638  0.539439  0.748534  1
  O  O57  1  0.251044  0.911105  0.504562  1
  O  O58  1  0.088895  0.495438  0.748956  1
  O  O59  1  0.103362  0.039439  0.248534  1
  O  O60  1  0.539439  0.748534  0.896638  1
  O  O61  1  0.251044  0.588895  0.995438  1
  O  O62  1  0.251466  0.396638  0.039439  1
  O  O63  1  0.748956  0.088895  0.495438  1
  O  O64  1  0.004562  0.748956  0.411105  1
  O  O65  1  0.248534  0.396638  0.460561  1
  O  O66  1  0.411105  0.495438  0.751044  1
  O  O67  1  0.995438  0.251044  0.588895  1
  O  O68  1  0.588895  0.504562  0.248956  1
  O  O69  1  0.539439  0.751466  0.603362  1
  O  O70  1  0.748534  0.603362  0.960561  1
  O  O71  1  0.603362  0.960561  0.748534  1
  O  O72  1  0.248956  0.911105  0.995438  1
  O  O73  1  0.751466  0.896638  0.960561  1
  O  O74  1  0.751044  0.088895  0.004562  1
  O  O75  1  0.504562  0.248956  0.588895  1
  O  O76  1  0.748534  0.896638  0.539439  1
  O  O77  1  0.751044  0.411105  0.495438  1
  O  O78  1  0.995438  0.248956  0.911105  1
  O  O79  1  0.495438  0.748956  0.088895  1
  O  O80  1  0.103362  0.460561  0.251466  1
  O  O81  1  0.248534  0.103362  0.039439  1
  O  O82  1  0.460561  0.248534  0.396638  1
  O  O83  1  0.603362  0.539439  0.751466  1
  O  O84  1  0.495438  0.751044  0.411105  1
  O  O85  1  0.960561  0.751466  0.896638  1
  O  O86  1  0.751466  0.603362  0.539439  1
  O  O87  1  0.460561  0.251466  0.103362  1
