# generated using pymatgen
data_Ta2Te3
_symmetry_space_group_name_H-M   'P 1'
_cell_length_a   3.51095866
_cell_length_b   7.87500929
_cell_length_c   10.49601063
_cell_angle_alpha   85.15873210
_cell_angle_beta   80.36874753
_cell_angle_gamma   77.17246033
_symmetry_Int_Tables_number   1
_chemical_formula_structural   Ta2Te3
_chemical_formula_sum   'Ta4 Te6'
_cell_volume   278.63423981
_cell_formula_units_Z   2
loop_
 _symmetry_equiv_pos_site_id
 _symmetry_equiv_pos_as_xyz
  1  'x, y, z'
loop_
 _atom_site_type_symbol
 _atom_site_label
 _atom_site_symmetry_multiplicity
 _atom_site_fract_x
 _atom_site_fract_y
 _atom_site_fract_z
 _atom_site_occupancy
  Ta  Ta0  1  0.416231  0.022875  0.144771  1
  Ta  Ta1  1  0.583769  0.977125  0.855229  1
  Ta  Ta2  1  0.227287  0.934068  0.611057  1
  Ta  Ta3  1  0.772713  0.065932  0.388943  1
  Te  Te4  1  0.427082  0.785356  0.359729  1
  Te  Te5  1  0.572918  0.214644  0.640271  1
  Te  Te6  1  0.194569  0.323794  0.288329  1
  Te  Te7  1  0.805431  0.676206  0.711671  1
  Te  Te8  1  0.098180  0.774480  0.027718  1
  Te  Te9  1  0.901820  0.225520  0.972282  1
