# generated using pymatgen
data_NaNb(OF)2
_symmetry_space_group_name_H-M   'P 1'
_cell_length_a   5.49676595
_cell_length_b   7.75308653
_cell_length_c   8.20340170
_cell_angle_alpha   102.30374361
_cell_angle_beta   90.00000000
_cell_angle_gamma   90.00000000
_symmetry_Int_Tables_number   1
_chemical_formula_structural   NaNb(OF)2
_chemical_formula_sum   'Na4 Nb4 O8 F8'
_cell_volume   341.57375057
_cell_formula_units_Z   4
loop_
 _symmetry_equiv_pos_site_id
 _symmetry_equiv_pos_as_xyz
  1  'x, y, z'
loop_
 _atom_site_type_symbol
 _atom_site_label
 _atom_site_symmetry_multiplicity
 _atom_site_fract_x
 _atom_site_fract_y
 _atom_site_fract_z
 _atom_site_occupancy
  Na  Na0  1  0.222507  0.880675  0.633137  1
  Na  Na1  1  0.777493  0.119325  0.366863  1
  Na  Na2  1  0.277493  0.380675  0.633137  1
  Na  Na3  1  0.722507  0.619325  0.366863  1
  Nb  Nb4  1  0.266105  0.319977  0.155037  1
  Nb  Nb5  1  0.766105  0.180023  0.844963  1
  Nb  Nb6  1  0.733895  0.680023  0.844963  1
  Nb  Nb7  1  0.233895  0.819977  0.155037  1
  O  O8  1  0.555518  0.210322  0.036066  1
  O  O9  1  0.055518  0.289678  0.963934  1
  O  O10  1  0.153766  0.054304  0.177523  1
  O  O11  1  0.346234  0.554304  0.177523  1
  O  O12  1  0.444482  0.789678  0.963934  1
  O  O13  1  0.944482  0.710322  0.036066  1
  O  O14  1  0.846234  0.945696  0.822477  1
  O  O15  1  0.653766  0.445696  0.822477  1
  F  F16  1  0.547702  0.687915  0.626221  1
  F  F17  1  0.479036  0.122346  0.683418  1
  F  F18  1  0.047702  0.812085  0.373779  1
  F  F19  1  0.520964  0.877654  0.316582  1
  F  F20  1  0.979036  0.377654  0.316582  1
  F  F21  1  0.020964  0.622346  0.683418  1
  F  F22  1  0.452298  0.312085  0.373779  1
  F  F23  1  0.952298  0.187915  0.626221  1
