# generated using pymatgen
data_LaWClO4
_symmetry_space_group_name_H-M   'P 1'
_cell_length_a   3.93963192
_cell_length_b   6.05769141
_cell_length_c   19.54150141
_cell_angle_alpha   90.00000000
_cell_angle_beta   90.00000000
_cell_angle_gamma   90.00000000
_symmetry_Int_Tables_number   1
_chemical_formula_structural   LaWClO4
_chemical_formula_sum   'La4 W4 Cl4 O16'
_cell_volume   466.35938583
_cell_formula_units_Z   4
loop_
 _symmetry_equiv_pos_site_id
 _symmetry_equiv_pos_as_xyz
  1  'x, y, z'
loop_
 _atom_site_type_symbol
 _atom_site_label
 _atom_site_symmetry_multiplicity
 _atom_site_fract_x
 _atom_site_fract_y
 _atom_site_fract_z
 _atom_site_occupancy
  La  La0  1  0.255579  0.750000  0.897128  1
  La  La1  1  0.744421  0.250000  0.102872  1
  La  La2  1  0.244421  0.750000  0.397128  1
  La  La3  1  0.755579  0.250000  0.602872  1
  W  W4  1  0.708853  0.250000  0.320544  1
  W  W5  1  0.791147  0.250000  0.820544  1
  W  W6  1  0.291147  0.750000  0.679456  1
  W  W7  1  0.208853  0.750000  0.179456  1
  Cl  Cl8  1  0.747453  0.750000  0.512163  1
  Cl  Cl9  1  0.752547  0.750000  0.012163  1
  Cl  Cl10  1  0.252547  0.250000  0.487837  1
  Cl  Cl11  1  0.247453  0.250000  0.987837  1
  O  O12  1  0.254841  0.019619  0.633757  1
  O  O13  1  0.754841  0.519619  0.866243  1
  O  O14  1  0.753847  0.250000  0.728629  1
  O  O15  1  0.754841  0.980381  0.866243  1
  O  O16  1  0.265356  0.250000  0.825227  1
  O  O17  1  0.245159  0.480381  0.133757  1
  O  O18  1  0.746153  0.250000  0.228629  1
  O  O19  1  0.246153  0.750000  0.271371  1
  O  O20  1  0.253847  0.750000  0.771371  1
  O  O21  1  0.254841  0.480381  0.633757  1
  O  O22  1  0.234644  0.250000  0.325227  1
  O  O23  1  0.765356  0.750000  0.674773  1
  O  O24  1  0.734644  0.750000  0.174773  1
  O  O25  1  0.745159  0.980381  0.366243  1
  O  O26  1  0.245159  0.019619  0.133757  1
  O  O27  1  0.745159  0.519619  0.366243  1
