# generated using pymatgen
data_SiBr2
_symmetry_space_group_name_H-M   'P 1'
_cell_length_a   11.06144127
_cell_length_b   14.31614765
_cell_length_c   15.97561032
_cell_angle_alpha   90.00000000
_cell_angle_beta   90.00000000
_cell_angle_gamma   102.14782772
_symmetry_Int_Tables_number   1
_chemical_formula_structural   SiBr2
_chemical_formula_sum   'Si20 Br40'
_cell_volume   2473.20465430
_cell_formula_units_Z   20
loop_
 _symmetry_equiv_pos_site_id
 _symmetry_equiv_pos_as_xyz
  1  'x, y, z'
loop_
 _atom_site_type_symbol
 _atom_site_label
 _atom_site_symmetry_multiplicity
 _atom_site_fract_x
 _atom_site_fract_y
 _atom_site_fract_z
 _atom_site_occupancy
  Si  Si0  1  0.092620  0.040025  0.169377  1
  Si  Si1  1  0.410642  0.463877  0.819640  1
  Si  Si2  1  0.230379  0.522408  0.627331  1
  Si  Si3  1  0.910642  0.963877  0.680360  1
  Si  Si4  1  0.089358  0.036123  0.319640  1
  Si  Si5  1  0.407380  0.459975  0.669377  1
  Si  Si6  1  0.854421  0.427248  0.246868  1
  Si  Si7  1  0.645579  0.072752  0.746868  1
  Si  Si8  1  0.589358  0.536123  0.180360  1
  Si  Si9  1  0.209542  0.480025  0.861212  1
  Si  Si10  1  0.269621  0.977592  0.127331  1
  Si  Si11  1  0.730379  0.022408  0.872669  1
  Si  Si12  1  0.592620  0.540025  0.330623  1
  Si  Si13  1  0.769621  0.477592  0.372669  1
  Si  Si14  1  0.354421  0.927248  0.253132  1
  Si  Si15  1  0.907380  0.959975  0.830623  1
  Si  Si16  1  0.790458  0.519975  0.138788  1
  Si  Si17  1  0.709542  0.980025  0.638788  1
  Si  Si18  1  0.145579  0.572752  0.753132  1
  Si  Si19  1  0.290458  0.019975  0.361212  1
  Br  Br20  1  0.412637  0.165515  0.354153  1
  Br  Br21  1  0.582560  0.549369  0.619693  1
  Br  Br22  1  0.763399  0.274643  0.223923  1
  Br  Br23  1  0.409552  0.095710  0.070344  1
  Br  Br24  1  0.721086  0.356040  0.462314  1
  Br  Br25  1  0.909552  0.595710  0.429656  1
  Br  Br26  1  0.203867  0.542568  0.988358  1
  Br  Br27  1  0.263399  0.774643  0.276077  1
  Br  Br28  1  0.386197  0.309637  0.625258  1
  Br  Br29  1  0.236601  0.725357  0.776077  1
  Br  Br30  1  0.545538  0.595278  0.859320  1
  Br  Br31  1  0.059251  0.444678  0.253924  1
  Br  Br32  1  0.703867  0.042568  0.511642  1
  Br  Br33  1  0.796133  0.457432  0.011642  1
  Br  Br34  1  0.460223  0.333645  0.873942  1
  Br  Br35  1  0.454462  0.404722  0.140680  1
  Br  Br36  1  0.912637  0.665515  0.145847  1
  Br  Br37  1  0.113803  0.190363  0.125258  1
  Br  Br38  1  0.087363  0.334485  0.854153  1
  Br  Br39  1  0.082560  0.049369  0.880307  1
  Br  Br40  1  0.559251  0.944678  0.246076  1
  Br  Br41  1  0.886197  0.809637  0.874742  1
  Br  Br42  1  0.778914  0.143960  0.962314  1
  Br  Br43  1  0.221086  0.856040  0.037686  1
  Br  Br44  1  0.736601  0.225357  0.723923  1
  Br  Br45  1  0.440749  0.055322  0.753924  1
  Br  Br46  1  0.954462  0.904722  0.359320  1
  Br  Br47  1  0.917440  0.950631  0.119693  1
  Br  Br48  1  0.039777  0.166355  0.373942  1
  Br  Br49  1  0.539777  0.666355  0.126058  1
  Br  Br50  1  0.417440  0.450631  0.380307  1
  Br  Br51  1  0.587363  0.834485  0.645847  1
  Br  Br52  1  0.590448  0.904290  0.929656  1
  Br  Br53  1  0.296133  0.957432  0.488358  1
  Br  Br54  1  0.090448  0.404290  0.570344  1
  Br  Br55  1  0.613803  0.690363  0.374742  1
  Br  Br56  1  0.940749  0.555322  0.746076  1
  Br  Br57  1  0.278914  0.643960  0.537686  1
  Br  Br58  1  0.960223  0.833645  0.626058  1
  Br  Br59  1  0.045538  0.095278  0.640680  1
