# generated using pymatgen
data_CdI2
_symmetry_space_group_name_H-M   'P 1'
_cell_length_a   4.33999972
_cell_length_b   4.33999999
_cell_length_c   125.39794380
_cell_angle_alpha   90.00000000
_cell_angle_beta   90.00000000
_cell_angle_gamma   119.99999795
_symmetry_Int_Tables_number   1
_chemical_formula_structural   CdI2
_chemical_formula_sum   'Cd16 I32'
_cell_volume   2045.50471903
_cell_formula_units_Z   16
loop_
 _symmetry_equiv_pos_site_id
 _symmetry_equiv_pos_as_xyz
  1  'x, y, z'
loop_
 _atom_site_type_symbol
 _atom_site_label
 _atom_site_symmetry_multiplicity
 _atom_site_fract_x
 _atom_site_fract_y
 _atom_site_fract_z
 _atom_site_occupancy
  Cd  Cd0  1  0.333333  0.666667  0.515554  1
  Cd  Cd1  1  0.666667  0.333333  0.890680  1
  Cd  Cd2  1  0.000000  0.000000  0.828274  1
  Cd  Cd3  1  0.000000  0.000000  0.453118  1
  Cd  Cd4  1  0.333333  0.666667  0.640595  1
  Cd  Cd5  1  0.333333  0.666667  0.140725  1
  Cd  Cd6  1  0.000000  0.000000  0.203150  1
  Cd  Cd7  1  0.000000  0.000000  0.952397  1
  Cd  Cd8  1  0.333333  0.666667  0.015727  1
  Cd  Cd9  1  0.000000  0.000000  0.765705  1
  Cd  Cd10  1  0.000000  0.000000  0.578177  1
  Cd  Cd11  1  0.000000  0.000000  0.078480  1
  Cd  Cd12  1  0.333333  0.666667  0.390551  1
  Cd  Cd13  1  0.333333  0.666667  0.265562  1
  Cd  Cd14  1  0.000000  0.000000  0.328149  1
  Cd  Cd15  1  0.666667  0.333333  0.703207  1
  I  I16  1  0.666667  0.333333  0.966085  1
  I  I17  1  0.666667  0.333333  0.654281  1
  I  I18  1  0.000000  0.000000  0.904361  1
  I  I19  1  0.666667  0.333333  0.779398  1
  I  I20  1  0.333333  0.666667  0.752019  1
  I  I21  1  0.000000  0.000000  0.626926  1
  I  I22  1  0.333333  0.666667  0.564494  1
  I  I23  1  0.000000  0.000000  0.251887  1
  I  I24  1  0.333333  0.666667  0.814596  1
  I  I25  1  0.333333  0.666667  0.064782  1
  I  I26  1  0.666667  0.333333  0.466796  1
  I  I27  1  0.666667  0.333333  0.216831  1
  I  I28  1  0.333333  0.666667  0.439438  1
  I  I29  1  0.000000  0.000000  0.716895  1
  I  I30  1  0.666667  0.333333  0.341829  1
  I  I31  1  0.333333  0.666667  0.189472  1
  I  I32  1  0.000000  0.000000  0.127047  1
  I  I33  1  0.666667  0.333333  0.404233  1
  I  I34  1  0.666667  0.333333  0.154407  1
  I  I35  1  0.666667  0.333333  0.092166  1
  I  I36  1  0.666667  0.333333  0.279246  1
  I  I37  1  0.666667  0.333333  0.029406  1
  I  I38  1  0.333333  0.666667  0.876982  1
  I  I39  1  0.333333  0.666667  0.314474  1
  I  I40  1  0.333333  0.666667  0.938719  1
  I  I41  1  0.000000  0.000000  0.501877  1
  I  I42  1  0.666667  0.333333  0.841962  1
  I  I43  1  0.666667  0.333333  0.591857  1
  I  I44  1  0.000000  0.000000  1.002037  1
  I  I45  1  0.333333  0.666667  0.689533  1
  I  I46  1  0.000000  0.000000  0.376874  1
  I  I47  1  0.666667  0.333333  0.529239  1
