# generated using pymatgen
data_Na2CrF4
_symmetry_space_group_name_H-M   'P 1'
_cell_length_a   3.39901661
_cell_length_b   5.74554871
_cell_length_c   9.70230545
_cell_angle_alpha   90.00000000
_cell_angle_beta   90.00000000
_cell_angle_gamma   92.04124709
_symmetry_Int_Tables_number   1
_chemical_formula_structural   Na2CrF4
_chemical_formula_sum   'Na4 Cr2 F8'
_cell_volume   189.35817932
_cell_formula_units_Z   2
loop_
 _symmetry_equiv_pos_site_id
 _symmetry_equiv_pos_as_xyz
  1  'x, y, z'
loop_
 _atom_site_type_symbol
 _atom_site_label
 _atom_site_symmetry_multiplicity
 _atom_site_fract_x
 _atom_site_fract_y
 _atom_site_fract_z
 _atom_site_occupancy
  Na  Na0  1  0.484000  0.577566  0.818921  1
  Na  Na1  1  0.516000  0.922434  0.318921  1
  Na  Na2  1  0.484000  0.077566  0.681079  1
  Na  Na3  1  0.516000  0.422434  0.181079  1
  Cr  Cr4  1  0.000000  0.000000  0.000000  1
  Cr  Cr5  1  0.000000  0.500000  0.500000  1
  F  F6  1  0.990365  0.369619  0.694128  1
  F  F7  1  0.009635  0.130381  0.194128  1
  F  F8  1  0.009635  0.630381  0.305872  1
  F  F9  1  0.990365  0.869619  0.805872  1
  F  F10  1  0.433304  0.241403  0.952693  1
  F  F11  1  0.566696  0.258597  0.452693  1
  F  F12  1  0.433304  0.741403  0.547307  1
  F  F13  1  0.566696  0.758597  0.047307  1
