# generated using pymatgen
data_RbGa3S5
_symmetry_space_group_name_H-M   'P 1'
_cell_length_a   7.26111917
_cell_length_b   10.52263929
_cell_length_c   12.92120948
_cell_angle_alpha   90.00000000
_cell_angle_beta   90.00000000
_cell_angle_gamma   103.42558648
_symmetry_Int_Tables_number   1
_chemical_formula_structural   RbGa3S5
_chemical_formula_sum   'Rb4 Ga12 S20'
_cell_volume   960.28016600
_cell_formula_units_Z   4
loop_
 _symmetry_equiv_pos_site_id
 _symmetry_equiv_pos_as_xyz
  1  'x, y, z'
loop_
 _atom_site_type_symbol
 _atom_site_label
 _atom_site_symmetry_multiplicity
 _atom_site_fract_x
 _atom_site_fract_y
 _atom_site_fract_z
 _atom_site_occupancy
  Rb  Rb0  1  0.165754  0.401656  0.612968  1
  Rb  Rb1  1  0.834246  0.098344  0.112968  1
  Rb  Rb2  1  0.834246  0.598344  0.387032  1
  Rb  Rb3  1  0.165754  0.901656  0.887032  1
  Ga  Ga4  1  0.202429  0.400898  0.920346  1
  Ga  Ga5  1  0.202429  0.900898  0.579654  1
  Ga  Ga6  1  0.797571  0.099102  0.420346  1
  Ga  Ga7  1  0.439971  0.804409  0.397309  1
  Ga  Ga8  1  0.439971  0.304409  0.102691  1
  Ga  Ga9  1  0.289294  0.124000  0.336816  1
  Ga  Ga10  1  0.560029  0.195591  0.602691  1
  Ga  Ga11  1  0.797571  0.599102  0.079654  1
  Ga  Ga12  1  0.710706  0.876000  0.663184  1
  Ga  Ga13  1  0.560029  0.695591  0.897309  1
  Ga  Ga14  1  0.289294  0.624000  0.163184  1
  Ga  Ga15  1  0.710706  0.376000  0.836816  1
  S  S16  1  0.281189  0.589166  0.831918  1
  S  S17  1  0.190121  0.410144  0.102172  1
  S  S18  1  0.281189  0.089166  0.668082  1
  S  S19  1  0.190121  0.910144  0.397828  1
  S  S20  1  0.718811  0.910834  0.331918  1
  S  S21  1  0.654760  0.401626  0.664716  1
  S  S22  1  0.429269  0.768833  0.579118  1
  S  S23  1  0.809879  0.089856  0.602172  1
  S  S24  1  0.809879  0.589856  0.897828  1
  S  S25  1  0.935276  0.760274  0.634796  1
  S  S26  1  0.064724  0.239726  0.365204  1
  S  S27  1  0.718811  0.410834  0.168082  1
  S  S28  1  0.570731  0.731167  0.079118  1
  S  S29  1  0.429269  0.268833  0.920882  1
  S  S30  1  0.935276  0.260274  0.865204  1
  S  S31  1  0.064724  0.739726  0.134796  1
  S  S32  1  0.654760  0.901626  0.835284  1
  S  S33  1  0.345240  0.598374  0.335284  1
  S  S34  1  0.570731  0.231167  0.420882  1
  S  S35  1  0.345240  0.098374  0.164716  1
