# generated using pymatgen
data_K3P(W3O10)4
_symmetry_space_group_name_H-M   'P 1'
_cell_length_a   11.99618690
_cell_length_b   11.99618690
_cell_length_c   11.99618690
_cell_angle_alpha   90.00000000
_cell_angle_beta   90.00000000
_cell_angle_gamma   90.00000000
_symmetry_Int_Tables_number   1
_chemical_formula_structural   K3P(W3O10)4
_chemical_formula_sum   'K6 P2 W24 O80'
_cell_volume   1726.35326417
_cell_formula_units_Z   2
loop_
 _symmetry_equiv_pos_site_id
 _symmetry_equiv_pos_as_xyz
  1  'x, y, z'
loop_
 _atom_site_type_symbol
 _atom_site_label
 _atom_site_symmetry_multiplicity
 _atom_site_fract_x
 _atom_site_fract_y
 _atom_site_fract_z
 _atom_site_occupancy
  K  K0  1  0.750000  0.750000  0.250000  1
  K  K1  1  0.750000  0.250000  0.250000  1
  K  K2  1  0.750000  0.250000  0.750000  1
  K  K3  1  0.250000  0.750000  0.750000  1
  K  K4  1  0.250000  0.750000  0.250000  1
  K  K5  1  0.250000  0.250000  0.750000  1
  P  P6  1  0.750000  0.750000  0.750000  1
  P  P7  1  0.250000  0.250000  0.250000  1
  W  W8  1  0.464081  0.464081  0.257681  1
  W  W9  1  0.757681  0.964081  0.535919  1
  W  W10  1  0.464081  0.035919  0.242319  1
  W  W11  1  0.464081  0.242319  0.035919  1
  W  W12  1  0.242319  0.464081  0.035919  1
  W  W13  1  0.742319  0.964081  0.964081  1
  W  W14  1  0.035919  0.242319  0.464081  1
  W  W15  1  0.964081  0.535919  0.757681  1
  W  W16  1  0.257681  0.464081  0.464081  1
  W  W17  1  0.964081  0.742319  0.964081  1
  W  W18  1  0.242319  0.035919  0.464081  1
  W  W19  1  0.464081  0.257681  0.464081  1
  W  W20  1  0.257681  0.035919  0.035919  1
  W  W21  1  0.035919  0.464081  0.242319  1
  W  W22  1  0.742319  0.535919  0.535919  1
  W  W23  1  0.535919  0.757681  0.964081  1
  W  W24  1  0.035919  0.257681  0.035919  1
  W  W25  1  0.535919  0.535919  0.742319  1
  W  W26  1  0.757681  0.535919  0.964081  1
  W  W27  1  0.964081  0.757681  0.535919  1
  W  W28  1  0.035919  0.035919  0.257681  1
  W  W29  1  0.535919  0.964081  0.757681  1
  W  W30  1  0.964081  0.964081  0.742319  1
  W  W31  1  0.535919  0.742319  0.535919  1
  O  O32  1  0.565264  0.265633  0.934736  1
  O  O33  1  0.373619  0.966538  0.126381  1
  O  O34  1  0.652126  0.495673  0.847874  1
  O  O35  1  0.995673  0.152126  0.152126  1
  O  O36  1  0.347874  0.995673  0.347874  1
  O  O37  1  0.373619  0.533462  0.373619  1
  O  O38  1  0.504327  0.152126  0.347874  1
  O  O39  1  0.152126  0.152126  0.995673  1
  O  O40  1  0.466538  0.626381  0.626381  1
  O  O41  1  0.065264  0.734367  0.434736  1
  O  O42  1  0.565264  0.565264  0.234367  1
  O  O43  1  0.675533  0.824467  0.824467  1
  O  O44  1  0.126381  0.966538  0.373619  1
  O  O45  1  0.873619  0.466538  0.873619  1
  O  O46  1  0.434736  0.434736  0.765633  1
  O  O47  1  0.234367  0.934736  0.934736  1
  O  O48  1  0.966538  0.373619  0.126381  1
  O  O49  1  0.873619  0.626381  0.033462  1
  O  O50  1  0.347874  0.504327  0.152126  1
  O  O51  1  0.324467  0.175533  0.175533  1
  O  O52  1  0.652126  0.847874  0.495673  1
  O  O53  1  0.934736  0.234367  0.934736  1
  O  O54  1  0.347874  0.347874  0.995673  1
  O  O55  1  0.004327  0.847874  0.847874  1
  O  O56  1  0.373619  0.373619  0.533462  1
  O  O57  1  0.533462  0.126381  0.126381  1
  O  O58  1  0.824467  0.675533  0.824467  1
  O  O59  1  0.652126  0.652126  0.004327  1
  O  O60  1  0.152126  0.347874  0.504327  1
  O  O61  1  0.065264  0.065264  0.765633  1
  O  O62  1  0.765633  0.434736  0.434736  1
  O  O63  1  0.533462  0.373619  0.373619  1
  O  O64  1  0.734367  0.434736  0.065264  1
  O  O65  1  0.065264  0.765633  0.065264  1
  O  O66  1  0.466538  0.873619  0.873619  1
  O  O67  1  0.626381  0.873619  0.033462  1
  O  O68  1  0.434736  0.765633  0.434736  1
  O  O69  1  0.734367  0.065264  0.434736  1
  O  O70  1  0.847874  0.652126  0.495673  1
  O  O71  1  0.824467  0.824467  0.675533  1
  O  O72  1  0.175533  0.324467  0.175533  1
  O  O73  1  0.847874  0.847874  0.004327  1
  O  O74  1  0.652126  0.004327  0.652126  1
  O  O75  1  0.004327  0.652126  0.652126  1
  O  O76  1  0.152126  0.995673  0.152126  1
  O  O77  1  0.126381  0.533462  0.126381  1
  O  O78  1  0.495673  0.652126  0.847874  1
  O  O79  1  0.504327  0.347874  0.152126  1
  O  O80  1  0.847874  0.004327  0.847874  1
  O  O81  1  0.934736  0.565264  0.265633  1
  O  O82  1  0.265633  0.565264  0.934736  1
  O  O83  1  0.324467  0.324467  0.324467  1
  O  O84  1  0.126381  0.373619  0.966538  1
  O  O85  1  0.873619  0.873619  0.466538  1
  O  O86  1  0.434736  0.065264  0.734367  1
  O  O87  1  0.126381  0.126381  0.533462  1
  O  O88  1  0.175533  0.175533  0.324467  1
  O  O89  1  0.626381  0.626381  0.466538  1
  O  O90  1  0.373619  0.126381  0.966538  1
  O  O91  1  0.626381  0.466538  0.626381  1
  O  O92  1  0.966538  0.126381  0.373619  1
  O  O93  1  0.234367  0.565264  0.565264  1
  O  O94  1  0.847874  0.495673  0.652126  1
  O  O95  1  0.033462  0.873619  0.626381  1
  O  O96  1  0.495673  0.847874  0.652126  1
  O  O97  1  0.765633  0.065264  0.065264  1
  O  O98  1  0.434736  0.734367  0.065264  1
  O  O99  1  0.347874  0.152126  0.504327  1
  O  O100  1  0.152126  0.504327  0.347874  1
  O  O101  1  0.675533  0.675533  0.675533  1
  O  O102  1  0.565264  0.934736  0.265633  1
  O  O103  1  0.934736  0.265633  0.565264  1
  O  O104  1  0.565264  0.234367  0.565264  1
  O  O105  1  0.033462  0.626381  0.873619  1
  O  O106  1  0.265633  0.934736  0.565264  1
  O  O107  1  0.065264  0.434736  0.734367  1
  O  O108  1  0.934736  0.934736  0.234367  1
  O  O109  1  0.995673  0.347874  0.347874  1
  O  O110  1  0.873619  0.033462  0.626381  1
  O  O111  1  0.626381  0.033462  0.873619  1
