# generated using pymatgen
data_K3WS3ClO
_symmetry_space_group_name_H-M   'P 1'
_cell_length_a   6.43866713
_cell_length_b   12.59262581
_cell_length_c   12.73944661
_cell_angle_alpha   90.00000000
_cell_angle_beta   90.00000000
_cell_angle_gamma   90.00000000
_symmetry_Int_Tables_number   1
_chemical_formula_structural   K3WS3ClO
_chemical_formula_sum   'K12 W4 S12 Cl4 O4'
_cell_volume   1032.91083904
_cell_formula_units_Z   4
loop_
 _symmetry_equiv_pos_site_id
 _symmetry_equiv_pos_as_xyz
  1  'x, y, z'
loop_
 _atom_site_type_symbol
 _atom_site_label
 _atom_site_symmetry_multiplicity
 _atom_site_fract_x
 _atom_site_fract_y
 _atom_site_fract_z
 _atom_site_occupancy
  K  K0  1  0.602815  0.759865  0.735497  1
  K  K1  1  0.038549  0.001735  0.703641  1
  K  K2  1  0.038549  0.501735  0.796359  1
  K  K3  1  0.397185  0.259865  0.264503  1
  K  K4  1  0.961451  0.501735  0.296359  1
  K  K5  1  0.961451  0.001735  0.203641  1
  K  K6  1  0.584761  0.999051  0.480265  1
  K  K7  1  0.584761  0.499051  0.019735  1
  K  K8  1  0.397185  0.759865  0.235497  1
  K  K9  1  0.415239  0.499051  0.519735  1
  K  K10  1  0.415239  0.999051  0.980265  1
  K  K11  1  0.602815  0.259865  0.764503  1
  W  W12  1  0.997127  0.750406  0.494357  1
  W  W13  1  0.002873  0.750406  0.994357  1
  W  W14  1  0.997127  0.250406  0.005643  1
  W  W15  1  0.002873  0.250406  0.505643  1
  S  S16  1  0.657619  0.769067  0.005142  1
  S  S17  1  0.101130  0.270255  0.673297  1
  S  S18  1  0.913267  0.086742  0.951248  1
  S  S19  1  0.342381  0.269067  0.994858  1
  S  S20  1  0.342381  0.769067  0.505142  1
  S  S21  1  0.898870  0.770255  0.326703  1
  S  S22  1  0.086733  0.086742  0.451248  1
  S  S23  1  0.101130  0.770255  0.826703  1
  S  S24  1  0.898870  0.270255  0.173297  1
  S  S25  1  0.086733  0.586742  0.048752  1
  S  S26  1  0.913267  0.586742  0.548752  1
  S  S27  1  0.657619  0.269067  0.494858  1
  Cl  Cl28  1  0.474515  0.012074  0.231935  1
  Cl  Cl29  1  0.525485  0.012074  0.731935  1
  Cl  Cl30  1  0.474515  0.512074  0.268065  1
  Cl  Cl31  1  0.525485  0.512074  0.768065  1
  O  O32  1  0.867758  0.346703  0.925222  1
  O  O33  1  0.867758  0.846703  0.574778  1
  O  O34  1  0.132242  0.846703  0.074778  1
  O  O35  1  0.132242  0.346703  0.425222  1
