# generated using pymatgen
data_LaSc3(BO3)4
_symmetry_space_group_name_H-M   'P 1'
_cell_length_a   6.32020610
_cell_length_b   6.32020635
_cell_length_c   12.18716607
_cell_angle_alpha   99.52855614
_cell_angle_beta   99.52855652
_cell_angle_gamma   103.68584393
_symmetry_Int_Tables_number   1
_chemical_formula_structural   LaSc3(BO3)4
_chemical_formula_sum   'La2 Sc6 B8 O24'
_cell_volume   455.69965959
_cell_formula_units_Z   2
loop_
 _symmetry_equiv_pos_site_id
 _symmetry_equiv_pos_as_xyz
  1  'x, y, z'
loop_
 _atom_site_type_symbol
 _atom_site_label
 _atom_site_symmetry_multiplicity
 _atom_site_fract_x
 _atom_site_fract_y
 _atom_site_fract_z
 _atom_site_occupancy
  La  La0  1  0.251194  0.179884  0.255848  1
  La  La1  1  0.179884  0.251194  0.755848  1
  Sc  Sc2  1  0.635578  0.786034  0.755833  1
  Sc  Sc3  1  0.409746  0.906133  0.979750  1
  Sc  Sc4  1  0.005695  0.503191  0.030322  1
  Sc  Sc5  1  0.786034  0.635578  0.255833  1
  Sc  Sc6  1  0.906133  0.409746  0.479750  1
  Sc  Sc7  1  0.503191  0.005695  0.530322  1
  B  B8  1  0.103190  0.716351  0.731581  1
  B  B9  1  0.984045  0.937611  0.504857  1
  B  B10  1  0.716351  0.103190  0.231581  1
  B  B11  1  0.479893  0.426784  0.005520  1
  B  B12  1  0.937611  0.984045  0.004857  1
  B  B13  1  0.702957  0.310510  0.779814  1
  B  B14  1  0.426784  0.479893  0.505520  1
  B  B15  1  0.310510  0.702957  0.279814  1
  O  O16  1  0.400588  0.213223  0.938304  1
  O  O17  1  0.453498  0.570568  0.266772  1
  O  O18  1  0.502298  0.692411  0.574086  1
  O  O19  1  0.842809  0.075937  0.510162  1
  O  O20  1  0.564895  0.338615  0.498789  1
  O  O21  1  0.315740  0.766823  0.799395  1
  O  O22  1  0.213223  0.400588  0.438304  1
  O  O23  1  0.766823  0.315740  0.299395  1
  O  O24  1  0.860328  0.971994  0.248255  1
  O  O25  1  0.031617  0.517238  0.652509  1
  O  O26  1  0.692411  0.502298  0.074086  1
  O  O27  1  0.911791  0.724086  0.437075  1
  O  O28  1  0.197435  0.020178  0.572002  1
  O  O29  1  0.369066  0.903112  0.357374  1
  O  O30  1  0.020178  0.197435  0.072002  1
  O  O31  1  0.338615  0.564895  0.998789  1
  O  O32  1  0.570568  0.453498  0.766772  1
  O  O33  1  0.632993  0.098360  0.710853  1
  O  O34  1  0.075937  0.842809  0.010162  1
  O  O35  1  0.098360  0.632993  0.210853  1
  O  O36  1  0.724086  0.911791  0.937075  1
  O  O37  1  0.517238  0.031617  0.152509  1
  O  O38  1  0.903112  0.369066  0.857374  1
  O  O39  1  0.971994  0.860328  0.748255  1
