# generated using pymatgen
data_RbAlBP2HO9
_symmetry_space_group_name_H-M   'P 1'
_cell_length_a   8.53089642
_cell_length_b   9.37819715
_cell_length_c   9.50769095
_cell_angle_alpha   103.77221083
_cell_angle_beta   90.00000000
_cell_angle_gamma   90.00000000
_symmetry_Int_Tables_number   1
_chemical_formula_structural   RbAlBP2HO9
_chemical_formula_sum   'Rb4 Al4 B4 P8 H4 O36'
_cell_volume   738.78837241
_cell_formula_units_Z   4
loop_
 _symmetry_equiv_pos_site_id
 _symmetry_equiv_pos_as_xyz
  1  'x, y, z'
loop_
 _atom_site_type_symbol
 _atom_site_label
 _atom_site_symmetry_multiplicity
 _atom_site_fract_x
 _atom_site_fract_y
 _atom_site_fract_z
 _atom_site_occupancy
  Rb  Rb0  1  0.608154  0.690795  0.560639  1
  Rb  Rb1  1  0.108154  0.309205  0.939361  1
  Rb  Rb2  1  0.391846  0.309205  0.439361  1
  Rb  Rb3  1  0.891846  0.690795  0.060639  1
  P  P4  1  0.065614  0.571752  0.705563  1
  P  P5  1  0.565614  0.428248  0.794437  1
  P  P6  1  0.934386  0.428248  0.294437  1
  P  P7  1  0.434386  0.571752  0.205563  1
  P  P8  1  0.264097  0.913371  0.721818  1
  P  P9  1  0.764097  0.086629  0.778182  1
  P  P10  1  0.735903  0.086629  0.278182  1
  P  P11  1  0.235903  0.913371  0.221818  1
  Al  Al12  1  0.153923  0.700315  0.431378  1
  Al  Al13  1  0.653923  0.299685  0.068622  1
  Al  Al14  1  0.846077  0.299685  0.568622  1
  Al  Al15  1  0.346077  0.700315  0.931378  1
  B  B16  1  0.950484  0.836378  0.698788  1
  B  B17  1  0.450484  0.163622  0.801212  1
  B  B18  1  0.049516  0.163622  0.301212  1
  B  B19  1  0.549516  0.836378  0.198788  1
  O  O20  1  0.930719  0.693461  0.734560  1
  O  O21  1  0.430719  0.306539  0.765440  1
  O  O22  1  0.069281  0.306539  0.265440  1
  O  O23  1  0.569281  0.693461  0.234560  1
  O  O24  1  0.306372  0.081253  0.752527  1
  O  O25  1  0.806372  0.918747  0.747473  1
  O  O26  1  0.693628  0.918747  0.247473  1
  O  O27  1  0.193628  0.081253  0.252527  1
  O  O28  1  0.280759  0.843713  0.560544  1
  O  O29  1  0.780759  0.156287  0.939456  1
  O  O30  1  0.719241  0.156287  0.439456  1
  O  O31  1  0.219241  0.843713  0.060544  1
  O  O32  1  0.013852  0.576625  0.305396  1
  O  O33  1  0.513852  0.423375  0.194604  1
  O  O34  1  0.986148  0.423375  0.694604  1
  O  O35  1  0.486148  0.576625  0.805396  1
  O  O36  1  0.087979  0.918395  0.770517  1
  O  O37  1  0.587979  0.081605  0.729483  1
  O  O38  1  0.912021  0.081605  0.229484  1
  O  O39  1  0.412021  0.918395  0.270516  1
  O  O40  1  0.330528  0.601919  0.341667  1
  O  O41  1  0.830528  0.398081  0.158333  1
  O  O42  1  0.669472  0.398081  0.658333  1
  O  O43  1  0.169472  0.601919  0.841667  1
  O  O44  1  0.367738  0.839693  0.815007  1
  O  O45  1  0.867738  0.160307  0.684993  1
  O  O46  1  0.632262  0.160307  0.184993  1
  O  O47  1  0.132262  0.839693  0.315007  1
  O  O48  1  0.155294  0.582094  0.568473  1
  O  O49  1  0.655294  0.417906  0.931527  1
  O  O50  1  0.844706  0.417906  0.431527  1
  O  O51  1  0.344706  0.582094  0.068473  1
  O  O52  1  0.963807  0.805215  0.536828  1
  O  O53  1  0.463807  0.194785  0.963172  1
  O  O54  1  0.036193  0.194785  0.463172  1
  O  O55  1  0.536193  0.805215  0.036828  1
  H  H56  1  0.934280  0.887716  0.496781  1
  H  H57  1  0.434280  0.112284  0.003219  1
  H  H58  1  0.065720  0.112284  0.503219  1
  H  H59  1  0.565720  0.887716  0.996781  1
