# generated using pymatgen
data_Ca21(Mn2Bi9)2
_symmetry_space_group_name_H-M   'P 1'
_cell_length_a   12.42990393
_cell_length_b   12.42990335
_cell_length_c   17.22145490
_cell_angle_alpha   88.20474317
_cell_angle_beta   88.20474334
_cell_angle_gamma   90.17458019
_symmetry_Int_Tables_number   1
_chemical_formula_structural   Ca21(Mn2Bi9)2
_chemical_formula_sum   'Ca42 Mn8 Bi36'
_cell_volume   2658.12491421
_cell_formula_units_Z   2
loop_
 _symmetry_equiv_pos_site_id
 _symmetry_equiv_pos_as_xyz
  1  'x, y, z'
loop_
 _atom_site_type_symbol
 _atom_site_label
 _atom_site_symmetry_multiplicity
 _atom_site_fract_x
 _atom_site_fract_y
 _atom_site_fract_z
 _atom_site_occupancy
  Ca  Ca0  1  0.757990  0.519228  0.566613  1
  Ca  Ca1  1  0.767910  0.592432  0.344206  1
  Ca  Ca2  1  0.910072  0.421134  0.759599  1
  Ca  Ca3  1  0.060659  0.315230  0.117613  1
  Ca  Ca4  1  0.748610  0.263592  0.420811  1
  Ca  Ca5  1  0.743636  0.920695  0.159387  1
  Ca  Ca6  1  0.407568  0.232090  0.155794  1
  Ca  Ca7  1  0.263592  0.748610  0.920811  1
  Ca  Ca8  1  0.592432  0.767910  0.844206  1
  Ca  Ca9  1  0.513183  0.683531  0.435391  1
  Ca  Ca10  1  0.079305  0.256364  0.340613  1
  Ca  Ca11  1  0.571581  0.428419  0.750000  1
  Ca  Ca12  1  0.577271  0.811260  0.621801  1
  Ca  Ca13  1  0.421134  0.910072  0.259599  1
  Ca  Ca14  1  0.733538  0.002091  0.937688  1
  Ca  Ca15  1  0.578866  0.089928  0.740401  1
  Ca  Ca16  1  0.997909  0.266462  0.562312  1
  Ca  Ca17  1  0.188740  0.422729  0.878199  1
  Ca  Ca18  1  0.995055  0.176739  0.926806  1
  Ca  Ca19  1  0.422729  0.188740  0.378199  1
  Ca  Ca20  1  0.486817  0.316469  0.564609  1
  Ca  Ca21  1  0.736408  0.251390  0.079189  1
  Ca  Ca22  1  0.811260  0.577271  0.121801  1
  Ca  Ca23  1  0.939341  0.684770  0.882387  1
  Ca  Ca24  1  0.684770  0.939341  0.382387  1
  Ca  Ca25  1  0.002091  0.733538  0.437688  1
  Ca  Ca26  1  0.428419  0.571581  0.250000  1
  Ca  Ca27  1  0.480772  0.242010  0.933387  1
  Ca  Ca28  1  0.823261  0.004945  0.573194  1
  Ca  Ca29  1  0.242010  0.480772  0.433387  1
  Ca  Ca30  1  0.251390  0.736408  0.579189  1
  Ca  Ca31  1  0.004945  0.823261  0.073194  1
  Ca  Ca32  1  0.316469  0.486817  0.064609  1
  Ca  Ca33  1  0.920695  0.743636  0.659387  1
  Ca  Ca34  1  0.315230  0.060659  0.617613  1
  Ca  Ca35  1  0.176739  0.995055  0.426806  1
  Ca  Ca36  1  0.519228  0.757990  0.066613  1
  Ca  Ca37  1  0.256364  0.079305  0.840613  1
  Ca  Ca38  1  0.266462  0.997909  0.062312  1
  Ca  Ca39  1  0.683531  0.513183  0.935391  1
  Ca  Ca40  1  0.089928  0.578866  0.240401  1
  Ca  Ca41  1  0.232090  0.407568  0.655794  1
  Mn  Mn42  1  0.639617  0.360383  0.250000  1
  Mn  Mn43  1  0.360383  0.639617  0.750000  1
  Mn  Mn44  1  0.001026  0.998974  0.250000  1
  Mn  Mn45  1  0.158087  0.841913  0.250000  1
  Mn  Mn46  1  0.846208  0.153792  0.250000  1
  Mn  Mn47  1  0.153792  0.846208  0.750000  1
  Mn  Mn48  1  0.998974  0.001026  0.750000  1
  Mn  Mn49  1  0.841913  0.158087  0.750000  1
  Bi  Bi50  1  0.757287  0.760684  0.999793  1
  Bi  Bi51  1  0.919846  0.421363  0.963213  1
  Bi  Bi52  1  0.920431  0.066443  0.400635  1
  Bi  Bi53  1  0.254090  0.728155  0.374888  1
  Bi  Bi54  1  0.079569  0.933557  0.599365  1
  Bi  Bi55  1  0.421363  0.919846  0.463213  1
  Bi  Bi56  1  0.760684  0.757287  0.499793  1
  Bi  Bi57  1  0.080154  0.578637  0.036787  1
  Bi  Bi58  1  0.779270  0.928372  0.754361  1
  Bi  Bi59  1  0.220730  0.071628  0.245639  1
  Bi  Bi60  1  0.959943  0.460454  0.420396  1
  Bi  Bi61  1  0.271845  0.745910  0.125112  1
  Bi  Bi62  1  0.928372  0.779270  0.254361  1
  Bi  Bi63  1  0.389663  0.255570  0.746978  1
  Bi  Bi64  1  0.744430  0.610337  0.753022  1
  Bi  Bi65  1  0.460454  0.959943  0.920396  1
  Bi  Bi66  1  0.745910  0.271845  0.625112  1
  Bi  Bi67  1  0.239316  0.242713  0.500207  1
  Bi  Bi68  1  0.539546  0.040057  0.079604  1
  Bi  Bi69  1  0.552214  0.433485  0.395088  1
  Bi  Bi70  1  0.617823  0.130222  0.258591  1
  Bi  Bi71  1  0.071628  0.220730  0.745639  1
  Bi  Bi72  1  0.066443  0.920431  0.900635  1
  Bi  Bi73  1  0.040057  0.539546  0.579604  1
  Bi  Bi74  1  0.566515  0.447786  0.104912  1
  Bi  Bi75  1  0.242713  0.239316  0.000207  1
  Bi  Bi76  1  0.610337  0.744430  0.253022  1
  Bi  Bi77  1  0.578637  0.080154  0.536787  1
  Bi  Bi78  1  0.433485  0.552214  0.895088  1
  Bi  Bi79  1  0.869778  0.382177  0.241409  1
  Bi  Bi80  1  0.130222  0.617823  0.758591  1
  Bi  Bi81  1  0.447786  0.566515  0.604912  1
  Bi  Bi82  1  0.255570  0.389663  0.246978  1
  Bi  Bi83  1  0.728155  0.254090  0.874888  1
  Bi  Bi84  1  0.382177  0.869778  0.741409  1
  Bi  Bi85  1  0.933557  0.079569  0.099365  1
