# generated using pymatgen
data_Sr2NdGaCu2O7
_symmetry_space_group_name_H-M   'P 1'
_cell_length_a   5.46934845
_cell_length_b   5.58918874
_cell_length_c   12.28317209
_cell_angle_alpha   103.16193183
_cell_angle_beta   102.86859457
_cell_angle_gamma   90.00015914
_symmetry_Int_Tables_number   1
_chemical_formula_structural   Sr2NdGaCu2O7
_chemical_formula_sum   'Sr4 Nd2 Ga2 Cu4 O14'
_cell_volume   355.93083947
_cell_formula_units_Z   2
loop_
 _symmetry_equiv_pos_site_id
 _symmetry_equiv_pos_as_xyz
  1  'x, y, z'
loop_
 _atom_site_type_symbol
 _atom_site_label
 _atom_site_symmetry_multiplicity
 _atom_site_fract_x
 _atom_site_fract_y
 _atom_site_fract_z
 _atom_site_occupancy
  Nd  Nd0  1  0.500802  0.499961  -0.000007  1
  Nd  Nd1  1  0.000804  -0.000034  -0.000006  1
  Sr  Sr2  1  0.346967  0.366426  0.694755  1
  Sr  Sr3  1  0.652255  0.633587  0.305255  1
  Sr  Sr4  1  0.846958  0.828290  0.694758  1
  Sr  Sr5  1  0.152254  0.171718  0.305249  1
  Cu  Cu6  1  0.926413  0.423450  0.849584  1
  Cu  Cu7  1  0.076898  0.576560  0.150468  1
  Cu  Cu8  1  0.426388  0.925836  0.849544  1
  Cu  Cu9  1  0.576822  0.074120  0.150395  1
  Ga  Ga10  1  0.717466  0.179147  0.500004  1
  Ga  Ga11  1  0.217480  0.820843  0.499993  1
  O  O12  1  0.869011  0.869921  0.500017  1
  O  O13  1  0.368989  0.130111  0.500005  1
  O  O14  1  0.183680  0.181952  0.864799  1
  O  O15  1  0.318973  0.818085  0.135203  1
  O  O16  1  0.683852  0.182812  0.864791  1
  O  O17  1  0.819069  0.817247  0.135202  1
  O  O18  1  0.685239  0.682841  0.869313  1
  O  O19  1  0.815962  0.317110  0.130679  1
  O  O20  1  0.185052  0.686089  0.869318  1
  O  O21  1  0.315847  0.313894  0.130678  1
  O  O22  1  0.356260  0.775680  0.645081  1
  O  O23  1  0.711164  0.224316  0.354918  1
  O  O24  1  0.856252  0.369358  0.645120  1
  O  O25  1  0.211143  0.630680  0.354885  1
