# generated using pymatgen
data_V3P4O15
_symmetry_space_group_name_H-M   'P 1'
_cell_length_a   5.33217523
_cell_length_b   12.40073055
_cell_length_c   17.77819670
_cell_angle_alpha   90.00000000
_cell_angle_beta   90.00000000
_cell_angle_gamma   90.00000000
_symmetry_Int_Tables_number   1
_chemical_formula_structural   V3P4O15
_chemical_formula_sum   'V12 P16 O60'
_cell_volume   1175.54535852
_cell_formula_units_Z   4
loop_
 _symmetry_equiv_pos_site_id
 _symmetry_equiv_pos_as_xyz
  1  'x, y, z'
loop_
 _atom_site_type_symbol
 _atom_site_label
 _atom_site_symmetry_multiplicity
 _atom_site_fract_x
 _atom_site_fract_y
 _atom_site_fract_z
 _atom_site_occupancy
  V  V0  1  0.254575  0.479724  0.624463  1
  V  V1  1  0.754575  0.520276  0.875537  1
  V  V2  1  0.745425  0.979724  0.375537  1
  V  V3  1  0.245425  0.020276  0.124463  1
  V  V4  1  0.745425  0.520276  0.375537  1
  V  V5  1  0.245425  0.479724  0.124463  1
  V  V6  1  0.254575  0.020276  0.624463  1
  V  V7  1  0.754575  0.979724  0.875537  1
  V  V8  1  0.987947  0.750000  0.328381  1
  V  V9  1  0.487947  0.250000  0.171619  1
  V  V10  1  0.012053  0.250000  0.671619  1
  V  V11  1  0.512053  0.750000  0.828381  1
  P  P12  1  0.260420  0.373648  0.805314  1
  P  P13  1  0.760420  0.626352  0.694686  1
  P  P14  1  0.739580  0.873648  0.194686  1
  P  P15  1  0.239580  0.126352  0.305314  1
  P  P16  1  0.739580  0.626352  0.194686  1
  P  P17  1  0.239580  0.373648  0.305314  1
  P  P18  1  0.260420  0.126352  0.805314  1
  P  P19  1  0.760420  0.873648  0.694686  1
  P  P20  1  0.738534  0.367591  0.536466  1
  P  P21  1  0.238534  0.632409  0.963534  1
  P  P22  1  0.261466  0.867591  0.463534  1
  P  P23  1  0.761466  0.132409  0.036466  1
  P  P24  1  0.261466  0.632409  0.463534  1
  P  P25  1  0.761466  0.367591  0.036466  1
  P  P26  1  0.738534  0.132409  0.536466  1
  P  P27  1  0.238534  0.867591  0.963534  1
  O  O28  1  0.730833  0.750000  0.166630  1
  O  O29  1  0.230833  0.250000  0.333370  1
  O  O30  1  0.269167  0.250000  0.833370  1
  O  O31  1  0.769167  0.750000  0.666630  1
  O  O32  1  0.238995  0.750000  0.278540  1
  O  O33  1  0.738995  0.250000  0.221460  1
  O  O34  1  0.761005  0.250000  0.721460  1
  O  O35  1  0.261005  0.750000  0.778540  1
  O  O36  1  0.246695  0.750000  0.001915  1
  O  O37  1  0.746695  0.250000  0.498085  1
  O  O38  1  0.753305  0.250000  0.998085  1
  O  O39  1  0.253305  0.750000  0.501915  1
  O  O40  1  0.720319  0.447034  0.974510  1
  O  O41  1  0.220319  0.552966  0.525490  1
  O  O42  1  0.279681  0.947034  0.025490  1
  O  O43  1  0.779681  0.052966  0.474510  1
  O  O44  1  0.279681  0.552966  0.025490  1
  O  O45  1  0.779681  0.447034  0.474510  1
  O  O46  1  0.720319  0.052966  0.974510  1
  O  O47  1  0.220319  0.947034  0.525490  1
  O  O48  1  0.506606  0.426102  0.825259  1
  O  O49  1  0.494060  0.374768  0.579992  1
  O  O50  1  0.006606  0.573898  0.674741  1
  O  O51  1  0.993394  0.073898  0.325259  1
  O  O52  1  0.493394  0.573898  0.174741  1
  O  O53  1  0.993394  0.426102  0.325259  1
  O  O54  1  0.506606  0.073898  0.825259  1
  O  O55  1  0.006606  0.926102  0.674741  1
  O  O56  1  0.535335  0.924836  0.658266  1
  O  O57  1  0.035335  0.075164  0.841734  1
  O  O58  1  0.464665  0.424836  0.341734  1
  O  O59  1  0.964665  0.575164  0.158266  1
  O  O60  1  0.464665  0.075164  0.341734  1
  O  O61  1  0.964665  0.924836  0.158266  1
  O  O62  1  0.535335  0.575164  0.658266  1
  O  O63  1  0.035335  0.424836  0.841734  1
  O  O64  1  0.466759  0.867386  0.907006  1
  O  O65  1  0.966759  0.132614  0.592994  1
  O  O66  1  0.533241  0.367386  0.092994  1
  O  O67  1  0.033241  0.632614  0.407006  1
  O  O68  1  0.533241  0.132614  0.092994  1
  O  O69  1  0.033241  0.867386  0.407006  1
  O  O70  1  0.466759  0.632614  0.907006  1
  O  O71  1  0.966759  0.367386  0.592994  1
  O  O72  1  0.730821  0.866755  0.782698  1
  O  O73  1  0.230821  0.133245  0.717302  1
  O  O74  1  0.269179  0.366755  0.217302  1
  O  O75  1  0.769179  0.633245  0.282698  1
  O  O76  1  0.269179  0.133245  0.217302  1
  O  O77  1  0.769179  0.866755  0.282698  1
  O  O78  1  0.730821  0.633245  0.782698  1
  O  O79  1  0.230821  0.366755  0.717302  1
  O  O80  1  0.994060  0.874768  0.920008  1
  O  O81  1  0.494060  0.125232  0.579992  1
  O  O82  1  0.005940  0.374768  0.079992  1
  O  O83  1  0.505940  0.625232  0.420008  1
  O  O84  1  0.005940  0.125232  0.079992  1
  O  O85  1  0.505940  0.874768  0.420008  1
  O  O86  1  0.994060  0.625232  0.920008  1
  O  O87  1  0.493394  0.926102  0.174741  1
