# generated using pymatgen
data_La6YbSe10
_symmetry_space_group_name_H-M   'P 1'
_cell_length_a   7.85731154
_cell_length_b   7.85502434
_cell_length_c   39.27334326
_cell_angle_alpha   109.31975472
_cell_angle_beta   109.55146910
_cell_angle_gamma   109.53406988
_symmetry_Int_Tables_number   1
_chemical_formula_structural   La6YbSe10
_chemical_formula_sum   'La24 Yb4 Se40'
_cell_volume   1866.12479388
_cell_formula_units_Z   4
loop_
 _symmetry_equiv_pos_site_id
 _symmetry_equiv_pos_as_xyz
  1  'x, y, z'
loop_
 _atom_site_type_symbol
 _atom_site_label
 _atom_site_symmetry_multiplicity
 _atom_site_fract_x
 _atom_site_fract_y
 _atom_site_fract_z
 _atom_site_occupancy
  La  La0  1  0.242143  0.625647  0.873013  1
  La  La1  1  0.375170  0.252057  0.924429  1
  La  La2  1  0.246299  0.630604  0.677781  1
  La  La3  1  0.614143  0.358045  0.848324  1
  La  La4  1  0.745798  0.867510  0.822622  1
  La  La5  1  0.375823  0.248649  0.725479  1
  La  La6  1  0.241998  0.625099  0.472855  1
  La  La7  1  0.883985  0.135473  0.951622  1
  La  La8  1  0.752430  0.876495  0.624402  1
  La  La9  1  0.633053  0.378136  0.652450  1
  La  La10  1  0.374401  0.251511  0.524527  1
  La  La11  1  0.884134  0.132224  0.751459  1
  La  La12  1  0.245662  0.629621  0.277420  1
  La  La13  1  0.744912  0.866600  0.422225  1
  La  La14  1  0.613476  0.357257  0.448099  1
  La  La15  1  0.375135  0.248081  0.325222  1
  La  La16  1  0.881744  0.131009  0.550646  1
  La  La17  1  0.751103  0.875635  0.224098  1
  La  La18  1  0.633191  0.377811  0.252219  1
  La  La19  1  0.373902  0.248753  0.124606  1
  La  La20  1  0.883782  0.131777  0.351264  1
  La  La21  1  0.750045  0.874452  0.024355  1
  La  La22  1  0.627402  0.375548  0.050722  1
  La  La23  1  0.874165  0.124444  0.149788  1
  Se  Se24  1  0.998127  0.855279  0.899635  1
  Se  Se25  1  0.004826  0.361512  0.901760  1
  Se  Se26  1  0.495801  1.000783  0.970789  1
  Se  Se27  1  0.994906  0.851402  0.698145  1
  Se  Se28  1  0.513068  0.007327  0.873359  1
  Se  Se29  1  0.151544  0.159289  0.832048  1
  Se  Se30  1  0.999000  0.338206  0.698820  1
  Se  Se31  1  0.355507  0.493603  0.800692  1
  Se  Se32  1  0.502612  -0.000087  0.768835  1
  Se  Se33  1  0.645928  0.652075  0.929364  1
  Se  Se34  1  0.997800  0.854061  0.499242  1
  Se  Se35  1  0.502202  0.999195  0.670677  1
  Se  Se36  1  0.152367  0.142230  0.628926  1
  Se  Se37  1  0.005040  0.361070  0.501787  1
  Se  Se38  1  0.356374  0.499855  0.600780  1
  Se  Se39  1  0.994478  0.850777  0.297820  1
  Se  Se40  1  0.635579  0.644061  0.728484  1
  Se  Se41  1  0.840671  0.496739  0.799866  1
  Se  Se42  1  0.511227  0.006489  0.472979  1
  Se  Se43  1  0.151098  0.159049  0.432028  1
  Se  Se44  1  0.999155  0.338196  0.298721  1
  Se  Se45  1  0.355217  0.493073  0.400575  1
  Se  Se46  1  0.496432  0.002994  0.570608  1
  Se  Se47  1  0.997161  0.853329  0.099708  1
  Se  Se48  1  0.646172  0.651118  0.529098  1
  Se  Se49  1  0.853523  0.501828  0.599324  1
  Se  Se50  1  0.501856  0.998849  0.270558  1
  Se  Se51  1  0.150227  0.140313  0.228266  1
  Se  Se52  1  0.004586  0.355894  0.100216  1
  Se  Se53  1  0.354581  0.498054  0.200307  1
  Se  Se54  1  0.502326  -0.000328  0.368716  1
  Se  Se55  1  0.635038  0.643631  0.328327  1
  Se  Se56  1  0.840520  0.496322  0.399763  1
  Se  Se57  1  0.500205  0.995532  0.070646  1
  Se  Se58  1  0.149674  0.141500  0.029542  1
  Se  Se59  1  0.356445  0.498988  0.000152  1
  Se  Se60  1  0.497032  0.004388  0.170861  1
  Se  Se61  1  0.639479  0.647356  0.128695  1
  Se  Se62  1  0.853292  0.500621  0.198828  1
  Se  Se63  1  0.856531  0.505546  0.000624  1
  Yb  Yb64  1  0.125731  0.750091  0.975798  1
  Yb  Yb65  1  0.126979  0.751037  0.575034  1
  Yb  Yb66  1  0.127377  0.749219  0.174465  1
  Yb  Yb67  1  0.248413  0.627102  0.075503  1
