# generated using pymatgen
data_Na4Mn3P4O15
_symmetry_space_group_name_H-M   'P 1'
_cell_length_a   6.71912393
_cell_length_b   10.89602153
_cell_length_c   18.36566549
_cell_angle_alpha   90.00000000
_cell_angle_beta   90.00000000
_cell_angle_gamma   90.00000000
_symmetry_Int_Tables_number   1
_chemical_formula_structural   Na4Mn3P4O15
_chemical_formula_sum   'Na16 Mn12 P16 O60'
_cell_volume   1344.58194118
_cell_formula_units_Z   4
loop_
 _symmetry_equiv_pos_site_id
 _symmetry_equiv_pos_as_xyz
  1  'x, y, z'
loop_
 _atom_site_type_symbol
 _atom_site_label
 _atom_site_symmetry_multiplicity
 _atom_site_fract_x
 _atom_site_fract_y
 _atom_site_fract_z
 _atom_site_occupancy
  Na  Na0  1  0.658923  0.752845  0.207029  1
  Na  Na1  1  0.322918  0.043055  0.964296  1
  Na  Na2  1  0.191643  0.020174  0.492194  1
  Na  Na3  1  0.691643  0.520174  0.007806  1
  Na  Na4  1  0.566955  0.727688  0.398793  1
  Na  Na5  1  0.658923  0.747155  0.707029  1
  Na  Na6  1  0.066955  0.272312  0.601207  1
  Na  Na7  1  0.158923  0.247155  0.792971  1
  Na  Na8  1  0.566955  0.772312  0.898793  1
  Na  Na9  1  0.322918  0.456945  0.464296  1
  Na  Na10  1  0.066955  0.227688  0.101207  1
  Na  Na11  1  0.822918  0.956945  0.035704  1
  Na  Na12  1  0.158923  0.252845  0.292971  1
  Na  Na13  1  0.822918  0.543055  0.535704  1
  Na  Na14  1  0.191643  0.479826  0.992194  1
  Na  Na15  1  0.691643  0.979826  0.507806  1
  Mn  Mn16  1  0.409670  0.988883  0.640748  1
  Mn  Mn17  1  0.398186  0.505549  0.661966  1
  Mn  Mn18  1  0.409670  0.511117  0.140748  1
  Mn  Mn19  1  0.676660  0.255033  0.238194  1
  Mn  Mn20  1  0.898186  0.005549  0.838034  1
  Mn  Mn21  1  0.909670  0.488883  0.859252  1
  Mn  Mn22  1  0.909670  0.011117  0.359252  1
  Mn  Mn23  1  0.176660  0.755033  0.261806  1
  Mn  Mn24  1  0.676660  0.244967  0.738194  1
  Mn  Mn25  1  0.898186  0.494451  0.338034  1
  Mn  Mn26  1  0.398186  0.994451  0.161966  1
  Mn  Mn27  1  0.176660  0.744967  0.761806  1
  P  P28  1  0.354274  0.729793  0.551738  1
  P  P29  1  0.417426  0.485756  0.820686  1
  P  P30  1  0.407070  0.494180  0.298421  1
  P  P31  1  0.544779  0.242135  0.063961  1
  P  P32  1  0.354274  0.770207  0.051738  1
  P  P33  1  0.854274  0.270207  0.448262  1
  P  P34  1  0.917427  0.514244  0.179314  1
  P  P35  1  0.407070  0.005820  0.798421  1
  P  P36  1  0.907070  0.505820  0.701579  1
  P  P37  1  0.917427  0.985756  0.679314  1
  P  P38  1  0.044779  0.742135  0.436039  1
  P  P39  1  0.417426  0.014244  0.320686  1
  P  P40  1  0.854274  0.229793  0.948262  1
  P  P41  1  0.907070  0.994180  0.201579  1
  P  P42  1  0.044779  0.757865  0.936039  1
  P  P43  1  0.544779  0.257865  0.563961  1
  O  O44  1  0.446526  0.121010  0.263543  1
  O  O45  1  0.717349  0.962934  0.157436  1
  O  O46  1  0.080552  0.015716  0.148553  1
  O  O47  1  0.893999  0.639108  0.420708  1
  O  O48  1  0.939368  0.633150  0.943638  1
  O  O49  1  0.628135  0.293098  0.482348  1
  O  O50  1  0.594661  0.996608  0.373222  1
  O  O51  1  0.442062  0.112955  0.742560  1
  O  O52  1  0.094661  0.496608  0.126778  1
  O  O53  1  0.217872  0.743702  0.382499  1
  O  O54  1  0.725796  0.544335  0.136081  1
  O  O55  1  0.942062  0.887045  0.257440  1
  O  O56  1  0.939368  0.866850  0.443638  1
  O  O57  1  0.128135  0.793098  0.017652  1
  O  O58  1  0.580552  0.515716  0.351447  1
  O  O59  1  0.942062  0.612955  0.757440  1
  O  O60  1  0.887051  0.389358  0.751790  1
  O  O61  1  0.946526  0.621010  0.236457  1
  O  O62  1  0.446526  0.378990  0.763543  1
  O  O63  1  0.387051  0.610642  0.248210  1
  O  O64  1  0.217349  0.462934  0.342564  1
  O  O65  1  0.717872  0.256298  0.617501  1
  O  O66  1  0.898471  0.396558  0.228346  1
  O  O67  1  0.904886  0.365576  0.961537  1
  O  O68  1  0.628135  0.206902  0.982348  1
  O  O69  1  0.439368  0.133150  0.556362  1
  O  O70  1  0.337059  0.798918  0.133367  1
  O  O71  1  0.837059  0.201082  0.866633  1
  O  O72  1  0.898471  0.103442  0.728346  1
  O  O73  1  0.837059  0.298918  0.366633  1
  O  O74  1  0.989306  0.360672  0.488090  1
  O  O75  1  0.094661  0.003392  0.626778  1
  O  O76  1  0.594661  0.503392  0.873222  1
  O  O77  1  0.398471  0.896558  0.271654  1
  O  O78  1  0.489306  0.860672  0.011910  1
  O  O79  1  0.217349  0.037066  0.842564  1
  O  O80  1  0.725796  0.955665  0.636081  1
  O  O81  1  0.489306  0.639328  0.511910  1
  O  O82  1  0.946526  0.878990  0.736457  1
  O  O83  1  0.387051  0.889358  0.748210  1
  O  O84  1  0.398471  0.603442  0.771654  1
  O  O85  1  0.580552  0.984284  0.851447  1
  O  O86  1  0.337059  0.701082  0.633367  1
  O  O87  1  0.717872  0.243702  0.117501  1
  O  O88  1  0.989306  0.139328  0.988090  1
  O  O89  1  0.404886  0.634424  0.038463  1
  O  O90  1  0.904886  0.134424  0.461537  1
  O  O91  1  0.439368  0.366850  0.056362  1
  O  O92  1  0.442062  0.387045  0.242560  1
  O  O93  1  0.225796  0.044335  0.363919  1
  O  O94  1  0.080552  0.484284  0.648553  1
  O  O95  1  0.404886  0.865576  0.538463  1
  O  O96  1  0.893999  0.860892  0.920708  1
  O  O97  1  0.717349  0.537066  0.657436  1
  O  O98  1  0.225796  0.455665  0.863919  1
  O  O99  1  0.393999  0.360892  0.579292  1
  O  O100  1  0.887051  0.110642  0.251790  1
  O  O101  1  0.128135  0.706902  0.517652  1
  O  O102  1  0.393999  0.139108  0.079292  1
  O  O103  1  0.217872  0.756298  0.882499  1
