# generated using pymatgen
data_ZnS
_symmetry_space_group_name_H-M   'P 1'
_cell_length_a   3.85301052
_cell_length_b   3.85301041
_cell_length_c   81.86687524
_cell_angle_alpha   90.00000000
_cell_angle_beta   90.00000000
_cell_angle_gamma   120.00000090
_symmetry_Int_Tables_number   1
_chemical_formula_structural   ZnS
_chemical_formula_sum   'Zn26 S26'
_cell_volume   1052.54147892
_cell_formula_units_Z   26
loop_
 _symmetry_equiv_pos_site_id
 _symmetry_equiv_pos_as_xyz
  1  'x, y, z'
loop_
 _atom_site_type_symbol
 _atom_site_label
 _atom_site_symmetry_multiplicity
 _atom_site_fract_x
 _atom_site_fract_y
 _atom_site_fract_z
 _atom_site_occupancy
  Zn  Zn0  1  0.333333  0.666667  0.153826  1
  Zn  Zn1  1  0.000000  0.000000  0.115387  1
  Zn  Zn2  1  0.666667  0.333333  0.653836  1
  Zn  Zn3  1  0.000000  0.000000  0.230782  1
  Zn  Zn4  1  0.000000  0.000000  0.307702  1
  Zn  Zn5  1  0.666667  0.333333  0.192319  1
  Zn  Zn6  1  0.333333  0.666667  0.269224  1
  Zn  Zn7  1  0.666667  0.333333  0.346166  1
  Zn  Zn8  1  0.333333  0.666667  0.384621  1
  Zn  Zn9  1  0.666667  0.333333  0.923088  1
  Zn  Zn10  1  0.666667  0.333333  0.807692  1
  Zn  Zn11  1  0.666667  0.333333  0.576918  1
  Zn  Zn12  1  0.333333  0.666667  0.730785  1
  Zn  Zn13  1  0.000000  0.000000  0.999990  1
  Zn  Zn14  1  0.333333  0.666667  0.961520  1
  Zn  Zn15  1  0.333333  0.666667  0.615385  1
  Zn  Zn16  1  0.000000  0.000000  0.884623  1
  Zn  Zn17  1  0.333333  0.666667  0.846171  1
  Zn  Zn18  1  0.333333  0.666667  0.038480  1
  Zn  Zn19  1  0.000000  0.000000  0.769236  1
  Zn  Zn20  1  0.000000  0.000000  0.538479  1
  Zn  Zn21  1  0.666667  0.333333  0.423097  1
  Zn  Zn22  1  0.666667  0.333333  0.076924  1
  Zn  Zn23  1  0.000000  0.000000  0.461519  1
  Zn  Zn24  1  0.000000  0.000000  0.692314  1
  Zn  Zn25  1  0.333333  0.666667  0.499990  1
  S  S26  1  0.000000  0.000000  0.913471  1
  S  S27  1  0.666667  0.333333  0.221170  1
  S  S28  1  0.666667  0.333333  0.682680  1
  S  S29  1  0.666667  0.333333  0.105771  1
  S  S30  1  0.000000  0.000000  0.490348  1
  S  S31  1  0.333333  0.666667  0.990348  1
  S  S32  1  0.000000  0.000000  0.721145  1
  S  S33  1  0.333333  0.666667  0.644241  1
  S  S34  1  0.333333  0.666667  0.528861  1
  S  S35  1  0.000000  0.000000  0.567303  1
  S  S36  1  0.333333  0.666667  0.182682  1
  S  S37  1  0.666667  0.333333  0.451913  1
  S  S38  1  0.333333  0.666667  0.413493  1
  S  S39  1  0.666667  0.333333  0.951913  1
  S  S40  1  0.000000  0.000000  0.259592  1
  S  S41  1  0.333333  0.666667  0.067306  1
  S  S42  1  0.666667  0.333333  0.605748  1
  S  S43  1  0.000000  0.000000  0.336534  1
  S  S44  1  0.333333  0.666667  0.759639  1
  S  S45  1  0.000000  0.000000  0.028861  1
  S  S46  1  0.333333  0.666667  0.298092  1
  S  S47  1  0.333333  0.666667  0.875009  1
  S  S48  1  0.666667  0.333333  0.836534  1
  S  S49  1  0.666667  0.333333  0.374987  1
  S  S50  1  0.000000  0.000000  0.798069  1
  S  S51  1  0.000000  0.000000  0.144216  1
