# generated using pymatgen
data_Tm(SiNi5)2
_symmetry_space_group_name_H-M   'P 1'
_cell_length_a   4.65553584
_cell_length_b   8.13385666
_cell_length_c   8.13385666
_cell_angle_alpha   90.00000000
_cell_angle_beta   90.00000000
_cell_angle_gamma   90.00000000
_symmetry_Int_Tables_number   1
_chemical_formula_structural   Tm(SiNi5)2
_chemical_formula_sum   'Tm2 Si4 Ni20'
_cell_volume   308.00850146
_cell_formula_units_Z   2
loop_
 _symmetry_equiv_pos_site_id
 _symmetry_equiv_pos_as_xyz
  1  'x, y, z'
loop_
 _atom_site_type_symbol
 _atom_site_label
 _atom_site_symmetry_multiplicity
 _atom_site_fract_x
 _atom_site_fract_y
 _atom_site_fract_z
 _atom_site_occupancy
  Tm  Tm0  1  0.222090  0.250000  0.250000  1
  Tm  Tm1  1  0.777910  0.750000  0.750000  1
  Ni  Ni2  1  0.000000  0.000000  0.000000  1
  Ni  Ni3  1  0.000000  0.500000  0.000000  1
  Ni  Ni4  1  0.000000  0.000000  0.500000  1
  Ni  Ni5  1  0.000000  0.500000  0.500000  1
  Si  Si6  1  0.500000  0.500000  0.000000  1
  Si  Si7  1  0.500000  0.500000  0.500000  1
  Si  Si8  1  0.500000  0.000000  0.000000  1
  Si  Si9  1  0.500000  0.000000  0.500000  1
  Ni  Ni10  1  0.239585  0.250000  0.602369  1
  Ni  Ni11  1  0.239585  0.897631  0.250000  1
  Ni  Ni12  1  0.239585  0.602369  0.250000  1
  Ni  Ni13  1  0.239585  0.250000  0.897631  1
  Ni  Ni14  1  0.760415  0.750000  0.397631  1
  Ni  Ni15  1  0.760415  0.750000  0.102369  1
  Ni  Ni16  1  0.760415  0.102369  0.750000  1
  Ni  Ni17  1  0.760415  0.397631  0.750000  1
  Ni  Ni18  1  0.729417  0.250000  0.028188  1
  Ni  Ni19  1  0.729417  0.471812  0.250000  1
  Ni  Ni20  1  0.729417  0.028188  0.250000  1
  Ni  Ni21  1  0.729417  0.250000  0.471812  1
  Ni  Ni22  1  0.270583  0.750000  0.971812  1
  Ni  Ni23  1  0.270583  0.750000  0.528188  1
  Ni  Ni24  1  0.270583  0.528188  0.750000  1
  Ni  Ni25  1  0.270583  0.971812  0.750000  1
