# generated using pymatgen
data_K2Cu(Si2O5)2
_symmetry_space_group_name_H-M   'P 1'
_cell_length_a   8.37253352
_cell_length_b   11.19871033
_cell_length_c   11.42273757
_cell_angle_alpha   111.00708309
_cell_angle_beta   89.99993066
_cell_angle_gamma   90.00003113
_symmetry_Int_Tables_number   1
_chemical_formula_structural   K2Cu(Si2O5)2
_chemical_formula_sum   'K8 Si16 Cu4 O40'
_cell_volume   999.83015312
_cell_formula_units_Z   4
loop_
 _symmetry_equiv_pos_site_id
 _symmetry_equiv_pos_as_xyz
  1  'x, y, z'
loop_
 _atom_site_type_symbol
 _atom_site_label
 _atom_site_symmetry_multiplicity
 _atom_site_fract_x
 _atom_site_fract_y
 _atom_site_fract_z
 _atom_site_occupancy
  K  K0  1  0.250000  0.917363  0.413792  1
  K  K1  1  0.750000  0.558269  0.942872  1
  K  K2  1  0.750000  0.477049  0.544489  1
  K  K3  1  0.250001  0.522948  0.455513  1
  K  K4  1  0.750000  0.082639  0.586210  1
  K  K5  1  0.250000  0.033330  0.029206  1
  K  K6  1  0.249999  0.441738  0.057134  1
  K  K7  1  0.750000  0.966668  0.970800  1
  Si  Si8  1  0.934342  0.015328  0.250622  1
  Si  Si9  1  0.443176  0.403657  0.738951  1
  Si  Si10  1  0.440606  0.749055  0.089352  1
  Cu  Cu11  1  0.497324  0.288521  0.212469  1
  Cu  Cu12  1  0.502692  0.711471  0.787473  1
  Si  Si13  1  0.565658  0.015328  0.250622  1
  Si  Si14  1  0.559396  0.250946  0.910647  1
  Si  Si15  1  0.940814  0.771470  0.536229  1
  Cu  Cu16  1  0.002672  0.288520  0.212503  1
  Si  Si17  1  0.559187  0.771470  0.536228  1
  Cu  Cu18  1  0.997308  0.711478  0.787472  1
  Si  Si19  1  0.059187  0.228531  0.463775  1
  Si  Si20  1  0.065658  0.984674  0.749383  1
  Si  Si21  1  0.940606  0.250946  0.910649  1
  Si  Si22  1  0.943176  0.596344  0.261053  1
  Si  Si23  1  0.434342  0.984674  0.749384  1
  Si  Si24  1  0.059395  0.749055  0.089354  1
  Si  Si25  1  0.440814  0.228532  0.463773  1
  Si  Si26  1  0.056823  0.403658  0.738951  1
  Si  Si27  1  0.556824  0.596343  0.261052  1
  O  O28  1  0.998089  0.283114  0.611209  1
  O  O29  1  0.001912  0.716886  0.388795  1
  O  O30  1  0.458918  0.470103  0.248107  1
  O  O31  1  0.053459  0.889236  0.206731  1
  O  O32  1  0.250000  0.420802  0.729320  1
  O  O33  1  0.533010  0.751243  0.968300  1
  O  O34  1  0.966989  0.751244  0.968305  1
  O  O35  1  0.979151  0.641836  0.140901  1
  O  O36  1  0.501911  0.283112  0.611209  1
  O  O37  1  0.041082  0.470104  0.248110  1
  O  O38  1  0.033011  0.248756  0.031695  1
  O  O39  1  0.014574  0.325692  0.394630  1
  O  O40  1  0.946540  0.110764  0.793274  1
  O  O41  1  0.970377  0.105083  0.171916  1
  O  O42  1  0.529624  0.105082  0.171913  1
  O  O43  1  0.531410  0.087254  0.403316  1
  O  O44  1  0.750001  0.808095  0.538408  1
  O  O45  1  0.470379  0.894917  0.828087  1
  O  O46  1  0.029621  0.894919  0.828089  1
  O  O47  1  0.020849  0.358166  0.859103  1
  O  O48  1  0.250000  0.039847  0.764688  1
  O  O49  1  0.520849  0.641837  0.140901  1
  O  O50  1  0.541083  0.529897  0.751893  1
  O  O51  1  0.446541  0.889236  0.206731  1
  O  O52  1  0.466986  0.248754  0.031687  1
  O  O53  1  0.968589  0.087253  0.403315  1
  O  O54  1  0.985423  0.674307  0.605369  1
  O  O55  1  0.750000  0.579198  0.270686  1
  O  O56  1  0.250001  0.710397  0.067080  1
  O  O57  1  0.468589  0.912747  0.596690  1
  O  O58  1  0.750000  0.960154  0.235319  1
  O  O59  1  0.498088  0.716885  0.388795  1
  O  O60  1  0.958917  0.529898  0.751894  1
  O  O61  1  0.485425  0.325689  0.394621  1
  O  O62  1  0.514577  0.674305  0.605363  1
  O  O63  1  0.250001  0.191906  0.461598  1
  O  O64  1  0.479150  0.358167  0.859103  1
  O  O65  1  0.553459  0.110764  0.793274  1
  O  O66  1  0.031411  0.912747  0.596690  1
  O  O67  1  0.750001  0.289603  0.932927  1
