# generated using pymatgen
data_Sr3Fe2Cu2Se2O5
_symmetry_space_group_name_H-M   'P 1'
_cell_length_a   4.00328692
_cell_length_b   4.00328608
_cell_length_c   13.95884248
_cell_angle_alpha   98.24441198
_cell_angle_beta   98.24441027
_cell_angle_gamma   89.99999477
_symmetry_Int_Tables_number   1
_chemical_formula_structural   Sr3Fe2Cu2Se2O5
_chemical_formula_sum   'Sr3 Fe2 Cu2 Se2 O5'
_cell_volume   219.06034977
_cell_formula_units_Z   1
loop_
 _symmetry_equiv_pos_site_id
 _symmetry_equiv_pos_as_xyz
  1  'x, y, z'
loop_
 _atom_site_type_symbol
 _atom_site_label
 _atom_site_symmetry_multiplicity
 _atom_site_fract_x
 _atom_site_fract_y
 _atom_site_fract_z
 _atom_site_occupancy
  Sr  Sr0  1  0.362883  0.362883  0.725766  1
  Sr  Sr1  1  0.500000  0.500000  0.000000  1
  Sr  Sr2  1  0.637117  0.637117  0.274234  1
  Fe  Fe3  1  0.929725  0.929725  0.859450  1
  Fe  Fe4  1  0.070275  0.070275  0.140550  1
  Cu  Cu5  1  0.750000  0.250000  0.500000  1
  Cu  Cu6  1  0.250000  0.750000  0.500000  1
  Se  Se7  1  0.806167  0.806167  0.612336  1
  Se  Se8  1  0.193833  0.193833  0.387664  1
  O  O9  1  0.579645  0.079645  0.159289  1
  O  O10  1  0.000000  0.000000  0.000000  1
  O  O11  1  0.920355  0.420355  0.840711  1
  O  O12  1  0.079645  0.579645  0.159289  1
  O  O13  1  0.420355  0.920355  0.840711  1
