# generated using pymatgen
data_LiEr(PO3)4
_symmetry_space_group_name_H-M   'P 1'
_cell_length_a   7.19417285
_cell_length_b   9.01450137
_cell_length_c   9.07525324
_cell_angle_alpha   65.04346926
_cell_angle_beta   66.65084299
_cell_angle_gamma   66.48263411
_symmetry_Int_Tables_number   1
_chemical_formula_structural   LiEr(PO3)4
_chemical_formula_sum   'Li2 Er2 P8 O24'
_cell_volume   470.51642825
_cell_formula_units_Z   2
loop_
 _symmetry_equiv_pos_site_id
 _symmetry_equiv_pos_as_xyz
  1  'x, y, z'
loop_
 _atom_site_type_symbol
 _atom_site_label
 _atom_site_symmetry_multiplicity
 _atom_site_fract_x
 _atom_site_fract_y
 _atom_site_fract_z
 _atom_site_occupancy
  Li  Li0  1  0.000000  0.000000  0.000000  1
  Li  Li1  1  0.000000  0.500000  0.500000  1
  Er  Er2  1  0.235303  0.249989  0.749992  1
  Er  Er3  1  0.764697  0.750011  0.250008  1
  P  P4  1  0.586532  0.387187  0.343670  1
  P  P5  1  0.307990  0.792725  0.908601  1
  P  P6  1  0.009298  0.707273  0.591423  1
  P  P7  1  0.317398  0.112843  0.156280  1
  P  P8  1  0.990702  0.292727  0.408577  1
  P  P9  1  0.413468  0.612813  0.656330  1
  P  P10  1  0.682602  0.887157  0.843720  1
  P  P11  1  0.692010  0.207275  0.091399  1
  O  O12  1  -0.007284  0.473866  0.294658  1
  O  O13  1  0.991807  0.740114  0.420294  1
  O  O14  1  0.847781  0.240094  0.920292  1
  O  O15  1  0.814104  0.829011  0.962669  1
  O  O16  1  0.829312  0.849367  0.668852  1
  O  O17  1  0.539080  0.757142  0.921848  1
  O  O18  1  0.444515  0.931148  0.205996  1
  O  O19  1  0.152219  0.759906  0.079708  1
  O  O20  1  0.185896  0.170989  0.037331  1
  O  O21  1  1.007284  0.526134  0.705342  1
  O  O22  1  0.170688  0.150633  0.331148  1
  O  O23  1  0.605755  0.670972  0.537357  1
  O  O24  1  0.555485  0.068852  0.794004  1
  O  O25  1  0.394245  0.329028  0.462643  1
  O  O26  1  0.761230  0.026149  0.205351  1
  O  O27  1  0.460920  0.242858  0.078152  1
  O  O28  1  0.418328  0.431124  0.706049  1
  O  O29  1  0.652482  0.349376  0.168816  1
  O  O30  1  0.581672  0.568876  0.293951  1
  O  O31  1  0.008193  0.259886  0.579706  1
  O  O32  1  0.218056  0.742825  0.578190  1
  O  O33  1  0.781944  0.257175  0.421810  1
  O  O34  1  0.347518  0.650624  0.831184  1
  O  O35  1  0.238770  0.973851  0.794649  1
