# generated using pymatgen
data_FeH12Pt(ClO)6
_symmetry_space_group_name_H-M   'P 1'
_cell_length_a   7.16111553
_cell_length_b   7.17823594
_cell_length_c   7.21641994
_cell_angle_alpha   97.24054646
_cell_angle_beta   97.52731247
_cell_angle_gamma   97.23662330
_symmetry_Int_Tables_number   1
_chemical_formula_structural   FeH12Pt(ClO)6
_chemical_formula_sum   'Fe1 H12 Pt1 Cl6 O6'
_cell_volume   360.97612273
_cell_formula_units_Z   1
loop_
 _symmetry_equiv_pos_site_id
 _symmetry_equiv_pos_as_xyz
  1  'x, y, z'
loop_
 _atom_site_type_symbol
 _atom_site_label
 _atom_site_symmetry_multiplicity
 _atom_site_fract_x
 _atom_site_fract_y
 _atom_site_fract_z
 _atom_site_occupancy
  Fe  Fe0  1  0.499918  0.500053  0.500093  1
  H  H1  1  0.278592  0.217984  0.639666  1
  H  H2  1  0.445415  0.333859  0.126787  1
  H  H3  1  0.360519  0.720841  0.781407  1
  H  H4  1  0.554634  0.666241  0.873317  1
  H  H5  1  0.781358  0.360407  0.720870  1
  H  H6  1  0.666178  0.874015  0.555122  1
  H  H7  1  0.875667  0.555411  0.667125  1
  H  H8  1  0.639517  0.279258  0.218829  1
  H  H9  1  0.333883  0.125986  0.444784  1
  H  H10  1  0.124327  0.444611  0.332765  1
  H  H11  1  0.218629  0.639599  0.279042  1
  H  H12  1  0.721381  0.781830  0.360277  1
  Pt  Pt13  1  0.000041  0.999992  0.999968  1
  Cl  Cl14  1  0.716748  0.069589  0.839915  1
  Cl  Cl15  1  0.929332  0.160658  0.283027  1
  Cl  Cl16  1  0.070712  0.839324  0.716916  1
  Cl  Cl17  1  0.838499  0.715809  0.068925  1
  Cl  Cl18  1  0.283301  0.930392  0.160021  1
  Cl  Cl19  1  0.161549  0.284148  0.931024  1
  O  O20  1  0.224901  0.554049  0.376610  1
  O  O21  1  0.774987  0.445907  0.623356  1
  O  O22  1  0.625373  0.773068  0.446204  1
  O  O23  1  0.444114  0.623950  0.775317  1
  O  O24  1  0.555836  0.376096  0.224790  1
  O  O25  1  0.374591  0.226926  0.553844  1
