# generated using pymatgen
data_AgP(XeF5)2
_symmetry_space_group_name_H-M   'P 1'
_cell_length_a   8.67741830
_cell_length_b   8.67741813
_cell_length_c   8.86404399
_cell_angle_alpha   119.30594335
_cell_angle_beta   119.30594278
_cell_angle_gamma   89.99999737
_symmetry_Int_Tables_number   1
_chemical_formula_structural   AgP(XeF5)2
_chemical_formula_sum   'Ag2 P2 Xe4 F20'
_cell_volume   481.68378747
_cell_formula_units_Z   2
loop_
 _symmetry_equiv_pos_site_id
 _symmetry_equiv_pos_as_xyz
  1  'x, y, z'
loop_
 _atom_site_type_symbol
 _atom_site_label
 _atom_site_symmetry_multiplicity
 _atom_site_fract_x
 _atom_site_fract_y
 _atom_site_fract_z
 _atom_site_occupancy
  Ag  Ag0  1  0.250000  0.250000  0.500000  1
  Ag  Ag1  1  0.750000  0.750000  0.500000  1
  P  P2  1  0.250000  0.750000  0.500000  1
  P  P3  1  0.750000  0.250000  0.500000  1
  Xe  Xe4  1  0.752798  0.747202  0.000000  1
  Xe  Xe5  1  0.747202  0.247202  0.000000  1
  Xe  Xe6  1  0.252798  0.752798  1.000000  1
  Xe  Xe7  1  0.247202  0.252798  1.000000  1
  F  F8  1  0.327602  0.922999  0.500170  1
  F  F9  1  0.827602  0.077171  0.500170  1
  F  F10  1  0.490862  0.720158  0.204540  1
  F  F11  1  0.515618  0.509138  0.795460  1
  F  F12  1  0.213678  0.220158  0.204540  1
  F  F13  1  0.713678  0.484382  0.204540  1
  F  F14  1  0.279842  0.286322  0.795460  1
  F  F15  1  0.672568  0.422999  0.500170  1
  F  F16  1  0.990862  0.984382  0.204540  1
  F  F17  1  0.779842  0.009138  0.795460  1
  F  F18  1  0.577001  0.172398  0.499830  1
  F  F19  1  0.422829  0.672398  0.499830  1
  F  F20  1  0.621939  0.121939  0.243879  1
  F  F21  1  0.121939  0.621939  0.243879  1
  F  F22  1  0.878061  0.378061  0.756121  1
  F  F23  1  0.922829  0.327432  0.499830  1
  F  F24  1  0.077001  0.827432  0.499830  1
  F  F25  1  0.378061  0.878061  0.756121  1
  F  F26  1  0.015618  0.786322  0.795460  1
  F  F27  1  0.172568  0.577171  0.500170  1
