# generated using pymatgen
data_Cr(AgO2)2
_symmetry_space_group_name_H-M   'P 1'
_cell_length_a   5.69081390
_cell_length_b   7.03503676
_cell_length_c   10.24336317
_cell_angle_alpha   90.00000000
_cell_angle_beta   90.00000000
_cell_angle_gamma   90.00000000
_symmetry_Int_Tables_number   1
_chemical_formula_structural   Cr(AgO2)2
_chemical_formula_sum   'Cr4 Ag8 O16'
_cell_volume   410.09391500
_cell_formula_units_Z   4
loop_
 _symmetry_equiv_pos_site_id
 _symmetry_equiv_pos_as_xyz
  1  'x, y, z'
loop_
 _atom_site_type_symbol
 _atom_site_label
 _atom_site_symmetry_multiplicity
 _atom_site_fract_x
 _atom_site_fract_y
 _atom_site_fract_z
 _atom_site_occupancy
  Ag  Ag0  1  0.500000  0.500000  0.500000  1
  Ag  Ag1  1  0.000000  0.500000  0.000000  1
  Ag  Ag2  1  0.500000  0.000000  0.500000  1
  Ag  Ag3  1  0.000000  0.000000  0.000000  1
  Ag  Ag4  1  0.519629  0.750000  0.855996  1
  Ag  Ag5  1  0.019629  0.250000  0.644004  1
  Ag  Ag6  1  0.480371  0.250000  0.144004  1
  Ag  Ag7  1  0.980371  0.750000  0.355996  1
  Cr  Cr8  1  0.040510  0.750000  0.682226  1
  Cr  Cr9  1  0.540510  0.250000  0.817774  1
  Cr  Cr10  1  0.959490  0.250000  0.317774  1
  Cr  Cr11  1  0.459490  0.750000  0.182226  1
  O  O12  1  0.100832  0.750000  0.845242  1
  O  O13  1  0.600832  0.250000  0.654758  1
  O  O14  1  0.899168  0.250000  0.154758  1
  O  O15  1  0.399168  0.750000  0.345242  1
  O  O16  1  0.751408  0.750000  0.654680  1
  O  O17  1  0.251408  0.250000  0.845320  1
  O  O18  1  0.248592  0.250000  0.345320  1
  O  O19  1  0.748592  0.750000  0.154680  1
  O  O20  1  0.160643  0.555371  0.613734  1
  O  O21  1  0.660643  0.444629  0.886266  1
  O  O22  1  0.839357  0.055371  0.386266  1
  O  O23  1  0.339357  0.944629  0.113734  1
  O  O24  1  0.839357  0.444629  0.386266  1
  O  O25  1  0.339357  0.555371  0.113734  1
  O  O26  1  0.160643  0.944629  0.613734  1
  O  O27  1  0.660643  0.055371  0.886266  1
