# generated using pymatgen
data_Li17(AgSn2)3
_symmetry_space_group_name_H-M   'P 1'
_cell_length_a   8.05561509
_cell_length_b   8.05561579
_cell_length_c   8.60497896
_cell_angle_alpha   90.00000000
_cell_angle_beta   90.00000000
_cell_angle_gamma   120.00000120
_symmetry_Int_Tables_number   1
_chemical_formula_structural   Li17(AgSn2)3
_chemical_formula_sum   'Li17 Ag3 Sn6'
_cell_volume   483.59064434
_cell_formula_units_Z   1
loop_
 _symmetry_equiv_pos_site_id
 _symmetry_equiv_pos_as_xyz
  1  'x, y, z'
loop_
 _atom_site_type_symbol
 _atom_site_label
 _atom_site_symmetry_multiplicity
 _atom_site_fract_x
 _atom_site_fract_y
 _atom_site_fract_z
 _atom_site_occupancy
  Li  Li0  1  1.000000  0.299736  0.326939  1
  Li  Li1  1  0.299736  0.000000  0.326939  1
  Li  Li2  1  0.645548  1.000000  0.827841  1
  Li  Li3  1  0.000000  0.650453  0.153581  1
  Li  Li4  1  0.349547  0.349547  0.153581  1
  Li  Li5  1  0.700264  0.700264  0.326939  1
  Li  Li6  1  0.333333  0.666667  0.672575  1
  Li  Li7  1  0.000000  0.308848  0.652616  1
  Li  Li8  1  0.333333  0.666667  0.339532  1
  Li  Li9  1  0.308848  1.000000  0.652616  1
  Li  Li10  1  0.000000  0.645548  0.827841  1
  Li  Li11  1  0.666667  0.333333  0.339532  1
  Li  Li12  1  0.354452  0.354452  0.827841  1
  Li  Li13  1  0.650453  1.000000  0.153581  1
  Li  Li14  1  0.691152  0.691152  0.652616  1
  Li  Li15  1  0.666667  0.333333  0.672575  1
  Li  Li16  1  -0.000000  0.000000  0.863124  1
  Ag  Ag17  1  -0.000000  0.000000  0.505181  1
  Ag  Ag18  1  0.333333  0.666667  0.002349  1
  Ag  Ag19  1  0.666667  0.333333  0.002349  1
  Sn  Sn20  1  1.000000  0.646057  0.494611  1
  Sn  Sn21  1  0.646057  0.000000  0.494611  1
  Sn  Sn22  1  0.315200  0.000000  0.991390  1
  Sn  Sn23  1  0.353943  0.353943  0.494611  1
  Sn  Sn24  1  1.000000  0.315200  0.991390  1
  Sn  Sn25  1  0.684800  0.684800  0.991390  1
