# generated using pymatgen
data_KMo2(PO4)3
_symmetry_space_group_name_H-M   'P 1'
_cell_length_a   9.37617627
_cell_length_b   12.50360792
_cell_length_c   18.00755613
_cell_angle_alpha   90.00000000
_cell_angle_beta   90.00000000
_cell_angle_gamma   90.00000000
_symmetry_Int_Tables_number   1
_chemical_formula_structural   KMo2(PO4)3
_chemical_formula_sum   'K8 Mo16 P24 O96'
_cell_volume   2111.13442434
_cell_formula_units_Z   8
loop_
 _symmetry_equiv_pos_site_id
 _symmetry_equiv_pos_as_xyz
  1  'x, y, z'
loop_
 _atom_site_type_symbol
 _atom_site_label
 _atom_site_symmetry_multiplicity
 _atom_site_fract_x
 _atom_site_fract_y
 _atom_site_fract_z
 _atom_site_occupancy
  K  K0  1  0.333022  0.750000  0.900668  1
  K  K1  1  0.833022  0.750000  0.599332  1
  K  K2  1  0.666978  0.250000  0.099332  1
  K  K3  1  0.159360  0.250000  0.920795  1
  K  K4  1  0.340640  0.750000  0.420795  1
  K  K5  1  0.166978  0.250000  0.400668  1
  K  K6  1  0.840640  0.750000  0.079205  1
  K  K7  1  0.659360  0.250000  0.579205  1
  Mo  Mo8  1  0.527042  0.399679  0.875334  1
  Mo  Mo9  1  0.470531  0.600564  0.621527  1
  Mo  Mo10  1  0.472958  0.899679  0.124666  1
  Mo  Mo11  1  0.027042  0.100321  0.624666  1
  Mo  Mo12  1  0.529469  0.100564  0.378473  1
  Mo  Mo13  1  0.472958  0.600321  0.124666  1
  Mo  Mo14  1  0.970531  0.600564  0.878473  1
  Mo  Mo15  1  0.972958  0.899679  0.375334  1
  Mo  Mo16  1  0.027042  0.399679  0.624666  1
  Mo  Mo17  1  0.470531  0.899436  0.621527  1
  Mo  Mo18  1  0.527042  0.100321  0.875334  1
  Mo  Mo19  1  0.972958  0.600321  0.375334  1
  Mo  Mo20  1  0.029469  0.100564  0.121527  1
  Mo  Mo21  1  0.529469  0.399436  0.378473  1
  Mo  Mo22  1  0.970531  0.899436  0.878473  1
  Mo  Mo23  1  0.029469  0.399436  0.121527  1
  P  P24  1  0.247320  0.498680  0.484639  1
  P  P25  1  0.129969  0.868648  0.198258  1
  P  P26  1  0.370031  0.368648  0.698258  1
  P  P27  1  0.139664  0.630024  0.705948  1
  P  P28  1  0.370031  0.131352  0.698258  1
  P  P29  1  0.870031  0.368648  0.801742  1
  P  P30  1  0.139664  0.869976  0.705948  1
  P  P31  1  0.247320  0.001320  0.484639  1
  P  P32  1  0.252680  0.998680  0.984639  1
  P  P33  1  0.747320  0.498680  0.015361  1
  P  P34  1  0.639664  0.630024  0.794052  1
  P  P35  1  0.752680  0.998680  0.515361  1
  P  P36  1  0.747320  0.001320  0.015361  1
  P  P37  1  0.360336  0.369976  0.205948  1
  P  P38  1  0.360336  0.130024  0.205948  1
  P  P39  1  0.629969  0.868648  0.301742  1
  P  P40  1  0.752680  0.501320  0.515361  1
  P  P41  1  0.129969  0.631352  0.198258  1
  P  P42  1  0.870031  0.131352  0.801742  1
  P  P43  1  0.252680  0.501320  0.984639  1
  P  P44  1  0.639664  0.869976  0.794052  1
  P  P45  1  0.860336  0.369976  0.294052  1
  P  P46  1  0.629969  0.631352  0.301742  1
  P  P47  1  0.860336  0.130024  0.294052  1
  O  O48  1  0.834323  0.431351  0.572139  1
  O  O49  1  0.545785  0.562441  0.845724  1
  O  O50  1  0.454215  0.062441  0.154276  1
  O  O51  1  0.710157  0.122529  0.812586  1
  O  O52  1  0.856516  0.572539  0.471169  1
  O  O53  1  0.595055  0.619538  0.220307  1
  O  O54  1  0.015091  0.250000  0.606077  1
  O  O55  1  0.652343  0.920462  0.556571  1
  O  O56  1  0.289843  0.622529  0.187414  1
  O  O57  1  0.299570  0.880755  0.693862  1
  O  O58  1  0.610493  0.881181  0.711435  1
  O  O59  1  0.334323  0.431351  0.927861  1
  O  O60  1  0.460281  0.437520  0.645290  1
  O  O61  1  0.023080  0.250000  0.104734  1
  O  O62  1  0.954215  0.062441  0.345724  1
  O  O63  1  0.110493  0.618819  0.788565  1
  O  O64  1  0.332961  0.921120  0.532328  1
  O  O65  1  0.484909  0.750000  0.106077  1
  O  O66  1  0.984909  0.750000  0.393923  1
  O  O67  1  0.143484  0.072539  0.528831  1
  O  O68  1  0.110493  0.881181  0.788565  1
  O  O69  1  0.580399  0.750000  0.328675  1
  O  O70  1  0.643484  0.072539  0.971169  1
  O  O71  1  0.832961  0.578880  0.967672  1
  O  O72  1  0.847657  0.079538  0.056571  1
  O  O73  1  0.408311  0.250000  0.180244  1
  O  O74  1  0.832961  0.921120  0.967672  1
  O  O75  1  0.454215  0.437559  0.154276  1
  O  O76  1  0.289843  0.877471  0.187414  1
  O  O77  1  0.095055  0.880462  0.279693  1
  O  O78  1  0.476920  0.750000  0.604734  1
  O  O79  1  0.165677  0.931351  0.427861  1
  O  O80  1  0.039719  0.937520  0.145290  1
  O  O81  1  0.591689  0.750000  0.819756  1
  O  O82  1  0.700430  0.119245  0.306138  1
  O  O83  1  0.539719  0.562480  0.354710  1
  O  O84  1  0.789843  0.877471  0.312586  1
  O  O85  1  0.356516  0.927461  0.028831  1
  O  O86  1  0.045785  0.562441  0.654276  1
  O  O87  1  0.332961  0.578880  0.532328  1
  O  O88  1  0.799570  0.880755  0.806138  1
  O  O89  1  0.389507  0.381181  0.288565  1
  O  O90  1  0.152343  0.579538  0.943429  1
  O  O91  1  0.523080  0.250000  0.395266  1
  O  O92  1  0.039719  0.562480  0.145290  1
  O  O93  1  0.167039  0.078880  0.032328  1
  O  O94  1  0.789843  0.622529  0.312586  1
  O  O95  1  0.167039  0.421120  0.032328  1
  O  O96  1  0.347657  0.420462  0.443429  1
  O  O97  1  0.665677  0.568649  0.072139  1
  O  O98  1  0.960281  0.062480  0.854710  1
  O  O99  1  0.919601  0.250000  0.828675  1
  O  O100  1  0.856516  0.927461  0.471169  1
  O  O101  1  0.165677  0.568649  0.427861  1
  O  O102  1  0.539719  0.937520  0.354710  1
  O  O103  1  0.960281  0.437520  0.854710  1
  O  O104  1  0.356516  0.572539  0.028831  1
  O  O105  1  0.700430  0.380755  0.306138  1
  O  O106  1  0.045785  0.937559  0.654276  1
  O  O107  1  0.889507  0.118819  0.211435  1
  O  O108  1  0.334323  0.068649  0.927861  1
  O  O109  1  0.080399  0.750000  0.171325  1
  O  O110  1  0.347657  0.079538  0.443429  1
  O  O111  1  0.889507  0.381181  0.211435  1
  O  O112  1  0.834323  0.068649  0.572139  1
  O  O113  1  0.460281  0.062480  0.645290  1
  O  O114  1  0.545785  0.937559  0.845724  1
  O  O115  1  0.210157  0.377471  0.687414  1
  O  O116  1  0.847657  0.420462  0.056571  1
  O  O117  1  0.515091  0.250000  0.893923  1
  O  O118  1  0.299570  0.619245  0.693862  1
  O  O119  1  0.152343  0.920462  0.943429  1
  O  O120  1  0.667039  0.078880  0.467672  1
  O  O121  1  0.904945  0.380462  0.720307  1
  O  O122  1  0.595055  0.880462  0.220307  1
  O  O123  1  0.610493  0.618819  0.711435  1
  O  O124  1  0.710157  0.377471  0.812586  1
  O  O125  1  0.904945  0.119538  0.720307  1
  O  O126  1  0.652343  0.579538  0.556571  1
  O  O127  1  0.976920  0.750000  0.895266  1
  O  O128  1  0.143484  0.427461  0.528831  1
  O  O129  1  0.210157  0.122529  0.687414  1
  O  O130  1  0.667039  0.421120  0.467672  1
  O  O131  1  0.799570  0.619245  0.806138  1
  O  O132  1  0.404945  0.380462  0.779693  1
  O  O133  1  0.954215  0.437559  0.345724  1
  O  O134  1  0.095055  0.619538  0.279693  1
  O  O135  1  0.643484  0.427461  0.971169  1
  O  O136  1  0.665677  0.931351  0.072139  1
  O  O137  1  0.389507  0.118819  0.288565  1
  O  O138  1  0.908311  0.250000  0.319756  1
  O  O139  1  0.091689  0.750000  0.680244  1
  O  O140  1  0.404945  0.119538  0.779693  1
  O  O141  1  0.200430  0.380755  0.193862  1
  O  O142  1  0.200430  0.119245  0.193862  1
  O  O143  1  0.419601  0.250000  0.671325  1
