# generated using pymatgen
data_NaClO4
_symmetry_space_group_name_H-M   'P 1'
_cell_length_a   5.21850037
_cell_length_b   5.21849970
_cell_length_c   5.21849987
_cell_angle_alpha   60.00000558
_cell_angle_beta   60.00000980
_cell_angle_gamma   60.00000821
_symmetry_Int_Tables_number   1
_chemical_formula_structural   NaClO4
_chemical_formula_sum   'Na1 Cl1 O4'
_cell_volume   100.48983606
_cell_formula_units_Z   1
loop_
 _symmetry_equiv_pos_site_id
 _symmetry_equiv_pos_as_xyz
  1  'x, y, z'
loop_
 _atom_site_type_symbol
 _atom_site_label
 _atom_site_symmetry_multiplicity
 _atom_site_fract_x
 _atom_site_fract_y
 _atom_site_fract_z
 _atom_site_occupancy
  O  O0  1  0.114532  0.114532  0.114532  1
  O  O1  1  0.114532  0.114532  0.656403  1
  O  O2  1  0.114532  0.656403  0.114532  1
  Na  Na3  1  0.500001  0.500000  0.500000  1
  O  O4  1  0.656400  0.114533  0.114533  1
  Cl  Cl5  1  1.000002  -0.000001  -0.000001  1
