# generated using pymatgen
data_Ta2NiSe5
_symmetry_space_group_name_H-M   'P 1'
_cell_length_a   3.51231921
_cell_length_b   7.03668939
_cell_length_c   15.78686408
_cell_angle_alpha   89.92188131
_cell_angle_beta   89.68698771
_cell_angle_gamma   75.54782195
_symmetry_Int_Tables_number   1
_chemical_formula_structural   Ta2NiSe5
_chemical_formula_sum   'Ta4 Ni2 Se10'
_cell_volume   377.82172215
_cell_formula_units_Z   2
loop_
 _symmetry_equiv_pos_site_id
 _symmetry_equiv_pos_as_xyz
  1  'x, y, z'
loop_
 _atom_site_type_symbol
 _atom_site_label
 _atom_site_symmetry_multiplicity
 _atom_site_fract_x
 _atom_site_fract_y
 _atom_site_fract_z
 _atom_site_occupancy
  Ta  Ta0  1  0.228075  0.556784  0.110710  1
  Ta  Ta1  1  0.215141  0.556784  0.389290  1
  Ta  Ta2  1  0.771925  0.443216  0.889290  1
  Ta  Ta3  1  0.784859  0.443216  0.610710  1
  Ni  Ni4  1  0.702338  0.595324  0.250000  1
  Ni  Ni5  1  0.297662  0.404676  0.750000  1
  Se  Se6  1  0.584632  0.824863  0.138390  1
  Se  Se7  1  0.590505  0.824863  0.361610  1
  Se  Se8  1  0.415368  0.175137  0.861610  1
  Se  Se9  1  0.409495  0.175137  0.638390  1
  Se  Se10  1  0.155720  0.696116  0.950618  1
  Se  Se11  1  0.148164  0.696116  0.549382  1
  Se  Se12  1  0.844280  0.303884  0.049382  1
  Se  Se13  1  0.851836  0.303884  0.450618  1
  Se  Se14  1  0.321432  0.357136  0.250000  1
  Se  Se15  1  0.678568  0.642864  0.750000  1
