# generated using pymatgen
data_RbAuN12
_symmetry_space_group_name_H-M   'P 1'
_cell_length_a   7.64925753
_cell_length_b   7.64925755
_cell_length_c   8.38611642
_cell_angle_alpha   89.18006823
_cell_angle_beta   89.18006818
_cell_angle_gamma   90.92774222
_symmetry_Int_Tables_number   1
_chemical_formula_structural   RbAuN12
_chemical_formula_sum   'Rb2 Au2 N24'
_cell_volume   490.51478510
_cell_formula_units_Z   2
loop_
 _symmetry_equiv_pos_site_id
 _symmetry_equiv_pos_as_xyz
  1  'x, y, z'
loop_
 _atom_site_type_symbol
 _atom_site_label
 _atom_site_symmetry_multiplicity
 _atom_site_fract_x
 _atom_site_fract_y
 _atom_site_fract_z
 _atom_site_occupancy
  Rb  Rb0  1  0.914817  0.085183  0.250000  1
  Rb  Rb1  1  0.085183  0.914817  0.750000  1
  Au  Au2  1  0.493310  0.506690  0.750000  1
  Au  Au3  1  0.506690  0.493310  0.250000  1
  N  N4  1  0.276408  0.912533  0.086421  1
  N  N5  1  0.166112  0.404006  0.892097  1
  N  N6  1  0.404006  0.166112  0.392097  1
  N  N7  1  0.827008  0.389507  0.632929  1
  N  N8  1  0.518582  0.752530  0.179923  1
  N  N9  1  0.481418  0.247470  0.820077  1
  N  N10  1  0.389507  0.827008  0.132929  1
  N  N11  1  0.905569  0.710726  0.041093  1
  N  N12  1  0.610493  0.172992  0.867071  1
  N  N13  1  0.094431  0.289274  0.958907  1
  N  N14  1  0.752530  0.518582  0.679923  1
  N  N15  1  0.529319  0.232207  0.322286  1
  N  N16  1  0.595994  0.833888  0.607903  1
  N  N17  1  0.289274  0.094431  0.458907  1
  N  N18  1  0.710726  0.905569  0.541093  1
  N  N19  1  0.833888  0.595994  0.107903  1
  N  N20  1  0.723592  0.087467  0.913579  1
  N  N21  1  0.470681  0.767793  0.677714  1
  N  N22  1  0.912533  0.276408  0.586421  1
  N  N23  1  0.767793  0.470681  0.177714  1
  N  N24  1  0.232207  0.529319  0.822286  1
  N  N25  1  0.247470  0.481418  0.320077  1
  N  N26  1  0.172992  0.610493  0.367071  1
  N  N27  1  0.087467  0.723592  0.413579  1
