# generated using pymatgen
data_Zn2Si3Pb4SO15
_symmetry_space_group_name_H-M   'P 1'
_cell_length_a   5.32813472
_cell_length_b   11.49761960
_cell_length_c   12.79870070
_cell_angle_alpha   107.99208926
_cell_angle_beta   90.00000000
_cell_angle_gamma   90.00000000
_symmetry_Int_Tables_number   1
_chemical_formula_structural   Zn2Si3Pb4SO15
_chemical_formula_sum   'Zn4 Si6 Pb8 S2 O30'
_cell_volume   745.71833355
_cell_formula_units_Z   2
loop_
 _symmetry_equiv_pos_site_id
 _symmetry_equiv_pos_as_xyz
  1  'x, y, z'
loop_
 _atom_site_type_symbol
 _atom_site_label
 _atom_site_symmetry_multiplicity
 _atom_site_fract_x
 _atom_site_fract_y
 _atom_site_fract_z
 _atom_site_occupancy
  Zn  Zn0  1  0.018723  0.360684  0.387068  1
  Zn  Zn1  1  0.989997  0.079163  0.645731  1
  Zn  Zn2  1  0.489997  0.920836  0.354269  1
  Zn  Zn3  1  0.518723  0.639316  0.612932  1
  Si  Si4  1  0.441277  0.638634  0.183589  1
  Si  Si5  1  0.979045  0.077362  0.375739  1
  Si  Si6  1  0.479045  0.922638  0.624261  1
  Si  Si7  1  0.941277  0.361366  0.816411  1
  Si  Si8  1  0.017645  0.514362  0.655453  1
  Si  Si9  1  0.517645  0.485638  0.344547  1
  Pb  Pb10  1  0.613433  0.268040  0.563065  1
  Pb  Pb11  1  0.113433  0.731960  0.436935  1
  Pb  Pb12  1  0.454141  0.543259  0.886709  1
  Pb  Pb13  1  0.981109  0.815523  0.128349  1
  Pb  Pb14  1  0.954141  0.456741  0.113291  1
  Pb  Pb15  1  0.496980  0.152406  0.217371  1
  Pb  Pb16  1  0.996980  0.847594  0.782629  1
  Pb  Pb17  1  0.481109  0.184477  0.871651  1
  S  S18  1  0.508620  0.852693  0.967326  1
  S  S19  1  0.008620  0.147307  0.032674  1
  O  O20  1  0.768935  0.216939  0.069617  1
  O  O21  1  0.366161  0.807069  0.661746  1
  O  O22  1  0.329240  0.050543  0.689644  1
  O  O23  1  0.736901  0.654348  0.159666  1
  O  O24  1  0.931114  0.399796  0.547608  1
  O  O25  1  0.866161  0.192931  0.338254  1
  O  O26  1  0.223855  0.236131  0.070702  1
  O  O27  1  0.908453  0.477614  0.764184  1
  O  O28  1  0.410240  0.886481  0.492183  1
  O  O29  1  0.377885  0.358124  0.346091  1
  O  O30  1  0.313858  0.760879  0.272521  1
  O  O31  1  0.236901  0.345652  0.840334  1
  O  O32  1  0.281998  0.062697  0.351121  1
  O  O33  1  0.531122  0.953341  0.919514  1
  O  O34  1  0.408453  0.522386  0.235816  1
  O  O35  1  0.781998  0.937303  0.648879  1
  O  O36  1  0.431114  0.600204  0.452392  1
  O  O37  1  0.829240  0.949457  0.310356  1
  O  O38  1  0.515232  0.896325  0.090689  1
  O  O39  1  0.321174  0.528189  0.669604  1
  O  O40  1  0.767160  0.403172  0.927777  1
  O  O41  1  0.723855  0.763869  0.929298  1
  O  O42  1  0.877885  0.641876  0.653909  1
  O  O43  1  0.821174  0.471811  0.330396  1
  O  O44  1  0.267160  0.596828  0.072223  1
  O  O45  1  0.268935  0.783061  0.930383  1
  O  O46  1  0.015232  0.103675  0.909311  1
  O  O47  1  0.031122  0.046659  0.080486  1
  O  O48  1  0.813858  0.239121  0.727479  1
  O  O49  1  0.910240  0.113519  0.507817  1
