# generated using pymatgen
data_Sr17(Ta5S21)2
_symmetry_space_group_name_H-M   'P 1'
_cell_length_a   12.37961764
_cell_length_b   12.33476244
_cell_length_c   12.34249348
_cell_angle_alpha   96.77326675
_cell_angle_beta   96.66362017
_cell_angle_gamma   96.32255654
_symmetry_Int_Tables_number   1
_chemical_formula_structural   Sr17(Ta5S21)2
_chemical_formula_sum   'Sr17 Ta10 S42'
_cell_volume   1844.19313234
_cell_formula_units_Z   1
loop_
 _symmetry_equiv_pos_site_id
 _symmetry_equiv_pos_as_xyz
  1  'x, y, z'
loop_
 _atom_site_type_symbol
 _atom_site_label
 _atom_site_symmetry_multiplicity
 _atom_site_fract_x
 _atom_site_fract_y
 _atom_site_fract_z
 _atom_site_occupancy
  S  S0  1  0.039297  0.816467  0.894769  1
  S  S1  1  0.052321  0.526342  0.940718  1
  S  S2  1  0.005246  0.339456  0.675474  1
  S  S3  1  0.126093  0.991845  0.211955  1
  S  S4  1  0.173194  0.840348  0.506904  1
  S  S5  1  0.133488  0.661820  0.236160  1
  S  S6  1  0.200593  0.606334  0.714017  1
  S  S7  1  0.208038  0.130073  0.990560  1
  S  S8  1  0.170530  0.245750  0.374939  1
  S  S9  1  0.315514  0.900393  0.800202  1
  S  S10  1  0.278491  0.380317  0.860824  1
  S  S11  1  0.237173  0.129833  0.656778  1
  S  S12  1  0.244748  0.375254  0.170708  1
  S  S13  1  0.309608  0.520717  0.444367  1
  S  S14  1  0.380634  0.861956  0.280524  1
  S  S15  1  0.340328  0.675602  0.005832  1
  S  S16  1  0.465074  0.979683  0.577012  1
  S  S17  1  0.383640  0.165538  0.245935  1
  S  S18  1  0.436363  0.291967  0.517802  1
  S  S19  1  0.507349  0.589928  0.727098  1
  S  S20  1  0.505994  0.172068  0.842257  1
  S  S21  1  0.572411  0.464479  0.978101  1
  S  S22  1  0.523579  0.943409  0.051859  1
  S  S23  1  0.589941  0.726968  0.505633  1
  S  S24  1  0.516177  0.437195  0.290502  1
  S  S25  1  0.649423  0.858050  0.783241  1
  S  S26  1  0.603809  0.714643  0.200265  1
  S  S27  1  0.658635  0.238864  0.130380  1
  S  S28  1  0.725939  0.504966  0.587885  1
  S  S29  1  0.784015  0.649283  0.856332  1
  S  S30  1  0.713079  0.198341  0.605715  1
  S  S31  1  0.673659  0.005736  0.341208  1
  S  S32  1  0.797639  0.316329  0.898069  1
  S  S33  1  0.857004  0.782186  0.649492  1
  S  S34  1  0.815192  0.892907  0.038893  1
  S  S35  1  0.837472  0.508786  0.168952  1
  S  S36  1  0.900126  0.795635  0.316202  1
  S  S37  1  0.862357  0.276605  0.383077  1
  S  S38  1  0.893284  0.037577  0.815342  1
  S  S39  1  0.983285  0.573302  0.464872  1
  S  S40  1  0.943194  0.049383  0.524366  1
  S  S41  1  0.980782  0.202992  0.122678  1
  Sr  Sr42  1  0.078120  0.942548  0.702588  1
  Sr  Sr43  1  0.042249  0.276384  0.911490  1
  Sr  Sr44  1  0.231572  0.373804  0.605907  1
  Sr  Sr45  1  0.271912  0.914969  0.048869  1
  Sr  Sr46  1  0.287132  0.052456  0.417990  1
  Sr  Sr47  1  0.373388  0.739647  0.604305  1
  Sr  Sr48  1  0.368343  0.611119  0.238182  1
  Sr  Sr49  1  0.420178  0.284236  0.055157  1
  Sr  Sr50  1  0.585085  0.716285  0.953714  1
  Sr  Sr51  1  0.602542  0.372335  0.737765  1
  Sr  Sr52  1  0.717200  0.952573  0.584182  1
  Sr  Sr53  1  0.612118  0.240316  0.373482  1
  Sr  Sr54  1  0.705430  0.079108  0.944520  1
  Sr  Sr55  1  0.744486  0.602690  0.372472  1
  Sr  Sr56  1  0.953689  0.582032  0.711399  1
  Sr  Sr57  1  0.908504  0.041287  0.274853  1
  Sr  Sr58  1  0.946054  0.702286  0.081149  1
  Ta  Ta59  1  0.050002  0.717519  0.384216  1
  Ta  Ta60  1  0.221696  0.549890  0.884505  1
  Ta  Ta61  1  0.159101  0.177067  0.171403  1
  Ta  Ta62  1  0.352922  0.355021  0.353699  1
  Ta  Ta63  1  0.384026  0.048146  0.722698  1
  Ta  Ta64  1  0.548269  0.885493  0.221533  1
  Ta  Ta65  1  0.668253  0.668110  0.667485  1
  Ta  Ta66  1  0.856998  0.854749  0.856562  1
  Ta  Ta67  1  0.720909  0.386591  0.047430  1
  Ta  Ta68  1  0.883807  0.219312  0.549546  1
