# generated using pymatgen
data_Ti4Te9I4O
_symmetry_space_group_name_H-M   'P 1'
_cell_length_a   6.32990580
_cell_length_b   11.95868386
_cell_length_c   17.13760578
_cell_angle_alpha   85.44059254
_cell_angle_beta   79.37253366
_cell_angle_gamma   74.63967358
_symmetry_Int_Tables_number   1
_chemical_formula_structural   Ti4Te9I4O
_chemical_formula_sum   'Ti8 Te18 I8 O2'
_cell_volume   1228.83154956
_cell_formula_units_Z   2
loop_
 _symmetry_equiv_pos_site_id
 _symmetry_equiv_pos_as_xyz
  1  'x, y, z'
loop_
 _atom_site_type_symbol
 _atom_site_label
 _atom_site_symmetry_multiplicity
 _atom_site_fract_x
 _atom_site_fract_y
 _atom_site_fract_z
 _atom_site_occupancy
  Ti  Ti0  1  0.376100  0.767833  0.860445  1
  Ti  Ti1  1  0.242726  0.587056  0.765748  1
  Ti  Ti2  1  0.495499  0.267919  0.360645  1
  Ti  Ti3  1  0.757274  0.412944  0.234252  1
  Ti  Ti4  1  0.904486  0.087234  0.265988  1
  Ti  Ti5  1  0.504501  0.732081  0.639355  1
  Ti  Ti6  1  0.095514  0.912766  0.734012  1
  Ti  Ti7  1  0.623900  0.232167  0.139555  1
  Te  Te8  1  0.195233  0.250088  0.250101  1
  Te  Te9  1  0.847079  0.128460  0.430096  1
  Te  Te10  1  0.653927  0.490409  0.672018  1
  Te  Te11  1  0.287773  0.574545  0.598727  1
  Te  Te12  1  0.464792  0.477387  0.125007  1
  Te  Te13  1  0.346073  0.509591  0.327982  1
  Te  Te14  1  0.152921  0.871540  0.569904  1
  Te  Te15  1  0.683976  0.990354  0.172294  1
  Te  Te16  1  0.316024  0.009646  0.827706  1
  Te  Te17  1  0.804767  0.749912  0.749899  1
  Te  Te18  1  0.567014  0.022905  0.375092  1
  Te  Te19  1  0.038993  0.074578  0.099003  1
  Te  Te20  1  0.094743  0.628464  0.929900  1
  Te  Te21  1  0.535208  0.522613  0.874993  1
  Te  Te22  1  0.961007  0.925422  0.900997  1
  Te  Te23  1  0.712227  0.425455  0.401273  1
  Te  Te24  1  0.432986  0.977095  0.624908  1
  Te  Te25  1  0.905257  0.371536  0.070100  1
  I  I26  1  0.908681  0.610357  0.215110  1
  I  I27  1  0.091319  0.389643  0.784891  1
  I  I28  1  0.234179  0.889761  0.285228  1
  I  I29  1  0.765821  0.110239  0.714772  1
  I  I30  1  0.181052  0.288554  0.496730  1
  I  I31  1  0.818948  0.711446  0.503270  1
  I  I32  1  0.466282  0.211206  1.003488  1
  I  I33  1  0.533718  0.788794  -0.003488  1
  O  O34  1  0.304353  0.749917  0.749916  1
  O  O35  1  0.695647  0.250083  0.250084  1
