# generated using pymatgen
data_V4S9Br4
_symmetry_space_group_name_H-M   'P 1'
_cell_length_a   7.33442970
_cell_length_b   11.00248781
_cell_length_c   11.00248781
_cell_angle_alpha   90.00000000
_cell_angle_beta   90.00000000
_cell_angle_gamma   90.00000000
_symmetry_Int_Tables_number   1
_chemical_formula_structural   V4S9Br4
_chemical_formula_sum   'V8 S18 Br8'
_cell_volume   887.86746578
_cell_formula_units_Z   2
loop_
 _symmetry_equiv_pos_site_id
 _symmetry_equiv_pos_as_xyz
  1  'x, y, z'
loop_
 _atom_site_type_symbol
 _atom_site_label
 _atom_site_symmetry_multiplicity
 _atom_site_fract_x
 _atom_site_fract_y
 _atom_site_fract_z
 _atom_site_occupancy
  V  V0  1  0.376533  0.885201  0.885201  1
  V  V1  1  0.623467  0.385201  0.385201  1
  V  V2  1  0.376533  0.614799  0.614799  1
  V  V3  1  0.623467  0.114799  0.385201  1
  V  V4  1  0.623467  0.385201  0.114799  1
  V  V5  1  0.376533  0.614799  0.885201  1
  V  V6  1  0.376533  0.885201  0.614799  1
  V  V7  1  0.623467  0.114799  0.114799  1
  S  S8  1  0.848929  0.038347  0.250000  1
  S  S9  1  0.389134  0.750000  0.055003  1
  S  S10  1  0.389134  0.750000  0.444997  1
  S  S11  1  0.610866  0.250000  0.944997  1
  S  S12  1  0.848929  0.250000  0.038347  1
  S  S13  1  0.151071  0.750000  0.961653  1
  S  S14  1  0.522987  0.750000  0.750000  1
  S  S15  1  0.151071  0.750000  0.538347  1
  S  S16  1  0.389134  0.055003  0.750000  1
  S  S17  1  0.610866  0.250000  0.555003  1
  S  S18  1  0.151071  0.538347  0.750000  1
  S  S19  1  0.610866  0.555003  0.250000  1
  S  S20  1  0.477013  0.250000  0.250000  1
  S  S21  1  0.389134  0.444997  0.750000  1
  S  S22  1  0.151071  0.961653  0.750000  1
  S  S23  1  0.610866  0.944997  0.250000  1
  S  S24  1  0.848929  0.250000  0.461653  1
  S  S25  1  0.848929  0.461653  0.250000  1
  Br  Br26  1  0.710089  0.551188  0.551188  1
  Br  Br27  1  0.289911  0.448812  0.051188  1
  Br  Br28  1  0.710089  0.948812  0.948812  1
  Br  Br29  1  0.289911  0.051188  0.051188  1
  Br  Br30  1  0.289911  0.051188  0.448812  1
  Br  Br31  1  0.710089  0.948812  0.551188  1
  Br  Br32  1  0.710089  0.551188  0.948812  1
  Br  Br33  1  0.289911  0.448812  0.448812  1
