# generated using pymatgen
data_Ca9PrF20
_symmetry_space_group_name_H-M   'P 1'
_cell_length_a   7.84007831
_cell_length_b   21.90025218
_cell_length_c   10.42800869
_cell_angle_alpha   38.54054714
_cell_angle_beta   55.67530523
_cell_angle_gamma   51.22419763
_symmetry_Int_Tables_number   1
_chemical_formula_structural   Ca9PrF20
_chemical_formula_sum   'Ca18 Pr2 F40'
_cell_volume   859.56062785
_cell_formula_units_Z   2
loop_
 _symmetry_equiv_pos_site_id
 _symmetry_equiv_pos_as_xyz
  1  'x, y, z'
loop_
 _atom_site_type_symbol
 _atom_site_label
 _atom_site_symmetry_multiplicity
 _atom_site_fract_x
 _atom_site_fract_y
 _atom_site_fract_z
 _atom_site_occupancy
  Ca  Ca0  1  1.000110  0.000422  0.995956  1
  Ca  Ca1  1  0.504337  0.001263  0.994224  1
  Ca  Ca2  1  0.406136  0.196977  0.002279  1
  Ca  Ca3  1  0.443864  0.103023  0.497721  1
  Ca  Ca4  1  0.299229  0.399899  0.000192  1
  Ca  Ca5  1  0.899400  0.198932  -0.000434  1
  Ca  Ca6  1  0.345663  0.298737  0.505776  1
  Ca  Ca7  1  0.194449  0.600680  0.002027  1
  Ca  Ca8  1  0.950600  0.101068  0.500434  1
  Ca  Ca9  1  0.255682  0.500199  0.495411  1
  Ca  Ca10  1  0.101461  0.798512  0.005179  1
  Ca  Ca11  1  0.849890  0.299578  0.504044  1
  Ca  Ca12  1  0.699467  0.603406  0.996170  1
  Ca  Ca13  1  0.150533  0.696594  0.503830  1
  Ca  Ca14  1  0.748539  0.501488  0.494821  1
  Ca  Ca15  1  0.594318  0.799801  0.004589  1
  Ca  Ca16  1  0.655551  0.699320  0.497973  1
  Ca  Ca17  1  0.550771  0.900101  0.499808  1
  F  F18  1  0.118843  0.026303  0.113609  1
  F  F19  1  0.020795  0.221325  0.122191  1
  F  F20  1  0.613874  0.024987  0.123449  1
  F  F21  1  0.337250  0.074692  0.375968  1
  F  F22  1  0.061468  0.125099  0.625961  1
  F  F23  1  0.512750  0.225308  0.124032  1
  F  F24  1  0.236126  0.275013  0.376551  1
  F  F25  1  0.829205  0.078675  0.377809  1
  F  F26  1  0.561952  0.124894  0.626231  1
  F  F27  1  0.401443  0.425991  0.131617  1
  F  F28  1  0.288048  0.175106  0.873769  1
  F  F29  1  0.137365  0.474835  0.374976  1
  F  F30  1  0.731157  0.273697  0.386391  1
  F  F31  1  0.463019  0.324876  0.625080  1
  F  F32  1  0.312334  0.624823  0.126582  1
  F  F33  1  0.200498  0.373382  0.867936  1
  F  F34  1  0.038900  0.674828  0.374368  1
  F  F35  1  0.909095  0.426520  0.132491  1
  F  F36  1  0.788532  0.174901  0.874039  1
  F  F37  1  0.637328  0.475540  0.374491  1
  F  F38  1  0.363513  0.524857  0.623896  1
  F  F39  1  0.212672  0.824460  0.125509  1
  F  F40  1  0.087403  0.574583  0.876181  1
  F  F41  1  0.962228  0.324720  0.625480  1
  F  F42  1  0.811100  0.625172  0.125632  1
  F  F43  1  0.689993  0.374079  0.868008  1
  F  F44  1  0.537666  0.675177  0.373418  1
  F  F45  1  0.271577  0.721251  0.622306  1
  F  F46  1  0.868587  0.526412  0.613176  1
  F  F47  1  0.712635  0.825165  0.125024  1
  F  F48  1  0.448557  0.874009  0.368383  1
  F  F49  1  0.160007  0.925921  0.631992  1
  F  F50  1  0.578423  0.578749  0.877694  1
  F  F51  1  0.486487  0.775143  0.876104  1
  F  F52  1  0.762597  0.725417  0.623819  1
  F  F53  1  0.940905  0.873480  0.367509  1
  F  F54  1  0.649502  0.926618  0.632064  1
  F  F55  1  0.386981  0.975124  0.874920  1
  F  F56  1  0.981413  0.773588  0.886824  1
  F  F57  1  0.887772  0.975280  0.874520  1
  Pr  Pr58  1  0.801462  0.400131  0.999769  1
  Pr  Pr59  1  0.048538  0.899869  0.500231  1
