# generated using pymatgen
data_Co2P2O7
_symmetry_space_group_name_H-M   'P 1'
_cell_length_a   4.53120908
_cell_length_b   5.31373408
_cell_length_c   5.38683462
_cell_angle_alpha   104.05287800
_cell_angle_beta   97.90255525
_cell_angle_gamma   98.27913513
_symmetry_Int_Tables_number   1
_chemical_formula_structural   Co2P2O7
_chemical_formula_sum   'Co2 P2 O7'
_cell_volume   122.48367519
_cell_formula_units_Z   1
loop_
 _symmetry_equiv_pos_site_id
 _symmetry_equiv_pos_as_xyz
  1  'x, y, z'
loop_
 _atom_site_type_symbol
 _atom_site_label
 _atom_site_symmetry_multiplicity
 _atom_site_fract_x
 _atom_site_fract_y
 _atom_site_fract_z
 _atom_site_occupancy
  Co  Co0  1  0.492279  0.312961  0.687056  1
  Co  Co1  1  0.507724  0.687054  0.312933  1
  P  P2  1  0.094682  0.781869  0.785398  1
  P  P3  1  0.905316  0.218128  0.214602  1
  O  O4  1  0.719919  0.072350  0.373207  1
  O  O5  1  0.277879  0.619998  0.926553  1
  O  O6  1  0.210940  0.379655  0.374971  1
  O  O7  1  0.000012  0.999968  0.000036  1
  O  O8  1  0.280062  0.927676  0.626804  1
  O  O9  1  0.789051  0.620366  0.625023  1
  O  O10  1  0.722134  0.379977  0.073416  1
