# generated using pymatgen
data_Li6ZrBeF12
_symmetry_space_group_name_H-M   'P 1'
_cell_length_a   6.68071783
_cell_length_b   6.68071791
_cell_length_c   10.53301989
_cell_angle_alpha   108.48957643
_cell_angle_beta   108.48957669
_cell_angle_gamma   90.00000024
_symmetry_Int_Tables_number   1
_chemical_formula_structural   Li6ZrBeF12
_chemical_formula_sum   'Li12 Zr2 Be2 F24'
_cell_volume   420.17769104
_cell_formula_units_Z   2
loop_
 _symmetry_equiv_pos_site_id
 _symmetry_equiv_pos_as_xyz
  1  'x, y, z'
loop_
 _atom_site_type_symbol
 _atom_site_label
 _atom_site_symmetry_multiplicity
 _atom_site_fract_x
 _atom_site_fract_y
 _atom_site_fract_z
 _atom_site_occupancy
  Li  Li0  1  0.853152  0.103152  0.206303  1
  Li  Li1  1  0.733585  1.000000  0.500000  1
  Li  Li2  1  0.396848  0.646848  0.293697  1
  Li  Li3  1  0.266415  0.500000  0.500000  1
  Li  Li4  1  0.500000  0.766415  0.000000  1
  Li  Li5  1  0.733585  0.500000  0.500000  1
  Li  Li6  1  0.000000  0.766415  0.000000  1
  Li  Li7  1  1.000000  0.233585  1.000000  1
  Li  Li8  1  0.266415  0.000000  0.500000  1
  Li  Li9  1  0.500000  0.233585  1.000000  1
  Li  Li10  1  0.603152  0.353152  0.706303  1
  Li  Li11  1  0.146848  0.896848  0.793697  1
  Zr  Zr12  1  0.125000  0.375000  0.750000  1
  Zr  Zr13  1  0.875000  0.625000  0.250000  1
  Be  Be14  1  0.375000  0.125000  0.250000  1
  Be  Be15  1  0.625000  0.875000  0.750000  1
  F  F16  1  0.134186  0.074724  0.149447  1
  F  F17  1  0.425276  0.365814  0.350553  1
  F  F18  1  0.574724  0.015261  0.649447  1
  F  F19  1  0.543707  0.577941  0.155882  1
  F  F20  1  0.790557  0.770024  0.081113  1
  F  F21  1  0.209443  0.688911  0.918887  1
  F  F22  1  0.188911  0.709443  0.418887  1
  F  F23  1  0.811089  0.290557  0.581113  1
  F  F24  1  0.729976  0.709443  0.418887  1
  F  F25  1  0.456293  0.422059  0.844118  1
  F  F26  1  0.270024  0.290557  0.581113  1
  F  F27  1  0.112176  0.577941  0.155882  1
  F  F28  1  0.425276  0.984739  0.350553  1
  F  F29  1  0.484739  0.925276  0.850553  1
  F  F30  1  0.887824  0.422059  0.844118  1
  F  F31  1  0.574724  0.634186  0.649447  1
  F  F32  1  0.865814  0.925276  0.850553  1
  F  F33  1  0.515261  0.074724  0.149447  1
  F  F34  1  0.790557  0.311089  0.081113  1
  F  F35  1  0.209443  0.229976  0.918887  1
  F  F36  1  0.922059  0.956293  0.344118  1
  F  F37  1  0.922059  0.387824  0.344118  1
  F  F38  1  0.077941  0.612176  0.655882  1
  F  F39  1  0.077941  0.043707  0.655882  1
