# generated using pymatgen
data_NaLiMo(H2O3)2
_symmetry_space_group_name_H-M   'P 1'
_cell_length_a   8.37970681
_cell_length_b   10.46096696
_cell_length_c   13.31157315
_cell_angle_alpha   90.00000000
_cell_angle_beta   90.00000000
_cell_angle_gamma   90.00000000
_symmetry_Int_Tables_number   1
_chemical_formula_structural   NaLiMo(H2O3)2
_chemical_formula_sum   'Na8 Li8 Mo8 H32 O48'
_cell_volume   1166.89032021
_cell_formula_units_Z   8
loop_
 _symmetry_equiv_pos_site_id
 _symmetry_equiv_pos_as_xyz
  1  'x, y, z'
loop_
 _atom_site_type_symbol
 _atom_site_label
 _atom_site_symmetry_multiplicity
 _atom_site_fract_x
 _atom_site_fract_y
 _atom_site_fract_z
 _atom_site_occupancy
  Mo  Mo0  1  0.489443  0.191696  0.473354  1
  Mo  Mo1  1  0.989443  0.308304  0.526646  1
  Mo  Mo2  1  0.510557  0.691696  0.026646  1
  Mo  Mo3  1  0.010557  0.808304  0.973354  1
  Mo  Mo4  1  0.510557  0.808304  0.526646  1
  Mo  Mo5  1  0.010557  0.691696  0.473354  1
  Mo  Mo6  1  0.489443  0.308304  0.973354  1
  Mo  Mo7  1  0.989443  0.191696  0.026646  1
  O  O8  1  0.638058  0.155400  0.378891  1
  O  O9  1  0.138058  0.344600  0.621109  1
  O  O10  1  0.361942  0.655400  0.121109  1
  O  O11  1  0.861942  0.844600  0.878891  1
  O  O12  1  0.361942  0.844600  0.621109  1
  O  O13  1  0.861942  0.655400  0.378891  1
  O  O14  1  0.638058  0.344600  0.878891  1
  O  O15  1  0.138058  0.155400  0.121109  1
  O  O16  1  0.429921  0.355468  0.455505  1
  O  O17  1  0.929921  0.144532  0.544495  1
  O  O18  1  0.570079  0.855468  0.044495  1
  O  O19  1  0.070079  0.644532  0.955505  1
  O  O20  1  0.570079  0.644532  0.544495  1
  O  O21  1  0.070079  0.855468  0.455505  1
  O  O22  1  0.429921  0.144532  0.955505  1
  O  O23  1  0.929921  0.355468  0.044495  1
  O  O24  1  0.565695  0.175080  0.600005  1
  O  O25  1  0.065695  0.324920  0.399995  1
  O  O26  1  0.434305  0.675080  0.899995  1
  O  O27  1  0.934305  0.824920  0.100005  1
  O  O28  1  0.434305  0.824920  0.399995  1
  O  O29  1  0.934305  0.675080  0.600005  1
  O  O30  1  0.565695  0.324920  0.100005  1
  O  O31  1  0.065695  0.175080  0.899995  1
  O  O32  1  0.322538  0.087114  0.460230  1
  O  O33  1  0.822538  0.412886  0.539770  1
  O  O34  1  0.677462  0.587114  0.039770  1
  O  O35  1  0.177462  0.912886  0.960230  1
  O  O36  1  0.677462  0.912886  0.539770  1
  O  O37  1  0.177462  0.587114  0.460230  1
  O  O38  1  0.322538  0.412886  0.960230  1
  O  O39  1  0.822538  0.087114  0.039770  1
  O  O40  1  0.569221  0.416258  0.688037  1
  O  O41  1  0.069221  0.083742  0.311963  1
  O  O42  1  0.430779  0.916258  0.811963  1
  O  O43  1  0.930779  0.583742  0.188037  1
  O  O44  1  0.430779  0.583742  0.311963  1
  O  O45  1  0.930779  0.916258  0.688037  1
  O  O46  1  0.569221  0.083742  0.188037  1
  O  O47  1  0.069221  0.416258  0.811963  1
  O  O48  1  0.781627  0.364204  0.284680  1
  O  O49  1  0.281627  0.135796  0.715320  1
  O  O50  1  0.218373  0.864204  0.215320  1
  O  O51  1  0.718373  0.635796  0.784680  1
  O  O52  1  0.218373  0.635796  0.715320  1
  O  O53  1  0.718373  0.864204  0.284680  1
  O  O54  1  0.781627  0.135796  0.784680  1
  O  O55  1  0.281627  0.364204  0.215320  1
  Na  Na56  1  0.848695  0.005332  0.407248  1
  Na  Na57  1  0.348695  0.494668  0.592752  1
  Na  Na58  1  0.151305  0.505332  0.092752  1
  Na  Na59  1  0.651305  0.994668  0.907248  1
  Na  Na60  1  0.151305  0.994668  0.592752  1
  Na  Na61  1  0.651305  0.505332  0.407248  1
  Na  Na62  1  0.848695  0.494668  0.907248  1
  Na  Na63  1  0.348695  0.005332  0.092752  1
  Li  Li64  1  0.767668  0.441509  0.138753  1
  Li  Li65  1  0.267668  0.058491  0.861247  1
  Li  Li66  1  0.232332  0.941509  0.361247  1
  Li  Li67  1  0.732332  0.558491  0.638753  1
  Li  Li68  1  0.232332  0.558491  0.861247  1
  Li  Li69  1  0.732332  0.941509  0.138753  1
  Li  Li70  1  0.767668  0.058491  0.638753  1
  Li  Li71  1  0.267668  0.441509  0.361247  1
  H  H72  1  0.916167  0.603254  0.260604  1
  H  H73  1  0.416167  0.896746  0.739396  1
  H  H74  1  0.083833  0.103254  0.239396  1
  H  H75  1  0.583833  0.396746  0.760604  1
  H  H76  1  0.083833  0.396746  0.739396  1
  H  H77  1  0.583833  0.103254  0.260604  1
  H  H78  1  0.916167  0.896746  0.760604  1
  H  H79  1  0.416167  0.603254  0.239396  1
  H  H80  1  0.914352  0.667525  0.154515  1
  H  H81  1  0.414352  0.832475  0.845485  1
  H  H82  1  0.085648  0.167525  0.345485  1
  H  H83  1  0.585648  0.332475  0.654515  1
  H  H84  1  0.085648  0.332475  0.845485  1
  H  H85  1  0.585648  0.167525  0.154515  1
  H  H86  1  0.914352  0.832475  0.654515  1
  H  H87  1  0.414352  0.667525  0.345485  1
  H  H88  1  0.728148  0.285141  0.308638  1
  H  H89  1  0.228148  0.214859  0.691362  1
  H  H90  1  0.271852  0.785141  0.191362  1
  H  H91  1  0.771852  0.714859  0.808638  1
  H  H92  1  0.271852  0.714859  0.691362  1
  H  H93  1  0.771852  0.785141  0.308638  1
  H  H94  1  0.728148  0.214859  0.808638  1
  H  H95  1  0.228148  0.285141  0.191362  1
  H  H96  1  0.889226  0.358559  0.315190  1
  H  H97  1  0.389226  0.141441  0.684810  1
  H  H98  1  0.110774  0.858559  0.184810  1
  H  H99  1  0.610774  0.641441  0.815190  1
  H  H100  1  0.110774  0.641441  0.684810  1
  H  H101  1  0.610774  0.858559  0.315190  1
  H  H102  1  0.889226  0.141441  0.815190  1
  H  H103  1  0.389226  0.358559  0.184810  1
