# generated using pymatgen
data_Na5(InTe3)2
_symmetry_space_group_name_H-M   'P 1'
_cell_length_a   8.99317707
_cell_length_b   8.99317734
_cell_length_c   23.88539635
_cell_angle_alpha   90.00000000
_cell_angle_beta   90.00000000
_cell_angle_gamma   118.91286408
_symmetry_Int_Tables_number   1
_chemical_formula_structural   Na5(InTe3)2
_chemical_formula_sum   'Na20 In8 Te24'
_cell_volume   1690.99945021
_cell_formula_units_Z   4
loop_
 _symmetry_equiv_pos_site_id
 _symmetry_equiv_pos_as_xyz
  1  'x, y, z'
loop_
 _atom_site_type_symbol
 _atom_site_label
 _atom_site_symmetry_multiplicity
 _atom_site_fract_x
 _atom_site_fract_y
 _atom_site_fract_z
 _atom_site_occupancy
  Na  Na0  1  0.745528  0.751420  0.751647  1
  Na  Na1  1  0.254472  0.248580  0.251647  1
  Na  Na2  1  0.248580  0.254472  0.751647  1
  Na  Na3  1  0.751420  0.745528  0.251647  1
  Na  Na4  1  0.503826  0.007582  0.748883  1
  Na  Na5  1  0.496174  0.992418  0.248883  1
  Na  Na6  1  0.992418  0.496174  0.748883  1
  Na  Na7  1  0.007582  0.503826  0.248883  1
  Na  Na8  1  0.564741  0.917590  0.912131  1
  Na  Na9  1  0.435259  0.082410  0.412131  1
  Na  Na10  1  0.082410  0.435259  0.912131  1
  Na  Na11  1  0.917590  0.564741  0.412131  1
  Na  Na12  1  0.318442  0.159178  0.586654  1
  Na  Na13  1  0.681558  0.840822  0.086654  1
  Na  Na14  1  0.840822  0.681558  0.586654  1
  Na  Na15  1  0.159178  0.318442  0.086654  1
  Na  Na16  1  0.432680  0.183786  0.999846  1
  Na  Na17  1  0.567320  0.816214  0.499846  1
  Na  Na18  1  0.816214  0.567320  0.999846  1
  Na  Na19  1  0.183786  0.432680  0.499846  1
  In  In20  1  0.033815  0.966185  0.880155  1
  In  In21  1  0.966185  0.033815  0.380155  1
  In  In22  1  0.265893  0.734107  0.622320  1
  In  In23  1  0.734107  0.265893  0.122320  1
  In  In24  1  0.783768  0.216232  0.617192  1
  In  In25  1  0.216232  0.783768  0.117192  1
  In  In26  1  0.512348  0.487652  0.879783  1
  In  In27  1  0.487652  0.512348  0.379783  1
  Te  Te28  1  0.219733  0.780267  0.996566  1
  Te  Te29  1  0.780267  0.219733  0.496566  1
  Te  Te30  1  0.122320  0.877680  0.692275  1
  Te  Te31  1  0.877680  0.122320  0.192275  1
  Te  Te32  1  0.370369  0.629631  0.808909  1
  Te  Te33  1  0.629631  0.370369  0.308909  1
  Te  Te34  1  0.030670  0.969330  0.000761  1
  Te  Te35  1  0.969330  0.030670  0.500761  1
  Te  Te36  1  0.623864  0.859438  0.640181  1
  Te  Te37  1  0.376136  0.140562  0.140181  1
  Te  Te38  1  0.140562  0.376136  0.640181  1
  Te  Te39  1  0.859438  0.623864  0.140181  1
  Te  Te40  1  0.392673  0.132293  0.858959  1
  Te  Te41  1  0.607327  0.867707  0.358959  1
  Te  Te42  1  0.867707  0.607327  0.858959  1
  Te  Te43  1  0.132293  0.392673  0.358959  1
  Te  Te44  1  0.452518  0.547482  0.991682  1
  Te  Te45  1  0.547482  0.452518  0.491682  1
  Te  Te46  1  0.629217  0.370783  0.675000  1
  Te  Te47  1  0.370783  0.629217  0.175000  1
  Te  Te48  1  0.122352  0.877648  0.323851  1
  Te  Te49  1  0.877648  0.122352  0.823851  1
  Te  Te50  1  0.204297  0.795703  0.510104  1
  Te  Te51  1  0.795703  0.204297  0.010104  1
