# generated using pymatgen
data_PbI2
_symmetry_space_group_name_H-M   'P 1'
_cell_length_a   4.66878906
_cell_length_b   4.66878928
_cell_length_c   75.08176155
_cell_angle_alpha   90.00000000
_cell_angle_beta   90.00000000
_cell_angle_gamma   119.99999847
_symmetry_Int_Tables_number   1
_chemical_formula_structural   PbI2
_chemical_formula_sum   'Pb10 I20'
_cell_volume   1417.33860668
_cell_formula_units_Z   10
loop_
 _symmetry_equiv_pos_site_id
 _symmetry_equiv_pos_as_xyz
  1  'x, y, z'
loop_
 _atom_site_type_symbol
 _atom_site_label
 _atom_site_symmetry_multiplicity
 _atom_site_fract_x
 _atom_site_fract_y
 _atom_site_fract_z
 _atom_site_occupancy
  Pb  Pb0  1  0.000000  0.000000  0.826813  1
  Pb  Pb1  1  0.333333  0.666667  0.326773  1
  Pb  Pb2  1  0.333333  0.666667  0.526749  1
  Pb  Pb3  1  0.333333  0.666667  0.126518  1
  Pb  Pb4  1  0.000000  0.000000  0.926633  1
  Pb  Pb5  1  0.333333  0.666667  0.426658  1
  Pb  Pb6  1  0.333333  0.666667  0.726751  1
  Pb  Pb7  1  0.333333  0.666667  0.226613  1
  Pb  Pb8  1  0.333333  0.666667  0.026676  1
  Pb  Pb9  1  0.333333  0.666667  0.626503  1
  I  I10  1  0.000000  0.000000  0.101628  1
  I  I11  1  0.333333  0.666667  0.901743  1
  I  I12  1  0.000000  0.000000  0.601605  1
  I  I13  1  0.666667  0.333333  0.851683  1
  I  I14  1  0.000000  0.000000  0.301890  1
  I  I15  1  0.000000  0.000000  0.201717  1
  I  I16  1  0.000000  0.000000  0.401774  1
  I  I17  1  0.666667  0.333333  0.151396  1
  I  I18  1  0.666667  0.333333  0.351635  1
  I  I19  1  0.333333  0.666667  0.801935  1
  I  I20  1  0.000000  0.000000  0.001819  1
  I  I21  1  0.666667  0.333333  0.551624  1
  I  I22  1  0.666667  0.333333  0.051556  1
  I  I23  1  0.666667  0.333333  0.651389  1
  I  I24  1  0.666667  0.333333  0.751624  1
  I  I25  1  0.666667  0.333333  0.951497  1
  I  I26  1  0.666667  0.333333  0.251504  1
  I  I27  1  0.000000  0.000000  0.501877  1
  I  I28  1  0.000000  0.000000  0.701877  1
  I  I29  1  0.666667  0.333333  0.451540  1
