# generated using pymatgen
data_AsSe3(NF3)2
_symmetry_space_group_name_H-M   'P 1'
_cell_length_a   8.49575612
_cell_length_b   10.73525245
_cell_length_c   10.63133678
_cell_angle_alpha   82.43478970
_cell_angle_beta   82.39823909
_cell_angle_gamma   69.84719088
_symmetry_Int_Tables_number   1
_chemical_formula_structural   AsSe3(NF3)2
_chemical_formula_sum   'As4 Se12 N8 F24'
_cell_volume   898.38982123
_cell_formula_units_Z   4
loop_
 _symmetry_equiv_pos_site_id
 _symmetry_equiv_pos_as_xyz
  1  'x, y, z'
loop_
 _atom_site_type_symbol
 _atom_site_label
 _atom_site_symmetry_multiplicity
 _atom_site_fract_x
 _atom_site_fract_y
 _atom_site_fract_z
 _atom_site_occupancy
  As  As0  1  0.793970  0.373670  0.324089  1
  As  As1  1  0.208125  0.136808  0.854333  1
  As  As2  1  0.206030  0.626330  0.675911  1
  As  As3  1  0.791875  0.863192  0.145667  1
  Se  Se4  1  0.336089  0.685602  0.003294  1
  Se  Se5  1  0.289827  0.471287  0.078573  1
  Se  Se6  1  0.272589  0.984089  0.521194  1
  Se  Se7  1  0.644542  0.820026  0.566549  1
  Se  Se8  1  0.663911  0.314398  0.996706  1
  Se  Se9  1  0.292974  0.633460  0.294673  1
  Se  Se10  1  0.727411  0.015911  0.478806  1
  Se  Se11  1  0.729779  0.959376  0.770057  1
  Se  Se12  1  0.710173  0.528713  0.921427  1
  Se  Se13  1  0.270221  0.040624  0.229943  1
  Se  Se14  1  0.707026  0.366540  0.705327  1
  Se  Se15  1  0.355458  0.179974  0.433451  1
  N  N16  1  0.728205  0.507156  0.757507  1
  N  N17  1  0.235615  0.947399  0.372662  1
  N  N18  1  0.679303  0.263779  0.842749  1
  N  N19  1  0.320697  0.736221  0.157251  1
  N  N20  1  0.671843  0.830681  0.726302  1
  N  N21  1  0.764385  0.052601  0.627338  1
  N  N22  1  0.271795  0.492844  0.242493  1
  N  N23  1  0.328157  0.169319  0.273698  1
  F  F24  1  0.760863  0.519595  0.397152  1
  F  F25  1  0.969001  0.393309  0.225945  1
  F  F26  1  0.089537  0.299553  0.798071  1
  F  F27  1  0.910463  0.700447  0.201929  1
  F  F28  1  0.075118  0.724303  0.556818  1
  F  F29  1  0.340155  0.531194  0.798338  1
  F  F30  1  0.924882  0.275697  0.443182  1
  F  F31  1  0.928850  0.854387  0.004044  1
  F  F32  1  0.662415  0.800418  0.072459  1
  F  F33  1  0.915578  0.928075  0.222558  1
  F  F34  1  0.337585  0.199582  0.927541  1
  F  F35  1  0.649214  0.876120  0.290424  1
  F  F36  1  0.030999  0.606691  0.774055  1
  F  F37  1  0.659845  0.468806  0.201662  1
  F  F38  1  0.239137  0.480405  0.602848  1
  F  F39  1  0.387084  0.646905  0.581290  1
  F  F40  1  0.350786  0.123880  0.709576  1
  F  F41  1  0.332608  0.972358  0.907279  1
  F  F42  1  0.612916  0.353095  0.418710  1
  F  F43  1  0.667392  0.027642  0.092721  1
  F  F44  1  0.084422  0.071925  0.777442  1
  F  F45  1  0.071150  0.145613  0.995956  1
  F  F46  1  0.817971  0.226394  0.253346  1
  F  F47  1  0.182029  0.773606  0.746654  1
