# generated using pymatgen
data_NbPCl8O
_symmetry_space_group_name_H-M   'P 1'
_cell_length_a   8.62233621
_cell_length_b   9.27970027
_cell_length_c   17.12484940
_cell_angle_alpha   90.00000000
_cell_angle_beta   90.00000000
_cell_angle_gamma   90.00000000
_symmetry_Int_Tables_number   1
_chemical_formula_structural   NbPCl8O
_chemical_formula_sum   'Nb4 P4 Cl32 O4'
_cell_volume   1370.20536320
_cell_formula_units_Z   4
loop_
 _symmetry_equiv_pos_site_id
 _symmetry_equiv_pos_as_xyz
  1  'x, y, z'
loop_
 _atom_site_type_symbol
 _atom_site_label
 _atom_site_symmetry_multiplicity
 _atom_site_fract_x
 _atom_site_fract_y
 _atom_site_fract_z
 _atom_site_occupancy
  Nb  Nb0  1  0.250000  0.084154  0.852381  1
  Nb  Nb1  1  0.750000  0.584154  0.647619  1
  Nb  Nb2  1  0.250000  0.415846  0.352381  1
  Nb  Nb3  1  0.750000  0.915846  0.147619  1
  P  P4  1  0.750000  0.283540  0.076548  1
  P  P5  1  0.250000  0.716460  0.923452  1
  P  P6  1  0.250000  0.783540  0.423452  1
  P  P7  1  0.750000  0.216460  0.576548  1
  Cl  Cl8  1  0.933819  0.130959  0.628785  1
  Cl  Cl9  1  0.250000  0.640634  0.031729  1
  Cl  Cl10  1  0.479629  0.557477  0.639676  1
  Cl  Cl11  1  0.979629  0.442523  0.360324  1
  Cl  Cl12  1  0.979629  0.057477  0.860324  1
  Cl  Cl13  1  0.066181  0.869041  0.371215  1
  Cl  Cl14  1  0.020371  0.557477  0.639676  1
  Cl  Cl15  1  0.250000  0.928694  0.741133  1
  Cl  Cl16  1  0.750000  0.359366  0.968271  1
  Cl  Cl17  1  0.750000  0.702225  0.526276  1
  Cl  Cl18  1  0.750000  0.797775  0.026276  1
  Cl  Cl19  1  0.433819  0.630959  0.871215  1
  Cl  Cl20  1  0.250000  0.571306  0.241133  1
  Cl  Cl21  1  0.520371  0.057477  0.860324  1
  Cl  Cl22  1  0.750000  0.071306  0.258867  1
  Cl  Cl23  1  0.250000  0.210704  0.278021  1
  Cl  Cl24  1  0.250000  0.859366  0.531729  1
  Cl  Cl25  1  0.750000  0.428694  0.758867  1
  Cl  Cl26  1  0.433819  0.869041  0.371215  1
  Cl  Cl27  1  0.250000  0.297775  0.473724  1
  Cl  Cl28  1  0.520371  0.442523  0.360324  1
  Cl  Cl29  1  0.566181  0.130959  0.628785  1
  Cl  Cl30  1  0.750000  0.789296  0.721979  1
  Cl  Cl31  1  0.020371  0.942523  0.139676  1
  Cl  Cl32  1  0.933819  0.369041  0.128785  1
  Cl  Cl33  1  0.066181  0.630959  0.871215  1
  Cl  Cl34  1  0.250000  0.289296  0.778021  1
  Cl  Cl35  1  0.250000  0.202225  0.973724  1
  Cl  Cl36  1  0.750000  0.140634  0.468271  1
  Cl  Cl37  1  0.566181  0.369041  0.128785  1
  Cl  Cl38  1  0.479629  0.942523  0.139676  1
  Cl  Cl39  1  0.750000  0.710704  0.221979  1
  O  O40  1  0.750000  0.376834  0.577037  1
  O  O41  1  0.250000  0.623166  0.422963  1
  O  O42  1  0.250000  0.876834  0.922963  1
  O  O43  1  0.750000  0.123166  0.077037  1
