# generated using pymatgen
data_RbNaLi6(SiO4)2
_symmetry_space_group_name_H-M   'P 1'
_cell_length_a   6.38494979
_cell_length_b   7.90874829
_cell_length_c   8.57741019
_cell_angle_alpha   90.54090277
_cell_angle_beta   111.85108975
_cell_angle_gamma   90.00000093
_symmetry_Int_Tables_number   1
_chemical_formula_structural   RbNaLi6(SiO4)2
_chemical_formula_sum   'Rb2 Na2 Li12 Si4 O16'
_cell_volume   401.99360305
_cell_formula_units_Z   2
loop_
 _symmetry_equiv_pos_site_id
 _symmetry_equiv_pos_as_xyz
  1  'x, y, z'
loop_
 _atom_site_type_symbol
 _atom_site_label
 _atom_site_symmetry_multiplicity
 _atom_site_fract_x
 _atom_site_fract_y
 _atom_site_fract_z
 _atom_site_occupancy
  Rb  Rb0  1  0.244532  0.468857  0.489064  1
  Rb  Rb1  1  0.755468  0.531143  0.510936  1
  Na  Na2  1  0.748367  0.000000  1.000000  1
  Na  Na3  1  0.251633  1.000000  0.000000  1
  Li  Li4  1  0.640943  0.865616  0.281885  1
  Li  Li5  1  0.676801  0.373343  0.861262  1
  Li  Li6  1  0.444681  0.133793  0.373847  1
  Li  Li7  1  0.929166  0.133793  0.373847  1
  Li  Li8  1  0.070834  0.866207  0.626153  1
  Li  Li9  1  0.555319  0.866207  0.626153  1
  Li  Li10  1  0.932976  0.716820  0.865952  1
  Li  Li11  1  0.815538  0.626657  0.138738  1
  Li  Li12  1  0.359057  0.134384  0.718115  1
  Li  Li13  1  0.184462  0.373343  0.861262  1
  Li  Li14  1  0.323199  0.626657  0.138738  1
  Li  Li15  1  0.067024  0.283180  0.134048  1
  Si  Si16  1  0.853988  0.140428  0.707976  1
  Si  Si17  1  0.146012  0.859572  0.292024  1
  Si  Si18  1  0.429308  0.708581  0.858615  1
  Si  Si19  1  0.570692  0.291419  0.141385  1
  O  O20  1  0.023377  0.195522  0.610013  1
  O  O21  1  0.182627  0.609713  0.801560  1
  O  O22  1  0.413364  0.804478  0.389987  1
  O  O23  1  0.869720  0.933428  0.739439  1
  O  O24  1  0.618933  0.609713  0.801560  1
  O  O25  1  0.946809  0.238357  0.893617  1
  O  O26  1  0.531890  0.744493  0.063781  1
  O  O27  1  0.616179  0.103503  0.232358  1
  O  O28  1  0.586636  0.195522  0.610013  1
  O  O29  1  0.468110  0.255507  0.936219  1
  O  O30  1  0.381067  0.390287  0.198440  1
  O  O31  1  0.817373  0.390287  0.198440  1
  O  O32  1  0.130280  0.066572  0.260561  1
  O  O33  1  0.053192  0.761643  0.106383  1
  O  O34  1  0.383821  0.896497  0.767642  1
  O  O35  1  0.976623  0.804478  0.389987  1
