# generated using pymatgen
data_Ba6Ge25
_symmetry_space_group_name_H-M   'P 1'
_cell_length_a   14.82730201
_cell_length_b   14.82730201
_cell_length_c   14.82730201
_cell_angle_alpha   90.00000000
_cell_angle_beta   90.00000000
_cell_angle_gamma   90.00000000
_symmetry_Int_Tables_number   1
_chemical_formula_structural   Ba6Ge25
_chemical_formula_sum   'Ba24 Ge100'
_cell_volume   3259.76581291
_cell_formula_units_Z   4
loop_
 _symmetry_equiv_pos_site_id
 _symmetry_equiv_pos_as_xyz
  1  'x, y, z'
loop_
 _atom_site_type_symbol
 _atom_site_label
 _atom_site_symmetry_multiplicity
 _atom_site_fract_x
 _atom_site_fract_y
 _atom_site_fract_z
 _atom_site_occupancy
  Ba  Ba0  1  0.559354  0.559354  0.559354  1
  Ba  Ba1  1  0.810051  0.060051  0.125000  1
  Ba  Ba2  1  0.939949  0.625000  0.689949  1
  Ba  Ba3  1  0.059354  0.940646  0.440646  1
  Ba  Ba4  1  0.060051  0.125000  0.810051  1
  Ba  Ba5  1  0.625000  0.125000  0.375000  1
  Ba  Ba6  1  0.375000  0.189949  0.560051  1
  Ba  Ba7  1  0.189949  0.560051  0.375000  1
  Ba  Ba8  1  0.309354  0.809354  0.690646  1
  Ba  Ba9  1  0.875000  0.310051  0.439949  1
  Ba  Ba10  1  0.875000  0.875000  0.875000  1
  Ba  Ba11  1  0.310051  0.439949  0.875000  1
  Ba  Ba12  1  0.689949  0.939949  0.625000  1
  Ba  Ba13  1  0.439949  0.875000  0.310051  1
  Ba  Ba14  1  0.125000  0.375000  0.625000  1
  Ba  Ba15  1  0.190646  0.190646  0.190646  1
  Ba  Ba16  1  0.625000  0.689949  0.939949  1
  Ba  Ba17  1  0.125000  0.810051  0.060051  1
  Ba  Ba18  1  0.440646  0.059354  0.940646  1
  Ba  Ba19  1  0.560051  0.375000  0.189949  1
  Ba  Ba20  1  0.375000  0.625000  0.125000  1
  Ba  Ba21  1  0.690646  0.309354  0.809354  1
  Ba  Ba22  1  0.940646  0.440646  0.059354  1
  Ba  Ba23  1  0.809354  0.690646  0.309354  1
  Ge  Ge24  1  0.397997  0.166353  0.333436  1
  Ge  Ge25  1  0.674587  0.825413  0.174587  1
  Ge  Ge26  1  0.934126  0.873611  0.238910  1
  Ge  Ge27  1  0.325413  0.325413  0.325413  1
  Ge  Ge28  1  0.542297  0.500056  0.797178  1
  Ge  Ge29  1  0.047178  0.749944  0.292297  1
  Ge  Ge30  1  0.707703  0.547178  0.750056  1
  Ge  Ge31  1  0.292297  0.047178  0.749944  1
  Ge  Ge32  1  0.583436  0.083647  0.147997  1
  Ge  Ge33  1  0.580526  0.625000  0.330526  1
  Ge  Ge34  1  0.166564  0.602003  0.666353  1
  Ge  Ge35  1  0.249944  0.207703  0.952822  1
  Ge  Ge36  1  0.373611  0.261090  0.065875  1
  Ge  Ge37  1  0.184125  0.011090  0.623611  1
  Ge  Ge38  1  0.457703  0.000056  0.702822  1
  Ge  Ge39  1  0.169474  0.419474  0.125000  1
  Ge  Ge40  1  0.042297  0.999944  0.202822  1
  Ge  Ge41  1  0.123611  0.315875  0.988910  1
  Ge  Ge42  1  0.825413  0.174587  0.674587  1
  Ge  Ge43  1  0.011090  0.623611  0.184125  1
  Ge  Ge44  1  0.261090  0.065875  0.373611  1
  Ge  Ge45  1  0.375000  0.830526  0.919474  1
  Ge  Ge46  1  0.315875  0.988910  0.123611  1
  Ge  Ge47  1  0.999944  0.202822  0.042297  1
  Ge  Ge48  1  0.083436  0.416353  0.852003  1
  Ge  Ge49  1  0.702822  0.457703  0.000056  1
  Ge  Ge50  1  0.219493  0.780507  0.280507  1
  Ge  Ge51  1  0.957703  0.499944  0.297178  1
  Ge  Ge52  1  0.666353  0.166564  0.602003  1
  Ge  Ge53  1  0.280507  0.219493  0.780507  1
  Ge  Ge54  1  0.919474  0.375000  0.830526  1
  Ge  Ge55  1  0.376389  0.684126  0.488910  1
  Ge  Ge56  1  0.749944  0.292297  0.047178  1
  Ge  Ge57  1  0.416564  0.583647  0.352003  1
  Ge  Ge58  1  0.952822  0.249944  0.207703  1
  Ge  Ge59  1  0.452822  0.250056  0.792297  1
  Ge  Ge60  1  0.030507  0.030507  0.030507  1
  Ge  Ge61  1  0.333436  0.397997  0.166353  1
  Ge  Ge62  1  0.738910  0.565874  0.126389  1
  Ge  Ge63  1  0.126389  0.738910  0.565874  1
  Ge  Ge64  1  0.797178  0.542297  0.500056  1
  Ge  Ge65  1  0.416353  0.852003  0.083436  1
  Ge  Ge66  1  0.352003  0.416564  0.583647  1
  Ge  Ge67  1  0.625000  0.330526  0.580526  1
  Ge  Ge68  1  0.988910  0.123611  0.315875  1
  Ge  Ge69  1  0.815874  0.511090  0.876389  1
  Ge  Ge70  1  0.792297  0.452822  0.250056  1
  Ge  Ge71  1  0.565874  0.126389  0.738910  1
  Ge  Ge72  1  0.873611  0.238910  0.934126  1
  Ge  Ge73  1  0.666564  0.897997  0.333647  1
  Ge  Ge74  1  0.647997  0.916564  0.916353  1
  Ge  Ge75  1  0.102003  0.833647  0.833436  1
  Ge  Ge76  1  0.297178  0.957703  0.499944  1
  Ge  Ge77  1  0.575413  0.924587  0.075413  1
  Ge  Ge78  1  0.924587  0.075413  0.575413  1
  Ge  Ge79  1  0.969493  0.530507  0.469493  1
  Ge  Ge80  1  0.166353  0.333436  0.397997  1
  Ge  Ge81  1  0.174587  0.674587  0.825413  1
  Ge  Ge82  1  0.780507  0.280507  0.219493  1
  Ge  Ge83  1  0.547178  0.750056  0.707703  1
  Ge  Ge84  1  0.511090  0.876389  0.815874  1
  Ge  Ge85  1  0.761090  0.434125  0.626389  1
  Ge  Ge86  1  0.623611  0.184125  0.011090  1
  Ge  Ge87  1  0.626389  0.761090  0.434125  1
  Ge  Ge88  1  0.500056  0.797178  0.542297  1
  Ge  Ge89  1  0.083647  0.147997  0.583436  1
  Ge  Ge90  1  0.583647  0.352003  0.416564  1
  Ge  Ge91  1  0.897997  0.333647  0.666564  1
  Ge  Ge92  1  0.830526  0.919474  0.375000  1
  Ge  Ge93  1  0.075413  0.575413  0.924587  1
  Ge  Ge94  1  0.434125  0.626389  0.761090  1
  Ge  Ge95  1  0.065875  0.373611  0.261090  1
  Ge  Ge96  1  0.333647  0.666564  0.897997  1
  Ge  Ge97  1  0.875000  0.669474  0.080526  1
  Ge  Ge98  1  0.750056  0.707703  0.547178  1
  Ge  Ge99  1  0.469493  0.969493  0.530507  1
  Ge  Ge100  1  0.202822  0.042297  0.999944  1
  Ge  Ge101  1  0.207703  0.952822  0.249944  1
  Ge  Ge102  1  0.833436  0.102003  0.833647  1
  Ge  Ge103  1  0.876389  0.815874  0.511090  1
  Ge  Ge104  1  0.125000  0.169474  0.419474  1
  Ge  Ge105  1  0.238910  0.934126  0.873611  1
  Ge  Ge106  1  0.916353  0.647997  0.916564  1
  Ge  Ge107  1  0.499944  0.297178  0.957703  1
  Ge  Ge108  1  0.916564  0.916353  0.647997  1
  Ge  Ge109  1  0.250056  0.792297  0.452822  1
  Ge  Ge110  1  0.488910  0.376389  0.684126  1
  Ge  Ge111  1  0.147997  0.583436  0.083647  1
  Ge  Ge112  1  0.669474  0.080526  0.875000  1
  Ge  Ge113  1  0.833647  0.833436  0.102003  1
  Ge  Ge114  1  0.684126  0.488910  0.376389  1
  Ge  Ge115  1  0.852003  0.083436  0.416353  1
  Ge  Ge116  1  0.330526  0.580526  0.625000  1
  Ge  Ge117  1  0.080526  0.875000  0.669474  1
  Ge  Ge118  1  0.530507  0.469493  0.969493  1
  Ge  Ge119  1  0.719493  0.719493  0.719493  1
  Ge  Ge120  1  0.000056  0.702822  0.457703  1
  Ge  Ge121  1  0.602003  0.666353  0.166564  1
  Ge  Ge122  1  0.424587  0.424587  0.424587  1
  Ge  Ge123  1  0.419474  0.125000  0.169474  1
