# generated using pymatgen
data_MgFe(SiO3)2
_symmetry_space_group_name_H-M   'P 1'
_cell_length_a   5.30511551
_cell_length_b   9.05728878
_cell_length_c   18.52705198
_cell_angle_alpha   90.00000000
_cell_angle_beta   90.00000000
_cell_angle_gamma   90.00000000
_symmetry_Int_Tables_number   1
_chemical_formula_structural   MgFe(SiO3)2
_chemical_formula_sum   'Mg8 Fe8 Si16 O48'
_cell_volume   890.22416557
_cell_formula_units_Z   8
loop_
 _symmetry_equiv_pos_site_id
 _symmetry_equiv_pos_as_xyz
  1  'x, y, z'
loop_
 _atom_site_type_symbol
 _atom_site_label
 _atom_site_symmetry_multiplicity
 _atom_site_fract_x
 _atom_site_fract_y
 _atom_site_fract_z
 _atom_site_occupancy
  Mg  Mg0  1  0.617093  0.153884  0.624664  1
  Mg  Mg1  1  0.382907  0.846116  0.375336  1
  Mg  Mg2  1  0.617093  0.653884  0.875336  1
  Mg  Mg3  1  0.117093  0.846116  0.875336  1
  Mg  Mg4  1  0.882907  0.153884  0.124664  1
  Mg  Mg5  1  0.382907  0.346116  0.124664  1
  Mg  Mg6  1  0.117093  0.346116  0.624664  1
  Mg  Mg7  1  0.882907  0.653884  0.375336  1
  Fe  Fe8  1  0.377303  0.986876  0.123065  1
  Fe  Fe9  1  0.622697  0.013124  0.876935  1
  Fe  Fe10  1  0.877303  0.013124  0.376935  1
  Fe  Fe11  1  0.122697  0.986876  0.623065  1
  Fe  Fe12  1  0.377303  0.486876  0.376935  1
  Fe  Fe13  1  0.622697  0.513124  0.623065  1
  Fe  Fe14  1  0.877303  0.513124  0.123065  1
  Fe  Fe15  1  0.122697  0.486876  0.876935  1
  Si  Si16  1  0.562420  0.660397  0.228067  1
  Si  Si17  1  0.710872  0.836086  0.525320  1
  Si  Si18  1  0.789128  0.836086  0.025320  1
  Si  Si19  1  0.937580  0.160397  0.771933  1
  Si  Si20  1  0.062420  0.339603  0.271933  1
  Si  Si21  1  0.437580  0.839603  0.728067  1
  Si  Si22  1  0.210872  0.663914  0.525320  1
  Si  Si23  1  0.710872  0.336086  0.974680  1
  Si  Si24  1  0.789128  0.336086  0.474680  1
  Si  Si25  1  0.937580  0.660397  0.728067  1
  Si  Si26  1  0.437580  0.339603  0.771933  1
  Si  Si27  1  0.562420  0.160397  0.271933  1
  Si  Si28  1  0.289128  0.163914  0.474680  1
  Si  Si29  1  0.062420  0.839603  0.228067  1
  Si  Si30  1  0.289128  0.663914  0.025320  1
  Si  Si31  1  0.210872  0.163914  0.974680  1
  O  O32  1  0.935664  0.501301  0.688144  1
  O  O33  1  0.297467  0.014029  0.933945  1
  O  O34  1  0.064336  0.498699  0.311856  1
  O  O35  1  0.709856  0.335756  0.063066  1
  O  O36  1  0.209856  0.164244  0.063066  1
  O  O37  1  0.917464  0.206201  0.948098  1
  O  O38  1  0.944476  0.663902  0.816067  1
  O  O39  1  0.055524  0.836098  0.316067  1
  O  O40  1  0.709856  0.835756  0.436934  1
  O  O41  1  0.944476  0.163902  0.683933  1
  O  O42  1  0.435664  0.498699  0.811856  1
  O  O43  1  0.790144  0.335756  0.563066  1
  O  O44  1  0.702533  0.985971  0.066055  1
  O  O45  1  0.444476  0.836098  0.816067  1
  O  O46  1  0.564336  0.001301  0.311856  1
  O  O47  1  0.297467  0.514029  0.566055  1
  O  O48  1  0.435664  0.998699  0.688144  1
  O  O49  1  0.167223  0.767689  0.697472  1
  O  O50  1  0.332777  0.767689  0.197472  1
  O  O51  1  0.582536  0.706201  0.051902  1
  O  O52  1  0.790144  0.835756  0.936934  1
  O  O53  1  0.555524  0.663902  0.316067  1
  O  O54  1  0.797467  0.485971  0.933945  1
  O  O55  1  0.167223  0.267689  0.802528  1
  O  O56  1  0.290144  0.164244  0.563066  1
  O  O57  1  0.555524  0.163902  0.183933  1
  O  O58  1  0.702533  0.485971  0.433945  1
  O  O59  1  0.209856  0.664244  0.436934  1
  O  O60  1  0.202533  0.514029  0.066055  1
  O  O61  1  0.667223  0.732311  0.697472  1
  O  O62  1  0.064336  0.998699  0.188144  1
  O  O63  1  0.832777  0.732311  0.197472  1
  O  O64  1  0.832777  0.232311  0.302528  1
  O  O65  1  0.797467  0.985971  0.566055  1
  O  O66  1  0.290144  0.664244  0.936934  1
  O  O67  1  0.202533  0.014029  0.433945  1
  O  O68  1  0.332777  0.267689  0.302528  1
  O  O69  1  0.082536  0.793799  0.051902  1
  O  O70  1  0.417464  0.793799  0.551902  1
  O  O71  1  0.667223  0.232311  0.802528  1
  O  O72  1  0.417464  0.293799  0.948098  1
  O  O73  1  0.582536  0.206201  0.448098  1
  O  O74  1  0.082536  0.293799  0.448098  1
  O  O75  1  0.444476  0.336098  0.683933  1
  O  O76  1  0.564336  0.501301  0.188144  1
  O  O77  1  0.917464  0.706201  0.551902  1
  O  O78  1  0.055524  0.336098  0.183933  1
  O  O79  1  0.935664  0.001301  0.811856  1
