# generated using pymatgen
data_K2Ti(Si2O5)3
_symmetry_space_group_name_H-M   'P 1'
_cell_length_a   7.01249267
_cell_length_b   7.76321087
_cell_length_c   12.94598259
_cell_angle_alpha   90.00000000
_cell_angle_beta   90.00000000
_cell_angle_gamma   106.18050114
_symmetry_Int_Tables_number   1
_chemical_formula_structural   K2Ti(Si2O5)3
_chemical_formula_sum   'K4 Ti2 Si12 O30'
_cell_volume   676.85525798
_cell_formula_units_Z   2
loop_
 _symmetry_equiv_pos_site_id
 _symmetry_equiv_pos_as_xyz
  1  'x, y, z'
loop_
 _atom_site_type_symbol
 _atom_site_label
 _atom_site_symmetry_multiplicity
 _atom_site_fract_x
 _atom_site_fract_y
 _atom_site_fract_z
 _atom_site_occupancy
  K  K0  1  0.800414  0.849210  0.891154  1
  K  K1  1  0.809590  0.579432  0.594488  1
  K  K2  1  0.190410  0.420568  0.094488  1
  K  K3  1  0.199586  0.150790  0.391154  1
  Ti  Ti4  1  0.244030  0.751025  0.750641  1
  Ti  Ti5  1  0.755970  0.248975  0.250641  1
  Si  Si6  1  0.306463  0.930863  0.994020  1
  Si  Si7  1  0.448709  0.442595  0.833407  1
  Si  Si8  1  0.551291  0.557405  0.333407  1
  Si  Si9  1  0.693537  0.069137  0.494020  1
  Si  Si10  1  0.329034  0.708548  0.490276  1
  Si  Si11  1  0.545600  0.836347  0.165572  1
  Si  Si12  1  0.013310  0.043923  0.657845  1
  Si  Si13  1  0.670966  0.291452  0.990276  1
  Si  Si14  1  0.992142  0.668430  0.321816  1
  Si  Si15  1  0.007858  0.331570  0.821816  1
  Si  Si16  1  0.454400  0.163653  0.665572  1
  Si  Si17  1  0.986690  0.956077  0.157845  1
  O  O18  1  0.464875  0.659487  0.240299  1
  O  O19  1  0.792827  0.171349  0.391881  1
  O  O20  1  0.438540  0.975459  0.721542  1
  O  O21  1  0.974168  0.474492  0.273419  1
  O  O22  1  0.500938  0.898111  0.471878  1
  O  O23  1  0.023234  0.856891  0.707634  1
  O  O24  1  0.499062  0.101889  0.971878  1
  O  O25  1  0.549134  0.357359  0.299848  1
  O  O26  1  0.613190  0.207749  0.568650  1
  O  O27  1  0.207173  0.828651  0.891881  1
  O  O28  1  0.450866  0.642641  0.799848  1
  O  O29  1  0.386810  0.792251  0.068650  1
  O  O30  1  0.588905  0.451787  0.937034  1
  O  O31  1  0.225609  0.319858  0.865526  1
  O  O32  1  0.976766  0.143109  0.207634  1
  O  O33  1  0.535125  0.340513  0.740299  1
  O  O34  1  0.133570  0.722106  0.424301  1
  O  O35  1  0.926296  0.164568  0.740114  1
  O  O36  1  0.561460  0.024541  0.221542  1
  O  O37  1  0.866430  0.277894  0.924301  1
  O  O38  1  0.774391  0.680142  0.365526  1
  O  O39  1  0.411095  0.548213  0.437034  1
  O  O40  1  0.073704  0.835432  0.240114  1
  O  O41  1  0.025832  0.525508  0.773419  1
  O  O42  1  0.267127  0.667034  0.608435  1
  O  O43  1  0.732873  0.332966  0.108435  1
  O  O44  1  0.234708  0.163042  0.617046  1
  O  O45  1  0.765292  0.836958  0.117046  1
  O  O46  1  0.135263  0.997591  0.057275  1
  O  O47  1  0.864737  0.002409  0.557275  1
