# generated using pymatgen
data_Ba2Tl2CuO6
_symmetry_space_group_name_H-M   'P 1'
_cell_length_a   3.90707479
_cell_length_b   3.90707298
_cell_length_c   12.30049110
_cell_angle_alpha   99.13827839
_cell_angle_beta   99.13828179
_cell_angle_gamma   90.00000214
_symmetry_Int_Tables_number   1
_chemical_formula_structural   Ba2Tl2CuO6
_chemical_formula_sum   'Ba2 Tl2 Cu1 O6'
_cell_volume   182.97236396
_cell_formula_units_Z   1
loop_
 _symmetry_equiv_pos_site_id
 _symmetry_equiv_pos_as_xyz
  1  'x, y, z'
loop_
 _atom_site_type_symbol
 _atom_site_label
 _atom_site_symmetry_multiplicity
 _atom_site_fract_x
 _atom_site_fract_y
 _atom_site_fract_z
 _atom_site_occupancy
  O  O0  1  0.788813  0.788813  0.577627  1
  O  O1  1  0.211182  0.211182  0.422364  1
  O  O2  1  0.382161  0.382161  0.764322  1
  Tl  Tl3  1  0.702272  0.702272  0.404544  1
  Tl  Tl4  1  0.297723  0.297723  0.595447  1
  Cu  Cu5  1  0.500015  0.500015  0.000031  1
  O  O6  1  0.617832  0.617832  0.235664  1
  Ba  Ba7  1  0.918751  0.918751  0.837503  1
  O  O8  1  1.000001  0.500001  1.000001  1
  Ba  Ba9  1  0.081248  0.081248  0.162496  1
  O  O10  1  0.500001  1.000001  1.000001  1
