# generated using pymatgen
data_Ba5Si(Cl3O2)2
_symmetry_space_group_name_H-M   'P 1'
_cell_length_a   8.91534293
_cell_length_b   8.91534310
_cell_length_c   11.84409610
_cell_angle_alpha   97.68978051
_cell_angle_beta   97.68978065
_cell_angle_gamma   114.48668675
_symmetry_Int_Tables_number   1
_chemical_formula_structural   Ba5Si(Cl3O2)2
_chemical_formula_sum   'Ba10 Si2 Cl12 O8'
_cell_volume   830.12378493
_cell_formula_units_Z   2
loop_
 _symmetry_equiv_pos_site_id
 _symmetry_equiv_pos_as_xyz
  1  'x, y, z'
loop_
 _atom_site_type_symbol
 _atom_site_label
 _atom_site_symmetry_multiplicity
 _atom_site_fract_x
 _atom_site_fract_y
 _atom_site_fract_z
 _atom_site_occupancy
  Ba  Ba0  1  0.571504  0.316383  0.520270  1
  Ba  Ba1  1  0.798396  0.201604  0.250000  1
  Ba  Ba2  1  0.077103  0.233137  0.633799  1
  Ba  Ba3  1  0.766863  0.922897  0.866201  1
  Ba  Ba4  1  0.428496  0.683617  0.479730  1
  Ba  Ba5  1  0.201604  0.798396  0.750000  1
  Ba  Ba6  1  0.233137  0.077103  0.133799  1
  Ba  Ba7  1  0.922897  0.766863  0.366201  1
  Ba  Ba8  1  0.316383  0.571504  0.020270  1
  Ba  Ba9  1  0.683617  0.428496  0.979730  1
  Si  Si10  1  0.422627  0.577373  0.750000  1
  Si  Si11  1  0.577373  0.422627  0.250000  1
  Cl  Cl12  1  0.856109  0.797699  0.633811  1
  Cl  Cl13  1  0.280231  0.980946  0.548969  1
  Cl  Cl14  1  0.980946  0.280231  0.048969  1
  Cl  Cl15  1  0.143891  0.202301  0.366189  1
  Cl  Cl16  1  0.202301  0.143891  0.866189  1
  Cl  Cl17  1  0.758215  0.241785  0.750000  1
  Cl  Cl18  1  0.719769  0.019054  0.451031  1
  Cl  Cl19  1  0.797699  0.856109  0.133811  1
  Cl  Cl20  1  0.241785  0.758215  0.250000  1
  Cl  Cl21  1  0.500000  0.000000  0.000000  1
  Cl  Cl22  1  0.019054  0.719769  0.951031  1
  Cl  Cl23  1  0.000000  0.500000  0.500000  1
  O  O24  1  0.557429  0.597860  0.867715  1
  O  O25  1  0.476913  0.764112  0.713957  1
  O  O26  1  0.402140  0.442571  0.632285  1
  O  O27  1  0.764112  0.476913  0.213957  1
  O  O28  1  0.235888  0.523087  0.786043  1
  O  O29  1  0.597860  0.557429  0.367715  1
  O  O30  1  0.523087  0.235888  0.286043  1
  O  O31  1  0.442571  0.402140  0.132285  1
