# generated using pymatgen
data_K2Mn2Be3F12
_symmetry_space_group_name_H-M   'P 1'
_cell_length_a   10.31607443
_cell_length_b   10.31607443
_cell_length_c   10.31607443
_cell_angle_alpha   90.00000000
_cell_angle_beta   90.00000000
_cell_angle_gamma   90.00000000
_symmetry_Int_Tables_number   1
_chemical_formula_structural   K2Mn2Be3F12
_chemical_formula_sum   'K8 Mn8 Be12 F48'
_cell_volume   1097.85099716
_cell_formula_units_Z   4
loop_
 _symmetry_equiv_pos_site_id
 _symmetry_equiv_pos_as_xyz
  1  'x, y, z'
loop_
 _atom_site_type_symbol
 _atom_site_label
 _atom_site_symmetry_multiplicity
 _atom_site_fract_x
 _atom_site_fract_y
 _atom_site_fract_z
 _atom_site_occupancy
  Be  Be0  1  0.279069  0.625102  0.514108  1
  Be  Be1  1  0.220931  0.374898  0.014108  1
  Be  Be2  1  0.720931  0.125102  0.985892  1
  Be  Be3  1  0.779069  0.874898  0.485892  1
  Be  Be4  1  0.125102  0.985892  0.720931  1
  Be  Be5  1  0.485892  0.779069  0.874898  1
  Be  Be6  1  0.985892  0.720931  0.125102  1
  Be  Be7  1  0.374898  0.014108  0.220931  1
  Be  Be8  1  0.014108  0.220931  0.374898  1
  Be  Be9  1  0.874898  0.485892  0.779069  1
  Be  Be10  1  0.625102  0.514108  0.279069  1
  Be  Be11  1  0.514108  0.279069  0.625102  1
  F  F12  1  0.455551  0.182919  0.726587  1
  F  F13  1  0.728839  0.007518  0.080045  1
  F  F14  1  0.771161  0.992482  0.580045  1
  F  F15  1  0.007518  0.080045  0.728839  1
  F  F16  1  0.263402  0.415376  0.153129  1
  F  F17  1  0.236598  0.584624  0.653129  1
  F  F18  1  0.653129  0.236598  0.584624  1
  F  F19  1  0.584624  0.653129  0.236598  1
  F  F20  1  0.915376  0.346871  0.736598  1
  F  F21  1  0.153129  0.263402  0.415376  1
  F  F22  1  0.415376  0.153129  0.263402  1
  F  F23  1  0.846871  0.763402  0.084624  1
  F  F24  1  0.346871  0.736598  0.915376  1
  F  F25  1  0.084624  0.846871  0.763402  1
  F  F26  1  0.736598  0.915376  0.346871  1
  F  F27  1  0.763402  0.084624  0.846871  1
  F  F28  1  0.182919  0.726587  0.455551  1
  F  F29  1  0.228839  0.492482  0.919955  1
  F  F30  1  0.726587  0.455551  0.182919  1
  F  F31  1  0.773413  0.544449  0.682919  1
  F  F32  1  0.955551  0.317081  0.273413  1
  F  F33  1  0.273413  0.955551  0.317081  1
  F  F34  1  0.044449  0.817081  0.226587  1
  F  F35  1  0.544449  0.682919  0.773413  1
  F  F36  1  0.226587  0.044449  0.817081  1
  F  F37  1  0.682919  0.773413  0.544449  1
  F  F38  1  0.817081  0.226587  0.044449  1
  F  F39  1  0.317081  0.273413  0.955551  1
  F  F40  1  0.420270  0.680737  0.515870  1
  F  F41  1  0.515870  0.420270  0.680737  1
  F  F42  1  0.680737  0.515870  0.420270  1
  F  F43  1  0.819263  0.484130  0.920270  1
  F  F44  1  0.015870  0.079730  0.319263  1
  F  F45  1  0.319263  0.015870  0.079730  1
  F  F46  1  0.984130  0.579730  0.180737  1
  F  F47  1  0.484130  0.920270  0.819263  1
  F  F48  1  0.180737  0.984130  0.579730  1
  F  F49  1  0.920270  0.819263  0.484130  1
  F  F50  1  0.579730  0.180737  0.984130  1
  F  F51  1  0.079730  0.319263  0.015870  1
  F  F52  1  0.271161  0.507518  0.419955  1
  F  F53  1  0.419955  0.271161  0.507518  1
  F  F54  1  0.507518  0.419955  0.271161  1
  F  F55  1  0.992482  0.580045  0.771161  1
  F  F56  1  0.919955  0.228839  0.492482  1
  F  F57  1  0.580045  0.771161  0.992482  1
  F  F58  1  0.080045  0.728839  0.007518  1
  F  F59  1  0.492482  0.919955  0.228839  1
  K  K60  1  0.191426  0.308574  0.691426  1
  K  K61  1  0.691426  0.191426  0.308574  1
  K  K62  1  0.308574  0.691426  0.191426  1
  K  K63  1  0.808574  0.808574  0.808574  1
  K  K64  1  0.448886  0.948886  0.551114  1
  K  K65  1  0.551114  0.448886  0.948886  1
  K  K66  1  0.948886  0.551114  0.448886  1
  K  K67  1  0.051114  0.051114  0.051114  1
  Mn  Mn68  1  0.331165  0.331165  0.331165  1
  Mn  Mn69  1  0.168835  0.668835  0.831165  1
  Mn  Mn70  1  0.831165  0.168835  0.668835  1
  Mn  Mn71  1  0.668835  0.831165  0.168835  1
  Mn  Mn72  1  0.592888  0.592888  0.592888  1
  Mn  Mn73  1  0.907112  0.407112  0.092888  1
  Mn  Mn74  1  0.092888  0.907112  0.407112  1
  Mn  Mn75  1  0.407112  0.092888  0.907112  1
