# generated using pymatgen
data_Tl3(MoO3)10
_symmetry_space_group_name_H-M   'P 1'
_cell_length_a   7.67484500
_cell_length_b   10.38017861
_cell_length_c   10.47719405
_cell_angle_alpha   117.63805234
_cell_angle_beta   90.00000000
_cell_angle_gamma   111.69634720
_symmetry_Int_Tables_number   1
_chemical_formula_structural   Tl3(MoO3)10
_chemical_formula_sum   'Tl3 Mo10 O30'
_cell_volume   671.97731879
_cell_formula_units_Z   1
loop_
 _symmetry_equiv_pos_site_id
 _symmetry_equiv_pos_as_xyz
  1  'x, y, z'
loop_
 _atom_site_type_symbol
 _atom_site_label
 _atom_site_symmetry_multiplicity
 _atom_site_fract_x
 _atom_site_fract_y
 _atom_site_fract_z
 _atom_site_occupancy
  Tl  Tl0  1  0.188791  0.377581  0.739887  1
  Tl  Tl1  1  0.811209  0.622419  0.260113  1
  Tl  Tl2  1  0.500000  0.000000  0.500000  1
  Mo  Mo3  1  0.669265  0.848613  0.041594  1
  Mo  Mo4  1  0.109392  0.718755  0.656441  1
  Mo  Mo5  1  0.609363  0.718755  0.656441  1
  Mo  Mo6  1  0.330736  0.151387  0.958406  1
  Mo  Mo7  1  0.221718  0.443435  0.172856  1
  Mo  Mo8  1  0.890608  0.281245  0.343559  1
  Mo  Mo9  1  0.390637  0.281245  0.343559  1
  Mo  Mo10  1  0.820651  0.151387  0.958406  1
  Mo  Mo11  1  0.179349  0.848613  0.041594  1
  Mo  Mo12  1  0.778282  0.556565  0.827144  1
  O  O13  1  0.843220  0.686440  0.692959  1
  O  O14  1  0.839699  0.191218  0.815254  1
  O  O15  1  0.422054  0.844109  0.010934  1
  O  O16  1  0.130269  0.816360  0.558339  1
  O  O17  1  0.085354  0.170709  0.991877  1
  O  O18  1  0.243846  0.487693  0.030034  1
  O  O19  1  0.869731  0.183640  0.441661  1
  O  O20  1  0.356568  0.713137  0.672441  1
  O  O21  1  0.285888  0.078305  0.144444  1
  O  O22  1  0.792417  0.078305  0.144444  1
  O  O23  1  0.156780  0.313560  0.307041  1
  O  O24  1  0.686091  0.816360  0.558339  1
  O  O25  1  0.313909  0.183640  0.441661  1
  O  O26  1  0.714112  0.921695  0.855556  1
  O  O27  1  0.207583  0.921695  0.855556  1
  O  O28  1  0.643432  0.286863  0.327559  1
  O  O29  1  0.425111  0.365173  0.157828  1
  O  O30  1  0.574889  0.634827  0.842172  1
  O  O31  1  0.577946  0.155891  0.989066  1
  O  O32  1  0.914646  0.829291  0.008123  1
  O  O33  1  0.314561  0.629122  0.331322  1
  O  O34  1  0.685439  0.370878  0.668678  1
  O  O35  1  0.756154  0.512307  0.969966  1
  O  O36  1  0.648481  0.808782  0.184746  1
  O  O37  1  0.940062  0.365173  0.157828  1
  O  O38  1  0.160301  0.808782  0.184746  1
  O  O39  1  0.500000  0.500000  0.500000  1
  O  O40  1  0.351519  0.191218  0.815254  1
  O  O41  1  0.059938  0.634827  0.842172  1
  O  O42  1  0.000000  0.500000  0.500000  1
