# generated using pymatgen
data_Cs2NaTiF6
_symmetry_space_group_name_H-M   'P 1'
_cell_length_a   6.41840369
_cell_length_b   6.41840356
_cell_length_c   15.25034484
_cell_angle_alpha   90.00000000
_cell_angle_beta   90.00000000
_cell_angle_gamma   120.00000062
_symmetry_Int_Tables_number   1
_chemical_formula_structural   Cs2NaTiF6
_chemical_formula_sum   'Cs6 Na3 Ti3 F18'
_cell_volume   544.08197958
_cell_formula_units_Z   3
loop_
 _symmetry_equiv_pos_site_id
 _symmetry_equiv_pos_as_xyz
  1  'x, y, z'
loop_
 _atom_site_type_symbol
 _atom_site_label
 _atom_site_symmetry_multiplicity
 _atom_site_fract_x
 _atom_site_fract_y
 _atom_site_fract_z
 _atom_site_occupancy
  Cs  Cs0  1  0.333333  0.666667  0.088382  1
  Cs  Cs1  1  0.000000  0.000000  0.751463  1
  Cs  Cs2  1  0.333333  0.666667  0.394515  1
  Cs  Cs3  1  0.000000  0.000000  0.248537  1
  Cs  Cs4  1  0.666667  0.333333  0.911618  1
  Cs  Cs5  1  0.666667  0.333333  0.605485  1
  Na  Na6  1  0.666667  0.333333  0.357167  1
  Na  Na7  1  0.333333  0.666667  0.642833  1
  Na  Na8  1  0.000000  0.000000  0.000000  1
  Ti  Ti9  1  0.333333  0.666667  0.839905  1
  Ti  Ti10  1  0.000000  0.000000  0.500000  1
  Ti  Ti11  1  0.666667  0.333333  0.160095  1
  F  F12  1  0.181594  0.818406  0.910869  1
  F  F13  1  0.363188  0.181594  0.089131  1
  F  F14  1  0.477356  0.954712  0.760584  1
  F  F15  1  0.150784  0.301567  0.572409  1
  F  F16  1  0.698433  0.849216  0.572409  1
  F  F17  1  0.181594  0.363188  0.910869  1
  F  F18  1  0.150784  0.849216  0.572409  1
  F  F19  1  0.818406  0.636812  0.089131  1
  F  F20  1  0.522644  0.045288  0.239416  1
  F  F21  1  0.301567  0.150784  0.427591  1
  F  F22  1  0.849216  0.150784  0.427591  1
  F  F23  1  0.954712  0.477356  0.239416  1
  F  F24  1  0.636812  0.818406  0.910869  1
  F  F25  1  0.522644  0.477356  0.239416  1
  F  F26  1  0.849216  0.698433  0.427591  1
  F  F27  1  0.818406  0.181594  0.089131  1
  F  F28  1  0.477356  0.522644  0.760584  1
  F  F29  1  0.045288  0.522644  0.760584  1
