# generated using pymatgen
data_BaV2TeO8
_symmetry_space_group_name_H-M   'P 1'
_cell_length_a   5.69475855
_cell_length_b   9.89727986
_cell_length_c   14.20777187
_cell_angle_alpha   107.66220974
_cell_angle_beta   90.00000000
_cell_angle_gamma   90.00000000
_symmetry_Int_Tables_number   1
_chemical_formula_structural   BaV2TeO8
_chemical_formula_sum   'Ba4 V8 Te4 O32'
_cell_volume   763.03956799
_cell_formula_units_Z   4
loop_
 _symmetry_equiv_pos_site_id
 _symmetry_equiv_pos_as_xyz
  1  'x, y, z'
loop_
 _atom_site_type_symbol
 _atom_site_label
 _atom_site_symmetry_multiplicity
 _atom_site_fract_x
 _atom_site_fract_y
 _atom_site_fract_z
 _atom_site_occupancy
  Ba  Ba0  1  0.687125  0.408210  0.163473  1
  Ba  Ba1  1  0.312875  0.591790  0.836527  1
  Ba  Ba2  1  0.812875  0.908210  0.663473  1
  Ba  Ba3  1  0.187125  0.091790  0.336527  1
  V  V4  1  0.158573  0.081892  0.086563  1
  V  V5  1  0.847902  0.343766  0.862502  1
  V  V6  1  0.658573  0.418108  0.413437  1
  V  V7  1  0.841427  0.918108  0.913437  1
  V  V8  1  0.341427  0.581892  0.586563  1
  V  V9  1  0.152098  0.656234  0.137498  1
  V  V10  1  0.652098  0.843766  0.362502  1
  V  V11  1  0.347902  0.156234  0.637498  1
  Te  Te12  1  0.836717  0.307770  0.591280  1
  Te  Te13  1  0.336717  0.192230  0.908720  1
  Te  Te14  1  0.663283  0.807770  0.091280  1
  Te  Te15  1  0.163283  0.692230  0.408720  1
  O  O16  1  0.884624  0.298049  0.454678  1
  O  O17  1  0.364023  0.001954  0.139259  1
  O  O18  1  0.100099  0.163893  0.558929  1
  O  O19  1  0.991313  0.807034  0.819647  1
  O  O20  1  0.119031  0.358278  0.934601  1
  O  O21  1  0.134095  0.802665  0.236201  1
  O  O22  1  0.635977  0.998046  0.860741  1
  O  O23  1  0.619031  0.141722  0.565399  1
  O  O24  1  0.827459  0.488531  0.824287  1
  O  O25  1  0.634095  0.697335  0.263799  1
  O  O26  1  0.508687  0.307034  0.319647  1
  O  O27  1  0.380969  0.858278  0.434601  1
  O  O28  1  0.600099  0.336107  0.941071  1
  O  O29  1  0.615376  0.798049  0.954678  1
  O  O30  1  0.115376  0.701951  0.545322  1
  O  O31  1  0.327459  0.011469  0.675713  1
  O  O32  1  0.672541  0.988531  0.324287  1
  O  O33  1  0.399901  0.663893  0.058929  1
  O  O34  1  0.365905  0.302665  0.736201  1
  O  O35  1  0.549537  0.422693  0.546962  1
  O  O36  1  0.950463  0.922693  0.046962  1
  O  O37  1  0.450463  0.577307  0.453038  1
  O  O38  1  0.864023  0.498046  0.360741  1
  O  O39  1  0.491313  0.692966  0.680353  1
  O  O40  1  0.172541  0.511469  0.175713  1
  O  O41  1  0.049537  0.077307  0.953038  1
  O  O42  1  0.880969  0.641722  0.065399  1
  O  O43  1  0.865905  0.197335  0.763799  1
  O  O44  1  0.008687  0.192966  0.180353  1
  O  O45  1  0.899901  0.836107  0.441071  1
  O  O46  1  0.384624  0.201951  0.045322  1
  O  O47  1  0.135977  0.501954  0.639259  1
