# generated using pymatgen
data_FeH9C3N7O2
_symmetry_space_group_name_H-M   'P 1'
_cell_length_a   6.49034598
_cell_length_b   10.56335050
_cell_length_c   14.13873048
_cell_angle_alpha   90.00000000
_cell_angle_beta   90.00000000
_cell_angle_gamma   94.87146356
_symmetry_Int_Tables_number   1
_chemical_formula_structural   FeH9C3N7O2
_chemical_formula_sum   'Fe4 H36 C12 N28 O8'
_cell_volume   965.84696393
_cell_formula_units_Z   4
loop_
 _symmetry_equiv_pos_site_id
 _symmetry_equiv_pos_as_xyz
  1  'x, y, z'
loop_
 _atom_site_type_symbol
 _atom_site_label
 _atom_site_symmetry_multiplicity
 _atom_site_fract_x
 _atom_site_fract_y
 _atom_site_fract_z
 _atom_site_occupancy
  Fe  Fe0  1  0.027244  0.750598  0.249046  1
  Fe  Fe1  1  0.472756  0.249402  0.749046  1
  Fe  Fe2  1  0.972756  0.249402  0.750954  1
  Fe  Fe3  1  0.527244  0.750598  0.250954  1
  O  O4  1  0.953246  0.750651  0.399842  1
  O  O5  1  0.546754  0.249349  0.899842  1
  O  O6  1  0.046754  0.249349  0.600158  1
  O  O7  1  0.453246  0.750651  0.100158  1
  O  O8  1  0.602774  0.754820  0.400518  1
  O  O9  1  0.897226  0.245180  0.900518  1
  O  O10  1  0.397226  0.245180  0.599482  1
  O  O11  1  0.102774  0.754820  0.099482  1
  N  N12  1  0.256766  0.612856  0.271751  1
  N  N13  1  0.243234  0.387144  0.771751  1
  N  N14  1  0.743234  0.387144  0.728249  1
  N  N15  1  0.756766  0.612856  0.228249  1
  N  N16  1  0.240972  0.507328  0.304519  1
  N  N17  1  0.259028  0.492672  0.804519  1
  N  N18  1  0.759028  0.492672  0.695481  1
  N  N19  1  0.740972  0.507328  0.195481  1
  N  N20  1  0.225625  0.404614  0.336057  1
  N  N21  1  0.274375  0.595386  0.836057  1
  N  N22  1  0.774375  0.595386  0.663943  1
  N  N23  1  0.725625  0.404614  0.163943  1
  N  N24  1  0.296730  0.885762  0.278851  1
  N  N25  1  0.203270  0.114238  0.778851  1
  N  N26  1  0.703270  0.114238  0.721149  1
  N  N27  1  0.796730  0.885762  0.221149  1
  N  N28  1  0.305163  0.965444  0.340134  1
  N  N29  1  0.194837  0.034556  0.840134  1
  N  N30  1  0.694837  0.034556  0.659866  1
  N  N31  1  0.805163  0.965444  0.159866  1
  N  N32  1  0.313282  0.042503  0.399519  1
  N  N33  1  0.186718  0.957497  0.899519  1
  N  N34  1  0.686718  0.957497  0.600481  1
  N  N35  1  0.813282  0.042503  0.100481  1
  N  N36  1  0.261286  0.761348  0.537228  1
  N  N37  1  0.238714  0.238652  0.037228  1
  N  N38  1  0.738714  0.238652  0.462772  1
  N  N39  1  0.761286  0.761348  0.962772  1
  H  H40  1  0.148703  0.762342  0.483093  1
  H  H41  1  0.351297  0.237658  0.983093  1
  H  H42  1  0.851297  0.237658  0.516907  1
  H  H43  1  0.648703  0.762342  0.016907  1
  H  H44  1  0.399655  0.796726  0.506679  1
  H  H45  1  0.100345  0.203273  0.006679  1
  H  H46  1  0.600345  0.203273  0.493321  1
  H  H47  1  0.899655  0.796726  0.993321  1
  C  C48  1  0.776975  0.750326  0.440103  1
  C  C49  1  0.723025  0.249674  0.940103  1
  C  C50  1  0.223025  0.249674  0.559897  1
  C  C51  1  0.276975  0.750326  0.059897  1
  H  H52  1  0.776864  0.745398  0.518269  1
  H  H53  1  0.723136  0.254602  0.018269  1
  H  H54  1  0.223136  0.254602  0.481731  1
  H  H55  1  0.276864  0.745398  0.981731  1
  C  C56  1  0.202544  0.842405  0.617415  1
  C  C57  1  0.297456  0.157595  0.117415  1
  C  C58  1  0.797456  0.157595  0.382585  1
  C  C59  1  0.702544  0.842405  0.882585  1
  H  H60  1  0.048863  0.806412  0.642427  1
  H  H61  1  0.451137  0.193588  0.142427  1
  H  H62  1  0.951137  0.193588  0.357573  1
  H  H63  1  0.548863  0.806412  0.857573  1
  H  H64  1  0.200747  0.940441  0.592722  1
  H  H65  1  0.299253  0.059559  0.092722  1
  H  H66  1  0.799253  0.059559  0.407278  1
  H  H67  1  0.700747  0.940441  0.907278  1
  H  H68  1  0.315995  0.837325  0.674251  1
  H  H69  1  0.184005  0.162675  0.174251  1
  H  H70  1  0.684005  0.162675  0.325749  1
  H  H71  1  0.815995  0.837325  0.825749  1
  C  C72  1  0.279970  0.626618  0.564771  1
  C  C73  1  0.220030  0.373382  0.064771  1
  C  C74  1  0.720030  0.373382  0.435229  1
  C  C75  1  0.779970  0.626618  0.935229  1
  H  H76  1  0.403423  0.623277  0.617341  1
  H  H77  1  0.096576  0.376723  0.117341  1
  H  H78  1  0.596576  0.376723  0.382659  1
  H  H79  1  0.903424  0.623277  0.882659  1
  H  H80  1  0.317760  0.573353  0.501559  1
  H  H81  1  0.182240  0.426647  0.001559  1
  H  H82  1  0.682240  0.426647  0.498441  1
  H  H83  1  0.817760  0.573353  0.998441  1
  H  H84  1  0.131895  0.587960  0.594399  1
  H  H85  1  0.368105  0.412040  0.094399  1
  H  H86  1  0.868105  0.412040  0.405601  1
  H  H87  1  0.631895  0.587960  0.905601  1
