# generated using pymatgen
data_FePH4NO4F
_symmetry_space_group_name_H-M   'P 1'
_cell_length_a   6.51481530
_cell_length_b   10.83446899
_cell_length_c   13.22581328
_cell_angle_alpha   90.00000000
_cell_angle_beta   90.00000000
_cell_angle_gamma   90.00000000
_symmetry_Int_Tables_number   1
_chemical_formula_structural   FePH4NO4F
_chemical_formula_sum   'Fe8 P8 H32 N8 O32 F8'
_cell_volume   933.53826846
_cell_formula_units_Z   8
loop_
 _symmetry_equiv_pos_site_id
 _symmetry_equiv_pos_as_xyz
  1  'x, y, z'
loop_
 _atom_site_type_symbol
 _atom_site_label
 _atom_site_symmetry_multiplicity
 _atom_site_fract_x
 _atom_site_fract_y
 _atom_site_fract_z
 _atom_site_occupancy
  Fe  Fe0  1  0.489093  0.002340  0.387776  1
  Fe  Fe1  1  0.510907  0.502340  0.612224  1
  Fe  Fe2  1  0.010907  0.002340  0.887776  1
  Fe  Fe3  1  0.989093  0.502340  0.112224  1
  Fe  Fe4  1  0.253793  0.252401  0.247190  1
  Fe  Fe5  1  0.746207  0.752401  0.752810  1
  Fe  Fe6  1  0.246207  0.252401  0.747190  1
  Fe  Fe7  1  0.753793  0.752401  0.252810  1
  P  P8  1  0.331568  0.250240  0.502403  1
  P  P9  1  0.668432  0.750240  0.497597  1
  P  P10  1  0.168432  0.250240  0.002403  1
  P  P11  1  0.831568  0.750240  0.997597  1
  P  P12  1  0.500570  0.505344  0.180779  1
  P  P13  1  0.499430  0.005344  0.819221  1
  P  P14  1  -0.000570  0.505344  0.680779  1
  P  P15  1  0.000570  0.005344  0.319221  1
  H  H16  1  0.941564  0.317830  0.397150  1
  H  H17  1  0.058436  0.817830  0.602850  1
  H  H18  1  0.558436  0.317830  0.897150  1
  H  H19  1  0.441564  0.817830  0.102850  1
  H  H20  1  0.756435  0.214528  0.385311  1
  H  H21  1  0.243565  0.714528  0.614689  1
  H  H22  1  0.743565  0.214528  0.885311  1
  H  H23  1  0.256435  0.714528  0.114689  1
  H  H24  1  0.728198  0.347901  0.323680  1
  H  H25  1  0.271802  0.847901  0.676320  1
  H  H26  1  0.771802  0.347901  0.823680  1
  H  H27  1  0.228198  0.847901  0.176320  1
  H  H28  1  0.700363  0.343980  0.449520  1
  H  H29  1  0.299637  0.843980  0.550480  1
  H  H30  1  0.799637  0.343980  0.949520  1
  H  H31  1  0.200363  0.843980  0.050480  1
  H  H32  1  0.652542  0.988595  0.142139  1
  H  H33  1  0.347458  0.488596  0.857861  1
  H  H34  1  0.847458  0.988595  0.642139  1
  H  H35  1  0.152542  0.488596  0.357861  1
  H  H36  1  0.546886  0.125843  0.110477  1
  H  H37  1  0.453114  0.625843  0.889523  1
  H  H38  1  0.953114  0.125843  0.610477  1
  H  H39  1  0.046886  0.625843  0.389523  1
  H  H40  1  0.670003  0.042075  0.020915  1
  H  H41  1  0.329997  0.542075  0.979085  1
  H  H42  1  0.829997  0.042075  0.520915  1
  H  H43  1  0.170003  0.542075  0.479085  1
  H  H44  1  0.806406  0.106440  0.115140  1
  H  H45  1  0.193594  0.606440  0.884860  1
  H  H46  1  0.693594  0.106440  0.615140  1
  H  H47  1  0.306406  0.606440  0.384860  1
  N  N48  1  0.784212  0.308366  0.389197  1
  N  N49  1  0.215788  0.808366  0.610803  1
  N  N50  1  0.715788  0.308366  0.889197  1
  N  N51  1  0.284212  0.808366  0.110803  1
  N  N52  1  0.668026  0.065880  0.097621  1
  N  N53  1  0.331974  0.565880  0.902379  1
  N  N54  1  0.831974  0.065880  0.597621  1
  N  N55  1  0.168026  0.565880  0.402379  1
  O  O56  1  0.474290  0.136868  0.488174  1
  O  O57  1  0.525710  0.636868  0.511826  1
  O  O58  1  0.025710  0.136868  0.988174  1
  O  O59  1  0.974290  0.636868  0.011826  1
  O  O60  1  0.474776  0.363671  0.520723  1
  O  O61  1  0.525224  0.863671  0.479277  1
  O  O62  1  0.025224  0.363671  0.020723  1
  O  O63  1  0.974776  0.863671  0.979277  1
  O  O64  1  0.204879  0.275274  0.405223  1
  O  O65  1  0.795121  0.775274  0.594777  1
  O  O66  1  0.295121  0.275274  0.905223  1
  O  O67  1  0.704879  0.775274  0.094777  1
  O  O68  1  0.191702  0.230662  0.595904  1
  O  O69  1  0.808298  0.730662  0.404096  1
  O  O70  1  0.308298  0.230662  0.095904  1
  O  O71  1  0.691702  0.730662  0.904096  1
  O  O72  1  0.309157  0.532540  0.112804  1
  O  O73  1  0.690843  0.032540  0.887196  1
  O  O74  1  0.190843  0.532540  0.612804  1
  O  O75  1  0.809157  0.032540  0.387196  1
  O  O76  1  0.689135  0.480109  0.112375  1
  O  O77  1  0.310865  0.980109  0.887625  1
  O  O78  1  0.810865  0.480109  0.612375  1
  O  O79  1  0.189135  0.980109  0.387625  1
  O  O80  1  0.542384  0.619222  0.249711  1
  O  O81  1  0.457616  0.119222  0.750289  1
  O  O82  1  0.957616  0.619222  0.749711  1
  O  O83  1  0.042384  0.119222  0.250289  1
  O  O84  1  0.460095  0.391156  0.248963  1
  O  O85  1  0.539905  0.891156  0.751037  1
  O  O86  1  0.039905  0.391156  0.748963  1
  O  O87  1  0.960095  0.891156  0.251037  1
  F  F88  1  0.476590  0.133567  0.277073  1
  F  F89  1  0.523410  0.633567  0.722927  1
  F  F90  1  0.023410  0.133567  0.777073  1
  F  F91  1  0.976590  0.633567  0.222927  1
  F  F92  1  0.036946  0.382567  0.230894  1
  F  F93  1  0.963054  0.882567  0.769106  1
  F  F94  1  0.463054  0.382567  0.730894  1
  F  F95  1  0.536946  0.882567  0.269106  1
