# generated using pymatgen
data_ZnHgC4(SN)4
_symmetry_space_group_name_H-M   'P 1'
_cell_length_a   4.75438656
_cell_length_b   8.31875522
_cell_length_c   8.31875483
_cell_angle_alpha   85.31597596
_cell_angle_beta   73.39553253
_cell_angle_gamma   73.39553078
_symmetry_Int_Tables_number   1
_chemical_formula_structural   ZnHgC4(SN)4
_chemical_formula_sum   'Zn1 Hg1 C4 S4 N4'
_cell_volume   302.14429681
_cell_formula_units_Z   1
loop_
 _symmetry_equiv_pos_site_id
 _symmetry_equiv_pos_as_xyz
  1  'x, y, z'
loop_
 _atom_site_type_symbol
 _atom_site_label
 _atom_site_symmetry_multiplicity
 _atom_site_fract_x
 _atom_site_fract_y
 _atom_site_fract_z
 _atom_site_occupancy
  Hg  Hg0  1  0.000000  0.000000  0.000000  1
  Zn  Zn1  1  0.750000  0.500000  0.500000  1
  C  C2  1  0.617572  0.201746  0.352497  1
  C  C3  1  0.029931  0.352497  0.798254  1
  C  C4  1  0.180682  0.647503  0.201746  1
  C  C5  1  0.171816  0.798254  0.647503  1
  N  N6  1  0.656587  0.315365  0.410310  1
  N  N7  1  0.933103  0.410310  0.684635  1
  N  N8  1  0.028048  0.589690  0.315365  1
  N  N9  1  0.382261  0.684635  0.589690  1
  S  S10  1  0.553546  0.043536  0.277738  1
  S  S11  1  0.168717  0.277738  0.956464  1
  S  S12  1  0.402918  0.722262  0.043536  1
  S  S13  1  0.874820  0.956464  0.722262  1
