# generated using pymatgen
data_UTiNb2O10
_symmetry_space_group_name_H-M   'P 1'
_cell_length_a   7.30430713
_cell_length_b   7.28526174
_cell_length_c   9.38300348
_cell_angle_alpha   78.74802344
_cell_angle_beta   67.09335536
_cell_angle_gamma   59.91347987
_symmetry_Int_Tables_number   1
_chemical_formula_structural   UTiNb2O10
_chemical_formula_sum   'U2 Ti2 Nb4 O20'
_cell_volume   397.96343532
_cell_formula_units_Z   2
loop_
 _symmetry_equiv_pos_site_id
 _symmetry_equiv_pos_as_xyz
  1  'x, y, z'
loop_
 _atom_site_type_symbol
 _atom_site_label
 _atom_site_symmetry_multiplicity
 _atom_site_fract_x
 _atom_site_fract_y
 _atom_site_fract_z
 _atom_site_occupancy
  U  U0  1  0.875000  0.250000  0.250000  1
  U  U1  1  0.125000  0.750000  0.750000  1
  Ti  Ti2  1  0.375000  0.250000  0.250000  1
  Ti  Ti3  1  0.625000  0.750000  0.750000  1
  Nb  Nb4  1  0.595582  0.250000  0.808836  1
  Nb  Nb5  1  0.845582  0.750000  0.308836  1
  Nb  Nb6  1  0.154418  0.250000  0.691164  1
  Nb  Nb7  1  0.404418  0.750000  0.191164  1
  O  O8  1  0.921636  0.156728  0.750000  1
  O  O9  1  0.671636  0.656728  0.250000  1
  O  O10  1  0.674037  0.047818  0.252656  1
  O  O11  1  0.020562  0.750000  0.958875  1
  O  O12  1  0.525488  0.547818  0.752656  1
  O  O13  1  0.926694  0.547818  0.747344  1
  O  O14  1  0.328364  0.343272  0.750000  1
  O  O15  1  0.073306  0.452182  0.252656  1
  O  O16  1  0.078364  0.843272  0.250000  1
  O  O17  1  0.721855  0.952182  0.752656  1
  O  O18  1  0.474512  0.452182  0.247344  1
  O  O19  1  0.490721  0.250000  0.018559  1
  O  O20  1  0.259279  0.250000  0.481441  1
  O  O21  1  0.770562  0.250000  0.458875  1
  O  O22  1  0.229438  0.750000  0.541125  1
  O  O23  1  0.509279  0.750000  0.981441  1
  O  O24  1  0.979438  0.250000  0.041125  1
  O  O25  1  0.740721  0.750000  0.518559  1
  O  O26  1  0.278145  0.047818  0.247344  1
  O  O27  1  0.325963  0.952182  0.747344  1
