# generated using pymatgen
data_La3SiPd5
_symmetry_space_group_name_H-M   'P 1'
_cell_length_a   7.56618816
_cell_length_b   7.70423755
_cell_length_c   8.53270817
_cell_angle_alpha   116.83696233
_cell_angle_beta   116.31870172
_cell_angle_gamma   89.99999737
_symmetry_Int_Tables_number   1
_chemical_formula_structural   La3SiPd5
_chemical_formula_sum   'La6 Si2 Pd10'
_cell_volume   385.15116327
_cell_formula_units_Z   2
loop_
 _symmetry_equiv_pos_site_id
 _symmetry_equiv_pos_as_xyz
  1  'x, y, z'
loop_
 _atom_site_type_symbol
 _atom_site_label
 _atom_site_symmetry_multiplicity
 _atom_site_fract_x
 _atom_site_fract_y
 _atom_site_fract_z
 _atom_site_occupancy
  La  La0  1  0.548757  0.778592  0.597514  1
  La  La1  1  0.951243  0.181078  0.402486  1
  La  La2  1  0.451243  0.221408  0.402486  1
  La  La3  1  0.750000  0.614741  1.000000  1
  La  La4  1  0.048757  0.818922  0.597514  1
  La  La5  1  0.250000  0.385259  0.000000  1
  Si  Si6  1  0.250000  0.790325  0.000000  1
  Si  Si7  1  0.750000  0.209675  1.000000  1
  Pd  Pd8  1  0.088961  0.453999  0.282010  1
  Pd  Pd9  1  0.806951  0.171989  0.717990  1
  Pd  Pd10  1  0.588961  0.828011  0.282010  1
  Pd  Pd11  1  0.693049  0.453999  0.282010  1
  Pd  Pd12  1  0.911039  0.546001  0.717990  1
  Pd  Pd13  1  0.193050  0.828011  0.282010  1
  Pd  Pd14  1  0.411039  0.171989  0.717990  1
  Pd  Pd15  1  0.306951  0.546001  0.717990  1
  Pd  Pd16  1  0.500000  0.000000  0.000000  1
  Pd  Pd17  1  0.000000  0.000000  0.000000  1
