# generated using pymatgen
data_Cd(GaO2)2
_symmetry_space_group_name_H-M   'P 1'
_cell_length_a   6.16964502
_cell_length_b   6.16964525
_cell_length_c   24.85018561
_cell_angle_alpha   60.22817083
_cell_angle_beta   60.22816955
_cell_angle_gamma   60.00000163
_symmetry_Int_Tables_number   1
_chemical_formula_structural   Cd(GaO2)2
_chemical_formula_sum   'Cd8 Ga16 O32'
_cell_volume   671.15716027
_cell_formula_units_Z   8
loop_
 _symmetry_equiv_pos_site_id
 _symmetry_equiv_pos_as_xyz
  1  'x, y, z'
loop_
 _atom_site_type_symbol
 _atom_site_label
 _atom_site_symmetry_multiplicity
 _atom_site_fract_x
 _atom_site_fract_y
 _atom_site_fract_z
 _atom_site_occupancy
  Cd  Cd0  1  0.247786  0.247786  0.064161  1
  Cd  Cd1  1  0.246999  0.246999  0.314751  1
  Cd  Cd2  1  0.004345  0.004345  0.496742  1
  Cd  Cd3  1  0.628416  0.628416  0.028688  1
  Cd  Cd4  1  0.247213  0.247213  0.564590  1
  Cd  Cd5  1  0.997386  0.997386  0.751960  1
  Cd  Cd6  1  0.621546  0.621546  0.283841  1
  Cd  Cd7  1  0.250646  0.250646  0.812016  1
  Ga  Ga8  1  0.004024  0.004024  0.996982  1
  Ga  Ga9  1  0.007363  0.007363  0.244478  1
  Ga  Ga10  1  0.134545  0.620505  0.156111  1
  Ga  Ga11  1  0.620505  0.134545  0.156111  1
  Ga  Ga12  1  0.126303  0.618623  0.409113  1
  Ga  Ga13  1  0.620505  0.620505  0.156111  1
  Ga  Ga14  1  0.618623  0.126303  0.409113  1
  Ga  Ga15  1  0.126648  0.625557  0.655560  1
  Ga  Ga16  1  0.618623  0.618623  0.409113  1
  Ga  Ga17  1  0.624424  0.624424  0.531682  1
  Ga  Ga18  1  0.625557  0.126648  0.655560  1
  Ga  Ga19  1  0.135952  0.623502  0.904261  1
  Ga  Ga20  1  0.625557  0.625557  0.655560  1
  Ga  Ga21  1  0.623502  0.135952  0.904261  1
  Ga  Ga22  1  0.628504  0.628504  0.778622  1
  Ga  Ga23  1  0.623502  0.623502  0.904261  1
  O  O24  1  0.375624  0.375624  0.105846  1
  O  O25  1  0.388105  0.388105  0.208921  1
  O  O26  1  0.375624  0.825370  0.105846  1
  O  O27  1  0.825370  0.375624  0.105846  1
  O  O28  1  0.366017  0.366017  0.360954  1
  O  O29  1  0.397595  0.883067  0.209068  1
  O  O30  1  0.883067  0.397595  0.209068  1
  O  O31  1  0.386294  0.386294  0.460280  1
  O  O32  1  0.873371  0.873371  0.094972  1
  O  O33  1  0.366017  0.824148  0.360954  1
  O  O34  1  0.824148  0.366017  0.360954  1
  O  O35  1  0.883067  0.883067  0.209068  1
  O  O36  1  0.392243  0.392243  0.599215  1
  O  O37  1  0.435662  0.852663  0.464753  1
  O  O38  1  0.392533  0.392533  0.705600  1
  O  O39  1  0.392243  0.818657  0.599215  1
  O  O40  1  0.852663  0.435662  0.464753  1
  O  O41  1  0.879870  0.879870  0.340097  1
  O  O42  1  0.818657  0.392243  0.599215  1
  O  O43  1  0.852663  0.852663  0.464753  1
  O  O44  1  0.427736  0.858185  0.713974  1
  O  O45  1  0.397840  0.397840  0.845845  1
  O  O46  1  0.858185  0.427736  0.713974  1
  O  O47  1  0.392950  0.392950  0.955288  1
  O  O48  1  0.858111  0.858111  0.606417  1
  O  O49  1  0.397840  0.820940  0.845845  1
  O  O50  1  0.820940  0.397840  0.845845  1
  O  O51  1  0.858185  0.858185  0.713974  1
  O  O52  1  0.384508  0.892070  0.957838  1
  O  O53  1  0.892070  0.384508  0.957838  1
  O  O54  1  0.850262  0.850262  0.862304  1
  O  O55  1  0.892070  0.892070  0.957838  1
