# generated using pymatgen
data_VBiPbO5
_symmetry_space_group_name_H-M   'P 1'
_cell_length_a   5.83139705
_cell_length_b   7.32906619
_cell_length_c   7.31773259
_cell_angle_alpha   106.28982187
_cell_angle_beta   112.39444474
_cell_angle_gamma   97.95068523
_symmetry_Int_Tables_number   1
_chemical_formula_structural   VBiPbO5
_chemical_formula_sum   'V2 Bi2 Pb2 O10'
_cell_volume   266.75239545
_cell_formula_units_Z   2
loop_
 _symmetry_equiv_pos_site_id
 _symmetry_equiv_pos_as_xyz
  1  'x, y, z'
loop_
 _atom_site_type_symbol
 _atom_site_label
 _atom_site_symmetry_multiplicity
 _atom_site_fract_x
 _atom_site_fract_y
 _atom_site_fract_z
 _atom_site_occupancy
  V  V0  1  0.578120  0.378956  0.307401  1
  V  V1  1  0.264822  0.075192  0.606655  1
  Bi  Bi2  1  0.011739  0.981157  0.989385  1
  Bi  Bi3  1  0.833217  0.476163  0.923414  1
  Pb  Pb4  1  0.238760  0.615454  0.643407  1
  Pb  Pb5  1  0.608307  0.842342  0.266799  1
  O  O6  1  0.680091  0.730035  0.934249  1
  O  O7  1  0.053721  0.941840  0.673732  1
  O  O8  1  0.080802  0.028266  0.336373  1
  O  O9  1  0.376736  0.332475  0.754323  1
  O  O10  1  0.164751  0.726580  0.976117  1
  O  O11  1  0.472834  0.124309  0.151375  1
  O  O12  1  0.314220  0.465804  0.276150  1
  O  O13  1  0.521389  0.978126  0.645185  1
  O  O14  1  0.776881  0.522287  0.237594  1
  O  O15  1  0.768913  0.418513  0.575039  1
