# generated using pymatgen
data_CeMo5O8
_symmetry_space_group_name_H-M   'P 1'
_cell_length_a   8.47383767
_cell_length_b   9.37534374
_cell_length_c   10.80646519
_cell_angle_alpha   90.00000000
_cell_angle_beta   110.74720880
_cell_angle_gamma   90.00000000
_symmetry_Int_Tables_number   1
_chemical_formula_structural   CeMo5O8
_chemical_formula_sum   'Ce4 Mo20 O32'
_cell_volume   802.84817237
_cell_formula_units_Z   4
loop_
 _symmetry_equiv_pos_site_id
 _symmetry_equiv_pos_as_xyz
  1  'x, y, z'
loop_
 _atom_site_type_symbol
 _atom_site_label
 _atom_site_symmetry_multiplicity
 _atom_site_fract_x
 _atom_site_fract_y
 _atom_site_fract_z
 _atom_site_occupancy
  Ce  Ce0  1  0.281424  0.522895  0.508374  1
  Ce  Ce1  1  0.718576  0.022895  0.991626  1
  Ce  Ce2  1  0.718576  0.477105  0.491626  1
  Ce  Ce3  1  0.281424  0.977105  0.008374  1
  Mo  Mo4  1  0.603874  0.852556  0.482506  1
  Mo  Mo5  1  0.396126  0.352556  0.017494  1
  Mo  Mo6  1  0.396126  0.147444  0.517494  1
  Mo  Mo7  1  0.603874  0.647444  0.982506  1
  Mo  Mo8  1  0.413357  0.869291  0.695331  1
  Mo  Mo9  1  0.586643  0.369291  0.804669  1
  Mo  Mo10  1  0.586643  0.130709  0.304669  1
  Mo  Mo11  1  0.413357  0.630709  0.195331  1
  Mo  Mo12  1  0.193024  0.875506  0.364425  1
  Mo  Mo13  1  0.806976  0.375506  0.135575  1
  Mo  Mo14  1  0.806976  0.124494  0.635575  1
  Mo  Mo15  1  0.193024  0.624494  0.864425  1
  Mo  Mo16  1  0.796015  0.850483  0.278490  1
  Mo  Mo17  1  0.203985  0.350483  0.221510  1
  Mo  Mo18  1  0.203985  0.149517  0.721510  1
  Mo  Mo19  1  0.796015  0.649517  0.778490  1
  Mo  Mo20  1  0.011804  0.853693  0.588387  1
  Mo  Mo21  1  0.988196  0.353693  0.911613  1
  Mo  Mo22  1  0.988196  0.146307  0.411613  1
  Mo  Mo23  1  0.011804  0.646307  0.088387  1
  O  O24  1  0.410070  0.010455  0.853232  1
  O  O25  1  0.589930  0.510455  0.646768  1
  O  O26  1  0.589930  0.989545  0.146768  1
  O  O27  1  0.410070  0.489545  0.353232  1
  O  O28  1  0.015819  0.753270  0.914523  1
  O  O29  1  0.984181  0.253270  0.585477  1
  O  O30  1  0.984181  0.246730  0.085477  1
  O  O31  1  0.015819  0.746730  0.414523  1
  O  O32  1  0.973233  0.000107  0.254184  1
  O  O33  1  0.026767  0.500107  0.245816  1
  O  O34  1  0.026767  0.999893  0.745816  1
  O  O35  1  0.973233  0.499893  0.754184  1
  O  O36  1  0.393300  0.745570  0.012479  1
  O  O37  1  0.606700  0.245570  0.487521  1
  O  O38  1  0.606700  0.254430  0.987521  1
  O  O39  1  0.393300  0.754430  0.512479  1
  O  O40  1  0.809587  0.774433  0.099694  1
  O  O41  1  0.190413  0.274433  0.400306  1
  O  O42  1  0.190413  0.225567  0.900306  1
  O  O43  1  0.809587  0.725567  0.599694  1
  O  O44  1  0.217375  0.772927  0.198573  1
  O  O45  1  0.782625  0.272927  0.301427  1
  O  O46  1  0.782625  0.227073  0.801427  1
  O  O47  1  0.217375  0.727073  0.698573  1
  O  O48  1  0.631074  0.788240  0.837146  1
  O  O49  1  0.368926  0.288240  0.662854  1
  O  O50  1  0.368926  0.211760  0.162854  1
  O  O51  1  0.631074  0.711760  0.337146  1
  O  O52  1  0.412306  1.001105  0.365456  1
  O  O53  1  0.587694  0.501105  0.134544  1
  O  O54  1  0.587694  -0.001105  0.634544  1
  O  O55  1  0.412306  0.498895  0.865456  1
