# generated using pymatgen
data_C3ICl(OF3)2
_symmetry_space_group_name_H-M   'P 1'
_cell_length_a   8.01462038
_cell_length_b   10.26519777
_cell_length_c   11.32392745
_cell_angle_alpha   101.50058006
_cell_angle_beta   90.00000000
_cell_angle_gamma   90.00000000
_symmetry_Int_Tables_number   1
_chemical_formula_structural   C3ICl(OF3)2
_chemical_formula_sum   'C12 I4 Cl4 O8 F24'
_cell_volume   912.93354989
_cell_formula_units_Z   4
loop_
 _symmetry_equiv_pos_site_id
 _symmetry_equiv_pos_as_xyz
  1  'x, y, z'
loop_
 _atom_site_type_symbol
 _atom_site_label
 _atom_site_symmetry_multiplicity
 _atom_site_fract_x
 _atom_site_fract_y
 _atom_site_fract_z
 _atom_site_occupancy
  C  C0  1  0.350708  0.574210  0.704638  1
  C  C1  1  0.796400  0.344889  0.225480  1
  C  C2  1  0.850708  0.925790  0.295362  1
  C  C3  1  0.203600  0.655111  0.774520  1
  C  C4  1  0.757860  0.934962  0.858332  1
  C  C5  1  0.257860  0.565038  0.141668  1
  C  C6  1  0.242140  0.065038  0.141668  1
  C  C7  1  0.296400  0.155111  0.774520  1
  C  C8  1  0.649292  0.425790  0.295362  1
  C  C9  1  0.149292  0.074210  0.704638  1
  C  C10  1  0.703600  0.844889  0.225480  1
  C  C11  1  0.742140  0.434962  0.858332  1
  I  I12  1  0.319036  0.552817  0.334669  1
  I  I13  1  0.819036  0.947183  0.665331  1
  I  I14  1  0.180964  0.052817  0.334669  1
  I  I15  1  0.680964  0.447183  0.665331  1
  Cl  Cl16  1  0.931749  0.323585  0.594288  1
  Cl  Cl17  1  0.431749  0.176415  0.405712  1
  Cl  Cl18  1  0.568251  0.823585  0.594288  1
  Cl  Cl19  1  0.068251  0.676415  0.405712  1
  O  O20  1  0.028342  0.058158  0.776303  1
  O  O21  1  0.344480  0.534955  0.594521  1
  O  O22  1  0.971658  0.941842  0.223697  1
  O  O23  1  0.471658  0.558158  0.776303  1
  O  O24  1  0.844480  0.965045  0.405479  1
  O  O25  1  0.655520  0.465045  0.405479  1
  O  O26  1  0.528342  0.441842  0.223697  1
  O  O27  1  0.155520  0.034955  0.594521  1
  F  F28  1  0.347884  0.100489  0.868407  1
  F  F29  1  0.762159  0.558299  0.922560  1
  F  F30  1  0.882158  0.365179  0.859951  1
  F  F31  1  0.615835  0.374535  0.903101  1
  F  F32  1  0.652116  0.899511  0.131593  1
  F  F33  1  0.847884  0.399511  0.131593  1
  F  F34  1  0.570253  0.840474  0.298035  1
  F  F35  1  0.115835  0.125465  0.096899  1
  F  F36  1  0.117842  0.634821  0.140049  1
  F  F37  1  0.382158  0.134821  0.140049  1
  F  F38  1  0.747979  0.217608  0.180453  1
  F  F39  1  0.752021  0.717608  0.180453  1
  F  F40  1  0.884165  0.874535  0.903101  1
  F  F41  1  0.247979  0.282392  0.819547  1
  F  F42  1  0.929747  0.340474  0.298035  1
  F  F43  1  0.152116  0.600489  0.868407  1
  F  F44  1  0.429747  0.159526  0.701965  1
  F  F45  1  0.237841  0.441701  0.077440  1
  F  F46  1  0.384165  0.625465  0.096899  1
  F  F47  1  0.737841  0.058299  0.922560  1
  F  F48  1  0.070253  0.659526  0.701965  1
  F  F49  1  0.252021  0.782392  0.819547  1
  F  F50  1  0.262159  0.941701  0.077440  1
  F  F51  1  0.617842  0.865179  0.859951  1
