# generated using pymatgen
data_AlBiSCl4
_symmetry_space_group_name_H-M   'P 1'
_cell_length_a   10.28769688
_cell_length_b   10.28769714
_cell_length_c   10.28769680
_cell_angle_alpha   107.76482081
_cell_angle_beta   107.76482120
_cell_angle_gamma   112.94072993
_symmetry_Int_Tables_number   1
_chemical_formula_structural   AlBiSCl4
_chemical_formula_sum   'Al4 Bi4 S4 Cl16'
_cell_volume   835.85091550
_cell_formula_units_Z   4
loop_
 _symmetry_equiv_pos_site_id
 _symmetry_equiv_pos_as_xyz
  1  'x, y, z'
loop_
 _atom_site_type_symbol
 _atom_site_label
 _atom_site_symmetry_multiplicity
 _atom_site_fract_x
 _atom_site_fract_y
 _atom_site_fract_z
 _atom_site_occupancy
  Al  Al0  1  0.980981  0.710927  0.120274  1
  Al  Al1  1  0.289073  0.409347  0.270054  1
  Al  Al2  1  0.590653  0.860707  0.879726  1
  Al  Al3  1  0.139293  0.019019  0.729946  1
  Bi  Bi4  1  0.927379  0.215291  0.407896  1
  Bi  Bi5  1  0.480517  0.072621  0.287911  1
  Bi  Bi6  1  0.807394  0.519483  0.592104  1
  Bi  Bi7  1  0.784709  0.192606  0.712089  1
  S  S8  1  0.733380  0.318108  0.307071  1
  S  S9  1  0.011037  0.426310  0.692929  1
  S  S10  1  0.681892  0.988963  0.415272  1
  S  S11  1  0.573690  0.266620  0.584728  1
  Cl  Cl12  1  0.435490  0.819180  0.985036  1
  Cl  Cl13  1  0.225172  0.813301  0.304477  1
  Cl  Cl14  1  0.025223  0.767488  0.945129  1
  Cl  Cl15  1  0.549545  0.564510  0.383689  1
  Cl  Cl16  1  0.180820  0.165856  0.616311  1
  Cl  Cl17  1  0.232512  0.177641  0.257734  1
  Cl  Cl18  1  0.822359  0.080094  0.054871  1
  Cl  Cl19  1  0.919906  0.974777  0.742266  1
  Cl  Cl20  1  0.508825  0.920695  0.695523  1
  Cl  Cl21  1  0.186699  0.491175  0.411870  1
  Cl  Cl22  1  0.351632  0.135492  0.946128  1
  Cl  Cl23  1  0.189364  0.405504  0.053872  1
  Cl  Cl24  1  0.079305  0.774828  0.588130  1
  Cl  Cl25  1  0.594496  0.648368  0.783860  1
  Cl  Cl26  1  0.834144  0.450455  0.014964  1
  Cl  Cl27  1  0.864508  0.810636  0.216140  1
