# generated using pymatgen
data_SbI3(BrCl3)2
_symmetry_space_group_name_H-M   'P 1'
_cell_length_a   7.65410787
_cell_length_b   8.02274986
_cell_length_c   8.07151630
_cell_angle_alpha   93.11437004
_cell_angle_beta   87.55108873
_cell_angle_gamma   78.02015235
_symmetry_Int_Tables_number   1
_chemical_formula_structural   SbI3(BrCl3)2
_chemical_formula_sum   'Sb1 I3 Br2 Cl6'
_cell_volume   483.39602652
_cell_formula_units_Z   1
loop_
 _symmetry_equiv_pos_site_id
 _symmetry_equiv_pos_as_xyz
  1  'x, y, z'
loop_
 _atom_site_type_symbol
 _atom_site_label
 _atom_site_symmetry_multiplicity
 _atom_site_fract_x
 _atom_site_fract_y
 _atom_site_fract_z
 _atom_site_occupancy
  Sb  Sb0  1  0.000000  0.500000  0.500000  1
  I  I1  1  0.315785  0.765258  0.840214  1
  I  I2  1  0.000000  0.000000  0.000000  1
  I  I3  1  0.684215  0.234742  0.159786  1
  Br  Br4  1  0.507754  0.754438  0.089424  1
  Br  Br5  1  0.492246  0.245562  0.910576  1
  Cl  Cl6  1  0.861178  0.246457  0.470009  1
  Cl  Cl7  1  0.909085  0.528188  0.787663  1
  Cl  Cl8  1  0.138822  0.753543  0.529991  1
  Cl  Cl9  1  0.277212  0.314321  0.557509  1
  Cl  Cl10  1  0.722788  0.685679  0.442491  1
  Cl  Cl11  1  0.090915  0.471812  0.212337  1
