# generated using pymatgen
data_GdP4H4NO12
_symmetry_space_group_name_H-M   'P 1'
_cell_length_a   9.11267792
_cell_length_b   10.51559910
_cell_length_c   11.00234010
_cell_angle_alpha   106.87556047
_cell_angle_beta   90.00000000
_cell_angle_gamma   90.00000000
_symmetry_Int_Tables_number   1
_chemical_formula_structural   GdP4H4NO12
_chemical_formula_sum   'Gd4 P16 H16 N4 O48'
_cell_volume   1008.90129361
_cell_formula_units_Z   4
loop_
 _symmetry_equiv_pos_site_id
 _symmetry_equiv_pos_as_xyz
  1  'x, y, z'
loop_
 _atom_site_type_symbol
 _atom_site_label
 _atom_site_symmetry_multiplicity
 _atom_site_fract_x
 _atom_site_fract_y
 _atom_site_fract_z
 _atom_site_occupancy
  Gd  Gd0  1  0.275669  0.001690  0.187594  1
  Gd  Gd1  1  0.775669  0.498310  0.312406  1
  Gd  Gd2  1  0.724331  0.998310  0.812406  1
  Gd  Gd3  1  0.224331  0.501690  0.687594  1
  P  P4  1  0.411205  0.354430  0.242622  1
  P  P5  1  0.911205  0.145570  0.257378  1
  P  P6  1  0.174185  0.540949  0.360131  1
  P  P7  1  0.605788  0.321572  0.019961  1
  P  P8  1  0.825815  0.459051  0.639869  1
  P  P9  1  0.088795  0.854430  0.742622  1
  P  P10  1  0.394212  0.678428  0.980039  1
  P  P11  1  0.972426  0.250087  0.728228  1
  P  P12  1  0.894212  0.821572  0.519961  1
  P  P13  1  0.105788  0.178428  0.480039  1
  P  P14  1  0.472426  0.249913  0.771772  1
  P  P15  1  0.325815  0.040949  0.860131  1
  P  P16  1  0.527574  0.750087  0.228228  1
  P  P17  1  0.027574  0.749913  0.271772  1
  P  P18  1  0.588795  0.645570  0.757378  1
  P  P19  1  0.674185  0.959051  0.139869  1
  H  H20  1  0.930751  0.635824  0.863445  1
  H  H21  1  0.465578  0.228353  0.483424  1
  H  H22  1  0.106898  0.353192  0.979793  1
  H  H23  1  0.893102  0.646808  0.020207  1
  H  H24  1  0.430751  0.864176  0.636555  1
  H  H25  1  0.534422  0.771647  0.516576  1
  H  H26  1  0.635880  0.278842  0.463752  1
  H  H27  1  0.364120  0.721158  0.536248  1
  H  H28  1  0.069249  0.364176  0.136555  1
  H  H29  1  0.393102  0.853192  0.479793  1
  H  H30  1  0.965578  0.271647  0.016576  1
  H  H31  1  0.135880  0.221158  0.036248  1
  H  H32  1  0.569249  0.135824  0.363445  1
  H  H33  1  0.034422  0.728353  0.983424  1
  H  H34  1  0.864120  0.778842  0.963752  1
  H  H35  1  0.606898  0.146808  0.520207  1
  N  N36  1  0.929549  0.695719  0.956773  1
  N  N37  1  0.570451  0.195719  0.456773  1
  N  N38  1  0.070451  0.304281  0.043227  1
  N  N39  1  0.429549  0.804281  0.543227  1
  O  O40  1  0.096904  0.828307  0.193257  1
  O  O41  1  0.342091  0.184192  0.834589  1
  O  O42  1  0.840296  0.680767  0.480254  1
  O  O43  1  0.673332  0.761748  0.741633  1
  O  O44  1  0.417593  0.855918  0.291378  1
  O  O45  1  0.764390  0.432149  0.508175  1
  O  O46  1  0.157909  0.684192  0.334589  1
  O  O47  1  0.903096  0.171693  0.806743  1
  O  O48  1  0.799094  0.022056  0.244173  1
  O  O49  1  0.264390  0.067851  0.991825  1
  O  O50  1  0.952079  0.170908  0.404718  1
  O  O51  1  0.708728  0.428947  0.091118  1
  O  O52  1  0.596904  0.671693  0.306743  1
  O  O53  1  0.826668  0.261748  0.241633  1
  O  O54  1  0.159704  0.319233  0.519746  1
  O  O55  1  0.340296  0.819233  0.019746  1
  O  O56  1  0.452079  0.329092  0.095282  1
  O  O57  1  0.657909  0.815808  0.165411  1
  O  O58  1  0.173332  0.738252  0.758367  1
  O  O59  1  0.963042  0.540057  0.679905  1
  O  O60  1  0.700906  0.522056  0.744173  1
  O  O61  1  0.326668  0.238252  0.258367  1
  O  O62  1  0.582407  0.144082  0.708622  1
  O  O63  1  0.200906  0.977944  0.755827  1
  O  O64  1  0.047921  0.829092  0.595282  1
  O  O65  1  0.842091  0.315808  0.665411  1
  O  O66  1  0.043784  0.098750  0.175805  1
  O  O67  1  0.659704  0.180767  0.980254  1
  O  O68  1  0.044373  0.143691  0.604676  1
  O  O69  1  0.547921  0.670908  0.904718  1
  O  O70  1  0.456216  0.598750  0.675805  1
  O  O71  1  0.463042  0.959943  0.820095  1
  O  O72  1  0.291272  0.571053  0.908882  1
  O  O73  1  0.544373  0.356309  0.895324  1
  O  O74  1  0.082407  0.355918  0.791378  1
  O  O75  1  0.299094  0.477944  0.255827  1
  O  O76  1  0.791272  0.928947  0.591118  1
  O  O77  1  0.917593  0.644082  0.208622  1
  O  O78  1  0.536958  0.040057  0.179905  1
  O  O79  1  0.543784  0.401250  0.324195  1
  O  O80  1  0.956216  0.901250  0.824195  1
  O  O81  1  0.208728  0.071053  0.408882  1
  O  O82  1  0.403096  0.328307  0.693257  1
  O  O83  1  0.955627  0.856309  0.395324  1
  O  O84  1  0.735610  0.932149  0.008175  1
  O  O85  1  0.036958  0.459943  0.320095  1
  O  O86  1  0.455627  0.643691  0.104676  1
  O  O87  1  0.235610  0.567851  0.491825  1
