# generated using pymatgen
data_H5C2ClO
_symmetry_space_group_name_H-M   'P 1'
_cell_length_a   6.46090880
_cell_length_b   8.37181879
_cell_length_c   8.53293879
_cell_angle_alpha   90.00000000
_cell_angle_beta   110.07266771
_cell_angle_gamma   90.00000000
_symmetry_Int_Tables_number   1
_chemical_formula_structural   H5C2ClO
_chemical_formula_sum   'H20 C8 Cl4 O4'
_cell_volume   433.50788639
_cell_formula_units_Z   4
loop_
 _symmetry_equiv_pos_site_id
 _symmetry_equiv_pos_as_xyz
  1  'x, y, z'
loop_
 _atom_site_type_symbol
 _atom_site_label
 _atom_site_symmetry_multiplicity
 _atom_site_fract_x
 _atom_site_fract_y
 _atom_site_fract_z
 _atom_site_occupancy
  H  H0  1  0.471807  0.842612  0.066852  1
  H  H1  1  0.397767  0.477315  0.347630  1
  H  H2  1  0.306620  0.295038  0.820602  1
  H  H3  1  0.971807  0.657388  0.566852  1
  H  H4  1  0.806620  0.204962  0.320602  1
  H  H5  1  0.102233  0.977315  0.152370  1
  H  H6  1  0.693380  0.704962  0.179398  1
  H  H7  1  0.028193  0.342612  0.433148  1
  H  H8  1  0.051300  0.774271  0.197168  1
  H  H9  1  0.551300  0.725729  0.697168  1
  H  H10  1  0.448700  0.274271  0.302832  1
  H  H11  1  0.193380  0.795038  0.679398  1
  H  H12  1  0.528193  0.157388  0.933148  1
  H  H13  1  0.048128  0.931987  0.340022  1
  H  H14  1  0.897767  0.022685  0.847630  1
  H  H15  1  0.951872  0.068013  0.659978  1
  H  H16  1  0.602233  0.522685  0.652370  1
  H  H17  1  0.548128  0.568013  0.840022  1
  H  H18  1  0.948700  0.225729  0.802832  1
  H  H19  1  0.451872  0.431987  0.159978  1
  C  C20  1  0.009087  0.900276  0.207806  1
  C  C21  1  0.862617  0.329733  0.341009  1
  C  C22  1  0.362617  0.170267  0.841009  1
  C  C23  1  0.637383  0.829733  0.158991  1
  C  C24  1  0.509087  0.599724  0.707806  1
  C  C25  1  0.990913  0.099724  0.792194  1
  C  C26  1  0.137383  0.670267  0.658991  1
  C  C27  1  0.490913  0.400276  0.292194  1
  Cl  Cl28  1  0.106798  0.612267  0.860906  1
  Cl  Cl29  1  0.606798  0.887733  0.360906  1
  Cl  Cl30  1  0.393202  0.112267  0.639094  1
  Cl  Cl31  1  0.893202  0.387733  0.139094  1
  O  O32  1  0.721036  0.428139  0.384379  1
  O  O33  1  0.278964  0.571861  0.615621  1
  O  O34  1  0.778964  0.928139  0.115621  1
  O  O35  1  0.221036  0.071861  0.884379  1
