# generated using pymatgen
data_MgV2PbO7
_symmetry_space_group_name_H-M   'P 1'
_cell_length_a   6.96238387
_cell_length_b   11.70902064
_cell_length_c   15.27935970
_cell_angle_alpha   90.00000000
_cell_angle_beta   90.00000000
_cell_angle_gamma   97.92785841
_symmetry_Int_Tables_number   1
_chemical_formula_structural   MgV2PbO7
_chemical_formula_sum   'Mg8 V16 Pb8 O56'
_cell_volume   1233.70966374
_cell_formula_units_Z   8
loop_
 _symmetry_equiv_pos_site_id
 _symmetry_equiv_pos_as_xyz
  1  'x, y, z'
loop_
 _atom_site_type_symbol
 _atom_site_label
 _atom_site_symmetry_multiplicity
 _atom_site_fract_x
 _atom_site_fract_y
 _atom_site_fract_z
 _atom_site_occupancy
  Mg  Mg0  1  0.988574  0.239773  0.750922  1
  Mg  Mg1  1  0.624180  0.062800  0.676783  1
  Mg  Mg2  1  0.375820  0.937200  0.323217  1
  Mg  Mg3  1  0.011426  0.260227  0.250922  1
  Mg  Mg4  1  0.988574  0.739773  0.749078  1
  Mg  Mg5  1  0.375820  0.437200  0.176783  1
  Mg  Mg6  1  0.624180  0.562800  0.823217  1
  Mg  Mg7  1  0.011426  0.760227  0.249078  1
  V  V8  1  0.508919  0.230700  0.304162  1
  V  V9  1  0.370776  0.146117  0.493369  1
  V  V10  1  0.843780  0.979796  0.863023  1
  V  V11  1  0.156220  0.520204  0.363023  1
  V  V12  1  0.629224  0.353883  0.993369  1
  V  V13  1  0.888202  0.995344  0.357189  1
  V  V14  1  0.843780  0.479796  0.636977  1
  V  V15  1  0.491081  0.269300  0.804162  1
  V  V16  1  0.508919  0.730700  0.195838  1
  V  V17  1  0.491081  0.769300  0.695838  1
  V  V18  1  0.370776  0.646117  0.006631  1
  V  V19  1  0.156220  0.020204  0.136977  1
  V  V20  1  0.111798  0.004656  0.642811  1
  V  V21  1  0.888202  0.495344  0.142811  1
  V  V22  1  0.111798  0.504656  0.857189  1
  V  V23  1  0.629224  0.853883  0.506631  1
  Pb  Pb24  1  0.659190  0.053776  0.125364  1
  Pb  Pb25  1  0.890261  0.778197  0.018689  1
  Pb  Pb26  1  0.109739  0.221803  0.981311  1
  Pb  Pb27  1  0.340810  0.946224  0.874636  1
  Pb  Pb28  1  0.890261  0.278197  0.481311  1
  Pb  Pb29  1  0.109739  0.721803  0.518689  1
  Pb  Pb30  1  0.659190  0.553776  0.374636  1
  Pb  Pb31  1  0.340810  0.446224  0.625364  1
  O  O32  1  0.299372  0.785213  0.764335  1
  O  O33  1  0.689778  0.967060  0.290996  1
  O  O34  1  0.325134  0.286714  0.249566  1
  O  O35  1  0.062518  0.905734  0.333241  1
  O  O36  1  0.700628  0.214787  0.235665  1
  O  O37  1  0.937482  0.594266  0.833241  1
  O  O38  1  0.266273  0.266444  0.509106  1
  O  O39  1  0.981688  0.638810  0.147238  1
  O  O40  1  0.937482  0.094266  0.666759  1
  O  O41  1  0.299372  0.285213  0.735665  1
  O  O42  1  0.674866  0.213286  0.749566  1
  O  O43  1  0.755826  0.958348  0.968000  1
  O  O44  1  0.325134  0.786714  0.250434  1
  O  O45  1  0.244174  0.041652  0.032000  1
  O  O46  1  0.579127  0.893664  0.620449  1
  O  O47  1  0.351399  0.533758  0.290372  1
  O  O48  1  0.981688  0.138810  0.352762  1
  O  O49  1  0.014054  0.384767  0.355279  1
  O  O50  1  0.674866  0.713286  0.750434  1
  O  O51  1  0.755826  0.458348  0.532000  1
  O  O52  1  0.733727  0.733556  0.490894  1
  O  O53  1  0.648601  0.466242  0.709628  1
  O  O54  1  0.014054  0.884767  0.144721  1
  O  O55  1  0.310222  0.032940  0.709004  1
  O  O56  1  0.398352  0.675443  0.616494  1
  O  O57  1  0.579127  0.393664  0.879551  1
  O  O58  1  0.985946  0.115233  0.855279  1
  O  O59  1  0.420873  0.606336  0.120449  1
  O  O60  1  0.200765  0.528630  0.968994  1
  O  O61  1  0.011664  0.630782  0.346882  1
  O  O62  1  0.988336  0.369218  0.653118  1
  O  O63  1  0.988336  0.869218  0.846882  1
  O  O64  1  0.985946  0.615233  0.644721  1
  O  O65  1  0.601649  0.824557  0.116494  1
  O  O66  1  0.601649  0.324557  0.383506  1
  O  O67  1  0.018312  0.861190  0.647238  1
  O  O68  1  0.799235  0.471370  0.031006  1
  O  O69  1  0.200765  0.028630  0.531006  1
  O  O70  1  0.733727  0.233556  0.009106  1
  O  O71  1  0.244174  0.541652  0.468000  1
  O  O72  1  0.429555  0.351374  0.058701  1
  O  O73  1  0.398352  0.175443  0.883506  1
  O  O74  1  0.420873  0.106336  0.379551  1
  O  O75  1  0.689778  0.467060  0.209004  1
  O  O76  1  0.062518  0.405734  0.166759  1
  O  O77  1  0.018312  0.361190  0.852762  1
  O  O78  1  0.648601  0.966242  0.790372  1
  O  O79  1  0.011664  0.130782  0.153118  1
  O  O80  1  0.799235  0.971370  0.468994  1
  O  O81  1  0.570445  0.148626  0.558701  1
  O  O82  1  0.266273  0.766444  0.990894  1
  O  O83  1  0.700628  0.714787  0.264335  1
  O  O84  1  0.310222  0.532940  0.790996  1
  O  O85  1  0.570445  0.648626  0.941299  1
  O  O86  1  0.351399  0.033758  0.209628  1
  O  O87  1  0.429555  0.851374  0.441299  1
