# generated using pymatgen
data_CdI2
_symmetry_space_group_name_H-M   'P 1'
_cell_length_a   4.33263920
_cell_length_b   4.33263947
_cell_length_c   74.39843608
_cell_angle_alpha   90.00000000
_cell_angle_beta   90.00000000
_cell_angle_gamma   119.99999797
_symmetry_Int_Tables_number   1
_chemical_formula_structural   CdI2
_chemical_formula_sum   'Cd10 I20'
_cell_volume   1209.48231666
_cell_formula_units_Z   10
loop_
 _symmetry_equiv_pos_site_id
 _symmetry_equiv_pos_as_xyz
  1  'x, y, z'
loop_
 _atom_site_type_symbol
 _atom_site_label
 _atom_site_symmetry_multiplicity
 _atom_site_fract_x
 _atom_site_fract_y
 _atom_site_fract_z
 _atom_site_occupancy
  Cd  Cd0  1  0.666667  0.333333  0.225016  1
  Cd  Cd1  1  0.000000  0.000000  0.825015  1
  Cd  Cd2  1  0.666667  0.333333  0.725022  1
  Cd  Cd3  1  0.000000  0.000000  0.924978  1
  Cd  Cd4  1  0.666667  0.333333  0.624961  1
  Cd  Cd5  1  0.000000  0.000000  0.325007  1
  Cd  Cd6  1  0.000000  0.000000  0.524963  1
  Cd  Cd7  1  0.666667  0.333333  0.425002  1
  Cd  Cd8  1  0.000000  0.000000  0.125010  1
  Cd  Cd9  1  0.666667  0.333333  0.025016  1
  I  I10  1  0.000000  0.000000  0.201824  1
  I  I11  1  0.333333  0.666667  0.448198  1
  I  I12  1  0.333333  0.666667  0.348205  1
  I  I13  1  0.666667  0.333333  0.801816  1
  I  I14  1  0.666667  0.333333  0.901785  1
  I  I15  1  0.333333  0.666667  0.948176  1
  I  I16  1  0.000000  0.000000  0.601753  1
  I  I17  1  0.000000  0.000000  0.401808  1
  I  I18  1  0.666667  0.333333  0.101811  1
  I  I19  1  0.333333  0.666667  0.048214  1
  I  I20  1  0.666667  0.333333  0.301810  1
  I  I21  1  0.000000  0.000000  0.001823  1
  I  I22  1  0.333333  0.666667  0.548165  1
  I  I23  1  0.333333  0.666667  0.148211  1
  I  I24  1  0.333333  0.666667  0.248213  1
  I  I25  1  0.000000  0.000000  0.701831  1
  I  I26  1  0.666667  0.333333  0.501764  1
  I  I27  1  0.333333  0.666667  0.848216  1
  I  I28  1  0.333333  0.666667  0.648166  1
  I  I29  1  0.333333  0.666667  0.748220  1
