# generated using pymatgen
data_Ba2NdRuO6
_symmetry_space_group_name_H-M   'P 1'
_cell_length_a   6.08259668
_cell_length_b   6.08259913
_cell_length_c   6.08259643
_cell_angle_alpha   60.00000212
_cell_angle_beta   59.99999937
_cell_angle_gamma   60.00001542
_symmetry_Int_Tables_number   1
_chemical_formula_structural   Ba2NdRuO6
_chemical_formula_sum   'Ba2 Nd1 Ru1 O6'
_cell_volume   159.13007825
_cell_formula_units_Z   1
loop_
 _symmetry_equiv_pos_site_id
 _symmetry_equiv_pos_as_xyz
  1  'x, y, z'
loop_
 _atom_site_type_symbol
 _atom_site_label
 _atom_site_symmetry_multiplicity
 _atom_site_fract_x
 _atom_site_fract_y
 _atom_site_fract_z
 _atom_site_occupancy
  O  O0  1  0.730416  0.269583  0.730417  1
  O  O1  1  0.269584  0.269583  0.730417  1
  Ba  Ba2  1  0.750000  0.750001  0.750000  1
  O  O3  1  0.269583  0.730417  0.730417  1
  O  O4  1  0.730416  0.269584  0.269583  1
  Ba  Ba5  1  0.250001  0.250000  0.249999  1
  O  O6  1  0.730416  0.730416  0.269584  1
  O  O7  1  0.269584  0.730416  0.269584  1
  Ru  Ru8  1  0.500000  0.500000  0.500000  1
  Nd  Nd9  1  0.000000  1.000000  -0.000000  1
