# generated using pymatgen
data_BaZrF6
_symmetry_space_group_name_H-M   'P 1'
_cell_length_a   6.68299419
_cell_length_b   7.49115944
_cell_length_c   9.72083378
_cell_angle_alpha   90.00000000
_cell_angle_beta   90.00000000
_cell_angle_gamma   97.81449001
_symmetry_Int_Tables_number   1
_chemical_formula_structural   BaZrF6
_chemical_formula_sum   'Ba4 Zr4 F24'
_cell_volume   482.13839288
_cell_formula_units_Z   4
loop_
 _symmetry_equiv_pos_site_id
 _symmetry_equiv_pos_as_xyz
  1  'x, y, z'
loop_
 _atom_site_type_symbol
 _atom_site_label
 _atom_site_symmetry_multiplicity
 _atom_site_fract_x
 _atom_site_fract_y
 _atom_site_fract_z
 _atom_site_occupancy
  Ba  Ba0  1  0.773201  0.364109  0.680374  1
  Ba  Ba1  1  0.273201  0.864109  0.819626  1
  Ba  Ba2  1  0.226799  0.635891  0.319626  1
  Ba  Ba3  1  0.726799  0.135891  0.180374  1
  Zr  Zr4  1  0.746506  0.865554  0.535650  1
  Zr  Zr5  1  0.246506  0.365554  0.964350  1
  Zr  Zr6  1  0.253494  0.134446  0.464350  1
  Zr  Zr7  1  0.753494  0.634446  0.035650  1
  F  F8  1  0.069901  0.141042  0.895881  1
  F  F9  1  0.512147  0.529044  0.877021  1
  F  F10  1  0.332053  0.884873  0.531768  1
  F  F11  1  0.569901  0.641042  0.604119  1
  F  F12  1  0.875981  0.710584  0.847963  1
  F  F13  1  0.667947  0.115127  0.468232  1
  F  F14  1  0.149373  0.468827  0.783406  1
  F  F15  1  0.624019  0.789416  0.347963  1
  F  F16  1  0.832053  0.384873  0.968232  1
  F  F17  1  0.947744  0.677560  0.538983  1
  F  F18  1  0.552256  0.822440  0.038983  1
  F  F19  1  0.487853  0.470956  0.122979  1
  F  F20  1  0.350627  0.031173  0.283406  1
  F  F21  1  0.987853  0.970956  0.377021  1
  F  F22  1  0.930099  0.858958  0.104119  1
  F  F23  1  0.850627  0.531173  0.216594  1
  F  F24  1  0.649373  0.968827  0.716594  1
  F  F25  1  0.012147  0.029044  0.622979  1
  F  F26  1  0.447744  0.177560  0.961017  1
  F  F27  1  0.430099  0.358958  0.395881  1
  F  F28  1  0.375981  0.210584  0.652037  1
  F  F29  1  0.052256  0.322440  0.461017  1
  F  F30  1  0.167947  0.615127  0.031768  1
  F  F31  1  0.124019  0.289416  0.152037  1
