# generated using pymatgen
data_NaGe4(PO4)3
_symmetry_space_group_name_H-M   'P 1'
_cell_length_a   9.78453171
_cell_length_b   9.78453161
_cell_length_c   9.78453187
_cell_angle_alpha   59.12625436
_cell_angle_beta   59.12625472
_cell_angle_gamma   59.12625471
_symmetry_Int_Tables_number   1
_chemical_formula_structural   NaGe4(PO4)3
_chemical_formula_sum   'Na2 Ge8 P6 O24'
_cell_volume   649.18508653
_cell_formula_units_Z   2
loop_
 _symmetry_equiv_pos_site_id
 _symmetry_equiv_pos_as_xyz
  1  'x, y, z'
loop_
 _atom_site_type_symbol
 _atom_site_label
 _atom_site_symmetry_multiplicity
 _atom_site_fract_x
 _atom_site_fract_y
 _atom_site_fract_z
 _atom_site_occupancy
  Na  Na0  1  0.215650  0.215650  0.215650  1
  Na  Na1  1  0.715650  0.715650  0.715650  1
  Ge  Ge2  1  0.074905  0.074905  0.074905  1
  Ge  Ge3  1  0.159364  0.630577  0.517039  1
  Ge  Ge4  1  0.659364  0.017039  0.130577  1
  Ge  Ge5  1  0.574905  0.574905  0.574905  1
  Ge  Ge6  1  0.017039  0.130577  0.659364  1
  Ge  Ge7  1  0.630577  0.517039  0.159364  1
  Ge  Ge8  1  0.130577  0.659364  0.017039  1
  Ge  Ge9  1  0.517039  0.159364  0.630577  1
  P  P10  1  0.519483  0.432016  0.973053  1
  P  P11  1  0.973053  0.519483  0.432016  1
  P  P12  1  0.932016  0.019483  0.473053  1
  P  P13  1  0.432016  0.973053  0.519483  1
  P  P14  1  0.473053  0.932016  0.019483  1
  P  P15  1  0.019483  0.473053  0.932016  1
  O  O16  1  0.453375  0.008376  0.336760  1
  O  O17  1  0.955564  0.128791  0.283376  1
  O  O18  1  0.254775  0.084335  0.604053  1
  O  O19  1  0.008376  0.336760  0.453375  1
  O  O20  1  0.754775  0.104053  0.584335  1
  O  O21  1  0.455564  0.783376  0.628791  1
  O  O22  1  0.068441  0.012504  0.517148  1
  O  O23  1  0.836760  0.508376  0.953375  1
  O  O24  1  0.584335  0.754775  0.104053  1
  O  O25  1  0.012504  0.517148  0.068441  1
  O  O26  1  0.508376  0.953375  0.836760  1
  O  O27  1  0.604053  0.254775  0.084335  1
  O  O28  1  0.568441  0.017148  0.512504  1
  O  O29  1  0.084335  0.604053  0.254775  1
  O  O30  1  0.783376  0.628791  0.455564  1
  O  O31  1  0.104053  0.584335  0.754775  1
  O  O32  1  0.336760  0.453375  0.008376  1
  O  O33  1  0.628791  0.455564  0.783376  1
  O  O34  1  0.512504  0.568441  0.017148  1
  O  O35  1  0.128791  0.283376  0.955564  1
  O  O36  1  0.017148  0.512504  0.568441  1
  O  O37  1  0.517148  0.068441  0.012504  1
  O  O38  1  0.283376  0.955564  0.128791  1
  O  O39  1  0.953375  0.836760  0.508376  1
