# generated using pymatgen
data_La10Se14O
_symmetry_space_group_name_H-M   'P 1'
_cell_length_a   15.49724820
_cell_length_b   15.49724783
_cell_length_c   15.49724756
_cell_angle_alpha   93.76412511
_cell_angle_beta   117.85110231
_cell_angle_gamma   117.85110594
_symmetry_Int_Tables_number   1
_chemical_formula_structural   La10Se14O
_chemical_formula_sum   'La40 Se56 O4'
_cell_volume   2710.92788501
_cell_formula_units_Z   4
loop_
 _symmetry_equiv_pos_site_id
 _symmetry_equiv_pos_as_xyz
  1  'x, y, z'
loop_
 _atom_site_type_symbol
 _atom_site_label
 _atom_site_symmetry_multiplicity
 _atom_site_fract_x
 _atom_site_fract_y
 _atom_site_fract_z
 _atom_site_occupancy
  La  La0  1  0.983034  0.241517  0.991517  1
  La  La1  1  0.343398  0.520298  0.917435  1
  La  La2  1  0.250000  0.008483  0.491517  1
  La  La3  1  0.397137  0.979702  0.323100  1
  La  La4  1  0.616331  0.311354  0.685845  1
  La  La5  1  0.383669  0.195024  0.069514  1
  La  La6  1  0.116331  0.185845  0.811354  1
  La  La7  1  0.602863  0.020298  0.676900  1
  La  La8  1  0.156602  0.582565  0.979702  1
  La  La9  1  0.102863  0.425963  0.582565  1
  La  La10  1  0.374490  0.188645  0.804976  1
  La  La11  1  0.843398  0.925963  0.823100  1
  La  La12  1  0.516966  0.508483  0.258483  1
  La  La13  1  0.897137  0.823100  0.479702  1
  La  La14  1  0.116331  0.430486  0.304976  1
  La  La15  1  0.625510  0.314155  0.430486  1
  La  La16  1  0.397137  0.917435  0.074037  1
  La  La17  1  0.883669  0.569514  0.695024  1
  La  La18  1  0.883669  0.814155  0.188645  1
  La  La19  1  0.874490  0.304976  0.688646  1
  La  La20  1  0.156602  0.074037  0.176900  1
  La  La21  1  0.616331  0.804976  0.930486  1
  La  La22  1  0.625510  0.811354  0.195024  1
  La  La23  1  0.125510  0.695024  0.311354  1
  La  La24  1  0.656602  0.676900  0.574037  1
  La  La25  1  0.874490  0.069514  0.185845  1
  La  La26  1  0.016966  0.758483  0.008483  1
  La  La27  1  0.343398  0.323100  0.425963  1
  La  La28  1  0.102863  0.176900  0.520298  1
  La  La29  1  0.897137  0.574037  0.417435  1
  La  La30  1  0.383669  0.688646  0.314155  1
  La  La31  1  0.602863  0.082565  0.925963  1
  La  La32  1  0.483034  0.491517  0.741517  1
  La  La33  1  0.656602  0.479702  0.082565  1
  La  La34  1  0.750000  0.258483  0.241517  1
  La  La35  1  0.125510  0.930486  0.814155  1
  La  La36  1  0.843398  0.417435  0.020298  1
  La  La37  1  0.250000  0.741517  0.758483  1
  La  La38  1  0.374490  0.685845  0.569514  1
  La  La39  1  0.750000  0.991517  0.508483  1
  Se  Se40  1  0.140894  0.020684  0.616821  1
  Se  Se41  1  0.031882  0.789233  0.398851  1
  Se  Se42  1  0.271745  0.435242  0.521913  1
  Se  Se43  1  0.903863  0.879790  0.020684  1
  Se  Se44  1  0.354987  0.250000  0.604987  1
  Se  Se45  1  0.403863  0.520684  0.379790  1
  Se  Se46  1  0.228255  0.750167  0.163497  1
  Se  Se47  1  0.413329  0.749833  0.978087  1
  Se  Se48  1  0.096137  0.475927  0.116821  1
  Se  Se49  1  0.854987  0.104987  0.750000  1
  Se  Se50  1  0.645013  0.395013  0.250000  1
  Se  Se51  1  0.109618  0.366969  0.898851  1
  Se  Se52  1  0.890382  0.633031  0.101149  1
  Se  Se53  1  0.354987  0.604987  0.750000  1
  Se  Se54  1  0.271745  0.336503  0.749833  1
  Se  Se55  1  0.913329  0.478087  0.249833  1
  Se  Se56  1  0.596137  0.616821  0.975927  1
  Se  Se57  1  0.031882  0.742649  0.633031  1
  Se  Se58  1  0.390382  0.289233  0.257351  1
  Se  Se59  1  0.645013  0.750000  0.395013  1
  Se  Se60  1  0.140894  0.620210  0.524073  1
  Se  Se61  1  0.403863  0.383179  0.024073  1
  Se  Se62  1  0.468118  0.101149  0.710767  1
  Se  Se63  1  0.640894  0.024073  0.120210  1
  Se  Se64  1  0.890382  0.757351  0.789233  1
  Se  Se65  1  0.531882  0.133031  0.242649  1
  Se  Se66  1  0.968118  0.257351  0.366969  1
  Se  Se67  1  0.359106  0.883179  0.479316  1
  Se  Se68  1  0.109618  0.242649  0.210767  1
  Se  Se69  1  0.586671  0.250167  0.021913  1
  Se  Se70  1  0.145013  0.750000  0.895013  1
  Se  Se71  1  0.531882  0.898851  0.289233  1
  Se  Se72  1  0.771745  0.021913  0.935242  1
  Se  Se73  1  0.913329  0.935242  0.663497  1
  Se  Se74  1  0.728255  0.564758  0.478087  1
  Se  Se75  1  0.859106  0.379790  0.475927  1
  Se  Se76  1  0.728255  0.663497  0.250167  1
  Se  Se77  1  0.145013  0.895013  0.250000  1
  Se  Se78  1  0.359106  0.975927  0.879790  1
  Se  Se79  1  0.413329  0.163497  0.435242  1
  Se  Se80  1  0.903863  0.524073  0.883179  1
  Se  Se81  1  0.086671  0.521913  0.750167  1
  Se  Se82  1  0.640894  0.116821  0.520684  1
  Se  Se83  1  0.609618  0.398851  0.866969  1
  Se  Se84  1  0.086671  0.064758  0.336503  1
  Se  Se85  1  0.771745  0.249833  0.836503  1
  Se  Se86  1  0.096137  0.120210  0.979316  1
  Se  Se87  1  0.586671  0.836503  0.564758  1
  Se  Se88  1  0.390382  0.601149  0.133031  1
  Se  Se89  1  0.468118  0.866969  0.757351  1
  Se  Se90  1  0.609618  0.710767  0.742649  1
  Se  Se91  1  0.854987  0.250000  0.104987  1
  Se  Se92  1  0.968118  0.210767  0.601149  1
  Se  Se93  1  0.228255  0.978087  0.064758  1
  Se  Se94  1  0.859106  0.979316  0.383179  1
  Se  Se95  1  0.596137  0.479316  0.620210  1
  O  O96  1  0.750000  0.375000  0.625000  1
  O  O97  1  0.250000  0.125000  0.875000  1
  O  O98  1  0.750000  0.875000  0.125000  1
  O  O99  1  0.250000  0.625000  0.375000  1
