# generated using pymatgen
data_Np3As4
_symmetry_space_group_name_H-M   'P 1'
_cell_length_a   7.35945925
_cell_length_b   7.35945902
_cell_length_c   7.35945960
_cell_angle_alpha   109.47122223
_cell_angle_beta   109.47122160
_cell_angle_gamma   109.47122030
_symmetry_Int_Tables_number   1
_chemical_formula_structural   Np3As4
_chemical_formula_sum   'Np6 As8'
_cell_volume   306.84271671
_cell_formula_units_Z   2
loop_
 _symmetry_equiv_pos_site_id
 _symmetry_equiv_pos_as_xyz
  1  'x, y, z'
loop_
 _atom_site_type_symbol
 _atom_site_label
 _atom_site_symmetry_multiplicity
 _atom_site_fract_x
 _atom_site_fract_y
 _atom_site_fract_z
 _atom_site_occupancy
  Np  Np0  1  0.125000  0.750000  0.875000  1
  Np  Np1  1  0.625000  0.375000  0.250000  1
  Np  Np2  1  0.375000  0.250000  0.625000  1
  Np  Np3  1  0.750000  0.875000  0.125000  1
  Np  Np4  1  0.250000  0.625000  0.375000  1
  Np  Np5  1  0.875000  0.125000  0.750000  1
  As  As6  1  0.659582  0.659582  0.659582  1
  As  As7  1  1.000000  0.840418  0.500000  1
  As  As8  1  0.840418  0.500000  1.000000  1
  As  As9  1  1.000000  0.340418  0.500000  1
  As  As10  1  0.500000  0.000000  0.840418  1
  As  As11  1  0.500000  0.000000  0.340418  1
  As  As12  1  0.340418  0.500000  1.000000  1
  As  As13  1  0.159582  0.159582  0.159582  1
