# generated using pymatgen
data_Rb2GdGa(SiO3)4
_symmetry_space_group_name_H-M   'P 1'
_cell_length_a   7.41249198
_cell_length_b   14.14928250
_cell_length_c   14.19832026
_cell_angle_alpha   64.31174611
_cell_angle_beta   74.86857178
_cell_angle_gamma   74.81486576
_symmetry_Int_Tables_number   1
_chemical_formula_structural   Rb2GdGa(SiO3)4
_chemical_formula_sum   'Rb8 Gd4 Ga4 Si16 O48'
_cell_volume   1276.34776142
_cell_formula_units_Z   4
loop_
 _symmetry_equiv_pos_site_id
 _symmetry_equiv_pos_as_xyz
  1  'x, y, z'
loop_
 _atom_site_type_symbol
 _atom_site_label
 _atom_site_symmetry_multiplicity
 _atom_site_fract_x
 _atom_site_fract_y
 _atom_site_fract_z
 _atom_site_occupancy
  Rb  Rb0  1  0.805019  0.917534  0.966033  1
  Rb  Rb1  1  0.194981  0.082466  0.033967  1
  Rb  Rb2  1  0.188586  0.582466  0.533967  1
  Rb  Rb3  1  0.811414  0.417534  0.466033  1
  Rb  Rb4  1  0.797247  0.383277  0.047211  1
  Rb  Rb5  1  0.727735  0.116723  0.452789  1
  Rb  Rb6  1  0.202753  0.616723  0.952789  1
  Rb  Rb7  1  0.272265  0.883277  0.547211  1
  Gd  Gd8  1  0.448527  0.787779  0.249949  1
  Gd  Gd9  1  0.551473  0.212221  0.750051  1
  Gd  Gd10  1  0.986255  0.712221  0.250051  1
  Gd  Gd11  1  0.013745  0.287779  0.749949  1
  Ga  Ga12  1  0.268829  0.086379  0.273746  1
  Ga  Ga13  1  0.871046  0.586379  0.773746  1
  Ga  Ga14  1  0.731171  0.913621  0.726254  1
  Ga  Ga15  1  0.128954  0.413621  0.226254  1
  Si  Si16  1  0.021761  0.077937  0.660891  1
  Si  Si17  1  0.978239  0.922063  0.339109  1
  Si  Si18  1  0.360469  0.326204  0.508726  1
  Si  Si19  1  0.208157  0.201768  0.422628  1
  Si  Si20  1  0.332553  0.298232  0.077372  1
  Si  Si21  1  0.685693  0.971224  0.204694  1
  Si  Si22  1  0.791843  0.798232  0.577372  1
  Si  Si23  1  0.639531  0.673796  0.491274  1
  Si  Si24  1  0.739410  0.577937  0.160891  1
  Si  Si25  1  0.314307  0.028776  0.795306  1
  Si  Si26  1  0.260590  0.422063  0.839109  1
  Si  Si27  1  0.638389  0.471224  0.704694  1
  Si  Si28  1  0.695399  0.173796  0.991274  1
  Si  Si29  1  0.667447  0.701768  0.922628  1
  Si  Si30  1  0.361611  0.528776  0.295306  1
  Si  Si31  1  0.304601  0.826204  0.008726  1
  O  O32  1  0.577080  0.149864  0.925436  1
  O  O33  1  0.422920  0.850136  0.074564  1
  O  O34  1  0.244138  0.350110  0.967753  1
  O  O35  1  0.230835  0.940273  0.910104  1
  O  O36  1  0.418787  0.440273  0.410104  1
  O  O37  1  0.939202  0.979045  0.667240  1
  O  O38  1  0.735851  0.648964  0.225433  1
  O  O39  1  0.456555  0.474990  0.799433  1
  O  O40  1  0.769165  0.059727  0.089896  1
  O  O41  1  0.121430  0.770138  0.075738  1
  O  O42  1  0.793027  0.793888  0.842698  1
  O  O43  1  0.914513  0.479045  0.167240  1
  O  O44  1  0.363692  0.250731  0.444049  1
  O  O45  1  0.230978  0.025010  0.700567  1
  O  O46  1  0.062002  0.149890  0.532247  1
  O  O47  1  0.257612  0.146418  0.798384  1
  O  O48  1  0.467306  0.729862  0.424262  1
  O  O49  1  0.543445  0.525010  0.200567  1
  O  O50  1  0.889751  0.148964  0.725433  1
  O  O51  1  0.581213  0.559727  0.589896  1
  O  O52  1  0.828534  0.489070  0.729877  1
  O  O53  1  0.878570  0.229862  0.924262  1
  O  O54  1  0.680859  0.610241  0.878574  1
  O  O55  1  0.070387  0.293888  0.342698  1
  O  O56  1  0.060798  0.020955  0.332760  1
  O  O57  1  0.669673  0.889759  0.621426  1
  O  O58  1  0.452519  0.989070  0.229877  1
  O  O59  1  0.702414  0.353582  0.701616  1
  O  O60  1  0.319141  0.389759  0.121426  1
  O  O61  1  0.085487  0.520955  0.832760  1
  O  O62  1  0.152380  0.350136  0.574564  1
  O  O63  1  0.847620  0.649864  0.425436  1
  O  O64  1  0.110249  0.851036  0.274567  1
  O  O65  1  0.206973  0.206112  0.157302  1
  O  O66  1  0.264149  0.351036  0.774567  1
  O  O67  1  0.636308  0.749269  0.555951  1
  O  O68  1  0.937998  0.850110  0.467753  1
  O  O69  1  0.547481  0.010930  0.770123  1
  O  O70  1  0.532694  0.270138  0.575738  1
  O  O71  1  0.929613  0.706112  0.657302  1
  O  O72  1  0.330327  0.110241  0.378574  1
  O  O73  1  0.742388  0.853582  0.201616  1
  O  O74  1  0.441528  0.750731  0.944049  1
  O  O75  1  0.558472  0.249269  0.055951  1
  O  O76  1  0.755862  0.649890  0.032247  1
  O  O77  1  0.769022  0.974990  0.299433  1
  O  O78  1  0.171466  0.510930  0.270123  1
  O  O79  1  0.297586  0.646418  0.298384  1
