# generated using pymatgen
data_Na3(Pt3O4)4
_symmetry_space_group_name_H-M   'P 1'
_cell_length_a   5.73767436
_cell_length_b   5.74242057
_cell_length_c   46.12431161
_cell_angle_alpha   90.00000000
_cell_angle_beta   90.00000000
_cell_angle_gamma   90.00000000
_symmetry_Int_Tables_number   1
_chemical_formula_structural   Na3(Pt3O4)4
_chemical_formula_sum   'Na12 Pt48 O64'
_cell_volume   1519.71024260
_cell_formula_units_Z   4
loop_
 _symmetry_equiv_pos_site_id
 _symmetry_equiv_pos_as_xyz
  1  'x, y, z'
loop_
 _atom_site_type_symbol
 _atom_site_label
 _atom_site_symmetry_multiplicity
 _atom_site_fract_x
 _atom_site_fract_y
 _atom_site_fract_z
 _atom_site_occupancy
  Na  Na0  1  0.000000  0.000000  0.499267  1
  Na  Na1  1  0.000000  0.000000  0.624838  1
  Na  Na2  1  0.000000  0.000000  0.750162  1
  Na  Na3  1  0.000000  0.000000  0.875733  1
  Na  Na4  1  0.500000  0.500000  0.062886  1
  Na  Na5  1  0.500000  0.500000  0.187500  1
  Na  Na6  1  0.500000  0.500000  0.312114  1
  Na  Na7  1  0.500000  0.500000  0.437222  1
  Na  Na8  1  0.500000  0.500000  0.687500  1
  Na  Na9  1  0.500000  0.500000  0.562114  1
  Na  Na10  1  0.500000  0.500000  0.812886  1
  Na  Na11  1  0.500000  0.500000  0.937778  1
  O  O12  1  0.255809  0.256119  0.032650  1
  O  O13  1  0.256439  0.256472  0.157157  1
  O  O14  1  0.256826  0.256921  0.281804  1
  O  O15  1  0.259233  0.259245  0.406326  1
  O  O16  1  0.251283  0.250332  0.530726  1
  O  O17  1  0.250461  0.249760  0.656181  1
  O  O18  1  0.256439  0.743528  0.157157  1
  O  O19  1  0.256826  0.256921  0.093196  1
  O  O20  1  0.255809  0.256119  0.342350  1
  O  O21  1  0.249974  0.249159  0.781520  1
  O  O22  1  0.255809  0.743881  0.032650  1
  O  O23  1  0.248004  0.247412  0.907049  1
  O  O24  1  0.256826  0.743079  0.093196  1
  O  O25  1  0.256439  0.256472  0.217843  1
  O  O26  1  0.248004  0.247412  0.467951  1
  O  O27  1  0.259233  0.740755  0.406326  1
  O  O28  1  0.249974  0.249159  0.593480  1
  O  O29  1  0.256439  0.743528  0.217843  1
  O  O30  1  0.256826  0.743079  0.281804  1
  O  O31  1  0.255809  0.743881  0.342350  1
  O  O32  1  0.250461  0.249760  0.718819  1
  O  O33  1  0.250461  0.750240  0.656181  1
  O  O34  1  0.248004  0.752588  0.467951  1
  O  O35  1  0.251283  0.749668  0.530726  1
  O  O36  1  0.249974  0.750841  0.593480  1
  O  O37  1  0.249974  0.750841  0.781520  1
  O  O38  1  0.250461  0.750240  0.718819  1
  O  O39  1  0.251283  0.250332  0.844274  1
  O  O40  1  0.259233  0.259245  0.968674  1
  O  O41  1  0.248004  0.752588  0.907049  1
  O  O42  1  0.259233  0.740755  0.968674  1
  O  O43  1  0.251283  0.749668  0.844274  1
  O  O44  1  0.743561  0.743528  0.157157  1
  O  O45  1  0.743561  0.256472  0.157157  1
  O  O46  1  0.744191  0.256119  0.032650  1
  O  O47  1  0.743174  0.256921  0.093196  1
  O  O48  1  0.744191  0.743881  0.032650  1
  O  O49  1  0.740767  0.259245  0.406326  1
  O  O50  1  0.743561  0.256472  0.217843  1
  O  O51  1  0.743174  0.256921  0.281804  1
  O  O52  1  0.744191  0.256119  0.342350  1
  O  O53  1  0.751996  0.247412  0.467951  1
  O  O54  1  0.743174  0.743079  0.281804  1
  O  O55  1  0.740767  0.740755  0.406326  1
  O  O56  1  0.749539  0.249760  0.656181  1
  O  O57  1  0.748717  0.250332  0.530726  1
  O  O58  1  0.750026  0.249159  0.593480  1
  O  O59  1  0.750026  0.249159  0.781520  1
  O  O60  1  0.749539  0.249760  0.718819  1
  O  O61  1  0.743174  0.743079  0.093196  1
  O  O62  1  0.748717  0.749668  0.530726  1
  O  O63  1  0.749539  0.750240  0.656181  1
  O  O64  1  0.750026  0.750841  0.781520  1
  O  O65  1  0.751996  0.247412  0.907049  1
  O  O66  1  0.748717  0.250332  0.844274  1
  O  O67  1  0.740767  0.259245  0.968674  1
  O  O68  1  0.744191  0.743881  0.342350  1
  O  O69  1  0.751996  0.752588  0.907049  1
  O  O70  1  0.743561  0.743528  0.217843  1
  O  O71  1  0.751996  0.752588  0.467951  1
  O  O72  1  0.750026  0.750841  0.593480  1
  O  O73  1  0.749539  0.750240  0.718819  1
  O  O74  1  0.748717  0.749668  0.844274  1
  O  O75  1  0.740767  0.740755  0.968674  1
  Pt  Pt76  1  0.000000  0.500000  0.031178  1
  Pt  Pt77  1  0.000000  0.500000  0.219347  1
  Pt  Pt78  1  0.000000  0.500000  0.280373  1
  Pt  Pt79  1  0.000000  0.500000  0.404724  1
  Pt  Pt80  1  0.000000  0.500000  0.593472  1
  Pt  Pt81  1  0.000000  0.500000  0.718809  1
  Pt  Pt82  1  0.000000  0.500000  0.781528  1
  Pt  Pt83  1  0.000000  0.500000  0.844335  1
  Pt  Pt84  1  0.000000  0.500000  0.907134  1
  Pt  Pt85  1  0.000000  0.500000  0.970276  1
  Pt  Pt86  1  0.000000  0.500000  0.530665  1
  Pt  Pt87  1  0.000000  0.500000  0.656191  1
  Pt  Pt88  1  0.244978  0.000000  0.063003  1
  Pt  Pt89  1  0.245017  0.000000  0.187500  1
  Pt  Pt90  1  0.244978  0.000000  0.311997  1
  Pt  Pt91  1  0.247918  0.000000  0.435939  1
  Pt  Pt92  1  0.250691  0.000000  0.562019  1
  Pt  Pt93  1  0.250671  0.000000  0.687500  1
  Pt  Pt94  1  0.250691  0.000000  0.812981  1
  Pt  Pt95  1  0.247918  0.000000  0.939061  1
  Pt  Pt96  1  0.500000  0.244436  0.000887  1
  Pt  Pt97  1  0.500000  0.244140  0.125210  1
  Pt  Pt98  1  0.500000  0.244436  0.374113  1
  Pt  Pt99  1  0.500000  0.244140  0.249790  1
  Pt  Pt100  1  0.500000  0.249081  0.499106  1
  Pt  Pt101  1  0.500000  0.755860  0.125210  1
  Pt  Pt102  1  0.500000  0.249265  0.624795  1
  Pt  Pt103  1  0.500000  0.755564  0.000887  1
  Pt  Pt104  1  0.500000  0.755564  0.374113  1
  Pt  Pt105  1  0.500000  0.249081  0.875894  1
  Pt  Pt106  1  0.500000  0.249265  0.750205  1
  Pt  Pt107  1  0.500000  0.755860  0.249790  1
  Pt  Pt108  1  0.500000  0.750735  0.624795  1
  Pt  Pt109  1  0.500000  0.750919  0.499106  1
  Pt  Pt110  1  0.500000  0.750919  0.875894  1
  Pt  Pt111  1  0.500000  0.750735  0.750205  1
  Pt  Pt112  1  0.755022  0.000000  0.063003  1
  Pt  Pt113  1  0.754983  0.000000  0.187500  1
  Pt  Pt114  1  0.755022  0.000000  0.311997  1
  Pt  Pt115  1  0.752082  0.000000  0.435939  1
  Pt  Pt116  1  0.749309  0.000000  0.562019  1
  Pt  Pt117  1  0.749329  0.000000  0.687500  1
  Pt  Pt118  1  0.749309  0.000000  0.812981  1
  Pt  Pt119  1  0.752082  0.000000  0.939061  1
  Pt  Pt120  1  0.000000  0.500000  0.155653  1
  Pt  Pt121  1  0.000000  0.500000  0.094627  1
  Pt  Pt122  1  0.000000  0.500000  0.343822  1
  Pt  Pt123  1  0.000000  0.500000  0.467866  1
