# generated using pymatgen
data_PNF2
_symmetry_space_group_name_H-M   'P 1'
_cell_length_a   7.62277857
_cell_length_b   11.43002790
_cell_length_c   14.95402192
_cell_angle_alpha   90.00000000
_cell_angle_beta   90.00000000
_cell_angle_gamma   103.92762298
_symmetry_Int_Tables_number   1
_chemical_formula_structural   PNF2
_chemical_formula_sum   'P20 N20 F40'
_cell_volume   1264.61736728
_cell_formula_units_Z   20
loop_
 _symmetry_equiv_pos_site_id
 _symmetry_equiv_pos_as_xyz
  1  'x, y, z'
loop_
 _atom_site_type_symbol
 _atom_site_label
 _atom_site_symmetry_multiplicity
 _atom_site_fract_x
 _atom_site_fract_y
 _atom_site_fract_z
 _atom_site_occupancy
  P  P0  1  0.405570  0.944244  0.361237  1
  P  P1  1  0.817369  0.827386  0.238539  1
  P  P2  1  0.301183  0.702439  0.437936  1
  P  P3  1  0.333623  0.322664  0.607503  1
  P  P4  1  0.698817  0.297561  0.562064  1
  P  P5  1  0.682631  0.672614  0.738539  1
  P  P6  1  0.198817  0.797561  0.937936  1
  P  P7  1  0.801183  0.202439  0.062064  1
  P  P8  1  0.833623  0.822664  0.892497  1
  P  P9  1  0.704051  0.465411  0.842483  1
  P  P10  1  0.795949  0.034589  0.342483  1
  P  P11  1  0.204051  0.965411  0.657517  1
  P  P12  1  0.182631  0.172614  0.761461  1
  P  P13  1  0.666377  0.677336  0.392497  1
  P  P14  1  0.594430  0.055756  0.638763  1
  P  P15  1  0.094430  0.555756  0.861237  1
  P  P16  1  0.317369  0.327386  0.261461  1
  P  P17  1  0.905570  0.444244  0.138763  1
  P  P18  1  0.166377  0.177336  0.107503  1
  P  P19  1  0.295949  0.534589  0.157517  1
  N  N20  1  0.122247  0.039090  0.727737  1
  N  N21  1  0.109548  0.480667  0.111296  1
  N  N22  1  0.309163  0.273887  0.705417  1
  N  N23  1  0.377753  0.460910  0.227737  1
  N  N24  1  0.217763  0.675550  0.896815  1
  N  N25  1  0.282237  0.824450  0.396815  1
  N  N26  1  0.518725  0.339023  0.559274  1
  N  N27  1  0.190837  0.226113  0.205417  1
  N  N28  1  0.717763  0.175550  0.603185  1
  N  N29  1  0.390452  0.019333  0.611296  1
  N  N30  1  0.481275  0.660977  0.440726  1
  N  N31  1  0.782237  0.324450  0.103185  1
  N  N32  1  0.877753  0.960910  0.272263  1
  N  N33  1  0.609548  0.980667  0.388704  1
  N  N34  1  0.018725  0.839023  0.940726  1
  N  N35  1  0.690837  0.726113  0.294583  1
  N  N36  1  0.809163  0.773887  0.794583  1
  N  N37  1  0.890452  0.519333  0.888704  1
  N  N38  1  0.622247  0.539090  0.772263  1
  N  N39  1  0.981275  0.160977  0.059274  1
  F  F40  1  0.272827  0.174359  0.855183  1
  F  F41  1  0.186012  0.452484  0.887800  1
  F  F42  1  0.773212  0.305878  0.464556  1
  F  F43  1  0.313988  0.047516  0.387800  1
  F  F44  1  0.150599  0.600911  0.394538  1
  F  F45  1  0.283624  0.446987  0.604012  1
  F  F46  1  0.800354  0.159951  0.299484  1
  F  F47  1  0.783624  0.946987  0.895988  1
  F  F48  1  0.226788  0.694122  0.535444  1
  F  F49  1  0.615218  0.050779  0.742917  1
  F  F50  1  0.319092  0.251328  0.045378  1
  F  F51  1  0.493261  0.289825  0.289634  1
  F  F52  1  0.349401  0.899089  0.894538  1
  F  F53  1  0.506739  0.710175  0.710366  1
  F  F54  1  0.564484  0.425024  0.918901  1
  F  F55  1  0.716376  0.553013  0.395988  1
  F  F56  1  0.935516  0.074976  0.418901  1
  F  F57  1  0.199646  0.840049  0.700516  1
  F  F58  1  0.435516  0.574976  0.081099  1
  F  F59  1  0.772827  0.674359  0.644817  1
  F  F60  1  0.686012  0.952484  0.612200  1
  F  F61  1  0.680908  0.748672  0.954622  1
  F  F62  1  0.650599  0.100911  0.105462  1
  F  F63  1  0.006739  0.210175  0.789634  1
  F  F64  1  0.819092  0.751328  0.454622  1
  F  F65  1  0.273212  0.805878  0.035444  1
  F  F66  1  0.993261  0.789825  0.210366  1
  F  F67  1  0.216376  0.053013  0.104012  1
  F  F68  1  0.849401  0.399089  0.605462  1
  F  F69  1  0.884782  0.449221  0.242917  1
  F  F70  1  0.699646  0.340049  0.799484  1
  F  F71  1  0.384782  0.949221  0.257083  1
  F  F72  1  0.115218  0.550779  0.757083  1
  F  F73  1  0.813988  0.547516  0.112200  1
  F  F74  1  0.727173  0.825641  0.144817  1
  F  F75  1  0.726788  0.194122  0.964556  1
  F  F76  1  0.180908  0.248672  0.545378  1
  F  F77  1  0.227173  0.325641  0.355183  1
  F  F78  1  0.300354  0.659951  0.200516  1
  F  F79  1  0.064484  0.925024  0.581099  1
