# generated using pymatgen
data_Sr2Cu3O5
_symmetry_space_group_name_H-M   'P 1'
_cell_length_a   3.51031586
_cell_length_b   3.94489424
_cell_length_c   9.99031607
_cell_angle_alpha   101.38706140
_cell_angle_beta   90.00000000
_cell_angle_gamma   90.00000000
_symmetry_Int_Tables_number   1
_chemical_formula_structural   Sr2Cu3O5
_chemical_formula_sum   'Sr2 Cu3 O5'
_cell_volume   135.62095086
_cell_formula_units_Z   1
loop_
 _symmetry_equiv_pos_site_id
 _symmetry_equiv_pos_as_xyz
  1  'x, y, z'
loop_
 _atom_site_type_symbol
 _atom_site_label
 _atom_site_symmetry_multiplicity
 _atom_site_fract_x
 _atom_site_fract_y
 _atom_site_fract_z
 _atom_site_occupancy
  Cu  Cu0  1  0.000000  0.199047  0.398094  1
  Sr  Sr1  1  0.500000  0.600977  0.201955  1
  O  O2  1  0.000000  0.703114  0.406228  1
  Sr  Sr3  1  0.500000  0.399018  0.798036  1
  O  O4  1  0.000000  0.296856  0.593711  1
  Cu  Cu5  1  0.000000  0.800953  0.601906  1
  Cu  Cu6  1  0.000000  1.000009  1.000017  1
  O  O7  1  0.000000  0.898367  0.796735  1
  O  O8  1  0.000000  0.101660  0.203319  1
  O  O9  1  0.000000  0.500000  1.000000  1
