# generated using pymatgen
data_Nd5As4(ClO4)3
_symmetry_space_group_name_H-M   'P 1'
_cell_length_a   5.48944211
_cell_length_b   10.41949119
_cell_length_c   14.18108656
_cell_angle_alpha   93.92873082
_cell_angle_beta   90.00000000
_cell_angle_gamma   90.00000000
_symmetry_Int_Tables_number   1
_chemical_formula_structural   Nd5As4(ClO4)3
_chemical_formula_sum   'Nd10 As8 Cl6 O24'
_cell_volume   809.21226451
_cell_formula_units_Z   2
loop_
 _symmetry_equiv_pos_site_id
 _symmetry_equiv_pos_as_xyz
  1  'x, y, z'
loop_
 _atom_site_type_symbol
 _atom_site_label
 _atom_site_symmetry_multiplicity
 _atom_site_fract_x
 _atom_site_fract_y
 _atom_site_fract_z
 _atom_site_occupancy
  Nd  Nd0  1  0.235440  0.918615  0.414287  1
  Nd  Nd1  1  0.255955  0.195227  0.031828  1
  Nd  Nd2  1  0.764560  0.418615  0.914287  1
  Nd  Nd3  1  0.291941  0.250000  0.750000  1
  Nd  Nd4  1  0.255955  0.304773  0.468172  1
  Nd  Nd5  1  0.744045  0.804773  0.968172  1
  Nd  Nd6  1  0.764560  0.081385  0.585713  1
  Nd  Nd7  1  0.708059  0.750000  0.250000  1
  Nd  Nd8  1  0.235440  0.581385  0.085713  1
  Nd  Nd9  1  0.744045  0.695227  0.531828  1
  As  As10  1  0.738384  0.409055  0.638232  1
  As  As11  1  0.261616  0.909055  0.138232  1
  As  As12  1  0.236750  0.893011  0.649702  1
  As  As13  1  0.261616  0.590945  0.361768  1
  As  As14  1  0.763250  0.393011  0.149702  1
  As  As15  1  0.763250  0.106989  0.350298  1
  As  As16  1  0.236750  0.606989  0.850298  1
  As  As17  1  0.738384  0.090945  0.861768  1
  Cl  Cl18  1  0.246344  0.923236  0.919972  1
  Cl  Cl19  1  0.246344  0.576764  0.580028  1
  Cl  Cl20  1  0.252301  0.250000  0.250000  1
  Cl  Cl21  1  0.747699  0.750000  0.750000  1
  Cl  Cl22  1  0.753656  0.423236  0.419972  1
  Cl  Cl23  1  0.753656  0.076764  0.080028  1
  O  O24  1  0.511510  0.108583  0.436316  1
  O  O25  1  0.999285  0.629526  0.945403  1
  O  O26  1  0.000715  0.129526  0.445403  1
  O  O27  1  0.488490  0.608583  0.936316  1
  O  O28  1  0.347761  0.604576  0.242149  1
  O  O29  1  0.827177  0.562196  0.155500  1
  O  O30  1  0.994223  0.199269  0.879260  1
  O  O31  1  0.005777  0.699269  0.379260  1
  O  O32  1  0.000715  0.370474  0.054597  1
  O  O33  1  0.172823  0.062196  0.655500  1
  O  O34  1  0.652239  0.395424  0.757851  1
  O  O35  1  0.005777  0.800731  0.120740  1
  O  O36  1  0.994223  0.300731  0.620740  1
  O  O37  1  0.999285  0.870474  0.554597  1
  O  O38  1  0.486649  0.713929  0.403107  1
  O  O39  1  0.511510  0.391417  0.063684  1
  O  O40  1  0.513351  0.286071  0.596893  1
  O  O41  1  0.347761  0.895424  0.257851  1
  O  O42  1  0.488490  0.891417  0.563684  1
  O  O43  1  0.827177  0.937804  0.344500  1
  O  O44  1  0.652239  0.104576  0.742149  1
  O  O45  1  0.172823  0.437804  0.844500  1
  O  O46  1  0.486649  0.786071  0.096893  1
  O  O47  1  0.513351  0.213929  0.903107  1
