# generated using pymatgen
data_Mn7SiO12
_symmetry_space_group_name_H-M   'P 1'
_cell_length_a   9.93090002
_cell_length_b   9.93090089
_cell_length_c   12.07371092
_cell_angle_alpha   114.28409668
_cell_angle_beta   114.28409901
_cell_angle_gamma   89.99999837
_symmetry_Int_Tables_number   1
_chemical_formula_structural   Mn7SiO12
_chemical_formula_sum   'Mn28 Si4 O48'
_cell_volume   968.62982289
_cell_formula_units_Z   4
loop_
 _symmetry_equiv_pos_site_id
 _symmetry_equiv_pos_as_xyz
  1  'x, y, z'
loop_
 _atom_site_type_symbol
 _atom_site_label
 _atom_site_symmetry_multiplicity
 _atom_site_fract_x
 _atom_site_fract_y
 _atom_site_fract_z
 _atom_site_occupancy
  Mn  Mn0  1  0.778770  0.250000  0.500000  1
  Mn  Mn1  1  0.158231  0.341769  0.750000  1
  Mn  Mn2  1  0.250000  0.721230  1.000000  1
  Mn  Mn3  1  0.500000  0.000000  0.500000  1
  Mn  Mn4  1  0.500000  0.500000  0.500000  1
  Mn  Mn5  1  0.000000  0.500000  0.500000  1
  Mn  Mn6  1  0.250000  0.221230  1.000000  1
  Mn  Mn7  1  0.375000  0.125000  0.750000  1
  Mn  Mn8  1  0.000000  0.000000  0.000000  1
  Mn  Mn9  1  0.125000  0.375000  0.250000  1
  Mn  Mn10  1  0.278770  0.250000  0.500000  1
  Mn  Mn11  1  0.721230  0.750000  0.500000  1
  Mn  Mn12  1  0.408231  0.091769  0.250000  1
  Mn  Mn13  1  0.841769  0.658231  0.250000  1
  Mn  Mn14  1  0.750000  0.778770  0.000000  1
  Mn  Mn15  1  0.625000  0.875000  0.250000  1
  Mn  Mn16  1  0.091769  0.841769  0.750000  1
  Mn  Mn17  1  0.000000  0.500000  0.000000  1
  Mn  Mn18  1  0.875000  0.625000  0.750000  1
  Mn  Mn19  1  0.341769  0.591769  0.250000  1
  Mn  Mn20  1  0.500000  0.500000  0.000000  1
  Mn  Mn21  1  0.591769  0.908231  0.750000  1
  Mn  Mn22  1  0.908231  0.158231  0.250000  1
  Mn  Mn23  1  0.750000  0.278770  0.000000  1
  Mn  Mn24  1  0.658231  0.408231  0.750000  1
  Mn  Mn25  1  0.221230  0.750000  0.500000  1
  Mn  Mn26  1  0.500000  0.000000  0.000000  1
  Mn  Mn27  1  0.000000  0.000000  0.500000  1
  Si  Si28  1  0.125000  0.875000  0.250000  1
  Si  Si29  1  0.875000  0.125000  0.750000  1
  Si  Si30  1  0.375000  0.625000  0.750000  1
  Si  Si31  1  0.625000  0.375000  0.250000  1
  O  O32  1  0.894619  0.297338  0.411110  1
  O  O33  1  0.487638  0.435004  0.147466  1
  O  O34  1  0.216446  0.363254  0.145950  1
  O  O35  1  0.363254  0.929505  0.645950  1
  O  O36  1  0.202662  0.605381  0.088890  1
  O  O37  1  0.564996  0.340172  0.352534  1
  O  O38  1  0.636746  0.070495  0.354050  1
  O  O39  1  0.070495  0.717303  0.854050  1
  O  O40  1  0.064996  0.012362  0.352534  1
  O  O41  1  0.512362  0.564996  0.852534  1
  O  O42  1  0.987638  0.712462  0.147466  1
  O  O43  1  0.886228  0.983509  0.088890  1
  O  O44  1  0.394619  0.113772  0.411110  1
  O  O45  1  0.282697  0.216446  0.645950  1
  O  O46  1  0.983509  0.202662  0.588890  1
  O  O47  1  0.429505  0.863254  0.145950  1
  O  O48  1  0.702662  0.483509  0.088890  1
  O  O49  1  0.340172  0.787538  0.852534  1
  O  O50  1  0.929505  0.282697  0.145950  1
  O  O51  1  0.783555  0.636746  0.854050  1
  O  O52  1  0.136746  0.283554  0.354050  1
  O  O53  1  0.605381  0.886228  0.588890  1
  O  O54  1  0.570495  0.136746  0.854050  1
  O  O55  1  0.212462  0.487638  0.647466  1
  O  O56  1  0.435004  0.659828  0.647466  1
  O  O57  1  0.483509  0.386228  0.588890  1
  O  O58  1  0.159828  0.935004  0.147466  1
  O  O59  1  0.712462  0.159828  0.647466  1
  O  O60  1  0.717303  0.783555  0.354050  1
  O  O61  1  0.716445  0.782697  0.145950  1
  O  O62  1  0.297338  0.516491  0.911110  1
  O  O63  1  0.386228  0.105381  0.088890  1
  O  O64  1  0.516491  0.613772  0.411110  1
  O  O65  1  0.935004  0.987638  0.647466  1
  O  O66  1  0.016491  0.797338  0.411110  1
  O  O67  1  0.217303  0.570495  0.354050  1
  O  O68  1  0.287538  0.840172  0.352534  1
  O  O69  1  0.283554  0.217303  0.854050  1
  O  O70  1  0.105381  0.702662  0.588890  1
  O  O71  1  0.113772  0.016491  0.911110  1
  O  O72  1  0.782697  0.429505  0.645950  1
  O  O73  1  0.012362  0.287538  0.852534  1
  O  O74  1  0.613772  0.894619  0.911110  1
  O  O75  1  0.840172  0.064996  0.852534  1
  O  O76  1  0.863254  0.716445  0.645950  1
  O  O77  1  0.797338  0.394619  0.911110  1
  O  O78  1  0.659828  0.212462  0.147466  1
  O  O79  1  0.787538  0.512362  0.352534  1
