# generated using pymatgen
data_Na3ScSi2O7
_symmetry_space_group_name_H-M   'P 1'
_cell_length_a   5.40046406
_cell_length_b   9.45853323
_cell_length_c   13.23352055
_cell_angle_alpha   90.00000000
_cell_angle_beta   90.00000000
_cell_angle_gamma   90.00000000
_symmetry_Int_Tables_number   1
_chemical_formula_structural   Na3ScSi2O7
_chemical_formula_sum   'Na12 Sc4 Si8 O28'
_cell_volume   675.97443316
_cell_formula_units_Z   4
loop_
 _symmetry_equiv_pos_site_id
 _symmetry_equiv_pos_as_xyz
  1  'x, y, z'
loop_
 _atom_site_type_symbol
 _atom_site_label
 _atom_site_symmetry_multiplicity
 _atom_site_fract_x
 _atom_site_fract_y
 _atom_site_fract_z
 _atom_site_occupancy
  Na  Na0  1  0.016253  0.346384  0.407122  1
  Na  Na1  1  0.983747  0.653616  0.907122  1
  Na  Na2  1  0.516253  0.153616  0.592878  1
  Na  Na3  1  0.982714  0.980656  0.750000  1
  Na  Na4  1  0.483747  0.846384  0.092878  1
  Na  Na5  1  0.482714  0.519344  0.250000  1
  Na  Na6  1  0.016253  0.346384  0.092878  1
  Na  Na7  1  0.516253  0.153616  0.907122  1
  Na  Na8  1  0.483747  0.846384  0.407122  1
  Na  Na9  1  0.517286  0.480656  0.750000  1
  Na  Na10  1  0.983747  0.653616  0.592878  1
  Na  Na11  1  0.017286  0.019344  0.250000  1
  Sc  Sc12  1  0.500000  0.500000  0.000000  1
  Sc  Sc13  1  0.000000  0.000000  0.500000  1
  Sc  Sc14  1  0.000000  0.000000  0.000000  1
  Sc  Sc15  1  0.500000  0.500000  0.500000  1
  Si  Si16  1  0.513323  0.175527  0.131600  1
  Si  Si17  1  0.013323  0.324473  0.631600  1
  Si  Si18  1  0.513323  0.175527  0.368400  1
  Si  Si19  1  0.486677  0.824473  0.868400  1
  Si  Si20  1  0.486677  0.824473  0.631600  1
  Si  Si21  1  0.986677  0.675527  0.131600  1
  Si  Si22  1  0.013323  0.324473  0.868400  1
  Si  Si23  1  0.986677  0.675527  0.368400  1
  O  O24  1  0.474555  0.345946  0.119281  1
  O  O25  1  0.318980  0.089329  0.439928  1
  O  O26  1  0.681020  0.910671  0.560072  1
  O  O27  1  0.201253  0.871748  0.607209  1
  O  O28  1  0.318980  0.089329  0.060072  1
  O  O29  1  0.474555  0.345946  0.380719  1
  O  O30  1  0.298747  0.371748  0.607209  1
  O  O31  1  0.181020  0.589329  0.439928  1
  O  O32  1  0.974555  0.154054  0.619281  1
  O  O33  1  0.525445  0.654054  0.619281  1
  O  O34  1  0.025445  0.845946  0.380719  1
  O  O35  1  0.025445  0.845946  0.119281  1
  O  O36  1  0.181020  0.589329  0.060072  1
  O  O37  1  0.798747  0.128252  0.392791  1
  O  O38  1  0.798747  0.128252  0.107209  1
  O  O39  1  0.298747  0.371748  0.892791  1
  O  O40  1  0.558366  0.874970  0.750000  1
  O  O41  1  0.525445  0.654054  0.880719  1
  O  O42  1  0.441634  0.125030  0.250000  1
  O  O43  1  0.974555  0.154054  0.880719  1
  O  O44  1  0.201253  0.871748  0.892791  1
  O  O45  1  0.681020  0.910671  0.939928  1
  O  O46  1  0.701253  0.628252  0.107209  1
  O  O47  1  0.701253  0.628252  0.392791  1
  O  O48  1  0.818980  0.410671  0.939928  1
  O  O49  1  0.941634  0.374970  0.750000  1
  O  O50  1  0.058366  0.625030  0.250000  1
  O  O51  1  0.818980  0.410671  0.560072  1
