# generated using pymatgen
data_CuAs2S4(O2F3)4
_symmetry_space_group_name_H-M   'P 1'
_cell_length_a   7.69045960
_cell_length_b   9.19780023
_cell_length_c   13.21465667
_cell_angle_alpha   90.00000000
_cell_angle_beta   90.00000000
_cell_angle_gamma   105.15202992
_symmetry_Int_Tables_number   1
_chemical_formula_structural   CuAs2S4(O2F3)4
_chemical_formula_sum   'Cu2 As4 S8 O16 F24'
_cell_volume   902.24714230
_cell_formula_units_Z   2
loop_
 _symmetry_equiv_pos_site_id
 _symmetry_equiv_pos_as_xyz
  1  'x, y, z'
loop_
 _atom_site_type_symbol
 _atom_site_label
 _atom_site_symmetry_multiplicity
 _atom_site_fract_x
 _atom_site_fract_y
 _atom_site_fract_z
 _atom_site_occupancy
  Cu  Cu0  1  0.000000  0.500000  0.500000  1
  Cu  Cu1  1  0.000000  0.000000  0.000000  1
  As  As2  1  0.314074  0.784882  0.864967  1
  As  As3  1  0.314074  0.284882  0.635033  1
  As  As4  1  0.685926  0.215118  0.135033  1
  As  As5  1  0.685926  0.715118  0.364967  1
  S  S6  1  0.795872  0.548522  0.707066  1
  S  S7  1  0.727653  0.168803  0.457754  1
  S  S8  1  0.272347  0.331197  0.957754  1
  S  S9  1  0.795872  0.048522  0.792934  1
  S  S10  1  0.204128  0.951478  0.207066  1
  S  S11  1  0.272347  0.831197  0.542246  1
  S  S12  1  0.727653  0.668803  0.042246  1
  S  S13  1  0.204128  0.451478  0.292934  1
  O  O14  1  0.180386  0.171954  0.936495  1
  O  O15  1  0.170990  0.292214  0.309020  1
  O  O16  1  0.180386  0.671954  0.563505  1
  O  O17  1  0.819614  0.828046  0.063505  1
  O  O18  1  0.819614  0.328046  0.436495  1
  O  O19  1  0.772987  0.106096  0.550539  1
  O  O20  1  0.227013  0.893904  0.449461  1
  O  O21  1  0.170990  0.792214  0.190980  1
  O  O22  1  0.869813  0.962264  0.868721  1
  O  O23  1  0.227013  0.393904  0.050539  1
  O  O24  1  0.829010  0.707786  0.690980  1
  O  O25  1  0.130187  0.537736  0.368721  1
  O  O26  1  0.869813  0.462264  0.631279  1
  O  O27  1  0.772987  0.606096  0.949461  1
  O  O28  1  0.829010  0.207786  0.809020  1
  O  O29  1  0.130187  0.037736  0.131279  1
  F  F30  1  0.173928  0.337197  0.539836  1
  F  F31  1  0.457008  0.736013  0.774252  1
  F  F32  1  0.153757  0.108793  0.647564  1
  F  F33  1  0.846243  0.391207  0.147564  1
  F  F34  1  0.153757  0.608793  0.852436  1
  F  F35  1  0.422112  0.207862  0.536509  1
  F  F36  1  0.527308  0.536871  0.382409  1
  F  F37  1  0.577888  0.292138  0.036509  1
  F  F38  1  0.846243  0.891207  0.352436  1
  F  F39  1  0.457008  0.236013  0.725748  1
  F  F40  1  0.527308  0.036871  0.117591  1
  F  F41  1  0.542992  0.263987  0.225748  1
  F  F42  1  0.173928  0.837197  0.960164  1
  F  F43  1  0.422112  0.707862  0.963491  1
  F  F44  1  0.796976  0.137220  0.228942  1
  F  F45  1  0.542992  0.763987  0.274252  1
  F  F46  1  0.826072  0.662803  0.460164  1
  F  F47  1  0.203024  0.862780  0.771058  1
  F  F48  1  0.826072  0.162803  0.039836  1
  F  F49  1  0.472692  0.463129  0.617591  1
  F  F50  1  0.472692  0.963129  0.882409  1
  F  F51  1  0.203024  0.362780  0.728942  1
  F  F52  1  0.796976  0.637220  0.271058  1
  F  F53  1  0.577888  0.792138  0.463491  1
