# generated using pymatgen
data_Bi2Rh2O7
_symmetry_space_group_name_H-M   'P 1'
_cell_length_a   7.35385435
_cell_length_b   7.35385424
_cell_length_c   7.35385438
_cell_angle_alpha   59.99999937
_cell_angle_beta   59.99999985
_cell_angle_gamma   59.99999942
_symmetry_Int_Tables_number   1
_chemical_formula_structural   Bi2Rh2O7
_chemical_formula_sum   'Bi4 Rh4 O14'
_cell_volume   281.20954954
_cell_formula_units_Z   2
loop_
 _symmetry_equiv_pos_site_id
 _symmetry_equiv_pos_as_xyz
  1  'x, y, z'
loop_
 _atom_site_type_symbol
 _atom_site_label
 _atom_site_symmetry_multiplicity
 _atom_site_fract_x
 _atom_site_fract_y
 _atom_site_fract_z
 _atom_site_occupancy
  Bi  Bi0  1  0.500000  0.500000  0.500000  1
  Bi  Bi1  1  0.000000  0.500000  0.500000  1
  Bi  Bi2  1  0.500000  0.500000  0.000000  1
  Bi  Bi3  1  0.500000  0.000000  0.500000  1
  Rh  Rh4  1  0.000000  0.000000  0.000000  1
  Rh  Rh5  1  0.000000  0.500000  0.000000  1
  Rh  Rh6  1  0.000000  0.000000  0.500000  1
  Rh  Rh7  1  0.500000  0.000000  0.000000  1
  O  O8  1  0.625000  0.625000  0.625000  1
  O  O9  1  0.082387  0.667613  0.667613  1
  O  O10  1  0.332387  0.917613  0.332387  1
  O  O11  1  0.332387  0.917613  0.917613  1
  O  O12  1  0.082387  0.667613  0.082387  1
  O  O13  1  0.917613  0.917613  0.332387  1
  O  O14  1  0.667613  0.082387  0.082387  1
  O  O15  1  0.667613  0.082387  0.667613  1
  O  O16  1  0.667613  0.667613  0.082387  1
  O  O17  1  0.082387  0.082387  0.667613  1
  O  O18  1  0.917613  0.332387  0.332387  1
  O  O19  1  0.917613  0.332387  0.917613  1
  O  O20  1  0.375000  0.375000  0.375000  1
  O  O21  1  0.332387  0.332387  0.917613  1
