# generated using pymatgen
data_Ce(SeO3)2
_symmetry_space_group_name_H-M   'P 1'
_cell_length_a   7.15527990
_cell_length_b   7.42134717
_cell_length_c   10.85608173
_cell_angle_alpha   90.00000000
_cell_angle_beta   90.00000000
_cell_angle_gamma   106.24192455
_symmetry_Int_Tables_number   1
_chemical_formula_structural   Ce(SeO3)2
_chemical_formula_sum   'Ce4 Se8 O24'
_cell_volume   553.47002190
_cell_formula_units_Z   4
loop_
 _symmetry_equiv_pos_site_id
 _symmetry_equiv_pos_as_xyz
  1  'x, y, z'
loop_
 _atom_site_type_symbol
 _atom_site_label
 _atom_site_symmetry_multiplicity
 _atom_site_fract_x
 _atom_site_fract_y
 _atom_site_fract_z
 _atom_site_occupancy
  Ce  Ce0  1  0.739514  0.987894  0.903260  1
  Ce  Ce1  1  0.760486  0.512106  0.403260  1
  Ce  Ce2  1  0.260486  0.012106  0.096740  1
  Ce  Ce3  1  0.239514  0.487894  0.596740  1
  Se  Se4  1  0.759218  0.572903  0.714764  1
  Se  Se5  1  0.740782  0.927097  0.214764  1
  Se  Se6  1  0.240782  0.427097  0.285236  1
  Se  Se7  1  0.259218  0.072903  0.785236  1
  Se  Se8  1  0.714422  0.430604  0.071792  1
  Se  Se9  1  0.785578  0.069396  0.571792  1
  Se  Se10  1  0.285578  0.569396  0.928208  1
  Se  Se11  1  0.214422  0.930604  0.428208  1
  O  O12  1  0.855332  0.801927  0.758173  1
  O  O13  1  0.644668  0.698073  0.258173  1
  O  O14  1  0.144668  0.198073  0.241827  1
  O  O15  1  0.355332  0.301927  0.741827  1
  O  O16  1  0.593903  0.592704  0.599127  1
  O  O17  1  0.906097  0.907296  0.099127  1
  O  O18  1  0.406097  0.407296  0.400873  1
  O  O19  1  0.093903  0.092704  0.900873  1
  O  O20  1  0.927555  0.541687  0.605146  1
  O  O21  1  0.572445  0.958313  0.105146  1
  O  O22  1  0.072445  0.458313  0.394854  1
  O  O23  1  0.427555  0.041687  0.894854  1
  O  O24  1  0.808576  0.286443  0.979627  1
  O  O25  1  0.691424  0.213557  0.479627  1
  O  O26  1  0.191424  0.713557  0.020373  1
  O  O27  1  0.308576  0.786443  0.520373  1
  O  O28  1  0.468775  0.312962  0.088204  1
  O  O29  1  0.031225  0.187038  0.588204  1
  O  O30  1  0.531225  0.687038  0.911796  1
  O  O31  1  0.968775  0.812962  0.411796  1
  O  O32  1  0.798252  0.387600  0.215626  1
  O  O33  1  0.701748  0.112400  0.715626  1
  O  O34  1  0.201748  0.612400  0.784374  1
  O  O35  1  0.298252  0.887600  0.284374  1
