# generated using pymatgen
data_KNa3Al4(GeO4)4
_symmetry_space_group_name_H-M   'P 1'
_cell_length_a   8.77629385
_cell_length_b   10.38787493
_cell_length_c   10.34009464
_cell_angle_alpha   120.51423933
_cell_angle_beta   90.00000000
_cell_angle_gamma   90.00000000
_symmetry_Int_Tables_number   1
_chemical_formula_structural   KNa3Al4(GeO4)4
_chemical_formula_sum   'K2 Na6 Al8 Ge8 O32'
_cell_volume   812.11807286
_cell_formula_units_Z   2
loop_
 _symmetry_equiv_pos_site_id
 _symmetry_equiv_pos_as_xyz
  1  'x, y, z'
loop_
 _atom_site_type_symbol
 _atom_site_label
 _atom_site_symmetry_multiplicity
 _atom_site_fract_x
 _atom_site_fract_y
 _atom_site_fract_z
 _atom_site_occupancy
  K  K0  1  0.577724  0.982338  0.990951  1
  K  K1  1  0.077724  0.017662  0.009049  1
  Na  Na2  1  0.602714  0.583988  0.600181  1
  Na  Na3  1  0.566719  0.996702  0.447953  1
  Na  Na4  1  0.066719  0.003298  0.552047  1
  Na  Na5  1  0.562404  0.424573  0.975090  1
  Na  Na6  1  0.102714  0.416012  0.399819  1
  Na  Na7  1  0.062404  0.575427  0.024910  1
  Al  Al8  1  0.758195  0.763578  0.092834  1
  Al  Al9  1  0.723764  0.331341  0.234370  1
  Al  Al10  1  0.258195  0.236422  0.907166  1
  Al  Al11  1  0.223764  0.668659  0.765630  1
  Al  Al12  1  0.257158  0.083358  0.319820  1
  Al  Al13  1  0.310893  0.657732  0.325950  1
  Al  Al14  1  0.757158  0.916642  0.680180  1
  Al  Al15  1  0.810894  0.342268  0.674050  1
  Ge  Ge16  1  0.398104  0.751890  0.084578  1
  Ge  Ge17  1  0.926397  0.679736  0.767358  1
  Ge  Ge18  1  0.898104  0.248110  0.915422  1
  Ge  Ge19  1  0.318800  0.337522  0.658986  1
  Ge  Ge20  1  0.885797  0.093901  0.329094  1
  Ge  Ge21  1  0.426397  0.320264  0.232642  1
  Ge  Ge22  1  0.818800  0.662478  0.341014  1
  Ge  Ge23  1  0.385797  0.906099  0.670906  1
  O  O24  1  0.245212  0.044897  0.761181  1
  O  O25  1  0.357037  0.768834  0.723275  1
  O  O26  1  0.296100  0.356360  0.835288  1
  O  O27  1  0.880804  0.370937  0.846425  1
  O  O28  1  0.857037  0.231166  0.276725  1
  O  O29  1  0.110337  0.697925  0.314852  1
  O  O30  1  0.079066  0.282724  0.000314  1
  O  O31  1  0.281707  0.154399  0.515030  1
  O  O32  1  0.881152  0.171555  0.524521  1
  O  O33  1  0.568609  0.984813  0.727944  1
  O  O34  1  0.068609  0.015187  0.272056  1
  O  O35  1  0.340174  0.503123  0.346039  1
  O  O36  1  0.893140  0.059326  0.770904  1
  O  O37  1  0.781707  0.845601  0.484970  1
  O  O38  1  0.899940  0.736574  0.963375  1
  O  O39  1  0.381152  0.828445  0.475479  1
  O  O40  1  0.720701  0.525890  0.361487  1
  O  O41  1  0.393140  0.940674  0.229096  1
  O  O42  1  0.380804  0.629063  0.153575  1
  O  O43  1  0.610337  0.302075  0.685148  1
  O  O44  1  0.745213  0.955103  0.238819  1
  O  O45  1  0.012244  0.610898  0.361757  1
  O  O46  1  0.399940  0.263426  0.036625  1
  O  O47  1  0.840174  0.496877  0.653961  1
  O  O48  1  0.251008  0.718284  0.954159  1
  O  O49  1  0.278996  0.214118  0.261955  1
  O  O50  1  0.796100  0.643640  0.164712  1
  O  O51  1  0.579066  0.717276  0.999686  1
  O  O52  1  0.512244  0.389102  0.638243  1
  O  O53  1  0.751008  0.281716  0.045841  1
  O  O54  1  0.778996  0.785882  0.738045  1
  O  O55  1  0.220701  0.474110  0.638513  1
