# generated using pymatgen
data_AgCNO
_symmetry_space_group_name_H-M   'P 1'
_cell_length_a   3.59519207
_cell_length_b   6.23263454
_cell_length_c   5.56937658
_cell_angle_alpha   90.00000000
_cell_angle_beta   90.00000000
_cell_angle_gamma   90.00000000
_symmetry_Int_Tables_number   1
_chemical_formula_structural   AgCNO
_chemical_formula_sum   'Ag2 C2 N2 O2'
_cell_volume   124.79590749
_cell_formula_units_Z   2
loop_
 _symmetry_equiv_pos_site_id
 _symmetry_equiv_pos_as_xyz
  1  'x, y, z'
loop_
 _atom_site_type_symbol
 _atom_site_label
 _atom_site_symmetry_multiplicity
 _atom_site_fract_x
 _atom_site_fract_y
 _atom_site_fract_z
 _atom_site_occupancy
  C  C0  1  0.750000  0.750000  0.166640  1
  N  N1  1  0.250000  0.250000  0.047153  1
  C  C2  1  0.250000  0.250000  0.833345  1
  Ag  Ag3  1  0.750000  0.250000  0.601673  1
  N  N4  1  0.750000  0.750000  0.952911  1
  O  O5  1  0.750000  0.750000  0.727867  1
  Ag  Ag6  1  0.250000  0.750000  0.398329  1
  O  O7  1  0.250000  0.250000  0.272082  1
