# generated using pymatgen
data_YbGa2Ge3
_symmetry_space_group_name_H-M   'P 1'
_cell_length_a   4.22075736
_cell_length_b   10.82942543
_cell_length_c   11.87598747
_cell_angle_alpha   90.00000000
_cell_angle_beta   100.23589861
_cell_angle_gamma   90.00000000
_symmetry_Int_Tables_number   1
_chemical_formula_structural   YbGa2Ge3
_chemical_formula_sum   'Yb4 Ga8 Ge12'
_cell_volume   534.19264918
_cell_formula_units_Z   4
loop_
 _symmetry_equiv_pos_site_id
 _symmetry_equiv_pos_as_xyz
  1  'x, y, z'
loop_
 _atom_site_type_symbol
 _atom_site_label
 _atom_site_symmetry_multiplicity
 _atom_site_fract_x
 _atom_site_fract_y
 _atom_site_fract_z
 _atom_site_occupancy
  Yb  Yb0  1  0.018304  0.631466  0.036608  1
  Yb  Yb1  1  0.299814  0.811950  0.599627  1
  Yb  Yb2  1  0.981696  0.131466  0.963392  1
  Yb  Yb3  1  0.700186  0.311950  0.400373  1
  Ga  Ga4  1  0.150553  0.755694  0.301105  1
  Ga  Ga5  1  0.485232  0.377976  0.970464  1
  Ga  Ga6  1  0.114011  0.129273  0.228022  1
  Ga  Ga7  1  0.849447  0.255694  0.698895  1
  Ga  Ga8  1  0.885989  0.629273  0.771978  1
  Ga  Ga9  1  0.514768  0.877976  0.029536  1
  Ga  Ga10  1  0.749033  0.998925  0.498066  1
  Ga  Ga11  1  0.250967  0.498925  0.501934  1
  Ge  Ge12  1  0.412865  0.961196  0.825729  1
  Ge  Ge13  1  0.587135  0.461196  0.174271  1
  Ge  Ge14  1  0.428415  0.724786  0.856830  1
  Ge  Ge15  1  0.294397  0.287199  0.588794  1
  Ge  Ge16  1  0.070100  0.908225  0.140199  1
  Ge  Ge17  1  0.705603  0.787199  0.411206  1
  Ge  Ge18  1  0.571585  0.224786  0.143170  1
  Ge  Ge19  1  0.222564  0.107999  0.445127  1
  Ge  Ge20  1  0.777436  0.607999  0.554873  1
  Ge  Ge21  1  0.141458  0.523119  0.282917  1
  Ge  Ge22  1  0.858542  0.023119  0.717083  1
  Ge  Ge23  1  0.929900  0.408225  0.859801  1
