# generated using pymatgen
data_GaN5O14
_symmetry_space_group_name_H-M   'P 1'
_cell_length_a   6.26467290
_cell_length_b   7.42006065
_cell_length_c   7.42006084
_cell_angle_alpha   79.73472631
_cell_angle_beta   65.02996413
_cell_angle_gamma   65.02996074
_symmetry_Int_Tables_number   1
_chemical_formula_structural   GaN5O14
_chemical_formula_sum   'Ga1 N5 O14'
_cell_volume   283.44996467
_cell_formula_units_Z   1
loop_
 _symmetry_equiv_pos_site_id
 _symmetry_equiv_pos_as_xyz
  1  'x, y, z'
loop_
 _atom_site_type_symbol
 _atom_site_label
 _atom_site_symmetry_multiplicity
 _atom_site_fract_x
 _atom_site_fract_y
 _atom_site_fract_z
 _atom_site_occupancy
  Ga  Ga0  1  0.000000  0.000000  0.000000  1
  N  N1  1  0.126868  0.309577  0.005153  1
  N  N2  1  0.867978  0.005153  0.690423  1
  N  N3  1  0.441598  0.690423  0.994847  1
  N  N4  1  0.563555  0.994847  0.309577  1
  N  N5  1  0.750000  0.500000  0.500000  1
  O  O6  1  0.489855  0.168273  0.249412  1
  O  O7  1  0.815877  0.078795  0.545097  1
  O  O8  1  0.639026  0.545097  0.921205  1
  O  O9  1  0.323181  0.795101  0.869903  1
  O  O10  1  0.341871  0.750588  0.168273  1
  O  O11  1  0.439769  0.921205  0.454903  1
  O  O12  1  0.806916  0.869903  0.204899  1
  O  O13  1  0.988185  0.204899  0.130097  1
  O  O14  1  0.105328  0.454903  0.078795  1
  O  O15  1  0.931843  0.500000  0.500000  1
  O  O16  1  0.881718  0.130097  0.795101  1
  O  O17  1  0.260733  0.249412  0.831727  1
  O  O18  1  0.907541  0.831727  0.750588  1
  O  O19  1  0.568157  0.500000  0.500000  1
