# generated using pymatgen
data_Re(CO)5
_symmetry_space_group_name_H-M   'P 1'
_cell_length_a   7.37339484
_cell_length_b   9.89595974
_cell_length_c   12.72798923
_cell_angle_alpha   83.49427224
_cell_angle_beta   73.16282983
_cell_angle_gamma   68.12730032
_symmetry_Int_Tables_number   1
_chemical_formula_structural   Re(CO)5
_chemical_formula_sum   'Re4 C20 O20'
_cell_volume   824.90400084
_cell_formula_units_Z   4
loop_
 _symmetry_equiv_pos_site_id
 _symmetry_equiv_pos_as_xyz
  1  'x, y, z'
loop_
 _atom_site_type_symbol
 _atom_site_label
 _atom_site_symmetry_multiplicity
 _atom_site_fract_x
 _atom_site_fract_y
 _atom_site_fract_z
 _atom_site_occupancy
  Re  Re0  1  0.696479  0.917358  0.223475  1
  Re  Re1  1  0.837313  0.582642  0.276525  1
  Re  Re2  1  0.303521  0.082642  0.776525  1
  Re  Re3  1  0.162687  0.417358  0.723475  1
  C  C4  1  0.595210  0.125893  0.200065  1
  C  C5  1  0.921168  0.374107  0.299935  1
  C  C6  1  0.404790  0.874107  0.799935  1
  C  C7  1  0.078832  0.625893  0.700065  1
  O  O8  1  0.532677  0.251694  0.187821  1
  O  O9  1  0.972193  0.248306  0.312179  1
  O  O10  1  0.467323  0.748306  0.812179  1
  O  O11  1  0.027807  0.751694  0.687821  1
  C  C12  1  0.685357  0.865947  0.078625  1
  C  C13  1  0.629929  0.634053  0.421375  1
  C  C14  1  0.314643  0.134053  0.921375  1
  C  C15  1  0.370071  0.365947  0.578625  1
  O  O16  1  0.684517  0.834193  0.993824  1
  O  O17  1  0.512534  0.665807  0.506176  1
  O  O18  1  0.315483  0.165807  0.006176  1
  O  O19  1  0.487466  0.334193  0.493824  1
  C  C20  1  0.731668  0.933169  0.371052  1
  C  C21  1  0.035889  0.566831  0.128948  1
  C  C22  1  0.268332  0.066831  0.628948  1
  C  C23  1  0.964111  0.433169  0.871052  1
  O  O24  1  0.752875  0.941624  0.456541  1
  O  O25  1  0.151040  0.558376  0.043459  1
  O  O26  1  0.247125  0.058376  0.543459  1
  O  O27  1  0.848960  0.441624  0.956541  1
  C  C28  1  0.984371  0.898408  0.152814  1
  C  C29  1  0.035593  0.601592  0.347186  1
  C  C30  1  0.015629  0.101592  0.847186  1
  C  C31  1  0.964407  0.398408  0.652814  1
  O  O32  1  0.149572  0.889650  0.108042  1
  O  O33  1  0.147264  0.610350  0.391958  1
  O  O34  1  0.850428  0.110350  0.891958  1
  O  O35  1  0.852736  0.389650  0.608042  1
  C  C36  1  0.416681  0.913956  0.292285  1
  C  C37  1  0.622922  0.586044  0.207715  1
  C  C38  1  0.583319  0.086044  0.707715  1
  C  C39  1  0.377078  0.413956  0.792285  1
  O  O40  1  0.255025  0.911466  0.330198  1
  O  O41  1  0.496689  0.588534  0.169802  1
  O  O42  1  0.744975  0.088534  0.669802  1
  O  O43  1  0.503311  0.411466  0.830198  1
