# generated using pymatgen
data_CaTl2O4
_symmetry_space_group_name_H-M   'P 1'
_cell_length_a   3.38150008
_cell_length_b   5.85791657
_cell_length_c   10.65250903
_cell_angle_alpha   90.00000000
_cell_angle_beta   90.00000000
_cell_angle_gamma   106.77574528
_symmetry_Int_Tables_number   1
_chemical_formula_structural   CaTl2O4
_chemical_formula_sum   'Ca2 Tl4 O8'
_cell_volume   202.03046527
_cell_formula_units_Z   2
loop_
 _symmetry_equiv_pos_site_id
 _symmetry_equiv_pos_as_xyz
  1  'x, y, z'
loop_
 _atom_site_type_symbol
 _atom_site_label
 _atom_site_symmetry_multiplicity
 _atom_site_fract_x
 _atom_site_fract_y
 _atom_site_fract_z
 _atom_site_occupancy
  O  O0  1  0.536806  0.073611  0.250000  1
  O  O1  1  0.463194  0.926389  0.750000  1
  O  O2  1  0.000000  0.000000  0.500000  1
  O  O3  1  0.000000  0.000000  0.000000  1
  O  O4  1  0.280295  0.560591  0.117442  1
  O  O5  1  0.719705  0.439409  0.882558  1
  O  O6  1  0.280295  0.560591  0.382558  1
  O  O7  1  0.719705  0.439409  0.617442  1
  Ca  Ca8  1  0.891822  0.783645  0.250000  1
  Ca  Ca9  1  0.108178  0.216355  0.750000  1
  Tl  Tl10  1  0.365355  0.730711  0.572055  1
  Tl  Tl11  1  0.634645  0.269289  0.427945  1
  Tl  Tl12  1  0.634645  0.269289  0.072055  1
  Tl  Tl13  1  0.365355  0.730711  0.927945  1
