# generated using pymatgen
data_HgC2O2F3
_symmetry_space_group_name_H-M   'P 1'
_cell_length_a   8.53069651
_cell_length_b   8.94058706
_cell_length_c   8.94058708
_cell_angle_alpha   65.44478949
_cell_angle_beta   62.43338718
_cell_angle_gamma   62.43338273
_symmetry_Int_Tables_number   1
_chemical_formula_structural   HgC2O2F3
_chemical_formula_sum   'Hg4 C8 O8 F12'
_cell_volume   517.95762171
_cell_formula_units_Z   4
loop_
 _symmetry_equiv_pos_site_id
 _symmetry_equiv_pos_as_xyz
  1  'x, y, z'
loop_
 _atom_site_type_symbol
 _atom_site_label
 _atom_site_symmetry_multiplicity
 _atom_site_fract_x
 _atom_site_fract_y
 _atom_site_fract_z
 _atom_site_occupancy
  Hg  Hg0  1  0.108180  0.942966  0.253045  1
  Hg  Hg1  1  0.891820  0.057034  0.746955  1
  Hg  Hg2  1  0.608180  0.253045  0.942966  1
  Hg  Hg3  1  0.391820  0.746955  0.057034  1
  C  C4  1  0.213917  0.362070  0.143196  1
  C  C5  1  0.511617  0.237711  0.472255  1
  C  C6  1  0.286083  0.856804  0.637930  1
  C  C7  1  0.488383  0.762289  0.527745  1
  C  C8  1  0.988383  0.527745  0.762289  1
  C  C9  1  0.786083  0.637930  0.856804  1
  C  C10  1  0.713917  0.143196  0.362070  1
  C  C11  1  0.011617  0.472255  0.237711  1
  O  O12  1  0.838178  0.075346  0.436494  1
  O  O13  1  0.239382  0.213828  0.143177  1
  O  O14  1  0.760618  0.786172  0.856823  1
  O  O15  1  0.260618  0.856823  0.786172  1
  O  O16  1  0.739382  0.143177  0.213828  1
  O  O17  1  0.338178  0.436494  0.075346  1
  O  O18  1  0.161822  0.924654  0.563506  1
  O  O19  1  0.661822  0.563506  0.924654  1
  F  F20  1  0.528043  0.585949  0.591723  1
  F  F21  1  0.117752  0.538645  0.802529  1
  F  F22  1  0.882248  0.461355  0.197471  1
  F  F23  1  0.986878  0.643806  0.197352  1
  F  F24  1  0.971957  0.408277  0.414051  1
  F  F25  1  0.013122  0.356194  0.802648  1
  F  F26  1  0.382248  0.197471  0.461355  1
  F  F27  1  0.028043  0.591723  0.585949  1
  F  F28  1  0.471957  0.414051  0.408277  1
  F  F29  1  0.513122  0.802648  0.356194  1
  F  F30  1  0.617752  0.802529  0.538645  1
  F  F31  1  0.486878  0.197352  0.643806  1
