# generated using pymatgen
data_BaGd2Mn2O7
_symmetry_space_group_name_H-M   'P 1'
_cell_length_a   5.54418820
_cell_length_b   5.54418820
_cell_length_c   20.09860120
_cell_angle_alpha   90.00000000
_cell_angle_beta   90.00000000
_cell_angle_gamma   90.00000000
_symmetry_Int_Tables_number   1
_chemical_formula_structural   BaGd2Mn2O7
_chemical_formula_sum   'Ba4 Gd8 Mn8 O28'
_cell_volume   617.79126187
_cell_formula_units_Z   4
loop_
 _symmetry_equiv_pos_site_id
 _symmetry_equiv_pos_as_xyz
  1  'x, y, z'
loop_
 _atom_site_type_symbol
 _atom_site_label
 _atom_site_symmetry_multiplicity
 _atom_site_fract_x
 _atom_site_fract_y
 _atom_site_fract_z
 _atom_site_occupancy
  Ba  Ba0  1  0.244028  0.244028  0.000000  1
  Ba  Ba1  1  0.255972  0.744028  0.500000  1
  Ba  Ba2  1  0.744028  0.255972  0.500000  1
  Ba  Ba3  1  0.755972  0.755972  0.000000  1
  Gd  Gd4  1  0.228731  0.228731  0.183660  1
  Gd  Gd5  1  0.271269  0.728731  0.683660  1
  Gd  Gd6  1  0.728731  0.271269  0.683660  1
  Gd  Gd7  1  0.728731  0.271269  0.316340  1
  Gd  Gd8  1  0.271269  0.728731  0.316340  1
  Gd  Gd9  1  0.771269  0.771269  0.183660  1
  Gd  Gd10  1  0.228731  0.228731  0.816340  1
  Gd  Gd11  1  0.771269  0.771269  0.816340  1
  Mn  Mn12  1  0.246327  0.246327  0.397841  1
  Mn  Mn13  1  0.253673  0.746327  0.897841  1
  Mn  Mn14  1  0.746327  0.253673  0.897841  1
  Mn  Mn15  1  0.746327  0.253673  0.102159  1
  Mn  Mn16  1  0.253673  0.746327  0.102159  1
  Mn  Mn17  1  0.753673  0.753673  0.397841  1
  Mn  Mn18  1  0.246327  0.246327  0.602159  1
  Mn  Mn19  1  0.753673  0.753673  0.602159  1
  O  O20  1  0.274080  0.725920  0.000000  1
  O  O21  1  0.774080  0.774080  0.500000  1
  O  O22  1  0.225920  0.225920  0.500000  1
  O  O23  1  0.725920  0.274080  0.000000  1
  O  O24  1  0.000000  0.500000  0.387650  1
  O  O25  1  0.000000  0.500000  0.887650  1
  O  O26  1  0.500000  0.000000  0.112350  1
  O  O27  1  0.500000  0.000000  0.612350  1
  O  O28  1  0.000000  0.500000  0.612350  1
  O  O29  1  0.000000  0.500000  0.112350  1
  O  O30  1  0.500000  0.000000  0.887650  1
  O  O31  1  0.500000  0.000000  0.387650  1
  O  O32  1  0.000000  0.000000  0.099557  1
  O  O33  1  0.500000  0.500000  0.599557  1
  O  O34  1  0.500000  0.500000  0.400443  1
  O  O35  1  0.000000  0.000000  0.900443  1
  O  O36  1  0.000000  0.000000  0.375397  1
  O  O37  1  0.500000  0.500000  0.875397  1
  O  O38  1  0.500000  0.500000  0.124603  1
  O  O39  1  0.000000  0.000000  0.624603  1
  O  O40  1  0.298196  0.298196  0.291650  1
  O  O41  1  0.201804  0.798196  0.791650  1
  O  O42  1  0.798196  0.201804  0.791650  1
  O  O43  1  0.798196  0.201804  0.208350  1
  O  O44  1  0.201804  0.798196  0.208350  1
  O  O45  1  0.701804  0.701804  0.291650  1
  O  O46  1  0.298196  0.298196  0.708350  1
  O  O47  1  0.701804  0.701804  0.708350  1
