# generated using pymatgen
data_Pr3MoO7
_symmetry_space_group_name_H-M   'P 1'
_cell_length_a   7.78056760
_cell_length_b   7.69669925
_cell_length_c   11.05509350
_cell_angle_alpha   90.00000000
_cell_angle_beta   90.00000000
_cell_angle_gamma   90.00000000
_symmetry_Int_Tables_number   1
_chemical_formula_structural   Pr3MoO7
_chemical_formula_sum   'Pr12 Mo4 O28'
_cell_volume   662.03083403
_cell_formula_units_Z   4
loop_
 _symmetry_equiv_pos_site_id
 _symmetry_equiv_pos_as_xyz
  1  'x, y, z'
loop_
 _atom_site_type_symbol
 _atom_site_label
 _atom_site_symmetry_multiplicity
 _atom_site_fract_x
 _atom_site_fract_y
 _atom_site_fract_z
 _atom_site_occupancy
  O  O0  1  0.514530  0.239912  0.117832  1
  O  O1  1  0.014530  0.260088  0.882168  1
  O  O2  1  0.485470  0.739912  0.382168  1
  O  O3  1  0.985470  0.760088  0.617832  1
  O  O4  1  0.691706  0.032399  0.874811  1
  O  O5  1  0.191706  0.467601  0.125189  1
  O  O6  1  0.308294  0.532399  0.625189  1
  O  O7  1  0.808294  0.967601  0.374811  1
  O  O8  1  0.936275  0.253694  0.254337  1
  O  O9  1  0.436275  0.246307  0.745663  1
  O  O10  1  0.063725  0.753694  0.245663  1
  O  O11  1  0.563725  0.746306  0.754337  1
  O  O12  1  0.703365  0.032419  0.629764  1
  O  O13  1  0.203365  0.467581  0.370236  1
  O  O14  1  0.296635  0.532419  0.870236  1
  O  O15  1  0.796635  0.967581  0.129764  1
  O  O16  1  0.175132  0.035737  0.375020  1
  O  O17  1  0.675132  0.464263  0.624980  1
  O  O18  1  0.824868  0.535737  0.124980  1
  O  O19  1  0.324868  0.964263  0.875020  1
  O  O20  1  0.145901  0.041448  0.108230  1
  O  O21  1  0.645901  0.458552  0.891770  1
  O  O22  1  0.854099  0.541448  0.391770  1
  O  O23  1  0.354099  0.958552  0.608230  1
  O  O24  1  0.971226  0.749833  0.882917  1
  O  O25  1  0.471226  0.750167  0.117083  1
  O  O26  1  0.028774  0.249833  0.617083  1
  O  O27  1  0.528774  0.250167  0.382917  1
  Mo  Mo28  1  0.498580  0.996095  0.749225  1
  Mo  Mo29  1  0.998580  0.503905  0.250775  1
  Mo  Mo30  1  0.501420  0.496095  0.750775  1
  Mo  Mo31  1  0.001420  0.003905  0.249225  1
  Pr  Pr32  1  0.791495  0.249529  0.026103  1
  Pr  Pr33  1  0.291495  0.250471  0.973897  1
  Pr  Pr34  1  0.208505  0.749529  0.473897  1
  Pr  Pr35  1  0.708505  0.750471  0.526103  1
  Pr  Pr36  1  0.542300  0.988745  0.253517  1
  Pr  Pr37  1  0.042300  0.511255  0.746483  1
  Pr  Pr38  1  0.457700  0.488745  0.246483  1
  Pr  Pr39  1  0.957700  0.011255  0.753517  1
  Pr  Pr40  1  0.701174  0.748629  0.978732  1
  Pr  Pr41  1  0.201174  0.751371  0.021268  1
  Pr  Pr42  1  0.298826  0.248629  0.521268  1
  Pr  Pr43  1  0.798826  0.251371  0.478732  1
