# generated using pymatgen
data_SrMo2(PO4)4
_symmetry_space_group_name_H-M   'P 1'
_cell_length_a   7.86665273
_cell_length_b   8.04198037
_cell_length_c   9.70618160
_cell_angle_alpha   91.09383060
_cell_angle_beta   90.00000000
_cell_angle_gamma   90.00000000
_symmetry_Int_Tables_number   1
_chemical_formula_structural   SrMo2(PO4)4
_chemical_formula_sum   'Sr2 Mo4 P8 O32'
_cell_volume   613.93480226
_cell_formula_units_Z   2
loop_
 _symmetry_equiv_pos_site_id
 _symmetry_equiv_pos_as_xyz
  1  'x, y, z'
loop_
 _atom_site_type_symbol
 _atom_site_label
 _atom_site_symmetry_multiplicity
 _atom_site_fract_x
 _atom_site_fract_y
 _atom_site_fract_z
 _atom_site_occupancy
  Sr  Sr0  1  0.000000  0.500000  0.000000  1
  Sr  Sr1  1  0.500000  0.000000  0.500000  1
  Mo  Mo2  1  0.720225  0.551941  0.664092  1
  Mo  Mo3  1  0.279775  0.448059  0.335908  1
  Mo  Mo4  1  0.779775  0.051941  0.164092  1
  Mo  Mo5  1  0.220225  0.948059  0.835908  1
  P  P6  1  0.598818  0.781868  0.936594  1
  P  P7  1  0.615348  0.675081  0.211565  1
  P  P8  1  0.098818  0.718132  0.563406  1
  P  P9  1  0.384652  0.324919  0.788435  1
  P  P10  1  0.901182  0.281868  0.436594  1
  P  P11  1  0.884652  0.175081  0.711565  1
  P  P12  1  0.115348  0.824919  0.288435  1
  P  P13  1  0.401182  0.218132  0.063406  1
  O  O14  1  0.850368  0.353387  0.769705  1
  O  O15  1  0.011440  0.091215  0.808325  1
  O  O16  1  0.769404  0.576107  0.172701  1
  O  O17  1  0.350368  0.146613  0.730295  1
  O  O18  1  0.205733  0.856107  0.634992  1
  O  O19  1  0.730596  0.076107  0.672701  1
  O  O20  1  0.705733  0.643893  0.865008  1
  O  O21  1  0.230596  0.423893  0.827299  1
  O  O22  1  0.493844  0.294889  0.932372  1
  O  O23  1  0.460342  0.842588  0.840346  1
  O  O24  1  0.621385  0.715487  0.584904  1
  O  O25  1  0.993844  0.205111  0.567628  1
  O  O26  1  0.539658  0.157412  0.159654  1
  O  O27  1  0.779587  0.417683  0.489597  1
  O  O28  1  0.006156  0.794889  0.432372  1
  O  O29  1  0.794267  0.143893  0.365008  1
  O  O30  1  0.960342  0.657412  0.659654  1
  O  O31  1  0.488560  0.591215  0.308325  1
  O  O32  1  0.649632  0.853387  0.269705  1
  O  O33  1  0.279587  0.082317  0.010403  1
  O  O34  1  0.039658  0.342588  0.340346  1
  O  O35  1  0.269404  0.923893  0.327299  1
  O  O36  1  0.149632  0.646613  0.230295  1
  O  O37  1  0.378615  0.284513  0.415096  1
  O  O38  1  0.988560  0.908785  0.191675  1
  O  O39  1  0.220413  0.582317  0.510403  1
  O  O40  1  0.511440  0.408785  0.691675  1
  O  O41  1  0.294267  0.356107  0.134992  1
  O  O42  1  0.720413  0.917683  0.989597  1
  O  O43  1  0.121385  0.784513  0.915096  1
  O  O44  1  0.506156  0.705111  0.067628  1
  O  O45  1  0.878615  0.215487  0.084904  1
