# generated using pymatgen
data_BaNb10SiO19
_symmetry_space_group_name_H-M   'P 1'
_cell_length_a   7.86315884
_cell_length_b   7.86315922
_cell_length_c   14.72364326
_cell_angle_alpha   90.00000000
_cell_angle_beta   90.00000000
_cell_angle_gamma   119.99999840
_symmetry_Int_Tables_number   1
_chemical_formula_structural   BaNb10SiO19
_chemical_formula_sum   'Ba2 Nb20 Si2 O38'
_cell_volume   788.38806958
_cell_formula_units_Z   2
loop_
 _symmetry_equiv_pos_site_id
 _symmetry_equiv_pos_as_xyz
  1  'x, y, z'
loop_
 _atom_site_type_symbol
 _atom_site_label
 _atom_site_symmetry_multiplicity
 _atom_site_fract_x
 _atom_site_fract_y
 _atom_site_fract_z
 _atom_site_occupancy
  Ba  Ba0  1  0.666667  0.333333  0.592881  1
  Ba  Ba1  1  0.333333  0.666667  0.092881  1
  Nb  Nb2  1  0.313154  0.449810  0.499924  1
  Nb  Nb3  1  0.666667  0.333333  0.332437  1
  Nb  Nb4  1  0.524240  0.637946  0.338899  1
  Nb  Nb5  1  0.550190  0.863345  0.499924  1
  Nb  Nb6  1  0.047213  0.227608  0.673489  1
  Nb  Nb7  1  0.886294  0.524240  0.838899  1
  Nb  Nb8  1  0.136655  0.686846  0.499924  1
  Nb  Nb9  1  0.227608  0.180395  0.173489  1
  Nb  Nb10  1  0.362054  0.886294  0.338899  1
  Nb  Nb11  1  0.637946  0.113706  0.838899  1
  Nb  Nb12  1  0.475760  0.362054  0.838899  1
  Nb  Nb13  1  0.819605  0.047213  0.173489  1
  Nb  Nb14  1  0.449810  0.136655  0.999924  1
  Nb  Nb15  1  0.333333  0.666667  0.832437  1
  Nb  Nb16  1  0.113706  0.475760  0.338899  1
  Nb  Nb17  1  0.686846  0.550190  0.999924  1
  Nb  Nb18  1  0.180395  0.952787  0.673489  1
  Nb  Nb19  1  0.772392  0.819605  0.673489  1
  Nb  Nb20  1  0.952787  0.772392  0.173489  1
  Nb  Nb21  1  0.863345  0.313154  0.999924  1
  Si  Si22  1  0.000000  0.000000  0.889612  1
  Si  Si23  1  0.000000  0.000000  0.389612  1
  O  O24  1  0.000000  0.000000  0.276140  1
  O  O25  1  0.920666  0.772122  0.919283  1
  O  O26  1  0.866099  0.301886  0.753086  1
  O  O27  1  0.772122  0.851456  0.419283  1
  O  O28  1  0.133901  0.698114  0.253086  1
  O  O29  1  0.698114  0.564213  0.753086  1
  O  O30  1  0.547216  0.641855  0.580903  1
  O  O31  1  0.592765  0.099538  0.420052  1
  O  O32  1  0.851456  0.079334  0.919283  1
  O  O33  1  0.493227  0.592765  0.920052  1
  O  O34  1  0.407235  0.900462  0.920052  1
  O  O35  1  0.905361  0.547216  0.080903  1
  O  O36  1  0.258836  0.208012  0.599143  1
  O  O37  1  0.576014  0.841692  0.762097  1
  O  O38  1  0.050824  0.258836  0.099143  1
  O  O39  1  0.094639  0.452784  0.580903  1
  O  O40  1  0.301886  0.435787  0.253086  1
  O  O41  1  0.435787  0.133901  0.753086  1
  O  O42  1  0.900462  0.493227  0.420052  1
  O  O43  1  0.452784  0.358145  0.080903  1
  O  O44  1  0.000000  0.000000  0.776140  1
  O  O45  1  0.949176  0.741164  0.599143  1
  O  O46  1  0.423986  0.158308  0.262097  1
  O  O47  1  0.734322  0.576014  0.262097  1
  O  O48  1  0.791988  0.050824  0.599143  1
  O  O49  1  0.741164  0.791988  0.099143  1
  O  O50  1  0.641855  0.094639  0.080903  1
  O  O51  1  0.358145  0.905361  0.580903  1
  O  O52  1  0.841692  0.265678  0.262097  1
  O  O53  1  0.564213  0.866099  0.253086  1
  O  O54  1  0.158308  0.734322  0.762097  1
  O  O55  1  0.227878  0.148544  0.919283  1
  O  O56  1  0.265678  0.423986  0.762097  1
  O  O57  1  0.099538  0.506773  0.920052  1
  O  O58  1  0.208012  0.949176  0.099143  1
  O  O59  1  0.148544  0.920666  0.419283  1
  O  O60  1  0.079334  0.227878  0.419283  1
  O  O61  1  0.506773  0.407235  0.420052  1
