# generated using pymatgen
data_KP4N7
_symmetry_space_group_name_H-M   'P 1'
_cell_length_a   4.70484444
_cell_length_b   12.34376566
_cell_length_c   9.95160587
_cell_angle_alpha   90.00000000
_cell_angle_beta   90.00000000
_cell_angle_gamma   90.00000000
_symmetry_Int_Tables_number   1
_chemical_formula_structural   KP4N7
_chemical_formula_sum   'K4 P16 N28'
_cell_volume   577.94445918
_cell_formula_units_Z   4
loop_
 _symmetry_equiv_pos_site_id
 _symmetry_equiv_pos_as_xyz
  1  'x, y, z'
loop_
 _atom_site_type_symbol
 _atom_site_label
 _atom_site_symmetry_multiplicity
 _atom_site_fract_x
 _atom_site_fract_y
 _atom_site_fract_z
 _atom_site_occupancy
  K  K0  1  0.241863  0.750000  0.650605  1
  K  K1  1  0.741863  0.250000  0.849395  1
  K  K2  1  0.758137  0.250000  0.349395  1
  K  K3  1  0.258137  0.750000  0.150605  1
  P  P4  1  0.710452  0.869391  0.911740  1
  P  P5  1  0.210452  0.130609  0.588260  1
  P  P6  1  0.289548  0.369391  0.088260  1
  P  P7  1  0.789548  0.630609  0.411740  1
  P  P8  1  0.289548  0.130609  0.088260  1
  P  P9  1  0.789548  0.869391  0.411740  1
  P  P10  1  0.710452  0.630609  0.911740  1
  P  P11  1  0.210452  0.369391  0.588260  1
  P  P12  1  0.719540  0.999763  0.656961  1
  P  P13  1  0.219540  0.000237  0.843039  1
  P  P14  1  0.280460  0.499763  0.343039  1
  P  P15  1  0.780460  0.500237  0.156961  1
  P  P16  1  0.280460  0.000237  0.343039  1
  P  P17  1  0.780460  0.999763  0.156961  1
  P  P18  1  0.719540  0.500237  0.656961  1
  P  P19  1  0.219540  0.499763  0.843039  1
  N  N20  1  0.797569  0.750000  0.868178  1
  N  N21  1  0.297569  0.250000  0.631822  1
  N  N22  1  0.202431  0.250000  0.131822  1
  N  N23  1  0.702431  0.750000  0.368178  1
  N  N24  1  0.378286  0.892321  0.885588  1
  N  N25  1  0.878286  0.107679  0.614412  1
  N  N26  1  0.621714  0.392321  0.114412  1
  N  N27  1  0.121714  0.607679  0.385588  1
  N  N28  1  0.621714  0.107679  0.114412  1
  N  N29  1  0.121714  0.892321  0.385588  1
  N  N30  1  0.378286  0.607679  0.885588  1
  N  N31  1  0.878286  0.392321  0.614412  1
  N  N32  1  0.686208  0.897020  0.561864  1
  N  N33  1  0.186208  0.102980  0.938136  1
  N  N34  1  0.313792  0.397020  0.438136  1
  N  N35  1  0.813792  0.602980  0.061864  1
  N  N36  1  0.313792  0.102980  0.438136  1
  N  N37  1  0.813792  0.897020  0.061864  1
  N  N38  1  0.686208  0.602980  0.561864  1
  N  N39  1  0.186208  0.397020  0.938136  1
  N  N40  1  0.880500  0.958028  0.801934  1
  N  N41  1  0.380500  0.041972  0.698066  1
  N  N42  1  0.119500  0.458028  0.198066  1
  N  N43  1  0.619500  0.541972  0.301934  1
  N  N44  1  0.119500  0.041972  0.198066  1
  N  N45  1  0.619500  0.958028  0.301934  1
  N  N46  1  0.880500  0.541972  0.801934  1
  N  N47  1  0.380500  0.458028  0.698066  1
