# generated using pymatgen
data_WXeOF6
_symmetry_space_group_name_H-M   'P 1'
_cell_length_a   5.59676292
_cell_length_b   10.41665106
_cell_length_c   12.68083814
_cell_angle_alpha   90.00000000
_cell_angle_beta   92.01042688
_cell_angle_gamma   90.00000000
_symmetry_Int_Tables_number   1
_chemical_formula_structural   WXeOF6
_chemical_formula_sum   'W4 Xe4 O4 F24'
_cell_volume   738.83179642
_cell_formula_units_Z   4
loop_
 _symmetry_equiv_pos_site_id
 _symmetry_equiv_pos_as_xyz
  1  'x, y, z'
loop_
 _atom_site_type_symbol
 _atom_site_label
 _atom_site_symmetry_multiplicity
 _atom_site_fract_x
 _atom_site_fract_y
 _atom_site_fract_z
 _atom_site_occupancy
  W  W0  1  0.607563  0.993264  0.770576  1
  W  W1  1  0.392437  0.006736  0.229424  1
  W  W2  1  0.392437  0.493264  0.729424  1
  W  W3  1  0.607563  0.506736  0.270576  1
  Xe  Xe4  1  0.982865  0.247946  0.978599  1
  Xe  Xe5  1  0.017135  0.747946  0.521401  1
  Xe  Xe6  1  0.017135  0.752054  0.021401  1
  Xe  Xe7  1  0.982865  0.252054  0.478599  1
  O  O8  1  0.524841  0.082231  0.337253  1
  O  O9  1  0.475159  0.917769  0.662747  1
  O  O10  1  0.524841  0.417769  0.837253  1
  O  O11  1  0.475159  0.582231  0.162747  1
  F  F12  1  0.822156  0.605167  0.960001  1
  F  F13  1  0.218943  0.585131  0.583550  1
  F  F14  1  0.510376  0.618904  0.379790  1
  F  F15  1  0.092865  0.094399  0.226278  1
  F  F16  1  0.357395  0.392566  0.306156  1
  F  F17  1  0.760515  0.367256  0.203406  1
  F  F18  1  0.489624  0.118904  0.120210  1
  F  F19  1  0.781057  0.085131  0.916450  1
  F  F20  1  0.781057  0.414869  0.416450  1
  F  F21  1  0.239485  0.632744  0.796594  1
  F  F22  1  0.177844  0.394833  0.039999  1
  F  F23  1  0.907135  0.905601  0.773722  1
  F  F24  1  0.218943  0.914869  0.083550  1
  F  F25  1  0.239485  0.867256  0.296594  1
  F  F26  1  0.760515  0.132744  0.703406  1
  F  F27  1  0.510376  0.881096  0.879790  1
  F  F28  1  0.822156  0.894833  0.460001  1
  F  F29  1  0.642605  0.892566  0.193844  1
  F  F30  1  0.489624  0.381096  0.620210  1
  F  F31  1  0.092865  0.405601  0.726278  1
  F  F32  1  0.357395  0.107434  0.806156  1
  F  F33  1  0.642605  0.607434  0.693844  1
  F  F34  1  0.907135  0.594399  0.273722  1
  F  F35  1  0.177844  0.105167  0.539999  1
