# generated using pymatgen
data_BaSnHgS4
_symmetry_space_group_name_H-M   'P 1'
_cell_length_a   6.74250434
_cell_length_b   11.04342761
_cell_length_c   11.09066980
_cell_angle_alpha   90.00000000
_cell_angle_beta   90.00000000
_cell_angle_gamma   90.00000000
_symmetry_Int_Tables_number   1
_chemical_formula_structural   BaSnHgS4
_chemical_formula_sum   'Ba4 Sn4 Hg4 S16'
_cell_volume   825.81525030
_cell_formula_units_Z   4
loop_
 _symmetry_equiv_pos_site_id
 _symmetry_equiv_pos_as_xyz
  1  'x, y, z'
loop_
 _atom_site_type_symbol
 _atom_site_label
 _atom_site_symmetry_multiplicity
 _atom_site_fract_x
 _atom_site_fract_y
 _atom_site_fract_z
 _atom_site_occupancy
  Ba  Ba0  1  0.051095  0.000000  0.500000  1
  Ba  Ba1  1  0.551095  0.500000  0.000000  1
  Ba  Ba2  1  0.549755  0.500000  0.500000  1
  Ba  Ba3  1  0.049755  0.000000  0.000000  1
  Sn  Sn4  1  0.536396  0.788147  0.253353  1
  Sn  Sn5  1  0.036396  0.288147  0.246647  1
  Sn  Sn6  1  0.036396  0.711853  0.753353  1
  Sn  Sn7  1  0.536396  0.211853  0.746647  1
  Hg  Hg8  1  0.998146  0.671400  0.248701  1
  Hg  Hg9  1  0.498146  0.171400  0.251299  1
  Hg  Hg10  1  0.998146  0.328600  0.751299  1
  Hg  Hg11  1  0.498146  0.828600  0.748701  1
  S  S12  1  0.766514  0.764685  0.420686  1
  S  S13  1  0.264519  0.734332  0.584181  1
  S  S14  1  0.799255  0.447830  0.249366  1
  S  S15  1  0.299255  0.052170  0.749366  1
  S  S16  1  0.764519  0.765668  0.084181  1
  S  S17  1  0.766514  0.235315  0.579314  1
  S  S18  1  0.266514  0.735315  0.920686  1
  S  S19  1  0.799255  0.552170  0.750634  1
  S  S20  1  0.344346  0.598333  0.251619  1
  S  S21  1  0.844346  0.098333  0.248381  1
  S  S22  1  0.344346  0.401667  0.748381  1
  S  S23  1  0.299255  0.947830  0.250634  1
  S  S24  1  0.844346  0.901667  0.751619  1
  S  S25  1  0.264519  0.265668  0.415819  1
  S  S26  1  0.764519  0.234332  0.915819  1
  S  S27  1  0.266514  0.264685  0.079314  1
