# generated using pymatgen
data_FeS4N4Cl3
_symmetry_space_group_name_H-M   'P 1'
_cell_length_a   7.10244423
_cell_length_b   11.79893317
_cell_length_c   14.49996028
_cell_angle_alpha   90.00000000
_cell_angle_beta   95.31738982
_cell_angle_gamma   90.00000000
_symmetry_Int_Tables_number   1
_chemical_formula_structural   FeS4N4Cl3
_chemical_formula_sum   'Fe4 S16 N16 Cl12'
_cell_volume   1209.88590538
_cell_formula_units_Z   4
loop_
 _symmetry_equiv_pos_site_id
 _symmetry_equiv_pos_as_xyz
  1  'x, y, z'
loop_
 _atom_site_type_symbol
 _atom_site_label
 _atom_site_symmetry_multiplicity
 _atom_site_fract_x
 _atom_site_fract_y
 _atom_site_fract_z
 _atom_site_occupancy
  Fe  Fe0  1  0.769476  0.596293  0.238741  1
  Fe  Fe1  1  0.769476  0.903707  0.738741  1
  Fe  Fe2  1  0.230524  0.403707  0.761259  1
  Fe  Fe3  1  0.230524  0.096293  0.261259  1
  S  S4  1  0.266373  0.353708  0.175804  1
  S  S5  1  0.791659  0.618560  0.537387  1
  S  S6  1  0.733627  0.853708  0.324196  1
  S  S7  1  0.499383  0.807949  0.890735  1
  S  S8  1  0.037803  0.701017  0.971600  1
  S  S9  1  0.962197  0.298983  0.028400  1
  S  S10  1  0.962197  0.201017  0.528400  1
  S  S11  1  0.208341  0.118560  0.962613  1
  S  S12  1  0.791659  0.881440  0.037387  1
  S  S13  1  0.500617  0.307949  0.609265  1
  S  S14  1  0.037803  0.798983  0.471600  1
  S  S15  1  0.733627  0.646292  0.824196  1
  S  S16  1  0.499383  0.692051  0.390735  1
  S  S17  1  0.266373  0.146292  0.675804  1
  S  S18  1  0.500617  0.192051  0.109265  1
  S  S19  1  0.208341  0.381440  0.462613  1
  N  N20  1  0.408494  0.139790  0.014431  1
  N  N21  1  0.085702  0.131851  0.603295  1
  N  N22  1  0.026702  0.174549  0.001060  1
  N  N23  1  0.085702  0.368149  0.103295  1
  N  N24  1  0.914298  0.631851  0.896705  1
  N  N25  1  0.335769  0.282282  0.681934  1
  N  N26  1  0.973298  0.825451  0.998940  1
  N  N27  1  0.973298  0.674549  0.498940  1
  N  N28  1  0.026702  0.325451  0.501060  1
  N  N29  1  0.914298  0.868149  0.396705  1
  N  N30  1  0.591506  0.639790  0.485569  1
  N  N31  1  0.335769  0.217718  0.181934  1
  N  N32  1  0.664231  0.782282  0.818066  1
  N  N33  1  0.591506  0.860210  0.985569  1
  N  N34  1  0.408494  0.360210  0.514431  1
  N  N35  1  0.664231  0.717718  0.318066  1
  Cl  Cl36  1  0.378675  0.400942  0.900579  1
  Cl  Cl37  1  0.621325  0.900942  0.599421  1
  Cl  Cl38  1  0.930161  0.137342  0.264099  1
  Cl  Cl39  1  0.378675  0.099058  0.400579  1
  Cl  Cl40  1  0.621325  0.599058  0.099421  1
  Cl  Cl41  1  0.282687  0.563501  0.691712  1
  Cl  Cl42  1  0.717313  0.063501  0.808288  1
  Cl  Cl43  1  0.069839  0.862658  0.735901  1
  Cl  Cl44  1  0.930161  0.362658  0.764099  1
  Cl  Cl45  1  0.717313  0.436499  0.308288  1
  Cl  Cl46  1  0.069839  0.637342  0.235901  1
  Cl  Cl47  1  0.282687  0.936499  0.191712  1
