# generated using pymatgen
data_Cs4Nb2Si8O23
_symmetry_space_group_name_H-M   'P 1'
_cell_length_a   7.11576209
_cell_length_b   8.01010678
_cell_length_c   11.23940543
_cell_angle_alpha   77.04567496
_cell_angle_beta   89.80495536
_cell_angle_gamma   71.76825354
_symmetry_Int_Tables_number   1
_chemical_formula_structural   Cs4Nb2Si8O23
_chemical_formula_sum   'Cs4 Nb2 Si8 O23'
_cell_volume   591.43479088
_cell_formula_units_Z   1
loop_
 _symmetry_equiv_pos_site_id
 _symmetry_equiv_pos_as_xyz
  1  'x, y, z'
loop_
 _atom_site_type_symbol
 _atom_site_label
 _atom_site_symmetry_multiplicity
 _atom_site_fract_x
 _atom_site_fract_y
 _atom_site_fract_z
 _atom_site_occupancy
  Cs  Cs0  1  0.208348  0.212792  0.013164  1
  Cs  Cs1  1  0.825706  0.718328  0.637214  1
  Cs  Cs2  1  0.174294  0.281672  0.362786  1
  Cs  Cs3  1  0.791652  0.787208  0.986836  1
  Nb  Nb4  1  0.295075  0.741967  0.814196  1
  Nb  Nb5  1  0.704925  0.258033  0.185804  1
  Si  Si6  1  0.658487  0.330498  0.868012  1
  Si  Si7  1  0.433730  0.140675  0.712931  1
  Si  Si8  1  0.352413  0.703284  0.498266  1
  Si  Si9  1  0.004611  0.812921  0.295586  1
  Si  Si10  1  0.566270  0.859325  0.287069  1
  Si  Si11  1  0.995389  0.187079  0.704414  1
  Si  Si12  1  0.647587  0.296716  0.501734  1
  Si  Si13  1  0.341513  0.669502  0.131988  1
  O  O14  1  0.544554  0.154467  0.582843  1
  O  O15  1  0.482168  0.751458  0.202701  1
  O  O16  1  0.141543  0.600082  0.847799  1
  O  O17  1  0.698649  0.220809  0.010455  1
  O  O18  1  0.128770  0.700960  0.198715  1
  O  O19  1  0.530869  0.065633  0.219914  1
  O  O20  1  0.562248  0.547775  0.850767  1
  O  O21  1  0.319339  0.736725  0.632809  1
  O  O22  1  0.437752  0.452225  0.149233  1
  O  O23  1  0.863766  0.264432  0.571691  1
  O  O24  1  0.469131  0.934367  0.780086  1
  O  O25  1  0.301351  0.779191  0.989545  1
  O  O26  1  0.871230  0.299040  0.801285  1
  O  O27  1  0.806455  0.748822  0.321801  1
  O  O28  1  0.048740  0.972297  0.758005  1
  O  O29  1  0.136234  0.735568  0.428309  1
  O  O30  1  0.500000  0.500000  0.500000  1
  O  O31  1  0.517832  0.248542  0.797299  1
  O  O32  1  0.858457  0.399918  0.152201  1
  O  O33  1  0.951260  0.027703  0.241995  1
  O  O34  1  0.193545  0.251178  0.678199  1
  O  O35  1  0.680661  0.263275  0.367191  1
  O  O36  1  0.455446  0.845533  0.417157  1
