# generated using pymatgen
data_Gd3Sc2(GaO4)3
_symmetry_space_group_name_H-M   'P 1'
_cell_length_a   11.04688322
_cell_length_b   11.04688296
_cell_length_c   11.04688346
_cell_angle_alpha   109.47121970
_cell_angle_beta   109.47121923
_cell_angle_gamma   109.47121990
_symmetry_Int_Tables_number   1
_chemical_formula_structural   Gd3Sc2(GaO4)3
_chemical_formula_sum   'Gd12 Sc8 Ga12 O48'
_cell_volume   1037.76116315
_cell_formula_units_Z   4
loop_
 _symmetry_equiv_pos_site_id
 _symmetry_equiv_pos_as_xyz
  1  'x, y, z'
loop_
 _atom_site_type_symbol
 _atom_site_label
 _atom_site_symmetry_multiplicity
 _atom_site_fract_x
 _atom_site_fract_y
 _atom_site_fract_z
 _atom_site_occupancy
  Gd  Gd0  1  0.125000  0.750000  0.875000  1
  Gd  Gd1  1  0.875000  0.125000  0.750000  1
  Gd  Gd2  1  0.625000  0.750000  0.375000  1
  Gd  Gd3  1  0.250000  0.625000  0.375000  1
  Gd  Gd4  1  0.250000  0.125000  0.875000  1
  Gd  Gd5  1  0.375000  0.250000  0.625000  1
  Gd  Gd6  1  0.875000  0.250000  0.125000  1
  Gd  Gd7  1  0.375000  0.625000  0.750000  1
  Gd  Gd8  1  0.625000  0.375000  0.250000  1
  Gd  Gd9  1  0.750000  0.375000  0.625000  1
  Gd  Gd10  1  0.750000  0.875000  0.125000  1
  Gd  Gd11  1  0.125000  0.875000  0.250000  1
  Sc  Sc12  1  0.500000  0.000000  0.500000  1
  Sc  Sc13  1  0.500000  0.000000  0.000000  1
  Sc  Sc14  1  0.500000  0.500000  0.500000  1
  Sc  Sc15  1  0.000000  0.500000  0.000000  1
  Sc  Sc16  1  0.000000  0.500000  0.500000  1
  Sc  Sc17  1  0.500000  0.500000  0.000000  1
  Sc  Sc18  1  0.000000  0.000000  0.000000  1
  Sc  Sc19  1  0.000000  0.000000  0.500000  1
  Ga  Ga20  1  0.750000  0.625000  0.875000  1
  Ga  Ga21  1  0.375000  0.750000  0.125000  1
  Ga  Ga22  1  0.875000  0.625000  0.250000  1
  Ga  Ga23  1  0.375000  0.125000  0.250000  1
  Ga  Ga24  1  0.625000  0.250000  0.875000  1
  Ga  Ga25  1  0.125000  0.375000  0.750000  1
  Ga  Ga26  1  0.250000  0.875000  0.625000  1
  Ga  Ga27  1  0.875000  0.750000  0.625000  1
  Ga  Ga28  1  0.125000  0.250000  0.375000  1
  Ga  Ga29  1  0.250000  0.375000  0.125000  1
  Ga  Ga30  1  0.625000  0.875000  0.750000  1
  Ga  Ga31  1  0.750000  0.125000  0.375000  1
  O  O32  1  0.442152  0.111711  0.883997  1
  O  O33  1  0.942152  0.383997  0.611711  1
  O  O34  1  0.888289  0.116003  0.557848  1
  O  O35  1  0.611711  0.169559  0.227713  1
  O  O36  1  0.883997  0.941846  0.772287  1
  O  O37  1  0.942152  0.058154  0.330441  1
  O  O38  1  0.388289  0.830441  0.772287  1
  O  O39  1  0.941846  0.772287  0.883997  1
  O  O40  1  0.558154  0.442152  0.830441  1
  O  O41  1  0.616003  0.388289  0.057848  1
  O  O42  1  0.557848  0.888289  0.116003  1
  O  O43  1  0.611711  0.942152  0.383997  1
  O  O44  1  0.383997  0.272287  0.441846  1
  O  O45  1  0.727713  0.669559  0.111711  1
  O  O46  1  0.111711  0.727713  0.669559  1
  O  O47  1  0.669559  0.057848  0.941846  1
  O  O48  1  0.441846  0.383997  0.272287  1
  O  O49  1  0.830441  0.772287  0.388289  1
  O  O50  1  0.169559  0.227713  0.611711  1
  O  O51  1  0.383997  0.611711  0.942152  1
  O  O52  1  0.616003  0.727713  0.558154  1
  O  O53  1  0.772287  0.388289  0.830441  1
  O  O54  1  0.272287  0.330441  0.888289  1
  O  O55  1  0.941846  0.669559  0.057848  1
  O  O56  1  0.883997  0.442152  0.111711  1
  O  O57  1  0.388289  0.057848  0.616003  1
  O  O58  1  0.116003  0.557848  0.888289  1
  O  O59  1  0.227713  0.611711  0.169559  1
  O  O60  1  0.558154  0.616003  0.727713  1
  O  O61  1  0.058154  0.330441  0.942152  1
  O  O62  1  0.227713  0.116003  0.058154  1
  O  O63  1  0.111711  0.883997  0.442152  1
  O  O64  1  0.772287  0.883997  0.941846  1
  O  O65  1  0.830441  0.558154  0.442152  1
  O  O66  1  0.057848  0.616003  0.388289  1
  O  O67  1  0.727713  0.558154  0.616003  1
  O  O68  1  0.442152  0.830441  0.558154  1
  O  O69  1  0.169559  0.441846  0.557848  1
  O  O70  1  0.330441  0.888289  0.272287  1
  O  O71  1  0.272287  0.441846  0.383997  1
  O  O72  1  0.669559  0.111711  0.727713  1
  O  O73  1  0.888289  0.272287  0.330441  1
  O  O74  1  0.057848  0.941846  0.669559  1
  O  O75  1  0.116003  0.058154  0.227713  1
  O  O76  1  0.557848  0.169559  0.441846  1
  O  O77  1  0.441846  0.557848  0.169559  1
  O  O78  1  0.058154  0.227713  0.116003  1
  O  O79  1  0.330441  0.942152  0.058154  1
