# generated using pymatgen
data_Tb2AlGe3
_symmetry_space_group_name_H-M   'P 1'
_cell_length_a   4.22559991
_cell_length_b   6.87057578
_cell_length_c   17.71912677
_cell_angle_alpha   90.00000000
_cell_angle_beta   90.00000000
_cell_angle_gamma   90.00000000
_symmetry_Int_Tables_number   1
_chemical_formula_structural   Tb2AlGe3
_chemical_formula_sum   'Tb8 Al4 Ge12'
_cell_volume   514.42708205
_cell_formula_units_Z   4
loop_
 _symmetry_equiv_pos_site_id
 _symmetry_equiv_pos_as_xyz
  1  'x, y, z'
loop_
 _atom_site_type_symbol
 _atom_site_label
 _atom_site_symmetry_multiplicity
 _atom_site_fract_x
 _atom_site_fract_y
 _atom_site_fract_z
 _atom_site_occupancy
  Tb  Tb0  1  0.750000  0.832957  0.796146  1
  Tb  Tb1  1  0.750000  0.830737  0.585127  1
  Tb  Tb2  1  0.250000  0.169263  0.414873  1
  Tb  Tb3  1  0.250000  0.667043  0.296146  1
  Tb  Tb4  1  0.750000  0.330737  0.914873  1
  Tb  Tb5  1  0.750000  0.332957  0.703854  1
  Tb  Tb6  1  0.250000  0.669263  0.085127  1
  Tb  Tb7  1  0.250000  0.167043  0.203854  1
  Al  Al8  1  0.750000  0.051702  0.065138  1
  Al  Al9  1  0.250000  0.448298  0.565138  1
  Al  Al10  1  0.750000  0.551702  0.434862  1
  Al  Al11  1  0.250000  0.948298  0.934862  1
  Ge  Ge12  1  0.750000  0.752243  0.965190  1
  Ge  Ge13  1  0.250000  0.643247  0.688506  1
  Ge  Ge14  1  0.750000  0.356753  0.311494  1
  Ge  Ge15  1  0.750000  0.856753  0.188506  1
  Ge  Ge16  1  0.750000  0.964578  0.327847  1
  Ge  Ge17  1  0.250000  0.535422  0.827847  1
  Ge  Ge18  1  0.750000  0.464578  0.172153  1
  Ge  Ge19  1  0.250000  0.143247  0.811494  1
  Ge  Ge20  1  0.250000  0.247757  0.034810  1
  Ge  Ge21  1  0.250000  0.035422  0.672153  1
  Ge  Ge22  1  0.750000  0.252243  0.534810  1
  Ge  Ge23  1  0.250000  0.747757  0.465190  1
