# generated using pymatgen
data_BaMo3O10
_symmetry_space_group_name_H-M   'P 1'
_cell_length_a   7.32193435
_cell_length_b   7.69798933
_cell_length_c   15.03658624
_cell_angle_alpha   90.00000000
_cell_angle_beta   101.07905580
_cell_angle_gamma   90.00000000
_symmetry_Int_Tables_number   1
_chemical_formula_structural   BaMo3O10
_chemical_formula_sum   'Ba4 Mo12 O40'
_cell_volume   831.72939966
_cell_formula_units_Z   4
loop_
 _symmetry_equiv_pos_site_id
 _symmetry_equiv_pos_as_xyz
  1  'x, y, z'
loop_
 _atom_site_type_symbol
 _atom_site_label
 _atom_site_symmetry_multiplicity
 _atom_site_fract_x
 _atom_site_fract_y
 _atom_site_fract_z
 _atom_site_occupancy
  O  O0  1  0.626295  0.009094  0.441153  1
  O  O1  1  0.373705  0.509094  0.558847  1
  O  O2  1  0.874125  0.235228  0.058737  1
  O  O3  1  0.125875  0.735228  0.941263  1
  O  O4  1  0.537566  0.483515  0.742360  1
  O  O5  1  0.462434  0.983515  0.257640  1
  O  O6  1  0.250720  0.508303  0.820926  1
  O  O7  1  0.749280  0.008303  0.179074  1
  O  O8  1  0.792285  0.513576  0.914029  1
  O  O9  1  0.207715  0.013576  0.085971  1
  O  O10  1  0.731171  0.484730  0.161383  1
  O  O11  1  0.268829  0.984730  0.838617  1
  O  O12  1  0.416879  0.493513  0.259663  1
  O  O13  1  0.583121  0.993513  0.740337  1
  O  O14  1  0.204433  0.470342  0.087999  1
  O  O15  1  0.795567  0.970342  0.912001  1
  O  O16  1  0.971778  0.008346  0.628750  1
  O  O17  1  0.028222  0.508346  0.371250  1
  O  O18  1  0.991039  0.003485  0.364608  1
  O  O19  1  0.008961  0.503485  0.635392  1
  O  O20  1  0.014698  0.758810  0.507530  1
  O  O21  1  0.985302  0.258810  0.492470  1
  O  O22  1  0.704813  0.275123  0.587436  1
  O  O23  1  0.295187  0.775123  0.412564  1
  O  O24  1  0.915717  0.251363  0.759528  1
  O  O25  1  0.084283  0.751363  0.240472  1
  O  O26  1  0.230799  0.260447  0.661889  1
  O  O27  1  0.769201  0.760447  0.338111  1
  O  O28  1  0.706809  0.731552  0.586599  1
  O  O29  1  0.293191  0.231552  0.413401  1
  O  O30  1  0.248800  0.737027  0.678821  1
  O  O31  1  0.751200  0.237027  0.321179  1
  O  O32  1  0.962125  0.761677  0.757784  1
  O  O33  1  0.037875  0.261677  0.242216  1
  O  O34  1  0.527858  0.236541  0.871218  1
  O  O35  1  0.472142  0.736541  0.128782  1
  O  O36  1  0.490734  0.741623  0.864738  1
  O  O37  1  0.509266  0.241623  0.135262  1
  O  O38  1  0.483146  0.485527  0.992227  1
  O  O39  1  0.516854  0.985527  0.007773  1
  Mo  Mo40  1  0.313444  0.495172  0.665173  1
  Mo  Mo41  1  0.686556  0.995172  0.334827  1
  Mo  Mo42  1  0.813872  0.250150  0.165025  1
  Mo  Mo43  1  0.186128  0.750150  0.834975  1
  Mo  Mo44  1  0.449551  0.979808  0.115367  1
  Mo  Mo45  1  0.550449  0.479808  0.884633  1
  Mo  Mo46  1  0.562564  0.989231  0.853584  1
  Mo  Mo47  1  0.437436  0.489231  0.146416  1
  Mo  Mo48  1  0.051232  0.264985  0.384593  1
  Mo  Mo49  1  0.948768  0.764985  0.615407  1
  Mo  Mo50  1  0.937395  0.255606  0.646431  1
  Mo  Mo51  1  0.062605  0.755606  0.353569  1
  Ba  Ba52  1  0.398927  0.991914  0.568154  1
  Ba  Ba53  1  0.601073  0.491914  0.431846  1
  Ba  Ba54  1  0.899184  0.754313  0.068262  1
  Ba  Ba55  1  0.100816  0.254313  0.931738  1
