# generated using pymatgen
data_YSiNO2
_symmetry_space_group_name_H-M   'P 1'
_cell_length_a   7.08849092
_cell_length_b   7.08849101
_cell_length_c   27.54912682
_cell_angle_alpha   90.00000000
_cell_angle_beta   90.00000000
_cell_angle_gamma   119.99999960
_symmetry_Int_Tables_number   1
_chemical_formula_structural   YSiNO2
_chemical_formula_sum   'Y18 Si18 N18 O36'
_cell_volume   1198.79811597
_cell_formula_units_Z   18
loop_
 _symmetry_equiv_pos_site_id
 _symmetry_equiv_pos_as_xyz
  1  'x, y, z'
loop_
 _atom_site_type_symbol
 _atom_site_label
 _atom_site_symmetry_multiplicity
 _atom_site_fract_x
 _atom_site_fract_y
 _atom_site_fract_z
 _atom_site_occupancy
  Y  Y0  1  0.988609  0.977219  0.250000  1
  Y  Y1  1  0.022781  0.011391  0.583333  1
  Y  Y2  1  0.011391  0.022781  0.750000  1
  Y  Y3  1  0.988609  0.011391  0.916667  1
  Y  Y4  1  0.341436  0.658564  0.916667  1
  Y  Y5  1  0.658564  0.317129  0.750000  1
  Y  Y6  1  0.658564  0.341436  0.416667  1
  Y  Y7  1  0.660895  0.339105  0.916667  1
  Y  Y8  1  0.682871  0.341436  0.083333  1
  Y  Y9  1  0.321790  0.660895  0.083333  1
  Y  Y10  1  0.317129  0.658564  0.583333  1
  Y  Y11  1  0.660895  0.321790  0.250000  1
  Y  Y12  1  0.678210  0.339105  0.583333  1
  Y  Y13  1  0.339105  0.678210  0.750000  1
  Y  Y14  1  0.339105  0.660895  0.416667  1
  Y  Y15  1  0.977219  0.988609  0.083333  1
  Y  Y16  1  0.011391  0.988609  0.416667  1
  Y  Y17  1  0.341436  0.682871  0.250000  1
  Si  Si18  1  0.328444  0.245620  0.001892  1
  Si  Si19  1  0.426805  0.426805  0.666667  1
  Si  Si20  1  0.754380  0.082824  0.335226  1
  Si  Si21  1  0.671556  0.754380  0.501892  1
  Si  Si22  1  0.245620  0.917176  0.835226  1
  Si  Si23  1  0.917176  0.245620  0.498108  1
  Si  Si24  1  0.082824  0.328444  0.168559  1
  Si  Si25  1  0.573195  0.000000  0.000000  1
  Si  Si26  1  0.000000  0.426805  0.833333  1
  Si  Si27  1  0.082824  0.754380  0.998108  1
  Si  Si28  1  1.000000  0.573195  0.333333  1
  Si  Si29  1  0.754380  0.671556  0.831441  1
  Si  Si30  1  0.671556  0.917176  0.664774  1
  Si  Si31  1  0.426805  0.000000  0.500000  1
  Si  Si32  1  0.917176  0.671556  0.668559  1
  Si  Si33  1  0.245620  0.328444  0.331441  1
  Si  Si34  1  0.573195  0.573195  0.166667  1
  Si  Si35  1  0.328444  0.082824  0.164774  1
  N  N36  1  0.434293  0.762585  0.501254  1
  N  N37  1  0.671708  0.434293  0.667920  1
  N  N38  1  0.908984  0.000000  0.500000  1
  N  N39  1  0.091016  0.000000  0.000000  1
  N  N40  1  0.000000  0.908984  0.833333  1
  N  N41  1  0.565707  0.237415  0.001254  1
  N  N42  1  0.328292  0.565707  0.167920  1
  N  N43  1  0.237415  0.671708  0.834587  1
  N  N44  1  0.434293  0.671708  0.665413  1
  N  N45  1  0.908984  0.908984  0.666667  1
  N  N46  1  0.671708  0.237415  0.498746  1
  N  N47  1  0.091016  0.091016  0.166667  1
  N  N48  1  0.565707  0.328292  0.165413  1
  N  N49  1  1.000000  0.091016  0.333333  1
  N  N50  1  0.328292  0.762585  0.998746  1
  N  N51  1  0.762585  0.328292  0.334587  1
  N  N52  1  0.762585  0.434293  0.832080  1
  N  N53  1  0.237415  0.565707  0.332080  1
  O  O54  1  0.030619  0.363855  0.550427  1
  O  O55  1  0.030619  0.666764  0.616240  1
  O  O56  1  0.001824  0.311408  0.781378  1
  O  O57  1  0.690417  0.688592  0.218622  1
  O  O58  1  0.969381  0.636145  0.050427  1
  O  O59  1  0.363855  0.030619  0.782907  1
  O  O60  1  0.688592  0.690417  0.114711  1
  O  O61  1  0.001824  0.690417  0.385289  1
  O  O62  1  0.641714  0.966091  0.387618  1
  O  O63  1  0.309583  0.998176  0.448045  1
  O  O64  1  0.358286  0.324378  0.279049  1
  O  O65  1  0.636145  0.666764  0.883760  1
  O  O66  1  0.033909  0.358286  0.445716  1
  O  O67  1  0.969381  0.333236  0.116240  1
  O  O68  1  0.998176  0.688592  0.281378  1
  O  O69  1  0.311408  0.001824  0.551955  1
  O  O70  1  0.688592  0.998176  0.051955  1
  O  O71  1  0.309583  0.311408  0.718622  1
  O  O72  1  0.033909  0.675622  0.720951  1
  O  O73  1  0.333236  0.363855  0.949573  1
  O  O74  1  0.666764  0.030619  0.717093  1
  O  O75  1  0.636145  0.969381  0.282907  1
  O  O76  1  0.690417  0.001824  0.948045  1
  O  O77  1  0.998176  0.309583  0.885289  1
  O  O78  1  0.675622  0.641714  0.554284  1
  O  O79  1  0.358286  0.033909  0.887618  1
  O  O80  1  0.363855  0.333236  0.383760  1
  O  O81  1  0.641714  0.675622  0.779049  1
  O  O82  1  0.311408  0.309583  0.614711  1
  O  O83  1  0.333236  0.969381  0.217093  1
  O  O84  1  0.966091  0.324378  0.220951  1
  O  O85  1  0.966091  0.641714  0.945716  1
  O  O86  1  0.675622  0.033909  0.612382  1
  O  O87  1  0.324378  0.358286  0.054284  1
  O  O88  1  0.324378  0.966091  0.112382  1
  O  O89  1  0.666764  0.636145  0.449573  1
