# generated using pymatgen
data_Gd3Si2Cl5O6
_symmetry_space_group_name_H-M   'P 1'
_cell_length_a   7.52506567
_cell_length_b   7.52506539
_cell_length_c   11.87949435
_cell_angle_alpha   80.72970264
_cell_angle_beta   80.72970292
_cell_angle_gamma   89.09336943
_symmetry_Int_Tables_number   1
_chemical_formula_structural   Gd3Si2Cl5O6
_chemical_formula_sum   'Gd6 Si4 Cl10 O12'
_cell_volume   655.20317119
_cell_formula_units_Z   2
loop_
 _symmetry_equiv_pos_site_id
 _symmetry_equiv_pos_as_xyz
  1  'x, y, z'
loop_
 _atom_site_type_symbol
 _atom_site_label
 _atom_site_symmetry_multiplicity
 _atom_site_fract_x
 _atom_site_fract_y
 _atom_site_fract_z
 _atom_site_occupancy
  Gd  Gd0  1  0.081035  0.583516  0.668915  1
  Gd  Gd1  1  0.500000  0.000000  0.000000  1
  Gd  Gd2  1  0.918965  0.416484  0.331085  1
  Gd  Gd3  1  0.416484  0.918965  0.331085  1
  Gd  Gd4  1  0.000000  0.500000  0.000000  1
  Gd  Gd5  1  0.583516  0.081035  0.668915  1
  Si  Si6  1  0.819188  0.109526  0.143030  1
  Si  Si7  1  0.890474  0.180812  0.856970  1
  Si  Si8  1  0.109526  0.819188  0.143030  1
  Si  Si9  1  0.180812  0.890474  0.856970  1
  Cl  Cl10  1  0.674290  0.115396  0.420558  1
  Cl  Cl11  1  0.620862  0.620862  0.356083  1
  Cl  Cl12  1  0.884604  0.325710  0.579442  1
  Cl  Cl13  1  0.315719  0.315719  0.995953  1
  Cl  Cl14  1  0.379138  0.379138  0.643917  1
  Cl  Cl15  1  0.325710  0.884604  0.579442  1
  Cl  Cl16  1  0.115396  0.674290  0.420558  1
  Cl  Cl17  1  0.222958  0.222958  0.336949  1
  Cl  Cl18  1  0.684281  0.684281  0.004047  1
  Cl  Cl19  1  0.777042  0.777042  0.663051  1
  O  O20  1  0.953440  0.953440  0.190589  1
  O  O21  1  0.389941  0.957529  0.828001  1
  O  O22  1  0.145084  0.854916  0.000000  1
  O  O23  1  0.957529  0.389941  0.828001  1
  O  O24  1  0.695422  0.129549  0.827852  1
  O  O25  1  0.870451  0.304578  0.172148  1
  O  O26  1  0.304578  0.870451  0.172148  1
  O  O27  1  0.854916  0.145084  0.000000  1
  O  O28  1  0.129549  0.695422  0.827852  1
  O  O29  1  0.046560  0.046560  0.809411  1
  O  O30  1  0.610059  0.042471  0.171999  1
  O  O31  1  0.042471  0.610059  0.171999  1
