# generated using pymatgen
data_Cs(MoO3)3
_symmetry_space_group_name_H-M   'P 1'
_cell_length_a   6.56744431
_cell_length_b   7.83805677
_cell_length_c   9.30389282
_cell_angle_alpha   114.91192503
_cell_angle_beta   93.38411357
_cell_angle_gamma   89.99999858
_symmetry_Int_Tables_number   1
_chemical_formula_structural   Cs(MoO3)3
_chemical_formula_sum   'Cs2 Mo6 O18'
_cell_volume   433.44508493
_cell_formula_units_Z   2
loop_
 _symmetry_equiv_pos_site_id
 _symmetry_equiv_pos_as_xyz
  1  'x, y, z'
loop_
 _atom_site_type_symbol
 _atom_site_label
 _atom_site_symmetry_multiplicity
 _atom_site_fract_x
 _atom_site_fract_y
 _atom_site_fract_z
 _atom_site_occupancy
  O  O0  1  0.589117  0.308718  0.145261  1
  O  O1  1  0.410884  0.163456  0.854739  1
  O  O2  1  0.410883  0.691282  0.854739  1
  O  O3  1  0.589116  0.836543  0.145260  1
  O  O4  1  0.216334  0.417087  0.299461  1
  O  O5  1  0.783668  0.117626  0.700538  1
  O  O6  1  0.783666  0.582913  0.700538  1
  O  O7  1  0.216333  0.882375  0.299462  1
  O  O8  1  0.000000  0.747601  0.000000  1
  O  O9  1  1.000000  0.252400  1.000000  1
  O  O10  1  0.532842  0.198165  0.396330  1
  O  O11  1  0.467159  0.801834  0.603670  1
  O  O12  1  0.901822  0.133371  0.266740  1
  O  O13  1  0.691419  0.965623  0.931247  1
  O  O14  1  0.299196  0.532102  0.064205  1
  O  O15  1  0.700802  0.467898  0.935795  1
  O  O16  1  0.308581  0.034376  0.068752  1
  O  O17  1  0.098178  0.866630  0.733261  1
  Mo  Mo18  1  0.270239  0.311515  0.102855  1
  Mo  Mo19  1  0.729762  0.208660  0.897145  1
  Mo  Mo20  1  0.729761  0.688486  0.897146  1
  Mo  Mo21  1  0.270239  0.791341  0.102854  1
  Mo  Mo22  1  0.642396  0.107395  0.214792  1
  Mo  Mo23  1  0.357604  0.892604  0.785208  1
  Cs  Cs24  1  0.822667  0.701207  0.402414  1
  Cs  Cs25  1  0.177334  0.298793  0.597586  1
