# generated using pymatgen
data_LaSiO3F
_symmetry_space_group_name_H-M   'P 1'
_cell_length_a   7.12670130
_cell_length_b   7.12670118
_cell_length_c   10.98489786
_cell_angle_alpha   90.00000000
_cell_angle_beta   90.00000000
_cell_angle_gamma   120.00000057
_symmetry_Int_Tables_number   1
_chemical_formula_structural   LaSiO3F
_chemical_formula_sum   'La6 Si6 O18 F6'
_cell_volume   483.17422446
_cell_formula_units_Z   6
loop_
 _symmetry_equiv_pos_site_id
 _symmetry_equiv_pos_as_xyz
  1  'x, y, z'
loop_
 _atom_site_type_symbol
 _atom_site_label
 _atom_site_symmetry_multiplicity
 _atom_site_fract_x
 _atom_site_fract_y
 _atom_site_fract_z
 _atom_site_occupancy
  La  La0  1  0.643350  0.000000  0.000000  1
  La  La1  1  0.356650  0.356650  0.500000  1
  La  La2  1  0.000000  0.643350  0.500000  1
  La  La3  1  0.000000  0.643350  0.000000  1
  La  La4  1  0.356650  0.356650  0.000000  1
  La  La5  1  0.643350  0.000000  0.500000  1
  F  F6  1  0.000000  0.000000  0.000000  1
  F  F7  1  0.000000  0.000000  0.500000  1
  F  F8  1  0.333333  0.666667  0.073322  1
  F  F9  1  0.333333  0.666667  0.426678  1
  F  F10  1  0.666667  0.333333  0.926678  1
  F  F11  1  0.666667  0.333333  0.573322  1
  Si  Si12  1  0.272114  0.046871  0.250000  1
  Si  Si13  1  0.774757  0.727886  0.250000  1
  Si  Si14  1  0.953129  0.225243  0.250000  1
  Si  Si15  1  0.225243  0.953129  0.750000  1
  Si  Si16  1  0.727886  0.774757  0.750000  1
  Si  Si17  1  0.046871  0.272114  0.750000  1
  O  O18  1  0.194829  0.236438  0.250000  1
  O  O19  1  0.041609  0.805171  0.250000  1
  O  O20  1  0.763562  0.958391  0.250000  1
  O  O21  1  0.958391  0.763562  0.750000  1
  O  O22  1  0.805171  0.041609  0.750000  1
  O  O23  1  0.236438  0.194829  0.750000  1
  O  O24  1  0.396425  0.077525  0.122962  1
  O  O25  1  0.681100  0.603575  0.377038  1
  O  O26  1  0.922475  0.318900  0.377038  1
  O  O27  1  0.922475  0.318900  0.122962  1
  O  O28  1  0.681100  0.603575  0.122962  1
  O  O29  1  0.318900  0.922475  0.877038  1
  O  O30  1  0.603575  0.681100  0.877038  1
  O  O31  1  0.077525  0.396425  0.877038  1
  O  O32  1  0.396425  0.077525  0.377038  1
  O  O33  1  0.077525  0.396425  0.622962  1
  O  O34  1  0.318900  0.922475  0.622962  1
  O  O35  1  0.603575  0.681100  0.622962  1
