# generated using pymatgen
data_RbInAs2O7
_symmetry_space_group_name_H-M   'P 1'
_cell_length_a   7.99861538
_cell_length_b   8.86373562
_cell_length_c   10.69576721
_cell_angle_alpha   88.83650596
_cell_angle_beta   89.94365210
_cell_angle_gamma   74.26908689
_symmetry_Int_Tables_number   1
_chemical_formula_structural   RbInAs2O7
_chemical_formula_sum   'Rb4 In4 As8 O28'
_cell_volume   729.74398154
_cell_formula_units_Z   4
loop_
 _symmetry_equiv_pos_site_id
 _symmetry_equiv_pos_as_xyz
  1  'x, y, z'
loop_
 _atom_site_type_symbol
 _atom_site_label
 _atom_site_symmetry_multiplicity
 _atom_site_fract_x
 _atom_site_fract_y
 _atom_site_fract_z
 _atom_site_occupancy
  Rb  Rb0  1  0.690435  0.944326  0.812603  1
  Rb  Rb1  1  0.309565  0.055674  0.187397  1
  Rb  Rb2  1  0.339412  0.538864  0.317141  1
  Rb  Rb3  1  0.660588  0.461136  0.682859  1
  In  In4  1  0.264721  0.767560  0.897859  1
  In  In5  1  0.737901  0.738883  0.404171  1
  In  In6  1  0.262099  0.261117  0.595829  1
  In  In7  1  0.735279  0.232440  0.102141  1
  As  As8  1  0.948816  0.799078  0.132440  1
  As  As9  1  0.344657  0.850012  0.573525  1
  As  As10  1  0.629039  0.668828  0.099780  1
  As  As11  1  0.931623  0.326573  0.359330  1
  As  As12  1  0.051184  0.200922  0.867560  1
  As  As13  1  0.370961  0.331172  0.900220  1
  As  As14  1  0.655343  0.149988  0.426475  1
  As  As15  1  0.068377  0.673427  0.640670  1
  O  O16  1  0.840134  0.257269  0.916938  1
  O  O17  1  0.861951  0.187733  0.456706  1
  O  O18  1  0.956470  0.765259  0.290769  1
  O  O19  1  0.310053  0.034798  0.514190  1
  O  O20  1  0.043530  0.234741  0.709231  1
  O  O21  1  0.871575  0.665765  0.585844  1
  O  O22  1  0.421787  0.224570  0.766694  1
  O  O23  1  0.507108  0.283411  0.511245  1
  O  O24  1  0.397556  0.819267  0.728209  1
  O  O25  1  0.956545  0.252403  0.211534  1
  O  O26  1  0.492892  0.716589  0.488755  1
  O  O27  1  0.832291  0.976340  0.075565  1
  O  O28  1  0.043455  0.747597  0.788466  1
  O  O29  1  0.602444  0.180733  0.271791  1
  O  O30  1  0.231848  0.506817  0.627082  1
  O  O31  1  0.608472  0.484762  0.115921  1
  O  O32  1  0.148991  0.340717  0.938320  1
  O  O33  1  0.128425  0.334235  0.414156  1
  O  O34  1  0.491078  0.221237  0.018814  1
  O  O35  1  0.578213  0.775430  0.233306  1
  O  O36  1  0.851009  0.659283  0.061680  1
  O  O37  1  0.391528  0.515238  0.884079  1
  O  O38  1  0.689947  0.965202  0.485810  1
  O  O39  1  0.768152  0.493183  0.372918  1
  O  O40  1  0.159866  0.742731  0.083062  1
  O  O41  1  0.508922  0.778763  0.981186  1
  O  O42  1  0.138049  0.812267  0.543294  1
  O  O43  1  0.167709  0.023660  0.924435  1
