# generated using pymatgen
data_LiLa2S2O8F3
_symmetry_space_group_name_H-M   'P 1'
_cell_length_a   7.02154994
_cell_length_b   8.33305655
_cell_length_c   8.66106124
_cell_angle_alpha   114.27457513
_cell_angle_beta   113.91316266
_cell_angle_gamma   90.00000101
_symmetry_Int_Tables_number   1
_chemical_formula_structural   LiLa2S2O8F3
_chemical_formula_sum   'Li2 La4 S4 O16 F6'
_cell_volume   413.77736270
_cell_formula_units_Z   2
loop_
 _symmetry_equiv_pos_site_id
 _symmetry_equiv_pos_as_xyz
  1  'x, y, z'
loop_
 _atom_site_type_symbol
 _atom_site_label
 _atom_site_symmetry_multiplicity
 _atom_site_fract_x
 _atom_site_fract_y
 _atom_site_fract_z
 _atom_site_occupancy
  Li  Li0  1  0.406997  0.250000  1.000000  1
  Li  Li1  1  0.593003  0.750000  0.000000  1
  La  La2  1  0.213398  0.965736  0.240096  1
  La  La3  1  0.026698  0.465736  0.240096  1
  La  La4  1  0.973302  0.534264  0.759904  1
  La  La5  1  0.786602  0.034264  0.759904  1
  S  S6  1  0.758139  0.155254  0.347191  1
  S  S7  1  0.241861  0.844746  0.652809  1
  S  S8  1  0.589053  0.655254  0.347191  1
  S  S9  1  0.410947  0.344746  0.652809  1
  O  O10  1  0.818411  0.170115  0.539061  1
  O  O11  1  0.720650  0.670115  0.539061  1
  O  O12  1  0.395924  0.510964  0.240945  1
  O  O13  1  0.604076  0.489036  0.759055  1
  O  O14  1  0.845022  0.010963  0.240945  1
  O  O15  1  0.289829  0.380230  0.765710  1
  O  O16  1  0.154978  0.989036  0.759055  1
  O  O17  1  0.524119  0.119770  0.234290  1
  O  O18  1  0.710171  0.619770  0.234290  1
  O  O19  1  0.851623  0.337337  0.385293  1
  O  O20  1  0.533670  0.837337  0.385293  1
  O  O21  1  0.181589  0.829885  0.460939  1
  O  O22  1  0.466330  0.162663  0.614707  1
  O  O23  1  0.279350  0.329885  0.460939  1
  O  O24  1  0.475881  0.880230  0.765710  1
  O  O25  1  0.148377  0.662663  0.614707  1
  F  F26  1  0.994379  0.335708  0.905138  1
  F  F27  1  0.910759  0.835708  0.905138  1
  F  F28  1  0.005621  0.664292  0.094862  1
  F  F29  1  0.089241  0.164292  0.094862  1
  F  F30  1  0.693732  0.250000  0.000000  1
  F  F31  1  0.306268  0.750000  1.000000  1
