# generated using pymatgen
data_Sr10Al4Si6O
_symmetry_space_group_name_H-M   'P 1'
_cell_length_a   4.83682767
_cell_length_b   11.66224985
_cell_length_c   11.66224924
_cell_angle_alpha   69.88102873
_cell_angle_beta   78.03166375
_cell_angle_gamma   78.03166273
_symmetry_Int_Tables_number   1
_chemical_formula_structural   Sr10Al4Si6O
_chemical_formula_sum   'Sr10 Al4 Si6 O1'
_cell_volume   597.61461566
_cell_formula_units_Z   1
loop_
 _symmetry_equiv_pos_site_id
 _symmetry_equiv_pos_as_xyz
  1  'x, y, z'
loop_
 _atom_site_type_symbol
 _atom_site_label
 _atom_site_symmetry_multiplicity
 _atom_site_fract_x
 _atom_site_fract_y
 _atom_site_fract_z
 _atom_site_occupancy
  Sr  Sr0  1  0.156352  0.843648  0.843648  1
  Sr  Sr1  1  1.000000  0.187137  0.812863  1
  Sr  Sr2  1  0.193165  0.469856  0.143815  1
  Sr  Sr3  1  0.806835  0.856185  0.530144  1
  Sr  Sr4  1  0.000000  0.812863  0.187137  1
  Sr  Sr5  1  0.500000  0.000000  0.000000  1
  Sr  Sr6  1  0.843648  0.156352  0.156352  1
  Sr  Sr7  1  0.806835  0.530144  0.856185  1
  Sr  Sr8  1  0.000000  0.500000  0.500000  1
  Sr  Sr9  1  0.193165  0.143815  0.469856  1
  Al  Al10  1  0.429376  0.413176  0.728072  1
  Al  Al11  1  0.570624  0.271928  0.586824  1
  Al  Al12  1  0.570624  0.586824  0.271928  1
  Al  Al13  1  0.429376  0.728072  0.413176  1
  Si  Si14  1  0.631782  0.690019  0.046417  1
  Si  Si15  1  0.354383  0.645617  0.645617  1
  Si  Si16  1  0.368218  0.309981  0.953583  1
  Si  Si17  1  0.645617  0.354383  0.354383  1
  Si  Si18  1  0.631782  0.046417  0.690019  1
  Si  Si19  1  0.368218  0.953583  0.309981  1
  O  O20  1  0.000000  0.000000  0.000000  1
