# generated using pymatgen
data_Sr2UNiO6
_symmetry_space_group_name_H-M   'P 1'
_cell_length_a   5.82637098
_cell_length_b   5.83674203
_cell_length_c   8.21711539
_cell_angle_alpha   89.57240644
_cell_angle_beta   90.00000000
_cell_angle_gamma   90.00000000
_symmetry_Int_Tables_number   1
_chemical_formula_structural   Sr2UNiO6
_chemical_formula_sum   'Sr4 U2 Ni2 O12'
_cell_volume   279.43186187
_cell_formula_units_Z   2
loop_
 _symmetry_equiv_pos_site_id
 _symmetry_equiv_pos_as_xyz
  1  'x, y, z'
loop_
 _atom_site_type_symbol
 _atom_site_label
 _atom_site_symmetry_multiplicity
 _atom_site_fract_x
 _atom_site_fract_y
 _atom_site_fract_z
 _atom_site_occupancy
  Sr  Sr0  1  0.473314  0.508914  0.752588  1
  Sr  Sr1  1  0.026686  0.008914  0.252588  1
  Sr  Sr2  1  0.526686  0.491086  0.247412  1
  Sr  Sr3  1  0.973314  0.991086  0.747412  1
  U  U4  1  0.500000  0.000000  0.000000  1
  U  U5  1  0.000000  0.500000  0.500000  1
  Ni  Ni6  1  0.000000  0.500000  0.000000  1
  Ni  Ni7  1  0.500000  0.000000  0.500000  1
  O  O8  1  0.485675  0.924449  0.248086  1
  O  O9  1  0.778106  0.223882  0.461250  1
  O  O10  1  0.724578  0.721948  0.541253  1
  O  O11  1  0.775422  0.221948  0.041253  1
  O  O12  1  0.278106  0.276118  0.038750  1
  O  O13  1  0.721894  0.723882  0.961250  1
  O  O14  1  0.514325  0.075551  0.751914  1
  O  O15  1  0.014325  0.424449  0.748086  1
  O  O16  1  0.275422  0.278052  0.458747  1
  O  O17  1  0.221894  0.776118  0.538750  1
  O  O18  1  0.224578  0.778052  0.958747  1
  O  O19  1  0.985675  0.575551  0.251914  1
