# generated using pymatgen
data_V5O9
_symmetry_space_group_name_H-M   'P 1'
_cell_length_a   7.09392075
_cell_length_b   8.57528408
_cell_length_c   11.23695835
_cell_angle_alpha   93.49092028
_cell_angle_beta   108.68265327
_cell_angle_gamma   109.17130759
_symmetry_Int_Tables_number   1
_chemical_formula_structural   V5O9
_chemical_formula_sum   'V20 O36'
_cell_volume   601.01035994
_cell_formula_units_Z   4
loop_
 _symmetry_equiv_pos_site_id
 _symmetry_equiv_pos_as_xyz
  1  'x, y, z'
loop_
 _atom_site_type_symbol
 _atom_site_label
 _atom_site_symmetry_multiplicity
 _atom_site_fract_x
 _atom_site_fract_y
 _atom_site_fract_z
 _atom_site_occupancy
  V  V0  1  0.750050  0.000124  0.750108  1
  V  V1  1  0.249950  0.999876  0.249892  1
  V  V2  1  0.573688  0.786440  0.929619  1
  V  V3  1  0.426312  0.213560  0.070381  1
  V  V4  1  0.434369  0.576864  0.115824  1
  V  V5  1  0.565631  0.423136  0.884176  1
  V  V6  1  0.250049  0.000064  0.750024  1
  V  V7  1  0.749951  0.999936  0.249976  1
  V  V8  1  0.092933  0.804152  0.929733  1
  V  V9  1  0.907067  0.195848  0.070267  1
  V  V10  1  0.933364  0.582948  0.109684  1
  V  V11  1  0.066636  0.417052  0.890316  1
  V  V12  1  0.926419  0.213617  0.570441  1
  V  V13  1  0.073581  0.786383  0.429559  1
  V  V14  1  0.065599  0.423033  0.384258  1
  V  V15  1  0.934401  0.576967  0.615742  1
  V  V16  1  0.407004  0.195765  0.570139  1
  V  V17  1  0.592996  0.804235  0.429861  1
  V  V18  1  0.566460  0.416825  0.390206  1
  V  V19  1  0.433540  0.583175  0.609794  1
  O  O20  1  0.488191  0.917750  0.298657  1
  O  O21  1  0.511809  0.082250  0.701343  1
  O  O22  1  0.305340  0.672282  0.454521  1
  O  O23  1  0.694660  0.327718  0.545479  1
  O  O24  1  0.335473  0.858744  0.878861  1
  O  O25  1  0.664527  0.141256  0.121139  1
  O  O26  1  0.171831  0.631529  0.039525  1
  O  O27  1  0.828169  0.368471  0.960475  1
  O  O28  1  0.217353  0.977252  0.063989  1
  O  O29  1  0.782647  0.022748  0.936011  1
  O  O30  1  0.046441  0.755239  0.235772  1
  O  O31  1  0.953559  0.244761  0.764228  1
  O  O32  1  0.869781  0.534404  0.408578  1
  O  O33  1  0.130219  0.465596  0.591422  1
  O  O34  1  0.612290  0.794387  0.109556  1
  O  O35  1  0.387710  0.205613  0.890444  1
  O  O36  1  0.484692  0.578818  0.281552  1
  O  O37  1  0.515308  0.421182  0.718448  1
  O  O38  1  0.011813  0.082126  0.201336  1
  O  O39  1  0.988187  0.917874  0.798664  1
  O  O40  1  0.194734  0.327833  0.045567  1
  O  O41  1  0.805266  0.672167  0.954433  1
  O  O42  1  0.164675  0.141366  0.621187  1
  O  O43  1  0.835325  0.858634  0.378813  1
  O  O44  1  0.328176  0.368450  0.460459  1
  O  O45  1  0.671824  0.631550  0.539541  1
  O  O46  1  0.282538  0.022688  0.435889  1
  O  O47  1  0.717462  0.977312  0.564111  1
  O  O48  1  0.453494  0.244631  0.264197  1
  O  O49  1  0.546506  0.755369  0.735803  1
  O  O50  1  0.630153  0.465559  0.091484  1
  O  O51  1  0.369847  0.534441  0.908516  1
  O  O52  1  0.887778  0.205488  0.390469  1
  O  O53  1  0.112222  0.794512  0.609531  1
  O  O54  1  0.015040  0.421053  0.218545  1
  O  O55  1  0.984960  0.578947  0.781455  1
