# generated using pymatgen
data_Ba(AlSi)2
_symmetry_space_group_name_H-M   'P 1'
_cell_length_a   4.35064394
_cell_length_b   5.82636202
_cell_length_c   10.28126694
_cell_angle_alpha   90.00000000
_cell_angle_beta   90.00000000
_cell_angle_gamma   111.92289635
_symmetry_Int_Tables_number   1
_chemical_formula_structural   Ba(AlSi)2
_chemical_formula_sum   'Ba2 Al4 Si4'
_cell_volume   241.76819805
_cell_formula_units_Z   2
loop_
 _symmetry_equiv_pos_site_id
 _symmetry_equiv_pos_as_xyz
  1  'x, y, z'
loop_
 _atom_site_type_symbol
 _atom_site_label
 _atom_site_symmetry_multiplicity
 _atom_site_fract_x
 _atom_site_fract_y
 _atom_site_fract_z
 _atom_site_occupancy
  Ba  Ba0  1  0.085494  0.170988  0.750000  1
  Ba  Ba1  1  0.914506  0.829012  0.250000  1
  Al  Al2  1  0.378455  0.756910  0.964644  1
  Al  Al3  1  0.621545  0.243090  0.464644  1
  Al  Al4  1  0.621545  0.243090  0.035356  1
  Al  Al5  1  0.378455  0.756910  0.535356  1
  Si  Si6  1  0.200944  0.401888  0.367241  1
  Si  Si7  1  0.799056  0.598112  0.867241  1
  Si  Si8  1  0.200944  0.401888  0.132759  1
  Si  Si9  1  0.799056  0.598112  0.632759  1
