# generated using pymatgen
data_ErCu3Se2ClO8
_symmetry_space_group_name_H-M   'P 1'
_cell_length_a   6.34615862
_cell_length_b   7.03120883
_cell_length_c   9.52196892
_cell_angle_alpha   90.00000000
_cell_angle_beta   90.00000000
_cell_angle_gamma   90.00000000
_symmetry_Int_Tables_number   1
_chemical_formula_structural   ErCu3Se2ClO8
_chemical_formula_sum   'Er2 Cu6 Se4 Cl2 O16'
_cell_volume   424.88136083
_cell_formula_units_Z   2
loop_
 _symmetry_equiv_pos_site_id
 _symmetry_equiv_pos_as_xyz
  1  'x, y, z'
loop_
 _atom_site_type_symbol
 _atom_site_label
 _atom_site_symmetry_multiplicity
 _atom_site_fract_x
 _atom_site_fract_y
 _atom_site_fract_z
 _atom_site_occupancy
  Er  Er0  1  0.750000  0.734271  0.750000  1
  Er  Er1  1  0.250000  0.265729  0.250000  1
  Cu  Cu2  1  0.000000  0.000000  0.500000  1
  Cu  Cu3  1  0.500000  0.000000  0.000000  1
  Cu  Cu4  1  0.500000  0.000000  0.500000  1
  Cu  Cu5  1  0.750000  0.205546  0.750000  1
  Cu  Cu6  1  0.250000  0.794454  0.250000  1
  Cu  Cu7  1  0.000000  0.000000  0.000000  1
  Se  Se8  1  0.250000  0.587930  0.938537  1
  Se  Se9  1  0.750000  0.412070  0.061463  1
  Se  Se10  1  0.750000  0.412070  0.438537  1
  Se  Se11  1  0.250000  0.587930  0.561463  1
  Cl  Cl12  1  0.250000  0.149292  0.750000  1
  Cl  Cl13  1  0.750000  0.850708  0.250000  1
  O  O14  1  0.536359  0.261940  0.089516  1
  O  O15  1  0.250000  0.572724  0.120357  1
  O  O16  1  0.250000  0.998767  0.112574  1
  O  O17  1  0.036359  0.738060  0.910484  1
  O  O18  1  0.750000  0.427276  0.620357  1
  O  O19  1  0.250000  0.998767  0.387426  1
  O  O20  1  0.963641  0.261940  0.089516  1
  O  O21  1  0.463641  0.738060  0.589516  1
  O  O22  1  0.750000  0.001233  0.612574  1
  O  O23  1  0.963641  0.261940  0.410484  1
  O  O24  1  0.750000  0.001233  0.887426  1
  O  O25  1  0.463641  0.738060  0.910484  1
  O  O26  1  0.536359  0.261940  0.410484  1
  O  O27  1  0.750000  0.427276  0.879643  1
  O  O28  1  0.036359  0.738060  0.589516  1
  O  O29  1  0.250000  0.572724  0.379643  1
