# generated using pymatgen
data_NaB5H10O13
_symmetry_space_group_name_H-M   'P 1'
_cell_length_a   9.91926659
_cell_length_b   9.91926694
_cell_length_c   13.56403935
_cell_angle_alpha   102.17720962
_cell_angle_beta   102.17721007
_cell_angle_gamma   111.74876743
_symmetry_Int_Tables_number   1
_chemical_formula_structural   NaB5H10O13
_chemical_formula_sum   'Na4 B20 H40 O52'
_cell_volume   1148.63292477
_cell_formula_units_Z   4
loop_
 _symmetry_equiv_pos_site_id
 _symmetry_equiv_pos_as_xyz
  1  'x, y, z'
loop_
 _atom_site_type_symbol
 _atom_site_label
 _atom_site_symmetry_multiplicity
 _atom_site_fract_x
 _atom_site_fract_y
 _atom_site_fract_z
 _atom_site_occupancy
  Na  Na0  1  0.844567  0.155433  0.750000  1
  Na  Na1  1  0.155433  0.844567  0.250000  1
  Na  Na2  1  0.376062  0.623938  0.750000  1
  Na  Na3  1  0.623938  0.376062  0.250000  1
  O  O4  1  0.298547  0.884208  0.972206  1
  O  O5  1  0.115792  0.701453  0.527794  1
  O  O6  1  0.701453  0.115792  0.027794  1
  O  O7  1  0.884208  0.298547  0.472206  1
  O  O8  1  0.389841  0.153206  0.036879  1
  O  O9  1  0.846794  0.610159  0.463121  1
  O  O10  1  0.610159  0.846794  0.963121  1
  O  O11  1  0.153206  0.389841  0.536879  1
  O  O12  1  0.496528  0.419926  0.108186  1
  O  O13  1  0.580074  0.503472  0.391814  1
  O  O14  1  0.503472  0.580074  0.891814  1
  O  O15  1  0.419926  0.496528  0.608186  1
  O  O16  1  0.317751  0.027528  0.849157  1
  O  O17  1  0.972472  0.682249  0.650843  1
  O  O18  1  0.682249  0.972472  0.150843  1
  O  O19  1  0.027528  0.317751  0.349157  1
  O  O20  1  0.417605  0.305539  0.918751  1
  O  O21  1  0.694461  0.582395  0.581249  1
  O  O22  1  0.582395  0.694461  0.081249  1
  O  O23  1  0.305539  0.417605  0.418751  1
  O  O24  1  0.429404  0.183770  0.748366  1
  O  O25  1  0.816230  0.570596  0.751634  1
  O  O26  1  0.570596  0.816230  0.251634  1
  O  O27  1  0.183770  0.429404  0.248366  1
  O  O28  1  0.187732  0.164548  0.771271  1
  O  O29  1  0.835452  0.812268  0.728729  1
  O  O30  1  0.812268  0.835452  0.228729  1
  O  O31  1  0.164548  0.187732  0.271271  1
  O  O32  1  0.443279  0.134624  0.570316  1
  O  O33  1  0.865376  0.556721  0.929684  1
  O  O34  1  0.556721  0.865376  0.429684  1
  O  O35  1  0.134624  0.443279  0.070316  1
  O  O36  1  0.202712  0.080829  0.595849  1
  O  O37  1  0.919171  0.797288  0.904151  1
  O  O38  1  0.797288  0.919171  0.404151  1
  O  O39  1  0.080829  0.202712  0.095849  1
  O  O40  1  0.971541  0.085699  0.624105  1
  O  O41  1  0.914301  0.028459  0.875895  1
  O  O42  1  0.028459  0.914301  0.375895  1
  O  O43  1  0.085699  0.971541  0.124105  1
  O  O44  1  0.722436  0.249723  0.863722  1
  O  O45  1  0.750277  0.277564  0.636278  1
  O  O46  1  0.277564  0.750277  0.136278  1
  O  O47  1  0.249723  0.722436  0.363722  1
  O  O48  1  0.627637  0.915362  0.642572  1
  O  O49  1  0.084638  0.372363  0.857428  1
  O  O50  1  0.372363  0.084638  0.357428  1
  O  O51  1  0.915362  0.627637  0.142572  1
  O  O52  1  0.369970  0.828429  0.694662  1
  O  O53  1  0.171571  0.630030  0.805338  1
  O  O54  1  0.630030  0.171571  0.305338  1
  O  O55  1  0.828429  0.369970  0.194662  1
  B  B56  1  0.337144  0.169374  0.822022  1
  B  B57  1  0.830626  0.662856  0.677978  1
  B  B58  1  0.662856  0.830626  0.177978  1
  B  B59  1  0.169374  0.337144  0.322022  1
  B  B60  1  0.334790  0.020273  0.950811  1
  B  B61  1  0.979727  0.665210  0.549189  1
  B  B62  1  0.665210  0.979727  0.049189  1
  B  B63  1  0.020273  0.334790  0.450811  1
  B  B64  1  0.433782  0.293886  0.019183  1
  B  B65  1  0.706114  0.566218  0.480817  1
  B  B66  1  0.566218  0.706114  0.980817  1
  B  B67  1  0.293886  0.433782  0.519183  1
  B  B68  1  0.362251  0.134546  0.640273  1
  B  B69  1  0.865454  0.637749  0.859727  1
  B  B70  1  0.637749  0.865454  0.359727  1
  B  B71  1  0.134546  0.362251  0.140273  1
  B  B72  1  0.120101  0.108982  0.663464  1
  B  B73  1  0.891018  0.879899  0.836536  1
  B  B74  1  0.879899  0.891018  0.336536  1
  B  B75  1  0.108982  0.120101  0.163464  1
  H  H76  1  0.250667  0.790952  0.907058  1
  H  H77  1  0.209048  0.749333  0.592942  1
  H  H78  1  0.749333  0.209048  0.092942  1
  H  H79  1  0.790952  0.250667  0.407058  1
  H  H80  1  0.525764  0.521755  0.096084  1
  H  H81  1  0.478245  0.474236  0.403916  1
  H  H82  1  0.474236  0.478245  0.903916  1
  H  H83  1  0.521755  0.525764  0.596084  1
  H  H84  1  0.558482  0.184342  0.599758  1
  H  H85  1  0.815658  0.441518  0.900242  1
  H  H86  1  0.441518  0.815658  0.400242  1
  H  H87  1  0.184342  0.558482  0.099758  1
  H  H88  1  0.920632  0.041214  0.546666  1
  H  H89  1  0.958786  0.079368  0.953334  1
  H  H90  1  0.079368  0.958786  0.453334  1
  H  H91  1  0.041214  0.920632  0.046666  1
  H  H92  1  0.615767  0.223759  0.822265  1
  H  H93  1  0.776241  0.384233  0.677735  1
  H  H94  1  0.384233  0.776241  0.177735  1
  H  H95  1  0.223759  0.615767  0.322265  1
  H  H96  1  0.714476  0.198926  0.919212  1
  H  H97  1  0.801074  0.285524  0.580788  1
  H  H98  1  0.285524  0.801074  0.080788  1
  H  H99  1  0.198926  0.714476  0.419212  1
  H  H100  1  0.606266  0.898770  0.564806  1
  H  H101  1  0.101230  0.393734  0.935194  1
  H  H102  1  0.393734  0.101230  0.435194  1
  H  H103  1  0.898770  0.606266  0.064806  1
  H  H104  1  0.690019  0.860734  0.661255  1
  H  H105  1  0.139266  0.309981  0.838745  1
  H  H106  1  0.309981  0.139266  0.338745  1
  H  H107  1  0.860734  0.690019  0.161255  1
  H  H108  1  0.364889  0.906855  0.750581  1
  H  H109  1  0.093145  0.635111  0.749419  1
  H  H110  1  0.635111  0.093145  0.249419  1
  H  H111  1  0.906855  0.364889  0.250581  1
  H  H112  1  0.467847  0.873419  0.677735  1
  H  H113  1  0.126581  0.532153  0.822265  1
  H  H114  1  0.532153  0.126581  0.322265  1
  H  H115  1  0.873419  0.467847  0.177735  1
