# generated using pymatgen
data_Tl2OsCBr2OF3
_symmetry_space_group_name_H-M   'P 1'
_cell_length_a   11.52473921
_cell_length_b   12.03176139
_cell_length_c   14.09150894
_cell_angle_alpha   90.00000000
_cell_angle_beta   91.68289589
_cell_angle_gamma   90.00000000
_symmetry_Int_Tables_number   1
_chemical_formula_structural   Tl2OsCBr2OF3
_chemical_formula_sum   'Tl16 Os8 C8 Br16 O8 F24'
_cell_volume   1953.12686567
_cell_formula_units_Z   8
loop_
 _symmetry_equiv_pos_site_id
 _symmetry_equiv_pos_as_xyz
  1  'x, y, z'
loop_
 _atom_site_type_symbol
 _atom_site_label
 _atom_site_symmetry_multiplicity
 _atom_site_fract_x
 _atom_site_fract_y
 _atom_site_fract_z
 _atom_site_occupancy
  Tl  Tl0  1  0.129147  0.937915  0.630001  1
  Tl  Tl1  1  0.870853  0.062085  0.369999  1
  Tl  Tl2  1  0.448602  0.835997  0.936766  1
  Tl  Tl3  1  0.370853  0.437915  0.869999  1
  Tl  Tl4  1  0.363050  0.443344  0.349747  1
  Tl  Tl5  1  0.948602  0.664003  0.436766  1
  Tl  Tl6  1  0.051398  0.335997  0.563234  1
  Tl  Tl7  1  0.136950  0.943344  0.150253  1
  Tl  Tl8  1  0.521647  0.156183  0.734252  1
  Tl  Tl9  1  0.021647  0.343817  0.234252  1
  Tl  Tl10  1  0.629147  0.562085  0.130001  1
  Tl  Tl11  1  0.478353  0.843817  0.265748  1
  Tl  Tl12  1  0.551398  0.164003  0.063234  1
  Tl  Tl13  1  0.978353  0.656183  0.765748  1
  Tl  Tl14  1  0.636950  0.556656  0.650253  1
  Tl  Tl15  1  0.863050  0.056656  0.849747  1
  Os  Os16  1  0.207547  0.106026  0.388129  1
  Os  Os17  1  0.264143  0.099010  0.904477  1
  Os  Os18  1  0.735857  0.900990  0.095523  1
  Os  Os19  1  0.764143  0.400990  0.404477  1
  Os  Os20  1  0.707547  0.393974  0.888129  1
  Os  Os21  1  0.292453  0.606026  0.111871  1
  Os  Os22  1  0.792453  0.893974  0.611871  1
  Os  Os23  1  0.235857  0.599010  0.595523  1
  C  C24  1  0.339084  0.673587  0.523735  1
  C  C25  1  0.824996  0.400553  0.977071  1
  C  C26  1  0.160916  0.173587  0.976265  1
  C  C27  1  0.660916  0.326413  0.476265  1
  C  C28  1  0.839084  0.826413  0.023735  1
  C  C29  1  0.324996  0.099447  0.477071  1
  C  C30  1  0.175004  0.599447  0.022929  1
  C  C31  1  0.675004  0.900553  0.522929  1
  Br  Br32  1  0.842158  0.387254  0.754050  1
  Br  Br33  1  0.136957  0.932834  0.896382  1
  Br  Br34  1  0.682096  0.315406  0.257293  1
  Br  Br35  1  0.657842  0.887254  0.745950  1
  Br  Br36  1  0.636957  0.567166  0.396382  1
  Br  Br37  1  0.807457  0.100064  0.619684  1
  Br  Br38  1  0.342158  0.112746  0.254050  1
  Br  Br39  1  0.157842  0.612746  0.245950  1
  Br  Br40  1  0.317904  0.684594  0.742707  1
  Br  Br41  1  0.692543  0.600064  0.880316  1
  Br  Br42  1  0.363043  0.432834  0.603618  1
  Br  Br43  1  0.192543  0.899936  0.380316  1
  Br  Br44  1  0.307457  0.399936  0.119684  1
  Br  Br45  1  0.182096  0.184594  0.757293  1
  Br  Br46  1  0.817904  0.815406  0.242707  1
  Br  Br47  1  0.863043  0.067166  0.103618  1
  O  O48  1  0.399861  0.092091  0.535445  1
  O  O49  1  0.591015  0.280215  0.521239  1
  O  O50  1  0.899861  0.407909  0.035445  1
  O  O51  1  0.091015  0.219785  0.021239  1
  O  O52  1  0.600139  0.907909  0.464555  1
  O  O53  1  0.908985  0.780215  0.978761  1
  O  O54  1  0.100139  0.592091  0.964555  1
  O  O55  1  0.408985  0.719785  0.478761  1
  F  F56  1  0.568622  0.389320  0.786497  1
  F  F57  1  0.115808  0.513207  0.677099  1
  F  F58  1  0.921714  0.892518  0.518581  1
  F  F59  1  0.690043  0.226670  0.885897  1
  F  F60  1  0.078286  0.107482  0.481419  1
  F  F61  1  0.309957  0.773330  0.114103  1
  F  F62  1  0.644511  0.971823  0.986452  1
  F  F63  1  0.392240  0.213956  0.907220  1
  F  F64  1  0.892240  0.286044  0.407220  1
  F  F65  1  0.855489  0.471823  0.513548  1
  F  F66  1  0.068622  0.110680  0.286497  1
  F  F67  1  0.355489  0.028177  0.013548  1
  F  F68  1  0.144511  0.528177  0.486452  1
  F  F69  1  0.421714  0.607482  0.018581  1
  F  F70  1  0.884192  0.486793  0.322901  1
  F  F71  1  0.107760  0.713956  0.592780  1
  F  F72  1  0.384192  0.013207  0.822901  1
  F  F73  1  0.607760  0.786044  0.092780  1
  F  F74  1  0.190043  0.273330  0.385897  1
  F  F75  1  0.615808  0.986793  0.177099  1
  F  F76  1  0.809957  0.726670  0.614103  1
  F  F77  1  0.931378  0.889320  0.713503  1
  F  F78  1  0.431378  0.610680  0.213503  1
  F  F79  1  0.578286  0.392518  0.981419  1
