# generated using pymatgen
data_CsLaZnTe3
_symmetry_space_group_name_H-M   'P 1'
_cell_length_a   4.59923772
_cell_length_b   8.88004596
_cell_length_c   12.26588131
_cell_angle_alpha   90.00000000
_cell_angle_beta   90.00000000
_cell_angle_gamma   105.00864280
_symmetry_Int_Tables_number   1
_chemical_formula_structural   CsLaZnTe3
_chemical_formula_sum   'Cs2 La2 Zn2 Te6'
_cell_volume   483.86704897
_cell_formula_units_Z   2
loop_
 _symmetry_equiv_pos_site_id
 _symmetry_equiv_pos_as_xyz
  1  'x, y, z'
loop_
 _atom_site_type_symbol
 _atom_site_label
 _atom_site_symmetry_multiplicity
 _atom_site_fract_x
 _atom_site_fract_y
 _atom_site_fract_z
 _atom_site_occupancy
  Cs  Cs0  1  0.743221  0.486441  0.750000  1
  Cs  Cs1  1  0.256779  0.513559  0.250000  1
  La  La2  1  0.000000  0.000000  0.000000  1
  La  La3  1  0.000000  0.000000  0.500000  1
  Zn  Zn4  1  0.540138  0.080276  0.250000  1
  Zn  Zn5  1  0.459862  0.919724  0.750000  1
  Te  Te6  1  0.943309  0.886618  0.250000  1
  Te  Te7  1  0.376298  0.752597  0.566909  1
  Te  Te8  1  0.376298  0.752597  0.933091  1
  Te  Te9  1  0.056691  0.113382  0.750000  1
  Te  Te10  1  0.623702  0.247403  0.066909  1
  Te  Te11  1  0.623702  0.247403  0.433091  1
