# generated using pymatgen
data_AlS2NCl6
_symmetry_space_group_name_H-M   'P 1'
_cell_length_a   6.41149972
_cell_length_b   13.38840015
_cell_length_c   13.79691419
_cell_angle_alpha   90.00000000
_cell_angle_beta   90.00000000
_cell_angle_gamma   95.49403568
_symmetry_Int_Tables_number   1
_chemical_formula_structural   AlS2NCl6
_chemical_formula_sum   'Al4 S8 N4 Cl24'
_cell_volume   1178.88272337
_cell_formula_units_Z   4
loop_
 _symmetry_equiv_pos_site_id
 _symmetry_equiv_pos_as_xyz
  1  'x, y, z'
loop_
 _atom_site_type_symbol
 _atom_site_label
 _atom_site_symmetry_multiplicity
 _atom_site_fract_x
 _atom_site_fract_y
 _atom_site_fract_z
 _atom_site_occupancy
  Al  Al0  1  0.844808  0.984110  0.750000  1
  Al  Al1  1  0.993633  0.466384  0.750000  1
  Al  Al2  1  0.155192  0.015890  0.250000  1
  Al  Al3  1  0.006367  0.533616  0.250000  1
  S  S4  1  0.632733  0.835904  0.406866  1
  S  S5  1  0.255374  0.342622  0.479708  1
  S  S6  1  0.367267  0.164096  0.593134  1
  S  S7  1  0.255374  0.342622  0.020292  1
  S  S8  1  0.367267  0.164096  0.906866  1
  S  S9  1  0.744626  0.657378  0.979708  1
  S  S10  1  0.632733  0.835904  0.093134  1
  S  S11  1  0.744626  0.657378  0.520292  1
  N  N12  1  0.269387  0.255481  0.948774  1
  N  N13  1  0.730613  0.744519  0.051226  1
  N  N14  1  0.269387  0.255481  0.551226  1
  N  N15  1  0.730613  0.744519  0.448774  1
  Cl  Cl16  1  0.299993  0.414405  0.750000  1
  Cl  Cl17  1  0.053835  0.087860  0.378940  1
  Cl  Cl18  1  0.829801  0.415232  0.880840  1
  Cl  Cl19  1  0.971128  0.370647  0.250000  1
  Cl  Cl20  1  0.975971  0.140253  0.750000  1
  Cl  Cl21  1  0.829801  0.415232  0.619160  1
  Cl  Cl22  1  0.028872  0.629353  0.750000  1
  Cl  Cl23  1  0.375142  0.863670  0.016274  1
  Cl  Cl24  1  0.624858  0.136330  0.983726  1
  Cl  Cl25  1  0.024029  0.859747  0.250000  1
  Cl  Cl26  1  0.501184  0.647901  0.885869  1
  Cl  Cl27  1  0.946165  0.912140  0.621060  1
  Cl  Cl28  1  0.506690  0.980981  0.750000  1
  Cl  Cl29  1  0.946165  0.912140  0.878940  1
  Cl  Cl30  1  0.700007  0.585595  0.250000  1
  Cl  Cl31  1  0.501184  0.647901  0.614131  1
  Cl  Cl32  1  0.053835  0.087860  0.121060  1
  Cl  Cl33  1  0.493310  0.019019  0.250000  1
  Cl  Cl34  1  0.624858  0.136330  0.516274  1
  Cl  Cl35  1  0.375142  0.863670  0.483726  1
  Cl  Cl36  1  0.498816  0.352099  0.385869  1
  Cl  Cl37  1  0.170199  0.584768  0.380840  1
  Cl  Cl38  1  0.170199  0.584768  0.119160  1
  Cl  Cl39  1  0.498816  0.352099  0.114131  1
