# generated using pymatgen
data_Dy9(SbO)5
_symmetry_space_group_name_H-M   'P 1'
_cell_length_a   8.87761015
_cell_length_b   9.87512717
_cell_length_c   9.87512717
_cell_angle_alpha   90.00000000
_cell_angle_beta   90.00000000
_cell_angle_gamma   90.00000000
_symmetry_Int_Tables_number   1
_chemical_formula_structural   Dy9(SbO)5
_chemical_formula_sum   'Dy18 Sb10 O10'
_cell_volume   865.72799950
_cell_formula_units_Z   2
loop_
 _symmetry_equiv_pos_site_id
 _symmetry_equiv_pos_as_xyz
  1  'x, y, z'
loop_
 _atom_site_type_symbol
 _atom_site_label
 _atom_site_symmetry_multiplicity
 _atom_site_fract_x
 _atom_site_fract_y
 _atom_site_fract_z
 _atom_site_occupancy
  Dy  Dy0  1  0.672314  0.750000  0.750000  1
  Dy  Dy1  1  0.341736  0.854628  0.044553  1
  Dy  Dy2  1  0.001797  0.832607  0.524089  1
  Dy  Dy3  1  0.001797  0.975911  0.832607  1
  Dy  Dy4  1  0.341736  0.645372  0.455447  1
  Dy  Dy5  1  0.341736  0.455447  0.854628  1
  Dy  Dy6  1  0.658264  0.354628  0.544553  1
  Dy  Dy7  1  0.001797  0.524089  0.667393  1
  Dy  Dy8  1  0.998203  0.167393  0.475911  1
  Dy  Dy9  1  0.658264  0.544553  0.145372  1
  Dy  Dy10  1  0.327686  0.250000  0.250000  1
  Dy  Dy11  1  0.998203  0.475911  0.332607  1
  Dy  Dy12  1  0.998203  0.024089  0.167393  1
  Dy  Dy13  1  0.998203  0.332607  0.024089  1
  Dy  Dy14  1  0.001797  0.667393  0.975911  1
  Dy  Dy15  1  0.341736  0.044553  0.645372  1
  Dy  Dy16  1  0.658264  0.145372  0.955447  1
  Dy  Dy17  1  0.658264  0.955447  0.354628  1
  Sb  Sb18  1  0.698239  0.445432  0.845522  1
  Sb  Sb19  1  0.301761  0.554568  0.154478  1
  Sb  Sb20  1  0.301761  0.154478  0.945432  1
  Sb  Sb21  1  0.681464  0.250000  0.250000  1
  Sb  Sb22  1  0.301761  0.345522  0.554568  1
  Sb  Sb23  1  0.698239  0.845522  0.054568  1
  Sb  Sb24  1  0.698239  0.054568  0.654478  1
  Sb  Sb25  1  0.698239  0.654478  0.445432  1
  Sb  Sb26  1  0.301761  0.945432  0.345522  1
  Sb  Sb27  1  0.318536  0.750000  0.750000  1
  O  O28  1  0.086834  0.629910  0.474912  1
  O  O29  1  0.913166  0.370090  0.525088  1
  O  O30  1  0.913166  0.974912  0.370090  1
  O  O31  1  0.913166  0.525088  0.129910  1
  O  O32  1  0.913166  0.129910  0.974912  1
  O  O33  1  0.936184  0.750000  0.750000  1
  O  O34  1  0.086834  0.870090  0.025088  1
  O  O35  1  0.063816  0.250000  0.250000  1
  O  O36  1  0.086834  0.025088  0.629910  1
  O  O37  1  0.086834  0.474912  0.870090  1
