# generated using pymatgen
data_CsZnPO4
_symmetry_space_group_name_H-M   'P 1'
_cell_length_a   5.51492727
_cell_length_b   9.36537293
_cell_length_c   18.76988808
_cell_angle_alpha   90.37098012
_cell_angle_beta   90.00000000
_cell_angle_gamma   90.00000000
_symmetry_Int_Tables_number   1
_chemical_formula_structural   CsZnPO4
_chemical_formula_sum   'Cs8 Zn8 P8 O32'
_cell_volume   969.43220759
_cell_formula_units_Z   8
loop_
 _symmetry_equiv_pos_site_id
 _symmetry_equiv_pos_as_xyz
  1  'x, y, z'
loop_
 _atom_site_type_symbol
 _atom_site_label
 _atom_site_symmetry_multiplicity
 _atom_site_fract_x
 _atom_site_fract_y
 _atom_site_fract_z
 _atom_site_occupancy
  Cs  Cs0  1  0.242351  0.206452  0.003293  1
  Cs  Cs1  1  0.257649  0.206452  0.503293  1
  Cs  Cs2  1  0.280712  0.310411  0.749339  1
  Cs  Cs3  1  0.780712  0.689589  0.750661  1
  Cs  Cs4  1  0.719288  0.689589  0.250661  1
  Cs  Cs5  1  0.742351  0.793548  0.496707  1
  Cs  Cs6  1  0.219288  0.310411  0.249339  1
  Cs  Cs7  1  0.757649  0.793548  0.996707  1
  Zn  Zn8  1  0.785072  0.087506  0.666656  1
  Zn  Zn9  1  0.214928  0.912494  0.333344  1
  Zn  Zn10  1  0.714928  0.087506  0.166656  1
  Zn  Zn11  1  0.253209  0.584579  0.087800  1
  Zn  Zn12  1  0.753209  0.415421  0.412200  1
  Zn  Zn13  1  0.746791  0.415421  0.912200  1
  Zn  Zn14  1  0.285072  0.912494  0.833344  1
  Zn  Zn15  1  0.246791  0.584579  0.587800  1
  P  P16  1  0.252893  0.582906  0.403427  1
  P  P17  1  0.717858  0.092390  0.345084  1
  P  P18  1  0.217858  0.907610  0.154916  1
  P  P19  1  0.247107  0.582906  0.903427  1
  P  P20  1  0.782142  0.092390  0.845084  1
  P  P21  1  0.747107  0.417094  0.596573  1
  P  P22  1  0.752893  0.417094  0.096573  1
  P  P23  1  0.282142  0.907610  0.654916  1
  O  O24  1  0.261040  0.853415  0.732638  1
  O  O25  1  0.187027  0.789597  0.603367  1
  O  O26  1  0.751766  0.438734  0.515538  1
  O  O27  1  0.748234  0.438734  0.015538  1
  O  O28  1  0.812973  0.210403  0.396633  1
  O  O29  1  0.811943  0.259066  0.113600  1
  O  O30  1  0.238960  0.853415  0.232638  1
  O  O31  1  0.451164  0.484685  0.369142  1
  O  O32  1  0.312973  0.789597  0.103367  1
  O  O33  1  0.996018  0.459959  0.630179  1
  O  O34  1  0.048836  0.484685  0.869142  1
  O  O35  1  0.551991  0.940037  0.635905  1
  O  O36  1  0.127200  0.045012  0.643564  1
  O  O37  1  0.687027  0.210403  0.896633  1
  O  O38  1  0.761040  0.146585  0.767362  1
  O  O39  1  0.448009  0.059963  0.364095  1
  O  O40  1  0.003982  0.540041  0.369821  1
  O  O41  1  0.548836  0.515315  0.630858  1
  O  O42  1  0.951164  0.515315  0.130858  1
  O  O43  1  0.251766  0.561266  0.984462  1
  O  O44  1  0.738960  0.146585  0.267362  1
  O  O45  1  0.372800  0.045012  0.143564  1
  O  O46  1  0.188057  0.740934  0.886400  1
  O  O47  1  0.627200  0.954988  0.856436  1
  O  O48  1  0.248234  0.561266  0.484462  1
  O  O49  1  0.051991  0.059963  0.864095  1
  O  O50  1  0.311943  0.740934  0.386400  1
  O  O51  1  0.496018  0.540041  0.869821  1
  O  O52  1  0.688057  0.259066  0.613600  1
  O  O53  1  0.872800  0.954988  0.356436  1
  O  O54  1  0.503982  0.459959  0.130179  1
  O  O55  1  0.948009  0.940037  0.135905  1
