# generated using pymatgen
data_PNF2
_symmetry_space_group_name_H-M   'P 1'
_cell_length_a   7.47190390
_cell_length_b   8.95398758
_cell_length_c   13.65022621
_cell_angle_alpha   90.00000000
_cell_angle_beta   90.00000000
_cell_angle_gamma   90.00000000
_symmetry_Int_Tables_number   1
_chemical_formula_structural   PNF2
_chemical_formula_sum   'P12 N12 F24'
_cell_volume   913.24565313
_cell_formula_units_Z   12
loop_
 _symmetry_equiv_pos_site_id
 _symmetry_equiv_pos_as_xyz
  1  'x, y, z'
loop_
 _atom_site_type_symbol
 _atom_site_label
 _atom_site_symmetry_multiplicity
 _atom_site_fract_x
 _atom_site_fract_y
 _atom_site_fract_z
 _atom_site_occupancy
  P  P0  1  0.316745  0.449546  0.160922  1
  P  P1  1  0.183255  0.949546  0.660922  1
  P  P2  1  0.158491  0.959969  0.861038  1
  P  P3  1  0.976931  0.478285  0.770582  1
  P  P4  1  0.023069  0.521715  0.270582  1
  P  P5  1  0.476931  0.021715  0.770582  1
  P  P6  1  0.523069  0.978285  0.270582  1
  P  P7  1  0.658491  0.540031  0.861038  1
  P  P8  1  0.683255  0.550454  0.660922  1
  P  P9  1  0.841509  0.040031  0.361038  1
  P  P10  1  0.816745  0.050454  0.160922  1
  P  P11  1  0.341509  0.459969  0.361038  1
  N  N12  1  0.429601  0.427361  0.257892  1
  N  N13  1  0.861877  0.492092  0.867285  1
  N  N14  1  0.610518  0.012273  0.167672  1
  N  N15  1  0.389482  0.987727  0.667672  1
  N  N16  1  0.929601  0.072639  0.257892  1
  N  N17  1  0.138123  0.507908  0.367285  1
  N  N18  1  0.889482  0.512273  0.667672  1
  N  N19  1  0.110518  0.487727  0.167672  1
  N  N20  1  0.361877  0.007908  0.867285  1
  N  N21  1  0.638123  0.992092  0.367285  1
  N  N22  1  0.070399  0.927361  0.757892  1
  N  N23  1  0.570399  0.572639  0.757892  1
  F  F24  1  0.657603  0.689292  0.593999  1
  F  F25  1  0.126178  0.823603  0.929568  1
  F  F26  1  0.651066  0.927815  0.781821  1
  F  F27  1  0.342397  0.310708  0.093999  1
  F  F28  1  0.957518  0.923028  0.416713  1
  F  F29  1  0.457518  0.576972  0.416713  1
  F  F30  1  0.373822  0.323603  0.429568  1
  F  F31  1  0.873822  0.176397  0.429568  1
  F  F32  1  0.348934  0.072185  0.281821  1
  F  F33  1  0.065932  0.320418  0.767221  1
  F  F34  1  0.910940  0.931553  0.095286  1
  F  F35  1  0.434068  0.820418  0.267221  1
  F  F36  1  0.626178  0.676397  0.929568  1
  F  F37  1  0.042482  0.076972  0.916713  1
  F  F38  1  0.842397  0.189292  0.093999  1
  F  F39  1  0.089060  0.068447  0.595286  1
  F  F40  1  0.934068  0.679582  0.267221  1
  F  F41  1  0.151066  0.572185  0.781821  1
  F  F42  1  0.157603  0.810708  0.593999  1
  F  F43  1  0.565932  0.179582  0.767221  1
  F  F44  1  0.410940  0.568447  0.095286  1
  F  F45  1  0.589060  0.431553  0.595286  1
  F  F46  1  0.848934  0.427815  0.281821  1
  F  F47  1  0.542482  0.423028  0.916713  1
