# generated using pymatgen
data_Zr(PO3)4
_symmetry_space_group_name_H-M   'P 1'
_cell_length_a   8.79838364
_cell_length_b   13.68934287
_cell_length_c   16.15542811
_cell_angle_alpha   64.93309588
_cell_angle_beta   89.98887146
_cell_angle_gamma   89.97373683
_symmetry_Int_Tables_number   1
_chemical_formula_structural   Zr(PO3)4
_chemical_formula_sum   'Zr8 P32 O96'
_cell_volume   1762.55548043
_cell_formula_units_Z   8
loop_
 _symmetry_equiv_pos_site_id
 _symmetry_equiv_pos_as_xyz
  1  'x, y, z'
loop_
 _atom_site_type_symbol
 _atom_site_label
 _atom_site_symmetry_multiplicity
 _atom_site_fract_x
 _atom_site_fract_y
 _atom_site_fract_z
 _atom_site_occupancy
  Zr  Zr0  1  0.996539  0.057312  0.364172  1
  Zr  Zr1  1  0.995660  0.591775  0.363746  1
  Zr  Zr2  1  0.994879  0.573316  0.864744  1
  Zr  Zr3  1  0.994960  0.075390  0.861979  1
  Zr  Zr4  1  0.494879  0.438060  0.135256  1
  Zr  Zr5  1  0.496539  0.421485  0.635828  1
  Zr  Zr6  1  0.494960  0.937368  0.138021  1
  Zr  Zr7  1  0.495660  0.955522  0.636254  1
  P  P8  1  0.750136  0.853002  0.521661  1
  P  P9  1  0.880213  0.488383  0.201731  1
  P  P10  1  0.771042  0.634176  0.024164  1
  P  P11  1  0.773367  0.359547  0.514356  1
  P  P12  1  0.374368  0.527214  0.305100  1
  P  P13  1  0.735176  0.869489  0.986960  1
  P  P14  1  0.273367  0.873903  0.485644  1
  P  P15  1  0.117789  0.484607  0.694719  1
  P  P16  1  0.109717  0.991812  0.691469  1
  P  P17  1  0.617789  0.179326  0.305281  1
  P  P18  1  0.874368  0.832314  0.694900  1
  P  P19  1  0.242210  0.638713  0.521915  1
  P  P20  1  0.380213  0.690114  0.798269  1
  P  P21  1  0.111956  0.321251  0.202133  1
  P  P22  1  0.742210  0.160628  0.478085  1
  P  P23  1  0.218598  0.353864  0.024227  1
  P  P24  1  0.611956  0.523384  0.797867  1
  P  P25  1  0.755300  0.143007  0.014199  1
  P  P26  1  0.218805  0.139311  0.514741  1
  P  P27  1  0.614470  0.024056  0.815194  1
  P  P28  1  0.881337  0.329610  0.691276  1
  P  P29  1  0.255300  0.157206  0.985801  1
  P  P30  1  0.250136  0.374663  0.478339  1
  P  P31  1  0.271042  0.658341  0.975836  1
  P  P32  1  0.718805  0.654052  0.485259  1
  P  P33  1  0.235176  0.856449  0.013040  1
  P  P34  1  0.114470  0.839250  0.184806  1
  P  P35  1  0.875681  0.988106  0.185958  1
  P  P36  1  0.718598  0.378091  0.975773  1
  P  P37  1  0.381337  0.020886  0.308724  1
  P  P38  1  0.375681  0.174063  0.814042  1
  P  P39  1  0.609717  0.683281  0.308531  1
  O  O40  1  0.997505  0.420735  0.171366  1
  O  O41  1  0.878195  0.411812  0.942461  1
  O  O42  1  0.839301  0.163733  0.928427  1
  O  O43  1  0.624693  0.907096  0.898967  1
  O  O44  1  0.982867  0.436020  0.657295  1
  O  O45  1  0.730246  0.882258  0.707429  1
  O  O46  1  0.800208  0.273255  0.473774  1
  O  O47  1  0.613623  0.356009  0.549501  1
  O  O48  1  0.605141  0.412482  0.889910  1
  O  O49  1  0.037930  0.749292  0.262910  1
  O  O50  1  0.651069  0.849409  0.072609  1
  O  O51  1  0.724744  0.439823  0.215238  1
  O  O52  1  0.954344  0.510856  0.275807  1
  O  O53  1  0.659813  0.412313  0.046887  1
  O  O54  1  0.325946  0.909458  0.556454  1
  O  O55  1  0.159813  0.459199  0.953113  1
  O  O56  1  0.224744  0.655061  0.784762  1
  O  O57  1  0.268400  0.354803  0.215674  1
  O  O58  1  0.364511  0.412297  0.392708  1
  O  O59  1  0.378195  0.354273  0.057539  1
  O  O60  1  0.864511  0.805004  0.607292  1
  O  O61  1  0.295719  0.745871  0.015091  1
  O  O62  1  0.116578  0.450596  0.454790  1
  O  O63  1  0.825946  0.465913  0.443546  1
  O  O64  1  0.616578  0.905387  0.545210  1
  O  O65  1  0.668085  0.547914  0.557201  1
  O  O66  1  0.621895  0.066677  0.037450  1
  O  O67  1  0.627468  0.207279  0.392524  1
  O  O68  1  0.127468  0.599803  0.607476  1
  O  O69  1  0.262118  0.422362  0.706936  1
  O  O70  1  0.537930  0.012202  0.737090  1
  O  O71  1  0.111913  0.658704  0.941600  1
  O  O72  1  0.828318  0.601862  0.951568  1
  O  O73  1  0.009983  0.917719  0.658326  1
  O  O74  1  0.611913  0.600305  0.058400  1
  O  O75  1  0.878205  0.658820  0.449221  1
  O  O76  1  0.887158  0.308774  0.600412  1
  O  O77  1  0.376596  0.563508  0.545168  1
  O  O78  1  0.121895  0.104128  0.962550  1
  O  O79  1  0.828242  0.919959  0.433855  1
  O  O80  1  0.103112  0.102623  0.599968  1
  O  O81  1  0.722738  0.354977  0.709186  1
  O  O82  1  0.056080  0.501997  0.774189  1
  O  O83  1  0.151069  0.922018  0.927391  1
  O  O84  1  0.113623  0.905510  0.450499  1
  O  O85  1  0.535953  0.502305  0.723697  1
  O  O86  1  0.455240  0.262884  0.736546  1
  O  O87  1  0.386429  0.707806  0.890798  1
  O  O88  1  0.694337  0.251303  0.016810  1
  O  O89  1  0.795719  0.760962  0.984909  1
  O  O90  1  0.886429  0.598604  0.109202  1
  O  O91  1  0.763218  0.082064  0.798798  1
  O  O92  1  0.520554  0.773283  0.237094  1
  O  O93  1  0.993755  0.934703  0.142112  1
  O  O94  1  0.035953  0.226003  0.276303  1
  O  O95  1  0.454344  0.786663  0.724193  1
  O  O96  1  0.435765  0.508555  0.226212  1
  O  O97  1  0.482867  0.093315  0.342705  1
  O  O98  1  0.935765  0.734767  0.773788  1
  O  O99  1  0.230246  0.589686  0.292571  1
  O  O100  1  0.168085  0.105115  0.442799  1
  O  O101  1  0.387158  0.909186  0.399588  1
  O  O102  1  0.190662  0.266089  0.475509  1
  O  O103  1  0.768670  0.659336  0.290054  1
  O  O104  1  0.263218  0.880862  0.201202  1
  O  O105  1  0.664613  0.094083  0.566220  1
  O  O106  1  0.365574  0.207455  0.897762  1
  O  O107  1  0.690662  0.741597  0.524491  1
  O  O108  1  0.556080  0.276186  0.225811  1
  O  O109  1  0.493755  0.076815  0.857888  1
  O  O110  1  0.876596  0.108676  0.454832  1
  O  O111  1  0.768400  0.570477  0.784326  1
  O  O112  1  0.300208  0.747028  0.526227  1
  O  O113  1  0.468732  0.003240  0.236355  1
  O  O114  1  0.339301  0.092160  0.071573  1
  O  O115  1  0.726217  0.930918  0.203024  1
  O  O116  1  0.226217  0.133942  0.796976  1
  O  O117  1  0.968732  0.239594  0.763645  1
  O  O118  1  0.328242  0.353814  0.566145  1
  O  O119  1  0.268670  0.949391  0.709946  1
  O  O120  1  0.194337  0.268113  0.983190  1
  O  O121  1  0.164613  0.660303  0.433780  1
  O  O122  1  0.509983  0.576045  0.341674  1
  O  O123  1  0.865574  0.105217  0.102238  1
  O  O124  1  0.020554  0.010377  0.762906  1
  O  O125  1  0.378205  0.108042  0.550779  1
  O  O126  1  0.868535  0.945887  0.963366  1
  O  O127  1  0.603112  0.702591  0.400032  1
  O  O128  1  0.328318  0.553430  0.048432  1
  O  O129  1  0.105141  0.302393  0.110090  1
  O  O130  1  0.955240  0.999430  0.263454  1
  O  O131  1  0.124693  0.806063  0.101033  1
  O  O132  1  0.497505  0.592101  0.828634  1
  O  O133  1  0.368535  0.909253  0.036634  1
  O  O134  1  0.222738  0.064163  0.290814  1
  O  O135  1  0.762118  0.129298  0.293064  1
