# generated using pymatgen
data_Sr2ErGaCu2O7
_symmetry_space_group_name_H-M   'P 1'
_cell_length_a   5.40059009
_cell_length_b   5.50378618
_cell_length_c   12.20798158
_cell_angle_alpha   103.03727275
_cell_angle_beta   102.79147863
_cell_angle_gamma   89.99986005
_symmetry_Int_Tables_number   1
_chemical_formula_structural   Sr2ErGaCu2O7
_chemical_formula_sum   'Sr4 Er2 Ga2 Cu4 O14'
_cell_volume   344.26283248
_cell_formula_units_Z   2
loop_
 _symmetry_equiv_pos_site_id
 _symmetry_equiv_pos_as_xyz
  1  'x, y, z'
loop_
 _atom_site_type_symbol
 _atom_site_label
 _atom_site_symmetry_multiplicity
 _atom_site_fract_x
 _atom_site_fract_y
 _atom_site_fract_z
 _atom_site_occupancy
  Er  Er0  1  0.500703  0.500066  -0.000044  1
  Er  Er1  1  0.000608  0.000001  -0.000045  1
  Sr  Sr2  1  0.347978  0.365010  0.698023  1
  Sr  Sr3  1  0.649918  0.635061  0.302014  1
  Sr  Sr4  1  0.847996  0.833123  0.698029  1
  Sr  Sr5  1  0.149954  0.167054  0.302009  1
  Cu  Cu6  1  0.929984  0.428505  0.858697  1
  Cu  Cu7  1  0.071280  0.571522  0.141292  1
  Cu  Cu8  1  0.430187  0.929709  0.858704  1
  Cu  Cu9  1  0.571672  0.069748  0.141346  1
  Ga  Ga10  1  0.712247  0.181540  0.499990  1
  Ga  Ga11  1  0.212310  0.818658  0.499966  1
  O  O12  1  0.859437  0.865106  0.500028  1
  O  O13  1  0.359368  0.135109  0.500000  1
  O  O14  1  0.187753  0.186686  0.873728  1
  O  O15  1  0.313794  0.813165  0.126251  1
  O  O16  1  0.687507  0.186812  0.873734  1
  O  O17  1  0.814047  0.812889  0.126243  1
  O  O18  1  0.689835  0.688779  0.879829  1
  O  O19  1  0.809922  0.311192  0.120162  1
  O  O20  1  0.189673  0.690924  0.879818  1
  O  O21  1  0.310018  0.308947  0.120173  1
  O  O22  1  0.351675  0.779132  0.647330  1
  O  O23  1  0.704242  0.221042  0.352701  1
  O  O24  1  0.851624  0.368358  0.647375  1
  O  O25  1  0.204269  0.631862  0.352649  1
