# generated using pymatgen
data_K2Mn(PS3)2
_symmetry_space_group_name_H-M   'P 1'
_cell_length_a   6.19405028
_cell_length_b   7.65700516
_cell_length_c   12.33154406
_cell_angle_alpha   90.00000000
_cell_angle_beta   90.00000000
_cell_angle_gamma   101.36581505
_symmetry_Int_Tables_number   1
_chemical_formula_structural   K2Mn(PS3)2
_chemical_formula_sum   'K4 Mn2 P4 S12'
_cell_volume   573.38922071
_cell_formula_units_Z   2
loop_
 _symmetry_equiv_pos_site_id
 _symmetry_equiv_pos_as_xyz
  1  'x, y, z'
loop_
 _atom_site_type_symbol
 _atom_site_label
 _atom_site_symmetry_multiplicity
 _atom_site_fract_x
 _atom_site_fract_y
 _atom_site_fract_z
 _atom_site_occupancy
  K  K0  1  0.779374  0.470596  0.682804  1
  K  K1  1  0.720626  0.029404  0.182804  1
  K  K2  1  0.220626  0.529404  0.317196  1
  K  K3  1  0.279374  0.970596  0.817196  1
  Mn  Mn4  1  0.500000  0.500000  0.000000  1
  Mn  Mn5  1  0.000000  0.000000  0.500000  1
  P  P6  1  0.481502  0.130630  0.463755  1
  P  P7  1  0.018498  0.369370  0.963755  1
  P  P8  1  0.518498  0.869370  0.536245  1
  P  P9  1  0.981502  0.630630  0.036245  1
  S  S10  1  0.799659  0.249054  0.434286  1
  S  S11  1  0.700341  0.250946  0.934286  1
  S  S12  1  0.200341  0.750946  0.565714  1
  S  S13  1  0.299659  0.749054  0.065714  1
  S  S14  1  0.681871  0.752195  0.422898  1
  S  S15  1  0.818129  0.747805  0.922898  1
  S  S16  1  0.318129  0.247805  0.577102  1
  S  S17  1  0.181871  0.252195  0.077102  1
  S  S18  1  0.717613  0.932282  0.667353  1
  S  S19  1  0.782387  0.567718  0.167353  1
  S  S20  1  0.282387  0.067718  0.332647  1
  S  S21  1  0.217613  0.432282  0.832647  1
