# generated using pymatgen
data_Si2P2Pt
_symmetry_space_group_name_H-M   'P 1'
_cell_length_a   6.06686499
_cell_length_b   9.61417429
_cell_length_c   12.12094213
_cell_angle_alpha   90.00000000
_cell_angle_beta   102.98269022
_cell_angle_gamma   90.00000000
_symmetry_Int_Tables_number   1
_chemical_formula_structural   Si2P2Pt
_chemical_formula_sum   'Si16 P16 Pt8'
_cell_volume   688.91700089
_cell_formula_units_Z   8
loop_
 _symmetry_equiv_pos_site_id
 _symmetry_equiv_pos_as_xyz
  1  'x, y, z'
loop_
 _atom_site_type_symbol
 _atom_site_label
 _atom_site_symmetry_multiplicity
 _atom_site_fract_x
 _atom_site_fract_y
 _atom_site_fract_z
 _atom_site_occupancy
  Pt  Pt0  1  0.906764  0.040079  0.626956  1
  Pt  Pt1  1  0.093236  0.540079  0.373044  1
  Pt  Pt2  1  0.413250  0.344794  0.643444  1
  Pt  Pt3  1  0.586750  0.844794  0.356556  1
  Pt  Pt4  1  0.090153  0.702484  0.863481  1
  Pt  Pt5  1  0.909847  0.202484  0.136519  1
  Pt  Pt6  1  0.390900  0.519891  0.128147  1
  Pt  Pt7  1  0.609100  0.019891  0.871853  1
  Si  Si8  1  0.039457  0.442327  0.178331  1
  Si  Si9  1  0.960543  0.942327  0.821669  1
  Si  Si10  1  0.449817  0.790483  0.829751  1
  Si  Si11  1  0.550183  0.290483  0.170249  1
  Si  Si12  1  0.251017  0.314618  0.437305  1
  Si  Si13  1  0.748983  0.814618  0.562695  1
  Si  Si14  1  0.254739  0.086046  0.915945  1
  Si  Si15  1  0.745261  0.586046  0.084055  1
  Si  Si16  1  0.241562  0.567316  0.574511  1
  Si  Si17  1  0.758438  0.067316  0.425489  1
  Si  Si18  1  0.966119  0.637123  0.667812  1
  Si  Si19  1  0.033881  0.137123  0.332188  1
  Si  Si20  1  0.441993  0.764983  0.638803  1
  Si  Si21  1  0.558007  0.264983  0.361197  1
  Si  Si22  1  0.547112  0.425691  0.836660  1
  Si  Si23  1  0.452888  0.925691  0.163340  1
  P  P24  1  0.071472  0.290108  0.860867  1
  P  P25  1  0.928528  0.790108  0.139133  1
  P  P26  1  0.234432  0.750235  0.068873  1
  P  P27  1  0.765568  0.250235  0.931127  1
  P  P28  1  0.761390  0.436240  0.609772  1
  P  P29  1  0.238610  0.936240  0.390228  1
  P  P30  1  0.451085  0.599429  0.324665  1
  P  P31  1  0.548915  0.099429  0.675335  1
  P  P32  1  0.045833  0.272308  0.670944  1
  P  P33  1  0.954167  0.772308  0.329056  1
  P  P34  1  0.251564  0.963572  0.580807  1
  P  P35  1  0.748436  0.463572  0.419193  1
  P  P36  1  0.728624  0.629398  0.896649  1
  P  P37  1  0.271376  0.129398  0.103351  1
  P  P38  1  0.734450  0.978156  0.073112  1
  P  P39  1  0.265550  0.478156  0.926888  1
