# generated using pymatgen
data_Cd2Ru(CN)6
_symmetry_space_group_name_H-M   'P 1'
_cell_length_a   6.44946926
_cell_length_b   6.44946902
_cell_length_c   6.63529159
_cell_angle_alpha   90.00000000
_cell_angle_beta   90.00000000
_cell_angle_gamma   120.00000120
_symmetry_Int_Tables_number   1
_chemical_formula_structural   Cd2Ru(CN)6
_chemical_formula_sum   'Cd2 Ru1 C6 N6'
_cell_volume   239.02238602
_cell_formula_units_Z   1
loop_
 _symmetry_equiv_pos_site_id
 _symmetry_equiv_pos_as_xyz
  1  'x, y, z'
loop_
 _atom_site_type_symbol
 _atom_site_label
 _atom_site_symmetry_multiplicity
 _atom_site_fract_x
 _atom_site_fract_y
 _atom_site_fract_z
 _atom_site_occupancy
  Cd  Cd0  1  0.666667  0.333333  0.502361  1
  Cd  Cd1  1  0.333333  0.666667  0.497639  1
  Ru  Ru2  1  0.000000  0.000000  0.000000  1
  C  C3  1  0.248020  0.001227  0.183982  1
  C  C4  1  0.001227  0.753207  0.816018  1
  C  C5  1  0.753207  0.751980  0.183982  1
  C  C6  1  0.751980  0.998773  0.816018  1
  C  C7  1  0.998773  0.246793  0.183982  1
  C  C8  1  0.246793  0.248020  0.816018  1
  N  N9  1  0.383234  0.384466  0.696454  1
  N  N10  1  0.998768  0.383234  0.303546  1
  N  N11  1  0.616766  0.615534  0.303546  1
  N  N12  1  0.384466  0.001232  0.303546  1
  N  N13  1  0.001232  0.616766  0.696454  1
  N  N14  1  0.615534  0.998768  0.696454  1
