# generated using pymatgen
data_Y(IO3)3
_symmetry_space_group_name_H-M   'P 1'
_cell_length_a   6.15234522
_cell_length_b   8.81729858
_cell_length_c   15.32160449
_cell_angle_alpha   96.69619645
_cell_angle_beta   90.00000000
_cell_angle_gamma   90.00000000
_symmetry_Int_Tables_number   1
_chemical_formula_structural   Y(IO3)3
_chemical_formula_sum   'Y4 I12 O36'
_cell_volume   825.48227776
_cell_formula_units_Z   4
loop_
 _symmetry_equiv_pos_site_id
 _symmetry_equiv_pos_as_xyz
  1  'x, y, z'
loop_
 _atom_site_type_symbol
 _atom_site_label
 _atom_site_symmetry_multiplicity
 _atom_site_fract_x
 _atom_site_fract_y
 _atom_site_fract_z
 _atom_site_occupancy
  Y  Y0  1  0.214433  0.042026  0.894840  1
  Y  Y1  1  0.785567  0.957974  0.105160  1
  Y  Y2  1  0.285567  0.542026  0.394840  1
  Y  Y3  1  0.714433  0.457974  0.605160  1
  I  I4  1  0.593922  0.615688  0.197667  1
  I  I5  1  0.644393  0.834696  0.479967  1
  I  I6  1  0.906078  0.115688  0.697667  1
  I  I7  1  0.355607  0.165304  0.520033  1
  I  I8  1  0.689241  0.784646  0.858320  1
  I  I9  1  0.310759  0.215354  0.141680  1
  I  I10  1  0.855607  0.334696  0.979967  1
  I  I11  1  0.093922  0.884312  0.302333  1
  I  I12  1  0.406078  0.384312  0.802333  1
  I  I13  1  0.810759  0.284646  0.358320  1
  I  I14  1  0.144393  0.665304  0.020033  1
  I  I15  1  0.189241  0.715354  0.641680  1
  O  O16  1  0.872192  0.140727  0.014707  1
  O  O17  1  0.917562  0.952758  0.611305  1
  O  O18  1  0.604599  0.424180  0.329834  1
  O  O19  1  0.582438  0.452758  0.111305  1
  O  O20  1  0.130398  0.643970  0.527794  1
  O  O21  1  0.895401  0.924180  0.829834  1
  O  O22  1  0.069600  0.412170  0.059122  1
  O  O23  1  0.676628  0.411836  0.755912  1
  O  O24  1  0.051609  0.372340  0.313319  1
  O  O25  1  0.527829  0.226364  0.616414  1
  O  O26  1  0.011139  0.727930  0.365170  1
  O  O27  1  0.627808  0.640727  0.514707  1
  O  O28  1  0.988861  0.272070  0.634830  1
  O  O29  1  0.551609  0.127660  0.186681  1
  O  O30  1  0.511139  0.772070  0.134830  1
  O  O31  1  0.569600  0.087830  0.440878  1
  O  O32  1  0.448391  0.872340  0.813319  1
  O  O33  1  0.930400  0.587830  0.940878  1
  O  O34  1  0.869602  0.356030  0.472206  1
  O  O35  1  0.488861  0.227930  0.865170  1
  O  O36  1  0.082438  0.047242  0.388695  1
  O  O37  1  0.372192  0.359273  0.485293  1
  O  O38  1  0.027829  0.273636  0.883586  1
  O  O39  1  0.104599  0.075820  0.170166  1
  O  O40  1  0.395401  0.575820  0.670166  1
  O  O41  1  0.472171  0.773636  0.383586  1
  O  O42  1  0.972171  0.726364  0.116414  1
  O  O43  1  0.417562  0.547242  0.888695  1
  O  O44  1  0.430400  0.912170  0.559122  1
  O  O45  1  0.369602  0.143970  0.027794  1
  O  O46  1  0.823372  0.911836  0.255912  1
  O  O47  1  0.127808  0.859273  0.985293  1
  O  O48  1  0.948391  0.627660  0.686681  1
  O  O49  1  0.630398  0.856030  0.972206  1
  O  O50  1  0.176628  0.088164  0.744088  1
  O  O51  1  0.323372  0.588164  0.244088  1
