# generated using pymatgen
data_Ca14MnBi11
_symmetry_space_group_name_H-M   'P 1'
_cell_length_a   16.60538132
_cell_length_b   16.60538131
_cell_length_c   16.60538139
_cell_angle_alpha   94.26683320
_cell_angle_beta   117.56788500
_cell_angle_gamma   117.56788828
_symmetry_Int_Tables_number   1
_chemical_formula_structural   Ca14MnBi11
_chemical_formula_sum   'Ca56 Mn4 Bi44'
_cell_volume   3346.64378277
_cell_formula_units_Z   4
loop_
 _symmetry_equiv_pos_site_id
 _symmetry_equiv_pos_as_xyz
  1  'x, y, z'
loop_
 _atom_site_type_symbol
 _atom_site_label
 _atom_site_symmetry_multiplicity
 _atom_site_fract_x
 _atom_site_fract_y
 _atom_site_fract_z
 _atom_site_occupancy
  Ca  Ca0  1  0.412079  0.164000  0.432690  1
  Ca  Ca1  1  0.146502  0.626307  0.524869  1
  Ca  Ca2  1  0.268690  0.432690  0.520611  1
  Ca  Ca3  1  0.532709  0.901893  0.286538  1
  Ca  Ca4  1  0.231310  0.751921  0.164000  1
  Ca  Ca5  1  0.853498  0.979805  0.378367  1
  Ca  Ca6  1  0.101439  0.475131  0.121633  1
  Ca  Ca7  1  0.087921  0.067310  0.336000  1
  Ca  Ca8  1  0.354050  0.250000  0.604051  1
  Ca  Ca9  1  0.601439  0.621633  0.975131  1
  Ca  Ca10  1  0.854051  0.104051  0.750000  1
  Ca  Ca11  1  0.853498  0.373693  0.475131  1
  Ca  Ca12  1  0.412079  0.748079  0.979389  1
  Ca  Ca13  1  0.615355  0.401893  0.869184  1
  Ca  Ca14  1  0.145950  0.750000  0.895949  1
  Ca  Ca15  1  0.532709  0.130816  0.246171  1
  Ca  Ca16  1  0.231310  0.979389  0.067310  1
  Ca  Ca17  1  0.898561  0.524869  0.878367  1
  Ca  Ca18  1  0.768690  0.248079  0.836000  1
  Ca  Ca19  1  0.146502  0.020195  0.621633  1
  Ca  Ca20  1  0.398561  0.378367  0.024869  1
  Ca  Ca21  1  0.353498  0.878367  0.479805  1
  Ca  Ca22  1  0.731310  0.567310  0.479389  1
  Ca  Ca23  1  0.032709  0.746171  0.630816  1
  Ca  Ca24  1  0.967291  0.253829  0.369184  1
  Ca  Ca25  1  0.268690  0.336000  0.748079  1
  Ca  Ca26  1  0.101439  0.126307  0.979805  1
  Ca  Ca27  1  0.898561  0.873693  0.020195  1
  Ca  Ca28  1  0.587921  0.251921  0.020611  1
  Ca  Ca29  1  0.912079  0.479389  0.248079  1
  Ca  Ca30  1  0.467291  0.869184  0.753829  1
  Ca  Ca31  1  0.115355  0.246171  0.213462  1
  Ca  Ca32  1  0.731310  0.664000  0.251921  1
  Ca  Ca33  1  0.645949  0.750000  0.395950  1
  Ca  Ca34  1  0.912079  0.932690  0.664000  1
  Ca  Ca35  1  0.354050  0.604051  0.750000  1
  Ca  Ca36  1  0.353498  0.975131  0.873693  1
  Ca  Ca37  1  0.384645  0.598107  0.130816  1
  Ca  Ca38  1  0.384645  0.286538  0.253829  1
  Ca  Ca39  1  0.601439  0.479805  0.626307  1
  Ca  Ca40  1  0.884645  0.630816  0.098107  1
  Ca  Ca41  1  0.467291  0.098107  0.713462  1
  Ca  Ca42  1  0.645949  0.395950  0.250000  1
  Ca  Ca43  1  0.398561  0.520195  0.373693  1
  Ca  Ca44  1  0.115355  0.369184  0.901893  1
  Ca  Ca45  1  0.615355  0.713462  0.746171  1
  Ca  Ca46  1  0.587921  0.836000  0.567310  1
  Ca  Ca47  1  0.145950  0.895949  0.250000  1
  Ca  Ca48  1  0.087921  0.520611  0.751921  1
  Ca  Ca49  1  0.854051  0.250000  0.104051  1
  Ca  Ca50  1  0.646502  0.121633  0.520195  1
  Ca  Ca51  1  0.032709  0.786538  0.401893  1
  Ca  Ca52  1  0.884645  0.753829  0.786538  1
  Ca  Ca53  1  0.646502  0.024869  0.126307  1
  Ca  Ca54  1  0.768690  0.020611  0.932690  1
  Ca  Ca55  1  0.967291  0.213462  0.598107  1
  Mn  Mn56  1  0.750000  0.875000  0.125000  1
  Mn  Mn57  1  0.750000  0.375000  0.625000  1
  Mn  Mn58  1  0.250000  0.625000  0.375000  1
  Mn  Mn59  1  0.250000  0.125000  0.875000  1
  Bi  Bi60  1  0.615650  0.317731  0.422132  1
  Bi  Bi61  1  0.250000  0.012491  0.487509  1
  Bi  Bi62  1  0.604401  0.806482  0.922132  1
  Bi  Bi63  1  0.115650  0.693518  0.297919  1
  Bi  Bi64  1  0.657567  0.479811  0.083191  1
  Bi  Bi65  1  0.104401  0.422132  0.306482  1
  Bi  Bi66  1  0.750000  0.262491  0.237509  1
  Bi  Bi67  1  0.342433  0.520189  0.916809  1
  Bi  Bi68  1  0.896620  0.822243  0.479811  1
  Bi  Bi69  1  0.750000  0.125000  0.375000  1
  Bi  Bi70  1  0.603380  0.083191  0.925624  1
  Bi  Bi71  1  0.384350  0.682269  0.577868  1
  Bi  Bi72  1  0.884350  0.077868  0.182269  1
  Bi  Bi73  1  0.975019  0.237509  0.987509  1
  Bi  Bi74  1  0.603380  0.020189  0.677757  1
  Bi  Bi75  1  0.384350  0.202081  0.806482  1
  Bi  Bi76  1  0.615650  0.797919  0.193518  1
  Bi  Bi77  1  0.524981  0.512491  0.262491  1
  Bi  Bi78  1  0.395599  0.702081  0.317731  1
  Bi  Bi79  1  0.750000  0.987509  0.512491  1
  Bi  Bi80  1  0.250000  0.875000  0.625000  1
  Bi  Bi81  1  0.895599  0.817731  0.202081  1
  Bi  Bi82  1  0.895599  0.577868  0.693518  1
  Bi  Bi83  1  0.657567  0.677757  0.574376  1
  Bi  Bi84  1  0.104401  0.182269  0.797919  1
  Bi  Bi85  1  0.103380  0.425624  0.583191  1
  Bi  Bi86  1  0.103380  0.177757  0.520189  1
  Bi  Bi87  1  0.842433  0.416809  0.020189  1
  Bi  Bi88  1  0.842433  0.925624  0.822243  1
  Bi  Bi89  1  0.115650  0.922132  0.817731  1
  Bi  Bi90  1  0.750000  0.625000  0.875000  1
  Bi  Bi91  1  0.396620  0.979811  0.322243  1
  Bi  Bi92  1  0.395599  0.193518  0.077868  1
  Bi  Bi93  1  0.157567  0.583191  0.979811  1
  Bi  Bi94  1  0.024981  0.762491  0.012491  1
  Bi  Bi95  1  0.342433  0.322243  0.425624  1
  Bi  Bi96  1  0.250000  0.375000  0.125000  1
  Bi  Bi97  1  0.896620  0.574376  0.416809  1
  Bi  Bi98  1  0.250000  0.737509  0.762491  1
  Bi  Bi99  1  0.604401  0.297919  0.682269  1
  Bi  Bi100  1  0.884350  0.306482  0.702081  1
  Bi  Bi101  1  0.157567  0.074376  0.177757  1
  Bi  Bi102  1  0.396620  0.916809  0.074376  1
  Bi  Bi103  1  0.475019  0.487509  0.737509  1
