# generated using pymatgen
data_V4Fe2O13
_symmetry_space_group_name_H-M   'P 1'
_cell_length_a   8.49732653
_cell_length_b   9.57921317
_cell_length_c   14.88040825
_cell_angle_alpha   90.00000000
_cell_angle_beta   102.78241463
_cell_angle_gamma   90.00000000
_symmetry_Int_Tables_number   1
_chemical_formula_structural   V4Fe2O13
_chemical_formula_sum   'V16 Fe8 O52'
_cell_volume   1181.21347199
_cell_formula_units_Z   4
loop_
 _symmetry_equiv_pos_site_id
 _symmetry_equiv_pos_as_xyz
  1  'x, y, z'
loop_
 _atom_site_type_symbol
 _atom_site_label
 _atom_site_symmetry_multiplicity
 _atom_site_fract_x
 _atom_site_fract_y
 _atom_site_fract_z
 _atom_site_occupancy
  V  V0  1  0.254112  0.723478  0.671692  1
  V  V1  1  0.140688  0.258657  0.323858  1
  V  V2  1  0.745888  0.276522  0.328308  1
  V  V3  1  0.859312  0.741343  0.676142  1
  V  V4  1  0.859312  0.758657  0.176142  1
  V  V5  1  0.043224  0.209181  0.091892  1
  V  V6  1  0.956776  0.709181  0.408108  1
  V  V7  1  0.140688  0.241343  0.823858  1
  V  V8  1  0.466257  0.712812  0.905409  1
  V  V9  1  0.043224  0.290819  0.591892  1
  V  V10  1  0.533743  0.287188  0.094591  1
  V  V11  1  0.956776  0.790819  0.908108  1
  V  V12  1  0.745888  0.223478  0.828308  1
  V  V13  1  0.466257  0.787188  0.405409  1
  V  V14  1  0.254112  0.776522  0.171692  1
  V  V15  1  0.533743  0.212812  0.594591  1
  Fe  Fe16  1  0.306680  0.500686  0.483826  1
  Fe  Fe17  1  0.190792  0.500568  0.006821  1
  Fe  Fe18  1  0.809208  0.499432  0.993179  1
  Fe  Fe19  1  0.693320  0.499314  0.516174  1
  Fe  Fe20  1  0.809208  0.000568  0.493179  1
  Fe  Fe21  1  0.306680  0.999314  0.983826  1
  Fe  Fe22  1  0.190792  0.999432  0.506821  1
  Fe  Fe23  1  0.693320  0.000686  0.016174  1
  O  O24  1  0.942350  0.168554  0.814018  1
  O  O25  1  0.650044  0.635366  0.925438  1
  O  O26  1  0.140089  0.865804  0.912929  1
  O  O27  1  0.142993  0.382703  0.524651  1
  O  O28  1  0.683047  0.389946  0.399739  1
  O  O29  1  0.610811  0.274709  0.217326  1
  O  O30  1  0.942350  0.331446  0.314018  1
  O  O31  1  0.767821  0.383825  0.876905  1
  O  O32  1  0.342450  0.882929  0.456151  1
  O  O33  1  0.840672  0.885368  0.609189  1
  O  O34  1  0.159328  0.114632  0.390811  1
  O  O35  1  0.342450  0.617071  0.956151  1
  O  O36  1  0.840995  0.787867  0.790484  1
  O  O37  1  0.140089  0.634196  0.412929  1
  O  O38  1  0.389188  0.774709  0.282674  1
  O  O39  1  0.316953  0.889946  0.100261  1
  O  O40  1  0.159005  0.287867  0.709516  1
  O  O41  1  0.610811  0.225291  0.717326  1
  O  O42  1  0.507967  0.384605  0.546844  1
  O  O43  1  0.657550  0.117070  0.543849  1
  O  O44  1  0.057650  0.668554  0.685982  1
  O  O45  1  0.057650  0.831446  0.185982  1
  O  O46  1  0.840995  0.712133  0.290484  1
  O  O47  1  0.279334  0.381098  0.370691  1
  O  O48  1  0.142993  0.117297  0.024651  1
  O  O49  1  0.840672  0.614632  0.109189  1
  O  O50  1  0.857007  0.617297  0.475349  1
  O  O51  1  0.010215  0.382787  0.047115  1
  O  O52  1  0.349956  0.135366  0.574562  1
  O  O53  1  0.492033  0.884605  0.953156  1
  O  O54  1  0.767821  0.116175  0.376905  1
  O  O55  1  0.989785  0.882787  0.452885  1
  O  O56  1  0.010215  0.117213  0.547116  1
  O  O57  1  0.316953  0.610054  0.600261  1
  O  O58  1  0.279334  0.118902  0.870691  1
  O  O59  1  0.159328  0.385368  0.890811  1
  O  O60  1  0.989785  0.617213  0.952884  1
  O  O61  1  0.232179  0.883825  0.623095  1
  O  O62  1  0.507967  0.115395  0.046844  1
  O  O63  1  0.657550  0.382930  0.043849  1
  O  O64  1  0.650044  0.864634  0.425438  1
  O  O65  1  0.389188  0.725291  0.782674  1
  O  O66  1  0.857007  0.882703  0.975349  1
  O  O67  1  0.720666  0.618902  0.629309  1
  O  O68  1  0.492033  0.615395  0.453156  1
  O  O69  1  0.159005  0.212133  0.209516  1
  O  O70  1  0.859911  0.365804  0.587071  1
  O  O71  1  0.720666  0.881098  0.129309  1
  O  O72  1  0.859911  0.134196  0.087071  1
  O  O73  1  0.232179  0.616175  0.123095  1
  O  O74  1  0.683047  0.110054  0.899739  1
  O  O75  1  0.349956  0.364634  0.074562  1
