# generated using pymatgen
data_Cs2Sn2O3
_symmetry_space_group_name_H-M   'P 1'
_cell_length_a   6.21533998
_cell_length_b   9.17799808
_cell_length_c   13.96071479
_cell_angle_alpha   90.00000000
_cell_angle_beta   90.00000000
_cell_angle_gamma   90.00000000
_symmetry_Int_Tables_number   1
_chemical_formula_structural   Cs2Sn2O3
_chemical_formula_sum   'Cs8 Sn8 O12'
_cell_volume   796.38029726
_cell_formula_units_Z   4
loop_
 _symmetry_equiv_pos_site_id
 _symmetry_equiv_pos_as_xyz
  1  'x, y, z'
loop_
 _atom_site_type_symbol
 _atom_site_label
 _atom_site_symmetry_multiplicity
 _atom_site_fract_x
 _atom_site_fract_y
 _atom_site_fract_z
 _atom_site_occupancy
  Cs  Cs0  1  0.250000  0.534364  0.368133  1
  Cs  Cs1  1  0.750000  0.465636  0.631867  1
  Cs  Cs2  1  0.750000  0.034364  0.131867  1
  Cs  Cs3  1  0.250000  0.965636  0.868133  1
  Cs  Cs4  1  0.250000  0.335805  0.096919  1
  Cs  Cs5  1  0.750000  0.664195  0.903081  1
  Cs  Cs6  1  0.750000  0.835805  0.403081  1
  Cs  Cs7  1  0.250000  0.164195  0.596919  1
  Sn  Sn8  1  0.250000  0.782985  0.135154  1
  Sn  Sn9  1  0.750000  0.217015  0.864846  1
  Sn  Sn10  1  0.750000  0.282985  0.364846  1
  Sn  Sn11  1  0.250000  0.717015  0.635154  1
  Sn  Sn12  1  0.250000  0.083850  0.303063  1
  Sn  Sn13  1  0.750000  0.916150  0.696937  1
  Sn  Sn14  1  0.750000  0.583850  0.196937  1
  Sn  Sn15  1  0.250000  0.416150  0.803063  1
  O  O16  1  0.002537  0.232454  0.272055  1
  O  O17  1  0.502537  0.767546  0.727945  1
  O  O18  1  0.997463  0.732454  0.227945  1
  O  O19  1  0.497463  0.267546  0.772055  1
  O  O20  1  0.997463  0.767546  0.727945  1
  O  O21  1  0.497463  0.232454  0.272055  1
  O  O22  1  0.002537  0.267546  0.772055  1
  O  O23  1  0.502537  0.732454  0.227945  1
  O  O24  1  0.250000  0.006424  0.161366  1
  O  O25  1  0.750000  0.993576  0.838634  1
  O  O26  1  0.750000  0.506424  0.338634  1
  O  O27  1  0.250000  0.493576  0.661366  1
