# generated using pymatgen
data_Yb(AlCl4)2
_symmetry_space_group_name_H-M   'P 1'
_cell_length_a   11.56082283
_cell_length_b   11.56082326
_cell_length_c   12.85057074
_cell_angle_alpha   116.73197290
_cell_angle_beta   116.73197391
_cell_angle_gamma   90.00000146
_symmetry_Int_Tables_number   1
_chemical_formula_structural   Yb(AlCl4)2
_chemical_formula_sum   'Yb4 Al8 Cl32'
_cell_volume   1325.19032023
_cell_formula_units_Z   4
loop_
 _symmetry_equiv_pos_site_id
 _symmetry_equiv_pos_as_xyz
  1  'x, y, z'
loop_
 _atom_site_type_symbol
 _atom_site_label
 _atom_site_symmetry_multiplicity
 _atom_site_fract_x
 _atom_site_fract_y
 _atom_site_fract_z
 _atom_site_occupancy
  Yb  Yb0  1  0.625000  0.375000  0.250000  1
  Yb  Yb1  1  0.375000  0.625000  0.750000  1
  Yb  Yb2  1  0.875000  0.125000  0.750000  1
  Yb  Yb3  1  0.125000  0.875000  0.250000  1
  Al  Al4  1  0.724635  0.750000  0.500000  1
  Al  Al5  1  0.275365  0.250000  0.500000  1
  Al  Al6  1  0.250000  0.224635  0.000000  1
  Al  Al7  1  0.775365  0.250000  0.500000  1
  Al  Al8  1  0.750000  0.275365  1.000000  1
  Al  Al9  1  0.224635  0.750000  0.500000  1
  Al  Al10  1  0.250000  0.724635  0.000000  1
  Al  Al11  1  0.750000  0.775365  1.000000  1
  Cl  Cl12  1  0.404334  0.122655  0.994018  1
  Cl  Cl13  1  0.808438  0.256665  0.176568  1
  Cl  Cl14  1  0.622655  0.904334  0.494018  1
  Cl  Cl15  1  0.089684  0.622655  0.994018  1
  Cl  Cl16  1  0.308438  0.919903  0.176568  1
  Cl  Cl17  1  0.868130  0.756665  0.176568  1
  Cl  Cl18  1  0.256665  0.368130  0.676568  1
  Cl  Cl19  1  0.080097  0.131870  0.323432  1
  Cl  Cl20  1  0.595666  0.877345  0.005982  1
  Cl  Cl21  1  0.589684  0.371363  0.994018  1
  Cl  Cl22  1  0.371363  0.404334  0.494018  1
  Cl  Cl23  1  0.131870  0.243335  0.823432  1
  Cl  Cl24  1  0.631870  0.580097  0.823432  1
  Cl  Cl25  1  0.377345  0.095666  0.505982  1
  Cl  Cl26  1  0.128637  0.910316  0.505982  1
  Cl  Cl27  1  0.368130  0.419903  0.176568  1
  Cl  Cl28  1  0.122655  0.589684  0.494018  1
  Cl  Cl29  1  0.756665  0.308438  0.676568  1
  Cl  Cl30  1  0.919903  0.868130  0.676568  1
  Cl  Cl31  1  0.580097  0.191562  0.323432  1
  Cl  Cl32  1  0.419903  0.808438  0.676568  1
  Cl  Cl33  1  0.191562  0.743335  0.823432  1
  Cl  Cl34  1  0.904334  0.871363  0.994018  1
  Cl  Cl35  1  0.743335  0.631870  0.323432  1
  Cl  Cl36  1  0.628637  0.595666  0.505982  1
  Cl  Cl37  1  0.095666  0.128637  0.005982  1
  Cl  Cl38  1  0.877345  0.410316  0.505982  1
  Cl  Cl39  1  0.243335  0.691562  0.323432  1
  Cl  Cl40  1  0.871363  0.089684  0.494018  1
  Cl  Cl41  1  0.910316  0.377345  0.005982  1
  Cl  Cl42  1  0.410316  0.628637  0.005982  1
  Cl  Cl43  1  0.691562  0.080097  0.823432  1
