# generated using pymatgen
data_V2NiH24(N4O5)2
_symmetry_space_group_name_H-M   'P 1'
_cell_length_a   6.08913855
_cell_length_b   7.58932382
_cell_length_c   9.40622127
_cell_angle_alpha   105.20758680
_cell_angle_beta   94.84199998
_cell_angle_gamma   97.11528265
_symmetry_Int_Tables_number   1
_chemical_formula_structural   V2NiH24(N4O5)2
_chemical_formula_sum   'V2 Ni1 H24 N8 O10'
_cell_volume   413.11883075
_cell_formula_units_Z   1
loop_
 _symmetry_equiv_pos_site_id
 _symmetry_equiv_pos_as_xyz
  1  'x, y, z'
loop_
 _atom_site_type_symbol
 _atom_site_label
 _atom_site_symmetry_multiplicity
 _atom_site_fract_x
 _atom_site_fract_y
 _atom_site_fract_z
 _atom_site_occupancy
  V  V0  1  0.541115  0.884035  0.673323  1
  V  V1  1  0.458884  0.115965  0.326677  1
  Ni  Ni2  1  0.000000  0.500000  0.000000  1
  H  H3  1  0.993464  0.564287  0.732068  1
  H  H4  1  0.957103  0.139153  0.848112  1
  H  H5  1  0.072041  0.197605  0.433291  1
  H  H6  1  0.848965  0.824930  0.010222  1
  H  H7  1  0.151035  0.175070  0.989778  1
  H  H8  1  0.787224  0.772292  0.161783  1
  H  H9  1  0.811243  0.374496  0.709312  1
  H  H10  1  0.727747  0.624154  0.489443  1
  H  H11  1  0.573506  0.437651  0.072772  1
  H  H12  1  0.745913  0.582267  0.779315  1
  H  H13  1  0.006536  0.435713  0.267932  1
  H  H14  1  0.212776  0.227708  0.838217  1
  H  H15  1  0.609045  0.264004  0.933491  1
  H  H16  1  0.254087  0.417733  0.220685  1
  H  H17  1  0.426494  0.562349  0.927228  1
  H  H18  1  0.707678  0.278516  0.106467  1
  H  H19  1  0.927959  0.802395  0.566709  1
  H  H20  1  0.188757  0.625504  0.290688  1
  H  H21  1  0.268135  0.186889  0.569182  1
  H  H22  1  0.042897  0.860847  0.151888  1
  H  H23  1  0.390955  0.735996  0.066509  1
  H  H24  1  0.731865  0.813111  0.430818  1
  H  H25  1  0.272253  0.375846  0.510557  1
  H  H26  1  0.292322  0.721484  0.893533  1
  N  N27  1  0.129248  0.496688  0.220563  1
  N  N28  1  0.237497  0.233784  0.476773  1
  N  N29  1  0.313677  0.645446  0.968280  1
  N  N30  1  0.907737  0.769388  0.091975  1
  N  N31  1  0.870752  0.503312  0.779437  1
  N  N32  1  0.762503  0.766216  0.523227  1
  N  N33  1  0.686323  0.354554  0.031720  1
  N  N34  1  0.092263  0.230612  0.908025  1
  O  O35  1  0.654088  0.107787  0.628588  1
  O  O36  1  0.240520  0.784832  0.686587  1
  O  O37  1  0.759479  0.215168  0.313413  1
  O  O38  1  0.692947  0.880159  0.826268  1
  O  O39  1  0.307053  0.119841  0.173732  1
  O  O40  1  0.533497  0.870275  0.283002  1
  O  O41  1  0.345912  0.892213  0.371412  1
  O  O42  1  0.466503  0.129725  0.716998  1
  O  O43  1  0.361778  0.650602  0.595439  1
  O  O44  1  0.638222  0.349398  0.404561  1
