# generated using pymatgen
data_KBS4(ClO3)4
_symmetry_space_group_name_H-M   'P 1'
_cell_length_a   8.36762353
_cell_length_b   10.76033338
_cell_length_c   11.20561484
_cell_angle_alpha   83.00038497
_cell_angle_beta   68.07655782
_cell_angle_gamma   70.95031005
_symmetry_Int_Tables_number   1
_chemical_formula_structural   KBS4(ClO3)4
_chemical_formula_sum   'K2 B2 S8 Cl8 O24'
_cell_volume   884.71544590
_cell_formula_units_Z   2
loop_
 _symmetry_equiv_pos_site_id
 _symmetry_equiv_pos_as_xyz
  1  'x, y, z'
loop_
 _atom_site_type_symbol
 _atom_site_label
 _atom_site_symmetry_multiplicity
 _atom_site_fract_x
 _atom_site_fract_y
 _atom_site_fract_z
 _atom_site_occupancy
  K  K0  1  0.347660  0.404188  0.166019  1
  K  K1  1  0.513678  0.904188  0.833981  1
  B  B2  1  0.121877  0.501148  0.758292  1
  B  B3  1  0.880169  0.001148  0.241708  1
  S  S4  1  0.614027  0.940343  0.446513  1
  S  S5  1  0.196948  0.799433  0.182209  1
  S  S6  1  0.060540  0.440343  0.553487  1
  S  S7  1  0.250445  0.711538  0.701257  1
  S  S8  1  0.741051  0.051135  0.049120  1
  S  S9  1  0.951702  0.211538  0.298743  1
  S  S10  1  0.379157  0.299433  0.817791  1
  S  S11  1  0.790171  0.551135  0.950880  1
  Cl  Cl12  1  0.696505  0.342846  0.350799  1
  Cl  Cl13  1  0.342948  0.767106  0.297897  1
  Cl  Cl14  1  0.640845  0.267106  0.702103  1
  Cl  Cl15  1  0.835060  0.614053  0.095760  1
  Cl  Cl16  1  0.355942  0.059897  0.485798  1
  Cl  Cl17  1  0.841740  0.559897  0.514202  1
  Cl  Cl18  1  0.930820  0.114053  0.904240  1
  Cl  Cl19  1  0.047304  0.842846  0.649201  1
  O  O20  1  0.730531  0.665036  0.878701  1
  O  O21  1  0.285605  0.383879  0.725522  1
  O  O22  1  0.678365  0.467561  0.007585  1
  O  O23  1  0.981950  0.462912  0.871263  1
  O  O24  1  0.272815  0.875290  0.073860  1
  O  O25  1  0.070997  0.535155  0.643322  1
  O  O26  1  0.346546  0.174071  0.838626  1
  O  O27  1  0.972636  0.145110  0.413234  1
  O  O28  1  0.945195  0.117860  0.205636  1
  O  O29  1  0.212817  0.423978  0.434815  1
  O  O30  1  0.647632  0.923978  0.565185  1
  O  O31  1  0.637865  0.827670  0.378026  1
  O  O32  1  0.853213  0.962912  0.128737  1
  O  O33  1  0.714319  0.035155  0.356678  1
  O  O34  1  0.293745  0.783592  0.778288  1
  O  O35  1  0.150831  0.617860  0.794364  1
  O  O36  1  0.185172  0.674071  0.161374  1
  O  O37  1  0.609232  0.165036  0.121299  1
  O  O38  1  0.685950  0.967561  0.992415  1
  O  O39  1  0.011128  0.883879  0.274478  1
  O  O40  1  0.346676  0.375290  0.926140  1
  O  O41  1  0.072033  0.283592  0.221712  1
  O  O42  1  0.385869  0.645110  0.586766  1
  O  O43  1  0.015890  0.327670  0.621974  1
