# generated using pymatgen
data_Ce3Al
_symmetry_space_group_name_H-M   'P 1'
_cell_length_a   5.20515058
_cell_length_b   6.67881241
_cell_length_c   11.85665674
_cell_angle_alpha   89.00272925
_cell_angle_beta   90.00000000
_cell_angle_gamma   90.00000000
_symmetry_Int_Tables_number   1
_chemical_formula_structural   Ce3Al
_chemical_formula_sum   'Ce12 Al4'
_cell_volume   412.12503843
_cell_formula_units_Z   4
loop_
 _symmetry_equiv_pos_site_id
 _symmetry_equiv_pos_as_xyz
  1  'x, y, z'
loop_
 _atom_site_type_symbol
 _atom_site_label
 _atom_site_symmetry_multiplicity
 _atom_site_fract_x
 _atom_site_fract_y
 _atom_site_fract_z
 _atom_site_occupancy
  Ce  Ce0  1  0.750000  0.506382  0.326403  1
  Ce  Ce1  1  0.250000  0.742873  0.394380  1
  Ce  Ce2  1  0.250000  0.724303  0.928632  1
  Ce  Ce3  1  0.750000  0.275697  0.071368  1
  Ce  Ce4  1  0.750000  0.257127  0.605620  1
  Ce  Ce5  1  0.250000  0.493618  0.673597  1
  Ce  Ce6  1  0.250000  0.989866  0.199598  1
  Ce  Ce7  1  0.250000  0.284252  0.926876  1
  Ce  Ce8  1  0.250000  0.221135  0.402314  1
  Ce  Ce9  1  0.750000  0.778865  0.597686  1
  Ce  Ce10  1  0.750000  0.715748  0.073124  1
  Ce  Ce11  1  0.750000  0.010134  0.800402  1
  Al  Al12  1  0.750000  0.996250  0.339153  1
  Al  Al13  1  0.250000  0.488016  0.169523  1
  Al  Al14  1  0.250000  0.003750  0.660847  1
  Al  Al15  1  0.750000  0.511984  0.830477  1
