# generated using pymatgen
data_MgGaMo4O7
_symmetry_space_group_name_H-M   'P 1'
_cell_length_a   5.82998647
_cell_length_b   6.14366629
_cell_length_c   9.44982344
_cell_angle_alpha   108.96745800
_cell_angle_beta   107.96927577
_cell_angle_gamma   90.00481360
_symmetry_Int_Tables_number   1
_chemical_formula_structural   MgGaMo4O7
_chemical_formula_sum   'Mg2 Ga2 Mo8 O14'
_cell_volume   302.57713626
_cell_formula_units_Z   2
loop_
 _symmetry_equiv_pos_site_id
 _symmetry_equiv_pos_as_xyz
  1  'x, y, z'
loop_
 _atom_site_type_symbol
 _atom_site_label
 _atom_site_symmetry_multiplicity
 _atom_site_fract_x
 _atom_site_fract_y
 _atom_site_fract_z
 _atom_site_occupancy
  Mg  Mg0  1  0.500000  0.000000  0.500000  1
  Mg  Mg1  1  0.500000  0.500000  0.500000  1
  Ga  Ga2  1  0.945190  0.695229  0.390459  1
  Ga  Ga3  1  0.054810  0.304771  0.609541  1
  Mo  Mo4  1  0.634855  0.112845  0.225668  1
  Mo  Mo5  1  0.746621  0.227240  0.993045  1
  Mo  Mo6  1  0.253379  0.772760  0.006955  1
  Mo  Mo7  1  0.365145  0.887155  0.774332  1
  Mo  Mo8  1  0.253516  0.234158  0.006958  1
  Mo  Mo9  1  0.090757  0.112861  0.225696  1
  Mo  Mo10  1  0.909243  0.887139  0.774304  1
  Mo  Mo11  1  0.746484  0.765842  0.993042  1
  O  O12  1  0.249832  0.241991  0.484025  1
  O  O13  1  0.734243  0.242036  0.484036  1
  O  O14  1  0.126795  0.610045  0.753565  1
  O  O15  1  0.624211  0.099229  0.748346  1
  O  O16  1  0.375789  0.900771  0.251654  1
  O  O17  1  0.873168  0.856503  0.246428  1
  O  O18  1  0.873205  0.389955  0.246435  1
  O  O19  1  0.126832  0.143497  0.753572  1
  O  O20  1  0.000000  0.500000  0.000000  1
  O  O21  1  0.624169  0.649112  0.748331  1
  O  O22  1  0.375831  0.350888  0.251669  1
  O  O23  1  0.750168  0.758009  0.515975  1
  O  O24  1  0.265757  0.757964  0.515964  1
  O  O25  1  0.500000  0.500000  0.000000  1
