# generated using pymatgen
data_CaTeO3
_symmetry_space_group_name_H-M   'P 1'
_cell_length_a   5.74999258
_cell_length_b   8.67375017
_cell_length_c   21.44408710
_cell_angle_alpha   91.33304221
_cell_angle_beta   90.00000000
_cell_angle_gamma   90.00000000
_symmetry_Int_Tables_number   1
_chemical_formula_structural   CaTeO3
_chemical_formula_sum   'Ca12 Te12 O36'
_cell_volume   1069.21292994
_cell_formula_units_Z   12
loop_
 _symmetry_equiv_pos_site_id
 _symmetry_equiv_pos_as_xyz
  1  'x, y, z'
loop_
 _atom_site_type_symbol
 _atom_site_label
 _atom_site_symmetry_multiplicity
 _atom_site_fract_x
 _atom_site_fract_y
 _atom_site_fract_z
 _atom_site_occupancy
  Ca  Ca0  1  0.229532  0.960531  0.940638  1
  Ca  Ca1  1  0.770468  0.039469  0.059362  1
  Ca  Ca2  1  0.842988  0.309780  0.316391  1
  Ca  Ca3  1  0.270468  0.460531  0.440638  1
  Ca  Ca4  1  0.326403  0.574874  0.274937  1
  Ca  Ca5  1  0.342988  0.190220  0.183609  1
  Ca  Ca6  1  0.826403  0.925126  0.225063  1
  Ca  Ca7  1  0.673597  0.425126  0.725063  1
  Ca  Ca8  1  0.729532  0.539469  0.559362  1
  Ca  Ca9  1  0.157012  0.690220  0.683609  1
  Ca  Ca10  1  0.657012  0.809780  0.816391  1
  Ca  Ca11  1  0.173597  0.074874  0.774937  1
  Te  Te12  1  0.744142  0.680963  0.988083  1
  Te  Te13  1  0.764235  0.697184  0.374835  1
  Te  Te14  1  0.244142  0.819037  0.511917  1
  Te  Te15  1  0.662348  0.919165  0.663798  1
  Te  Te16  1  0.837652  0.419165  0.163798  1
  Te  Te17  1  0.264235  0.802816  0.125165  1
  Te  Te18  1  0.235765  0.302816  0.625165  1
  Te  Te19  1  0.755858  0.180963  0.488083  1
  Te  Te20  1  0.337652  0.080835  0.336202  1
  Te  Te21  1  0.162348  0.580835  0.836202  1
  Te  Te22  1  0.735765  0.197184  0.874835  1
  Te  Te23  1  0.255858  0.319037  0.011917  1
  O  O24  1  0.488346  0.681499  0.491440  1
  O  O25  1  0.453933  0.092409  0.853698  1
  O  O26  1  0.150341  0.733096  0.203011  1
  O  O27  1  0.900213  0.937229  0.724638  1
  O  O28  1  0.599787  0.437229  0.224638  1
  O  O29  1  0.772871  0.654466  0.901218  1
  O  O30  1  0.764448  0.718934  0.640884  1
  O  O31  1  0.484384  0.165909  1.001408  1
  O  O32  1  0.515616  0.834091  -0.001408  1
  O  O33  1  0.015616  0.665909  0.501408  1
  O  O34  1  0.068320  0.375300  0.224656  1
  O  O35  1  0.264448  0.781066  0.859116  1
  O  O36  1  0.735552  0.218934  0.140884  1
  O  O37  1  0.400213  0.562771  0.775362  1
  O  O38  1  0.650341  0.766904  0.296989  1
  O  O39  1  0.727129  0.154466  0.401218  1
  O  O40  1  0.272871  0.845534  0.598782  1
  O  O41  1  0.416516  0.485109  0.630414  1
  O  O42  1  0.931680  0.624700  0.775344  1
  O  O43  1  0.349659  0.233096  0.703011  1
  O  O44  1  0.511654  0.318501  0.508560  1
  O  O45  1  0.849659  0.266904  0.796989  1
  O  O46  1  0.568320  0.124700  0.275344  1
  O  O47  1  0.583484  0.514891  0.369586  1
  O  O48  1  0.916516  0.014891  0.869586  1
  O  O49  1  0.083484  0.985109  0.130414  1
  O  O50  1  0.099787  0.062771  0.275362  1
  O  O51  1  0.046067  0.592409  0.353698  1
  O  O52  1  0.953933  0.407591  0.646302  1
  O  O53  1  0.227129  0.345534  0.098782  1
  O  O54  1  0.431680  0.875300  0.724656  1
  O  O55  1  0.988346  0.818501  0.008560  1
  O  O56  1  0.235552  0.281066  0.359116  1
  O  O57  1  0.984384  0.334091  0.498592  1
  O  O58  1  0.546067  0.907591  0.146302  1
  O  O59  1  0.011654  0.181499  0.991440  1
