# generated using pymatgen
data_Li2NiO3
_symmetry_space_group_name_H-M   'P 1'
_cell_length_a   4.89304752
_cell_length_b   4.89304785
_cell_length_c   5.00668401
_cell_angle_alpha   99.46179025
_cell_angle_beta   99.46179083
_cell_angle_gamma   119.94536159
_symmetry_Int_Tables_number   1
_chemical_formula_structural   Li2NiO3
_chemical_formula_sum   'Li4 Ni2 O6'
_cell_volume   98.10270946
_cell_formula_units_Z   2
loop_
 _symmetry_equiv_pos_site_id
 _symmetry_equiv_pos_as_xyz
  1  'x, y, z'
loop_
 _atom_site_type_symbol
 _atom_site_label
 _atom_site_symmetry_multiplicity
 _atom_site_fract_x
 _atom_site_fract_y
 _atom_site_fract_z
 _atom_site_occupancy
  Li  Li0  1  0.337798  0.662202  0.500000  1
  Li  Li1  1  0.000000  0.000000  0.500000  1
  Li  Li2  1  0.662202  0.337798  0.500000  1
  Li  Li3  1  0.500000  0.500000  0.000000  1
  Ni  Ni4  1  0.166804  0.833196  0.000000  1
  Ni  Ni5  1  0.833196  0.166804  1.000000  1
  O  O6  1  0.573591  0.932373  0.221071  1
  O  O7  1  0.426409  0.067627  0.778929  1
  O  O8  1  0.783309  0.783309  0.775585  1
  O  O9  1  0.932373  0.573591  0.221071  1
  O  O10  1  0.067627  0.426409  0.778929  1
  O  O11  1  0.216691  0.216691  0.224415  1
