# generated using pymatgen
data_Sr2CoWO6
_symmetry_space_group_name_H-M   'P 1'
_cell_length_a   5.69141222
_cell_length_b   5.68769859
_cell_length_c   5.68361301
_cell_angle_alpha   59.94713037
_cell_angle_beta   60.12147490
_cell_angle_gamma   60.05534887
_symmetry_Int_Tables_number   1
_chemical_formula_structural   Sr2CoWO6
_chemical_formula_sum   'Sr2 Co1 W1 O6'
_cell_volume   130.21787819
_cell_formula_units_Z   1
loop_
 _symmetry_equiv_pos_site_id
 _symmetry_equiv_pos_as_xyz
  1  'x, y, z'
loop_
 _atom_site_type_symbol
 _atom_site_label
 _atom_site_symmetry_multiplicity
 _atom_site_fract_x
 _atom_site_fract_y
 _atom_site_fract_z
 _atom_site_occupancy
  Sr  Sr0  1  0.251075  0.249620  0.249756  1
  Sr  Sr1  1  0.748925  0.750380  0.750244  1
  Co  Co2  1  0.500000  0.500000  0.500000  1
  W  W3  1  1.000000  1.000000  0.000000  1
  O  O4  1  0.241666  0.758436  0.758214  1
  O  O5  1  0.758334  0.241564  0.241786  1
  O  O6  1  0.757605  0.242260  0.757945  1
  O  O7  1  0.242395  0.757741  0.242055  1
  O  O8  1  0.241990  0.241818  0.757934  1
  O  O9  1  0.758009  0.758182  0.242066  1
