# generated using pymatgen
data_VH14SO11
_symmetry_space_group_name_H-M   'P 1'
_cell_length_a   6.51712583
_cell_length_b   11.14535107
_cell_length_c   14.17359197
_cell_angle_alpha   105.62065731
_cell_angle_beta   90.00000000
_cell_angle_gamma   90.00000000
_symmetry_Int_Tables_number   1
_chemical_formula_structural   VH14SO11
_chemical_formula_sum   'V4 H56 S4 O44'
_cell_volume   991.48382269
_cell_formula_units_Z   4
loop_
 _symmetry_equiv_pos_site_id
 _symmetry_equiv_pos_as_xyz
  1  'x, y, z'
loop_
 _atom_site_type_symbol
 _atom_site_label
 _atom_site_symmetry_multiplicity
 _atom_site_fract_x
 _atom_site_fract_y
 _atom_site_fract_z
 _atom_site_occupancy
  V  V0  1  0.000000  0.000000  0.000000  1
  V  V1  1  0.500000  0.500000  0.000000  1
  V  V2  1  0.500000  0.000000  0.500000  1
  V  V3  1  0.000000  0.500000  0.500000  1
  H  H4  1  0.244742  0.957734  0.149994  1
  H  H5  1  0.744742  0.542266  0.850006  1
  H  H6  1  0.755258  0.042266  0.850006  1
  H  H7  1  0.255258  0.457734  0.149994  1
  H  H8  1  0.064371  0.853808  0.126166  1
  H  H9  1  0.564371  0.646192  0.873834  1
  H  H10  1  0.935629  0.146192  0.873834  1
  H  H11  1  0.435629  0.353808  0.126166  1
  H  H12  1  0.814388  0.204323  0.118887  1
  H  H13  1  0.314388  0.295677  0.881113  1
  H  H14  1  0.185612  0.795677  0.881113  1
  H  H15  1  0.685612  0.704323  0.118887  1
  H  H16  1  0.045349  0.200910  0.158837  1
  H  H17  1  0.545349  0.299090  0.841163  1
  H  H18  1  0.954651  0.799090  0.841163  1
  H  H19  1  0.454651  0.700910  0.158837  1
  H  H20  1  0.386834  0.121511  0.020284  1
  H  H21  1  0.886834  0.378489  0.979716  1
  H  H22  1  0.613166  0.878489  0.979716  1
  H  H23  1  0.113166  0.621511  0.020284  1
  H  H24  1  0.375717  0.036170  0.909959  1
  H  H25  1  0.875717  0.463830  0.090041  1
  H  H26  1  0.624283  0.963830  0.090041  1
  H  H27  1  0.124283  0.536170  0.909959  1
  H  H28  1  0.520629  0.199181  0.421066  1
  H  H29  1  0.020629  0.300819  0.578934  1
  H  H30  1  0.479371  0.800819  0.578934  1
  H  H31  1  0.979371  0.699181  0.421066  1
  H  H32  1  0.474365  0.256949  0.533947  1
  H  H33  1  0.974365  0.243051  0.466053  1
  H  H34  1  0.525635  0.743051  0.466053  1
  H  H35  1  0.025635  0.756949  0.533947  1
  H  H36  1  0.864322  0.995221  0.592882  1
  H  H37  1  0.364322  0.504779  0.407118  1
  H  H38  1  0.135678  0.004779  0.407118  1
  H  H39  1  0.635678  0.495221  0.592882  1
  H  H40  1  0.780751  0.134700  0.629392  1
  H  H41  1  0.280751  0.365300  0.370608  1
  H  H42  1  0.219249  0.865300  0.370608  1
  H  H43  1  0.719249  0.634700  0.629392  1
  H  H44  1  0.421293  0.036949  0.701226  1
  H  H45  1  0.921293  0.463051  0.298774  1
  H  H46  1  0.578707  0.963051  0.298774  1
  H  H47  1  0.078707  0.536949  0.701226  1
  H  H48  1  0.269453  0.130880  0.666266  1
  H  H49  1  0.769453  0.369120  0.333734  1
  H  H50  1  0.730547  0.869120  0.333734  1
  H  H51  1  0.230547  0.630880  0.666266  1
  H  H52  1  0.880658  0.086468  0.342848  1
  H  H53  1  0.380658  0.413532  0.657152  1
  H  H54  1  0.119342  0.913532  0.657152  1
  H  H55  1  0.619342  0.586468  0.342848  1
  H  H56  1  0.095364  0.144846  0.320985  1
  H  H57  1  0.595364  0.355154  0.679015  1
  H  H58  1  0.904636  0.855154  0.679015  1
  H  H59  1  0.404636  0.644846  0.320985  1
  S  S60  1  0.473356  0.172334  0.225716  1
  S  S61  1  0.973356  0.327666  0.774284  1
  S  S62  1  0.526644  0.827666  0.774284  1
  S  S63  1  0.026644  0.672334  0.225716  1
  O  O64  1  0.477610  0.032194  0.202805  1
  O  O65  1  0.977610  0.467806  0.797195  1
  O  O66  1  0.522390  0.967806  0.797195  1
  O  O67  1  0.022390  0.532194  0.202805  1
  O  O68  1  0.534228  0.209881  0.135723  1
  O  O69  1  0.034228  0.290119  0.864277  1
  O  O70  1  0.465772  0.790119  0.864277  1
  O  O71  1  0.965772  0.709881  0.135723  1
  O  O72  1  0.620190  0.225254  0.306851  1
  O  O73  1  0.120190  0.274746  0.693149  1
  O  O74  1  0.379810  0.774746  0.693149  1
  O  O75  1  0.879810  0.725254  0.306851  1
  O  O76  1  0.260443  0.219130  0.255152  1
  O  O77  1  0.760443  0.280870  0.744848  1
  O  O78  1  0.739557  0.780870  0.744848  1
  O  O79  1  0.239557  0.719130  0.255152  1
  O  O80  1  0.106518  0.937393  0.121593  1
  O  O81  1  0.606518  0.562607  0.878407  1
  O  O82  1  0.893482  0.062607  0.878407  1
  O  O83  1  0.393482  0.437393  0.121593  1
  O  O84  1  0.958998  0.184304  0.099684  1
  O  O85  1  0.458998  0.315696  0.900316  1
  O  O86  1  0.041002  0.815696  0.900316  1
  O  O87  1  0.541002  0.684304  0.099684  1
  O  O88  1  0.294680  0.071271  0.969858  1
  O  O89  1  0.794680  0.428729  0.030142  1
  O  O90  1  0.705320  0.928729  0.030142  1
  O  O91  1  0.205320  0.571271  0.969858  1
  O  O92  1  0.453046  0.181123  0.478063  1
  O  O93  1  0.953046  0.318877  0.521937  1
  O  O94  1  0.546954  0.818877  0.521937  1
  O  O95  1  0.046954  0.681123  0.478063  1
  O  O96  1  0.785530  0.061136  0.572540  1
  O  O97  1  0.285530  0.438864  0.427460  1
  O  O98  1  0.214470  0.938864  0.427460  1
  O  O99  1  0.714470  0.561136  0.572540  1
  O  O100  1  0.346416  0.051528  0.644548  1
  O  O101  1  0.846416  0.448472  0.355452  1
  O  O102  1  0.653584  0.948472  0.355452  1
  O  O103  1  0.153584  0.551528  0.644548  1
  O  O104  1  0.014150  0.117568  0.370741  1
  O  O105  1  0.514150  0.382432  0.629259  1
  O  O106  1  0.985850  0.882432  0.629259  1
  O  O107  1  0.485850  0.617568  0.370741  1
