# generated using pymatgen
data_NaGdO2
_symmetry_space_group_name_H-M   'P 1'
_cell_length_a   4.68236126
_cell_length_b   4.68236126
_cell_length_c   6.26566960
_cell_angle_alpha   111.94102913
_cell_angle_beta   111.94102915
_cell_angle_gamma   90.00000001
_symmetry_Int_Tables_number   1
_chemical_formula_structural   NaGdO2
_chemical_formula_sum   'Na2 Gd2 O4'
_cell_volume   116.62593491
_cell_formula_units_Z   2
loop_
 _symmetry_equiv_pos_site_id
 _symmetry_equiv_pos_as_xyz
  1  'x, y, z'
loop_
 _atom_site_type_symbol
 _atom_site_label
 _atom_site_symmetry_multiplicity
 _atom_site_fract_x
 _atom_site_fract_y
 _atom_site_fract_z
 _atom_site_occupancy
  O  O0  1  0.155108  0.405108  0.310215  1
  O  O1  1  0.405108  0.155108  0.810215  1
  O  O2  1  0.594893  0.844893  0.189785  1
  O  O3  1  0.844893  0.594893  0.689785  1
  Na  Na4  1  0.125000  0.875000  0.250000  1
  Na  Na5  1  0.875000  0.125000  0.750000  1
  Gd  Gd6  1  0.375000  0.625000  0.750000  1
  Gd  Gd7  1  0.625000  0.375000  0.250000  1
