# generated using pymatgen
data_Pr3Sb5Pd6
_symmetry_space_group_name_H-M   'P 1'
_cell_length_a   4.50966373
_cell_length_b   10.15906759
_cell_length_c   13.63635943
_cell_angle_alpha   90.00000000
_cell_angle_beta   90.00000000
_cell_angle_gamma   90.00000000
_symmetry_Int_Tables_number   1
_chemical_formula_structural   Pr3Sb5Pd6
_chemical_formula_sum   'Pr6 Sb10 Pd12'
_cell_volume   624.73587967
_cell_formula_units_Z   2
loop_
 _symmetry_equiv_pos_site_id
 _symmetry_equiv_pos_as_xyz
  1  'x, y, z'
loop_
 _atom_site_type_symbol
 _atom_site_label
 _atom_site_symmetry_multiplicity
 _atom_site_fract_x
 _atom_site_fract_y
 _atom_site_fract_z
 _atom_site_occupancy
  Pr  Pr0  1  0.250000  0.756669  0.250000  1
  Pr  Pr1  1  0.750000  0.243331  0.750000  1
  Pr  Pr2  1  0.250000  0.754344  0.574103  1
  Pr  Pr3  1  0.750000  0.245656  0.425897  1
  Pr  Pr4  1  0.250000  0.754344  0.925897  1
  Pr  Pr5  1  0.750000  0.245656  0.074103  1
  Pd  Pd6  1  0.250000  0.009037  0.410337  1
  Pd  Pd7  1  0.750000  0.990963  0.589663  1
  Pd  Pd8  1  0.250000  0.009037  0.089663  1
  Pd  Pd9  1  0.750000  0.990963  0.910337  1
  Pd  Pd10  1  0.750000  0.017501  0.250000  1
  Pd  Pd11  1  0.250000  0.982499  0.750000  1
  Pd  Pd12  1  0.250000  0.396817  0.567920  1
  Pd  Pd13  1  0.750000  0.603183  0.432080  1
  Pd  Pd14  1  0.250000  0.396817  0.932080  1
  Pd  Pd15  1  0.750000  0.603183  0.067920  1
  Pd  Pd16  1  0.750000  0.474895  0.250000  1
  Pd  Pd17  1  0.250000  0.525105  0.750000  1
  Sb  Sb18  1  0.250000  0.477021  0.376694  1
  Sb  Sb19  1  0.750000  0.522979  0.623306  1
  Sb  Sb20  1  0.250000  0.477021  0.123306  1
  Sb  Sb21  1  0.750000  0.522979  0.876694  1
  Sb  Sb22  1  0.250000  0.136724  0.586937  1
  Sb  Sb23  1  0.750000  0.863276  0.413063  1
  Sb  Sb24  1  0.250000  0.136724  0.913063  1
  Sb  Sb25  1  0.750000  0.863276  0.086937  1
  Sb  Sb26  1  0.250000  0.170378  0.250000  1
  Sb  Sb27  1  0.750000  0.829622  0.750000  1
