# generated using pymatgen
data_Pu(IO3)4
_symmetry_space_group_name_H-M   'P 1'
_cell_length_a   5.39379049
_cell_length_b   10.14101468
_cell_length_c   10.14101468
_cell_angle_alpha   90.00000000
_cell_angle_beta   90.00000000
_cell_angle_gamma   90.00000000
_symmetry_Int_Tables_number   1
_chemical_formula_structural   Pu(IO3)4
_chemical_formula_sum   'Pu2 I8 O24'
_cell_volume   554.69837808
_cell_formula_units_Z   2
loop_
 _symmetry_equiv_pos_site_id
 _symmetry_equiv_pos_as_xyz
  1  'x, y, z'
loop_
 _atom_site_type_symbol
 _atom_site_label
 _atom_site_symmetry_multiplicity
 _atom_site_fract_x
 _atom_site_fract_y
 _atom_site_fract_z
 _atom_site_occupancy
  Pu  Pu0  1  0.250000  0.750000  0.750000  1
  Pu  Pu1  1  0.750000  0.250000  0.250000  1
  I  I2  1  0.219421  0.521537  0.251668  1
  I  I3  1  0.780579  0.021537  0.751668  1
  I  I4  1  0.780579  0.478463  0.748332  1
  I  I5  1  0.280579  0.248332  0.521537  1
  I  I6  1  0.719421  0.751668  0.478463  1
  I  I7  1  0.280579  0.251668  0.978463  1
  I  I8  1  0.719421  0.748332  0.021537  1
  I  I9  1  0.219421  0.978463  0.248332  1
  O  O10  1  0.050438  0.939393  0.828153  1
  O  O11  1  0.449562  0.671847  0.939393  1
  O  O12  1  0.753566  0.629447  0.153148  1
  O  O13  1  0.554343  0.902265  0.823293  1
  O  O14  1  0.945657  0.823293  0.597735  1
  O  O15  1  0.550438  0.171847  0.439393  1
  O  O16  1  0.054343  0.176707  0.402265  1
  O  O17  1  0.449562  0.828153  0.560607  1
  O  O18  1  0.550438  0.328153  0.060607  1
  O  O19  1  0.945657  0.676707  0.902265  1
  O  O20  1  0.246434  0.370553  0.846852  1
  O  O21  1  0.753566  0.870553  0.346852  1
  O  O22  1  0.746434  0.346852  0.629447  1
  O  O23  1  0.949562  0.060607  0.171847  1
  O  O24  1  0.949562  0.439393  0.328153  1
  O  O25  1  0.746434  0.153148  0.870553  1
  O  O26  1  0.445657  0.402265  0.323293  1
  O  O27  1  0.554343  0.597735  0.676707  1
  O  O28  1  0.253566  0.653148  0.370553  1
  O  O29  1  0.253566  0.846852  0.129447  1
  O  O30  1  0.246434  0.129447  0.653148  1
  O  O31  1  0.445657  0.097735  0.176707  1
  O  O32  1  0.050438  0.560607  0.671847  1
  O  O33  1  0.054343  0.323293  0.097735  1
