# generated using pymatgen
data_Cs3MnF7
_symmetry_space_group_name_H-M   'P 1'
_cell_length_a   6.31837801
_cell_length_b   8.57309940
_cell_length_c   8.57309940
_cell_angle_alpha   90.00000000
_cell_angle_beta   90.00000000
_cell_angle_gamma   90.00000000
_symmetry_Int_Tables_number   1
_chemical_formula_structural   Cs3MnF7
_chemical_formula_sum   'Cs6 Mn2 F14'
_cell_volume   464.38835752
_cell_formula_units_Z   2
loop_
 _symmetry_equiv_pos_site_id
 _symmetry_equiv_pos_as_xyz
  1  'x, y, z'
loop_
 _atom_site_type_symbol
 _atom_site_label
 _atom_site_symmetry_multiplicity
 _atom_site_fract_x
 _atom_site_fract_y
 _atom_site_fract_z
 _atom_site_occupancy
  F  F0  1  0.790831  0.892953  0.392953  1
  F  F1  1  0.790831  0.107047  0.607047  1
  F  F2  1  0.790831  0.392953  0.107047  1
  F  F3  1  0.790831  0.607047  0.892953  1
  F  F4  1  0.209169  0.892953  0.392953  1
  F  F5  1  0.209169  0.607047  0.892953  1
  F  F6  1  0.209169  0.392953  0.107047  1
  F  F7  1  0.209169  0.107047  0.607047  1
  F  F8  1  0.500000  0.000000  0.000000  1
  F  F9  1  0.500000  0.500000  0.500000  1
  F  F10  1  0.000000  0.347432  0.847432  1
  F  F11  1  0.000000  0.152568  0.347432  1
  F  F12  1  0.000000  0.847432  0.652568  1
  F  F13  1  0.000000  0.652568  0.152568  1
  Mn  Mn14  1  0.000000  0.500000  0.000000  1
  Mn  Mn15  1  0.000000  0.000000  0.500000  1
  Cs  Cs16  1  0.500000  0.693390  0.193390  1
  Cs  Cs17  1  0.500000  0.806610  0.693390  1
  Cs  Cs18  1  0.500000  0.193390  0.306610  1
  Cs  Cs19  1  0.500000  0.306610  0.806610  1
  Cs  Cs20  1  0.000000  0.500000  0.500000  1
  Cs  Cs21  1  0.000000  0.000000  0.000000  1
