# generated using pymatgen
data_Ge2C2(SF2)3
_symmetry_space_group_name_H-M   'P 1'
_cell_length_a   11.39876665
_cell_length_b   11.39876658
_cell_length_c   11.39876687
_cell_angle_alpha   59.99999914
_cell_angle_beta   59.99999935
_cell_angle_gamma   59.99999758
_symmetry_Int_Tables_number   1
_chemical_formula_structural   Ge2C2(SF2)3
_chemical_formula_sum   'Ge8 C8 S12 F24'
_cell_volume   1047.26981091
_cell_formula_units_Z   4
loop_
 _symmetry_equiv_pos_site_id
 _symmetry_equiv_pos_as_xyz
  1  'x, y, z'
loop_
 _atom_site_type_symbol
 _atom_site_label
 _atom_site_symmetry_multiplicity
 _atom_site_fract_x
 _atom_site_fract_y
 _atom_site_fract_z
 _atom_site_occupancy
  Ge  Ge0  1  0.200148  0.200148  0.200148  1
  Ge  Ge1  1  0.799852  0.799852  0.100445  1
  Ge  Ge2  1  0.100445  0.799852  0.799852  1
  Ge  Ge3  1  0.799852  0.100445  0.799852  1
  Ge  Ge4  1  0.899555  0.200148  0.200148  1
  Ge  Ge5  1  0.200148  0.899555  0.200148  1
  Ge  Ge6  1  0.200148  0.200148  0.899555  1
  Ge  Ge7  1  0.799852  0.799852  0.799852  1
  S  S8  1  0.960445  0.289555  0.289555  1
  S  S9  1  0.710445  0.710445  0.039555  1
  S  S10  1  0.039555  0.039555  0.710445  1
  S  S11  1  0.710445  0.039555  0.039555  1
  S  S12  1  0.710445  0.039555  0.710445  1
  S  S13  1  0.039555  0.710445  0.039555  1
  S  S14  1  0.289555  0.960445  0.289555  1
  S  S15  1  0.289555  0.289555  0.960445  1
  S  S16  1  0.960445  0.960445  0.289555  1
  S  S17  1  0.960445  0.289555  0.960445  1
  S  S18  1  0.039555  0.710445  0.710445  1
  S  S19  1  0.289555  0.960445  0.960445  1
  F  F20  1  0.355278  0.355278  0.162332  1
  F  F21  1  0.644722  0.837668  0.372887  1
  F  F22  1  0.372887  0.644722  0.644722  1
  F  F23  1  0.644722  0.372887  0.644722  1
  F  F24  1  0.837668  0.644722  0.372887  1
  F  F25  1  0.837668  0.372887  0.644722  1
  F  F26  1  0.372887  0.837668  0.644722  1
  F  F27  1  0.162332  0.355278  0.355278  1
  F  F28  1  0.355278  0.162332  0.355278  1
  F  F29  1  0.627113  0.355278  0.162332  1
  F  F30  1  0.355278  0.627113  0.162332  1
  F  F31  1  0.627113  0.355278  0.355278  1
  F  F32  1  0.162332  0.355278  0.627113  1
  F  F33  1  0.355278  0.162332  0.627113  1
  F  F34  1  0.355278  0.627113  0.355278  1
  F  F35  1  0.372887  0.644722  0.837668  1
  F  F36  1  0.644722  0.372887  0.837668  1
  F  F37  1  0.644722  0.644722  0.372887  1
  F  F38  1  0.644722  0.644722  0.837668  1
  F  F39  1  0.837668  0.644722  0.644722  1
  F  F40  1  0.644722  0.837668  0.644722  1
  F  F41  1  0.162332  0.627113  0.355278  1
  F  F42  1  0.627113  0.162332  0.355278  1
  F  F43  1  0.355278  0.355278  0.627113  1
  C  C44  1  0.273449  0.273449  0.273449  1
  C  C45  1  0.726551  0.726551  0.320346  1
  C  C46  1  0.320346  0.726551  0.726551  1
  C  C47  1  0.726551  0.320346  0.726551  1
  C  C48  1  0.679654  0.273449  0.273449  1
  C  C49  1  0.273449  0.679654  0.273449  1
  C  C50  1  0.273449  0.273449  0.679654  1
  C  C51  1  0.726551  0.726551  0.726551  1
