# generated using pymatgen
data_Ba2Ni3F10
_symmetry_space_group_name_H-M   'P 1'
_cell_length_a   6.02853727
_cell_length_b   7.94789777
_cell_length_c   9.85644983
_cell_angle_alpha   110.70033486
_cell_angle_beta   107.80731553
_cell_angle_gamma   90.00000003
_symmetry_Int_Tables_number   1
_chemical_formula_structural   Ba2Ni3F10
_chemical_formula_sum   'Ba4 Ni6 F20'
_cell_volume   417.50043157
_cell_formula_units_Z   2
loop_
 _symmetry_equiv_pos_site_id
 _symmetry_equiv_pos_as_xyz
  1  'x, y, z'
loop_
 _atom_site_type_symbol
 _atom_site_label
 _atom_site_symmetry_multiplicity
 _atom_site_fract_x
 _atom_site_fract_y
 _atom_site_fract_z
 _atom_site_occupancy
  F  F0  1  0.500000  0.500000  0.500000  1
  F  F1  1  0.000000  0.500000  0.500000  1
  F  F2  1  0.725392  0.000000  0.000000  1
  F  F3  1  0.274608  0.000000  0.000000  1
  F  F4  1  0.263282  0.219539  0.526564  1
  F  F5  1  0.736718  0.780461  0.473436  1
  F  F6  1  0.017419  0.681819  0.034837  1
  F  F7  1  0.982581  0.318181  0.965163  1
  F  F8  1  0.365909  0.756775  0.731819  1
  F  F9  1  0.634091  0.243225  0.268181  1
  F  F10  1  0.129403  0.473290  0.776577  1
  F  F11  1  0.352826  0.526710  0.223423  1
  F  F12  1  0.870597  0.526710  0.223423  1
  F  F13  1  0.647174  0.473290  0.776577  1
  F  F14  1  0.888367  0.975717  0.299521  1
  F  F15  1  0.588846  0.024283  0.700479  1
  F  F16  1  0.111633  0.024283  0.700479  1
  F  F17  1  0.411154  0.975717  0.299521  1
  F  F18  1  0.521234  0.683992  0.042468  1
  F  F19  1  0.478766  0.316008  0.957532  1
  Ni  Ni20  1  0.246798  0.500000  0.000000  1
  Ni  Ni21  1  0.753202  0.500000  0.000000  1
  Ni  Ni22  1  0.322636  0.483124  0.645271  1
  Ni  Ni23  1  0.677364  0.516876  0.354729  1
  Ni  Ni24  1  0.425450  0.040588  0.850900  1
  Ni  Ni25  1  0.574550  0.959412  0.149100  1
  Ba  Ba26  1  0.216909  0.813290  0.433819  1
  Ba  Ba27  1  0.783091  0.186710  0.566181  1
  Ba  Ba28  1  0.114623  0.220936  0.229245  1
  Ba  Ba29  1  0.885377  0.779064  0.770755  1
