# generated using pymatgen
data_Ti7O13
_symmetry_space_group_name_H-M   'P 1'
_cell_length_a   5.59249127
_cell_length_b   7.19146650
_cell_length_c   11.40834374
_cell_angle_alpha   83.96192160
_cell_angle_beta   89.28143888
_cell_angle_gamma   71.32998428
_symmetry_Int_Tables_number   1
_chemical_formula_structural   Ti7O13
_chemical_formula_sum   'Ti14 O26'
_cell_volume   432.15871673
_cell_formula_units_Z   2
loop_
 _symmetry_equiv_pos_site_id
 _symmetry_equiv_pos_as_xyz
  1  'x, y, z'
loop_
 _atom_site_type_symbol
 _atom_site_label
 _atom_site_symmetry_multiplicity
 _atom_site_fract_x
 _atom_site_fract_y
 _atom_site_fract_z
 _atom_site_occupancy
  Ti  Ti0  1  0.205829  0.289046  0.551818  1
  Ti  Ti1  1  0.783086  0.017369  0.706847  1
  Ti  Ti2  1  0.385944  0.764388  0.855505  1
  Ti  Ti3  1  0.794230  0.209569  0.444384  1
  Ti  Ti4  1  0.205770  0.790431  0.555616  1
  Ti  Ti5  1  0.215235  0.486467  0.292561  1
  Ti  Ti6  1  0.794171  0.710954  0.448182  1
  Ti  Ti7  1  0.216914  0.982631  0.293153  1
  Ti  Ti8  1  0.000000  0.000000  0.000000  1
  Ti  Ti9  1  0.609928  0.735994  0.146861  1
  Ti  Ti10  1  0.784765  0.513533  0.707439  1
  Ti  Ti11  1  0.000000  0.500000  0.000000  1
  Ti  Ti12  1  0.390072  0.264006  0.853139  1
  Ti  Ti13  1  0.614056  0.235612  0.144495  1
  O  O14  1  0.681041  0.287347  0.749417  1
  O  O15  1  0.575170  0.313013  0.316955  1
  O  O16  1  0.942769  0.932021  0.408010  1
  O  O17  1  0.147816  0.366427  0.705811  1
  O  O18  1  0.424830  0.686987  0.683045  1
  O  O19  1  0.497686  0.005085  0.204458  1
  O  O20  1  0.363508  0.830636  0.014270  1
  O  O21  1  0.852184  0.633573  0.294189  1
  O  O22  1  0.719220  0.470780  0.100742  1
  O  O23  1  0.756773  0.594755  0.859526  1
  O  O24  1  0.636492  0.169364  0.985730  1
  O  O25  1  0.447636  0.844038  0.444883  1
  O  O26  1  0.884750  0.768572  0.050752  1
  O  O27  1  0.243227  0.405245  0.140474  1
  O  O28  1  0.280780  0.529220  0.899258  1
  O  O29  1  0.552364  0.155962  0.555117  1
  O  O30  1  0.801527  0.448049  0.527291  1
  O  O31  1  0.057231  0.067979  0.591990  1
  O  O32  1  0.967664  0.074272  0.168020  1
  O  O33  1  0.126931  0.235634  0.376265  1
  O  O34  1  0.198473  0.551951  0.472709  1
  O  O35  1  0.115250  0.231428  0.949248  1
  O  O36  1  0.873069  0.764366  0.623735  1
  O  O37  1  0.032336  0.925728  0.831980  1
  O  O38  1  0.318959  0.712653  0.250583  1
  O  O39  1  0.502314  0.994915  0.795542  1
