# generated using pymatgen
data_K3(MoO3)10
_symmetry_space_group_name_H-M   'P 1'
_cell_length_a   7.67522925
_cell_length_b   10.22259929
_cell_length_c   10.25021904
_cell_angle_alpha   116.64158381
_cell_angle_beta   90.00000000
_cell_angle_gamma   112.04934497
_symmetry_Int_Tables_number   1
_chemical_formula_structural   K3(MoO3)10
_chemical_formula_sum   'K3 Mo10 O30'
_cell_volume   652.37793107
_cell_formula_units_Z   1
loop_
 _symmetry_equiv_pos_site_id
 _symmetry_equiv_pos_as_xyz
  1  'x, y, z'
loop_
 _atom_site_type_symbol
 _atom_site_label
 _atom_site_symmetry_multiplicity
 _atom_site_fract_x
 _atom_site_fract_y
 _atom_site_fract_z
 _atom_site_occupancy
  K  K0  1  0.500000  0.000000  0.500000  1
  K  K1  1  0.815379  0.630759  0.273388  1
  K  K2  1  0.184621  0.369241  0.726612  1
  Mo  Mo3  1  0.223628  0.447257  0.173337  1
  Mo  Mo4  1  0.776372  0.552743  0.826663  1
  Mo  Mo5  1  0.176778  0.844464  0.042601  1
  Mo  Mo6  1  0.332314  0.155536  0.957399  1
  Mo  Mo7  1  0.823222  0.155536  0.957399  1
  Mo  Mo8  1  0.667686  0.844464  0.042601  1
  Mo  Mo9  1  0.889496  0.278834  0.345620  1
  Mo  Mo10  1  0.610661  0.721166  0.654380  1
  Mo  Mo11  1  0.110504  0.721166  0.654380  1
  Mo  Mo12  1  0.389339  0.278834  0.345620  1
  O  O13  1  0.000000  0.500000  0.500000  1
  O  O14  1  0.500000  0.500000  0.500000  1
  O  O15  1  0.245559  0.491118  0.026957  1
  O  O16  1  0.754441  0.508882  0.973043  1
  O  O17  1  0.317028  0.634055  0.332240  1
  O  O18  1  0.682972  0.365945  0.667760  1
  O  O19  1  0.420056  0.840112  0.013273  1
  O  O20  1  0.579944  0.159888  0.986727  1
  O  O21  1  0.914389  0.828777  0.008818  1
  O  O22  1  0.085611  0.171223  0.991182  1
  O  O23  1  0.155481  0.310963  0.309438  1
  O  O24  1  0.844519  0.689037  0.690562  1
  O  O25  1  0.642278  0.284556  0.330128  1
  O  O26  1  0.357722  0.715444  0.669872  1
  O  O27  1  0.153623  0.803238  0.188920  1
  O  O28  1  0.350385  0.196762  0.811080  1
  O  O29  1  0.846377  0.196762  0.811080  1
  O  O30  1  0.649615  0.803238  0.188920  1
  O  O31  1  0.941253  0.367402  0.159193  1
  O  O32  1  0.573851  0.632598  0.840807  1
  O  O33  1  0.058747  0.632598  0.840807  1
  O  O34  1  0.426149  0.367402  0.159193  1
  O  O35  1  0.870271  0.181879  0.449294  1
  O  O36  1  0.688391  0.818121  0.550706  1
  O  O37  1  0.129729  0.818121  0.550706  1
  O  O38  1  0.311609  0.181879  0.449294  1
  O  O39  1  0.789996  0.076183  0.146054  1
  O  O40  1  0.713813  0.923817  0.853946  1
  O  O41  1  0.210004  0.923817  0.853946  1
  O  O42  1  0.286187  0.076183  0.146054  1
