# generated using pymatgen
data_BaVAsO6
_symmetry_space_group_name_H-M   'P 1'
_cell_length_a   5.90133794
_cell_length_b   9.03247714
_cell_length_c   10.35476618
_cell_angle_alpha   90.00000000
_cell_angle_beta   90.00000000
_cell_angle_gamma   90.38432069
_symmetry_Int_Tables_number   1
_chemical_formula_structural   BaVAsO6
_chemical_formula_sum   'Ba4 V4 As4 O24'
_cell_volume   551.93493406
_cell_formula_units_Z   4
loop_
 _symmetry_equiv_pos_site_id
 _symmetry_equiv_pos_as_xyz
  1  'x, y, z'
loop_
 _atom_site_type_symbol
 _atom_site_label
 _atom_site_symmetry_multiplicity
 _atom_site_fract_x
 _atom_site_fract_y
 _atom_site_fract_z
 _atom_site_occupancy
  O  O0  1  0.611160  0.118966  0.077274  1
  O  O1  1  0.388840  0.381034  0.577274  1
  O  O2  1  0.388840  0.881034  0.922726  1
  O  O3  1  0.611160  0.618966  0.422726  1
  O  O4  1  0.024363  0.640208  0.272429  1
  O  O5  1  0.975637  0.859792  0.772429  1
  O  O6  1  0.975637  0.359792  0.727571  1
  O  O7  1  0.024363  0.140208  0.227571  1
  O  O8  1  0.015264  0.766922  0.034373  1
  O  O9  1  0.984736  0.733078  0.534373  1
  O  O10  1  0.984736  0.233078  0.965627  1
  O  O11  1  0.015264  0.266922  0.465627  1
  O  O12  1  0.611338  0.162379  0.361854  1
  O  O13  1  0.388662  0.337621  0.861854  1
  O  O14  1  0.388662  0.837621  0.638146  1
  O  O15  1  0.611338  0.662379  0.138146  1
  O  O16  1  0.819016  0.024919  0.566118  1
  O  O17  1  0.180984  0.475081  0.066118  1
  O  O18  1  0.180984  0.975081  0.433882  1
  O  O19  1  0.819016  0.524919  0.933882  1
  O  O20  1  0.776794  0.893705  0.326576  1
  O  O21  1  0.223206  0.606295  0.826576  1
  O  O22  1  0.223206  0.106295  0.673424  1
  O  O23  1  0.776794  0.393705  0.173424  1
  V  V24  1  0.853963  0.585893  0.090933  1
  V  V25  1  0.146037  0.914107  0.590933  1
  V  V26  1  0.146037  0.414107  0.909067  1
  V  V27  1  0.853963  0.085893  0.409067  1
  As  As28  1  0.845587  0.218539  0.114185  1
  As  As29  1  0.154413  0.281461  0.614185  1
  As  As30  1  0.154413  0.781461  0.885815  1
  As  As31  1  0.845587  0.718539  0.385815  1
  Ba  Ba32  1  0.638187  0.586242  0.694139  1
  Ba  Ba33  1  0.361813  0.913758  0.194139  1
  Ba  Ba34  1  0.361813  0.413758  0.305861  1
  Ba  Ba35  1  0.638187  0.086242  0.805861  1
