# generated using pymatgen
data_BS2N2OF7
_symmetry_space_group_name_H-M   'P 1'
_cell_length_a   6.13989721
_cell_length_b   8.04132507
_cell_length_c   8.24889474
_cell_angle_alpha   90.00000000
_cell_angle_beta   110.54283938
_cell_angle_gamma   90.00000000
_symmetry_Int_Tables_number   1
_chemical_formula_structural   BS2N2OF7
_chemical_formula_sum   'B2 S4 N4 O2 F14'
_cell_volume   381.37354339
_cell_formula_units_Z   2
loop_
 _symmetry_equiv_pos_site_id
 _symmetry_equiv_pos_as_xyz
  1  'x, y, z'
loop_
 _atom_site_type_symbol
 _atom_site_label
 _atom_site_symmetry_multiplicity
 _atom_site_fract_x
 _atom_site_fract_y
 _atom_site_fract_z
 _atom_site_occupancy
  B  B0  1  0.632290  0.750000  0.173646  1
  B  B1  1  0.367710  0.250000  0.826354  1
  S  S2  1  0.323301  0.750000  0.569276  1
  S  S3  1  0.789446  0.250000  0.135298  1
  S  S4  1  0.676699  0.250000  0.430724  1
  S  S5  1  0.210554  0.750000  0.864702  1
  N  N6  1  0.443864  0.750000  0.981561  1
  N  N7  1  0.556136  0.250000  0.018439  1
  N  N8  1  0.854789  0.250000  0.340180  1
  N  N9  1  0.145211  0.750000  0.659820  1
  O  O10  1  0.566873  0.750000  0.650984  1
  O  O11  1  0.433127  0.250000  0.349016  1
  F  F12  1  0.956513  0.106865  0.121728  1
  F  F13  1  0.242761  0.892640  0.435956  1
  F  F14  1  0.403578  0.105888  0.742881  1
  F  F15  1  0.596422  0.894112  0.257120  1
  F  F16  1  0.849858  0.750000  0.157042  1
  F  F17  1  0.043487  0.893135  0.878272  1
  F  F18  1  0.043487  0.606865  0.878272  1
  F  F19  1  0.757239  0.107360  0.564044  1
  F  F20  1  0.150142  0.250000  0.842958  1
  F  F21  1  0.956513  0.393135  0.121728  1
  F  F22  1  0.242761  0.607360  0.435956  1
  F  F23  1  0.596422  0.605888  0.257120  1
  F  F24  1  0.757239  0.392640  0.564044  1
  F  F25  1  0.403578  0.394112  0.742881  1
