# generated using pymatgen
data_MgAl2O4
_symmetry_space_group_name_H-M   'P 1'
_cell_length_a   2.80643161
_cell_length_b   4.84378194
_cell_length_c   9.46206440
_cell_angle_alpha   90.00000000
_cell_angle_beta   90.00000000
_cell_angle_gamma   106.83965239
_symmetry_Int_Tables_number   1
_chemical_formula_structural   MgAl2O4
_chemical_formula_sum   'Mg2 Al4 O8'
_cell_volume   123.10933719
_cell_formula_units_Z   2
loop_
 _symmetry_equiv_pos_site_id
 _symmetry_equiv_pos_as_xyz
  1  'x, y, z'
loop_
 _atom_site_type_symbol
 _atom_site_label
 _atom_site_symmetry_multiplicity
 _atom_site_fract_x
 _atom_site_fract_y
 _atom_site_fract_z
 _atom_site_occupancy
  Mg  Mg0  1  0.610878  0.221755  0.250000  1
  Mg  Mg1  1  0.389122  0.778245  0.750000  1
  Al  Al2  1  0.134563  0.269125  0.926727  1
  Al  Al3  1  0.865437  0.730875  0.426727  1
  Al  Al4  1  0.865437  0.730875  0.073273  1
  Al  Al5  1  0.134563  0.269125  0.573273  1
  O  O6  1  0.769894  0.539788  0.890049  1
  O  O7  1  0.769894  0.539788  0.609951  1
  O  O8  1  0.230106  0.460212  0.390049  1
  O  O9  1  0.048321  0.096641  0.750000  1
  O  O10  1  0.230106  0.460212  0.109951  1
  O  O11  1  0.500000  0.000000  0.500000  1
  O  O12  1  0.500000  0.000000  0.000000  1
  O  O13  1  0.951679  0.903359  0.250000  1
