# generated using pymatgen
data_Na2SeO3
_symmetry_space_group_name_H-M   'P 1'
_cell_length_a   4.96247945
_cell_length_b   7.02167780
_cell_length_c   10.12492069
_cell_angle_alpha   90.00000000
_cell_angle_beta   90.00000000
_cell_angle_gamma   89.94927253
_symmetry_Int_Tables_number   1
_chemical_formula_structural   Na2SeO3
_chemical_formula_sum   'Na8 Se4 O12'
_cell_volume   352.80203293
_cell_formula_units_Z   4
loop_
 _symmetry_equiv_pos_site_id
 _symmetry_equiv_pos_as_xyz
  1  'x, y, z'
loop_
 _atom_site_type_symbol
 _atom_site_label
 _atom_site_symmetry_multiplicity
 _atom_site_fract_x
 _atom_site_fract_y
 _atom_site_fract_z
 _atom_site_occupancy
  O  O0  1  0.871160  0.334377  0.399340  1
  O  O1  1  0.128840  0.165623  0.899340  1
  O  O2  1  0.128840  0.665623  0.600660  1
  O  O3  1  0.871160  0.834377  0.100660  1
  O  O4  1  0.279555  0.145704  0.288448  1
  O  O5  1  0.720445  0.354296  0.788448  1
  O  O6  1  0.720445  0.854296  0.711552  1
  O  O7  1  0.279555  0.645704  0.211552  1
  O  O8  1  0.246424  0.170919  0.556256  1
  O  O9  1  0.246424  0.670919  0.943744  1
  O  O10  1  0.753576  0.829081  0.443744  1
  O  O11  1  0.753576  0.329081  0.056256  1
  Na  Na12  1  0.737889  0.148024  0.586050  1
  Na  Na13  1  0.243217  0.907158  0.756756  1
  Na  Na14  1  0.243217  0.407158  0.743244  1
  Na  Na15  1  0.756783  0.092842  0.243244  1
  Na  Na16  1  0.262111  0.851976  0.413950  1
  Na  Na17  1  0.737889  0.648024  0.913950  1
  Na  Na18  1  0.262111  0.351976  0.086050  1
  Na  Na19  1  0.756783  0.592842  0.256756  1
  Se  Se20  1  0.216783  0.809569  0.085841  1
  Se  Se21  1  0.783217  0.690431  0.585841  1
  Se  Se22  1  0.783217  0.190431  0.914159  1
  Se  Se23  1  0.216783  0.309569  0.414159  1
