# generated using pymatgen
data_Eu3(AsS4)2
_symmetry_space_group_name_H-M   'P 1'
_cell_length_a   10.62519978
_cell_length_b   10.62520039
_cell_length_c   10.62520022
_cell_angle_alpha   51.61762124
_cell_angle_beta   51.61761855
_cell_angle_gamma   51.61761865
_symmetry_Int_Tables_number   1
_chemical_formula_structural   Eu3(AsS4)2
_chemical_formula_sum   'Eu6 As4 S16'
_cell_volume   680.85894461
_cell_formula_units_Z   2
loop_
 _symmetry_equiv_pos_site_id
 _symmetry_equiv_pos_as_xyz
  1  'x, y, z'
loop_
 _atom_site_type_symbol
 _atom_site_label
 _atom_site_symmetry_multiplicity
 _atom_site_fract_x
 _atom_site_fract_y
 _atom_site_fract_z
 _atom_site_occupancy
  Eu  Eu0  1  0.570887  0.250000  0.929113  1
  Eu  Eu1  1  0.070887  0.429113  0.750000  1
  Eu  Eu2  1  0.429113  0.750000  0.070887  1
  Eu  Eu3  1  0.250000  0.929113  0.570887  1
  Eu  Eu4  1  0.929113  0.570887  0.250000  1
  Eu  Eu5  1  0.750000  0.070887  0.429113  1
  As  As6  1  0.840413  0.840413  0.840413  1
  As  As7  1  0.659587  0.659587  0.659587  1
  As  As8  1  0.340413  0.340413  0.340413  1
  As  As9  1  0.159587  0.159587  0.159587  1
  S  S10  1  0.943308  0.223440  0.389512  1
  S  S11  1  0.889512  0.723440  0.443308  1
  S  S12  1  0.421204  0.421204  0.421204  1
  S  S13  1  0.110488  0.276560  0.556692  1
  S  S14  1  0.921203  0.921203  0.921203  1
  S  S15  1  0.610488  0.056692  0.776560  1
  S  S16  1  0.578797  0.578797  0.578797  1
  S  S17  1  0.556692  0.110488  0.276560  1
  S  S18  1  0.723440  0.443308  0.889512  1
  S  S19  1  0.056692  0.776560  0.610488  1
  S  S20  1  0.776560  0.610488  0.056692  1
  S  S21  1  0.078797  0.078797  0.078797  1
  S  S22  1  0.443308  0.889512  0.723440  1
  S  S23  1  0.223440  0.389512  0.943308  1
  S  S24  1  0.276560  0.556692  0.110488  1
  S  S25  1  0.389512  0.943308  0.223440  1
