# generated using pymatgen
data_TiAs2H4O9
_symmetry_space_group_name_H-M   'P 1'
_cell_length_a   5.17893436
_cell_length_b   8.99587239
_cell_length_c   16.39501639
_cell_angle_alpha   102.01662447
_cell_angle_beta   90.00000000
_cell_angle_gamma   90.00000000
_symmetry_Int_Tables_number   1
_chemical_formula_structural   TiAs2H4O9
_chemical_formula_sum   'Ti4 As8 H16 O36'
_cell_volume   747.09036981
_cell_formula_units_Z   4
loop_
 _symmetry_equiv_pos_site_id
 _symmetry_equiv_pos_as_xyz
  1  'x, y, z'
loop_
 _atom_site_type_symbol
 _atom_site_label
 _atom_site_symmetry_multiplicity
 _atom_site_fract_x
 _atom_site_fract_y
 _atom_site_fract_z
 _atom_site_occupancy
  Ti  Ti0  1  0.743259  0.753661  0.512760  1
  Ti  Ti1  1  0.243259  0.746339  0.987240  1
  Ti  Ti2  1  0.256741  0.246339  0.487240  1
  Ti  Ti3  1  0.756741  0.253661  0.012760  1
  As  As4  1  0.241286  0.609509  0.605334  1
  As  As5  1  0.741286  0.890491  0.894666  1
  As  As6  1  0.758714  0.390491  0.394666  1
  As  As7  1  0.258714  0.109509  0.105334  1
  As  As8  1  0.761577  0.133045  0.596179  1
  As  As9  1  0.261577  0.366955  0.903821  1
  As  As10  1  0.238423  0.866955  0.403821  1
  As  As11  1  0.738423  0.633045  0.096179  1
  O  O12  1  0.133825  0.432719  0.559232  1
  O  O13  1  0.633825  0.067281  0.940768  1
  O  O14  1  0.866175  0.567281  0.440768  1
  O  O15  1  0.366175  0.932719  0.059232  1
  O  O16  1  0.556758  0.643755  0.586376  1
  O  O17  1  0.056758  0.856245  0.913624  1
  O  O18  1  0.443242  0.356245  0.413624  1
  O  O19  1  0.943242  0.143755  0.086376  1
  O  O20  1  0.045049  0.751646  0.586373  1
  O  O21  1  0.545049  0.748354  0.913627  1
  O  O22  1  0.954951  0.248354  0.413627  1
  O  O23  1  0.454951  0.251646  0.086373  1
  O  O24  1  0.245496  0.616692  0.713154  1
  O  O25  1  0.745496  0.883308  0.786846  1
  O  O26  1  0.754504  0.383308  0.286846  1
  O  O27  1  0.254504  0.116692  0.213154  1
  O  O28  1  0.567198  0.251457  0.554461  1
  O  O29  1  0.067198  0.248543  0.945539  1
  O  O30  1  0.432802  0.748543  0.445539  1
  O  O31  1  0.932802  0.751457  0.054461  1
  O  O32  1  0.072196  0.133112  0.560503  1
  O  O33  1  0.572196  0.366888  0.939497  1
  O  O34  1  0.927804  0.866888  0.439497  1
  O  O35  1  0.427804  0.633112  0.060503  1
  O  O36  1  0.640009  0.952828  0.583943  1
  O  O37  1  0.140009  0.547172  0.916057  1
  O  O38  1  0.359991  0.047172  0.416057  1
  O  O39  1  0.859991  0.452828  0.083943  1
  O  O40  1  0.761135  0.194506  0.704109  1
  O  O41  1  0.261135  0.305494  0.795891  1
  O  O42  1  0.238865  0.805494  0.295891  1
  O  O43  1  0.738865  0.694506  0.204109  1
  O  O44  1  0.287258  0.996350  0.737306  1
  O  O45  1  0.787258  0.503650  0.762694  1
  O  O46  1  0.712742  0.003650  0.262694  1
  O  O47  1  0.212742  0.496350  0.237306  1
  H  H48  1  0.726883  0.808326  0.222288  1
  H  H49  1  0.226883  0.691674  0.277712  1
  H  H50  1  0.273117  0.191674  0.777712  1
  H  H51  1  0.773117  0.308326  0.722288  1
  H  H52  1  0.422989  0.077403  0.230906  1
  H  H53  1  0.922989  0.422597  0.269094  1
  H  H54  1  0.577011  0.922597  0.769094  1
  H  H55  1  0.077011  0.577403  0.730906  1
  H  H56  1  0.877442  0.051885  0.253188  1
  H  H57  1  0.377442  0.448115  0.246812  1
  H  H58  1  0.122558  0.948115  0.746812  1
  H  H59  1  0.622558  0.551885  0.753188  1
  H  H60  1  0.190557  0.477805  0.176543  1
  H  H61  1  0.690557  0.022195  0.323457  1
  H  H62  1  0.809443  0.522195  0.823457  1
  H  H63  1  0.309443  0.977805  0.676543  1
