# generated using pymatgen
data_Ba3Nb2CoO9
_symmetry_space_group_name_H-M   'P 1'
_cell_length_a   5.74523099
_cell_length_b   5.88451128
_cell_length_c   7.17545059
_cell_angle_alpha   92.47509320
_cell_angle_beta   89.95036684
_cell_angle_gamma   119.19982724
_symmetry_Int_Tables_number   1
_chemical_formula_structural   Ba3Nb2CoO9
_chemical_formula_sum   'Ba3 Nb2 Co1 O9'
_cell_volume   211.50536302
_cell_formula_units_Z   1
loop_
 _symmetry_equiv_pos_site_id
 _symmetry_equiv_pos_as_xyz
  1  'x, y, z'
loop_
 _atom_site_type_symbol
 _atom_site_label
 _atom_site_symmetry_multiplicity
 _atom_site_fract_x
 _atom_site_fract_y
 _atom_site_fract_z
 _atom_site_occupancy
  Ba  Ba0  1  0.668516  0.337493  0.334908  1
  Ba  Ba1  1  0.000000  0.000001  0.000000  1
  Ba  Ba2  1  0.331483  0.662508  0.665092  1
  Nb  Nb3  1  0.336758  0.674100  0.179404  1
  Nb  Nb4  1  0.663242  0.325900  0.820596  1
  Co  Co5  1  0.000000  0.000000  0.500000  1
  O  O6  1  0.500000  0.500000  0.000000  1
  O  O7  1  0.181396  0.363733  0.321723  1
  O  O8  1  0.818605  0.636266  0.678277  1
  O  O9  1  0.000000  0.499999  0.000000  1
  O  O10  1  0.169620  0.841450  0.329614  1
  O  O11  1  0.329965  0.158029  0.669626  1
  O  O12  1  0.830381  0.158550  0.670387  1
  O  O13  1  0.670035  0.841971  0.330374  1
  O  O14  1  0.500000  0.000000  0.000000  1
