# generated using pymatgen
data_CS3(Br2N)2
_symmetry_space_group_name_H-M   'P 1'
_cell_length_a   7.92813768
_cell_length_b   11.11555347
_cell_length_c   12.45466244
_cell_angle_alpha   90.00000000
_cell_angle_beta   90.00000000
_cell_angle_gamma   90.00000000
_symmetry_Int_Tables_number   1
_chemical_formula_structural   CS3(Br2N)2
_chemical_formula_sum   'C4 S12 Br16 N8'
_cell_volume   1097.57507733
_cell_formula_units_Z   4
loop_
 _symmetry_equiv_pos_site_id
 _symmetry_equiv_pos_as_xyz
  1  'x, y, z'
loop_
 _atom_site_type_symbol
 _atom_site_label
 _atom_site_symmetry_multiplicity
 _atom_site_fract_x
 _atom_site_fract_y
 _atom_site_fract_z
 _atom_site_occupancy
  C  C0  1  0.940104  0.443270  0.499873  1
  C  C1  1  0.440104  0.443270  1.000127  1
  C  C2  1  0.559896  0.943270  -0.000127  1
  C  C3  1  0.059896  0.943270  0.500127  1
  S  S4  1  0.292007  0.017625  0.073640  1
  S  S5  1  0.792007  0.017625  0.426360  1
  S  S6  1  0.768958  0.422750  0.417328  1
  S  S7  1  0.462467  0.361029  0.877730  1
  S  S8  1  0.207993  0.517625  0.573640  1
  S  S9  1  0.707993  0.517625  0.926360  1
  S  S10  1  0.731042  0.922750  0.917328  1
  S  S11  1  0.537533  0.861029  0.122270  1
  S  S12  1  0.231042  0.922750  0.582672  1
  S  S13  1  0.268958  0.422750  0.082672  1
  S  S14  1  0.962467  0.361029  0.622270  1
  S  S15  1  0.037533  0.861029  0.377730  1
  Br  Br16  1  0.106461  0.247347  0.914566  1
  Br  Br17  1  0.367342  0.704814  0.799872  1
  Br  Br18  1  0.867342  0.704814  0.700128  1
  Br  Br19  1  0.893539  0.747347  0.085434  1
  Br  Br20  1  0.632658  0.204814  0.200128  1
  Br  Br21  1  0.668115  0.047535  0.782604  1
  Br  Br22  1  0.393539  0.747347  0.414566  1
  Br  Br23  1  0.168115  0.047535  0.717396  1
  Br  Br24  1  0.606461  0.247347  0.585434  1
  Br  Br25  1  0.831885  0.547535  0.282604  1
  Br  Br26  1  0.358283  0.225472  0.436386  1
  Br  Br27  1  0.141717  0.725472  0.936386  1
  Br  Br28  1  0.331885  0.547535  0.217396  1
  Br  Br29  1  0.641717  0.725472  0.563614  1
  Br  Br30  1  0.858283  0.225472  0.063614  1
  Br  Br31  1  0.132658  0.204814  0.299872  1
  N  N32  1  0.141152  0.420699  0.656869  1
  N  N33  1  0.432941  0.018060  0.981016  1
  N  N34  1  0.641152  0.420699  0.843131  1
  N  N35  1  0.358848  0.920699  0.156869  1
  N  N36  1  0.858848  0.920699  0.343131  1
  N  N37  1  0.067059  0.518060  0.481016  1
  N  N38  1  0.567059  0.518060  0.018984  1
  N  N39  1  0.932941  0.018060  0.518984  1
