# generated using pymatgen
data_NaH8SNO6
_symmetry_space_group_name_H-M   'P 1'
_cell_length_a   6.34282137
_cell_length_b   8.26759193
_cell_length_c   12.94088437
_cell_angle_alpha   90.00000000
_cell_angle_beta   90.00000000
_cell_angle_gamma   90.00000000
_symmetry_Int_Tables_number   1
_chemical_formula_structural   NaH8SNO6
_chemical_formula_sum   'Na4 H32 S4 N4 O24'
_cell_volume   678.61814875
_cell_formula_units_Z   4
loop_
 _symmetry_equiv_pos_site_id
 _symmetry_equiv_pos_as_xyz
  1  'x, y, z'
loop_
 _atom_site_type_symbol
 _atom_site_label
 _atom_site_symmetry_multiplicity
 _atom_site_fract_x
 _atom_site_fract_y
 _atom_site_fract_z
 _atom_site_occupancy
  Na  Na0  1  0.098658  0.757941  0.010751  1
  Na  Na1  1  0.401342  0.242059  0.510751  1
  Na  Na2  1  0.598658  0.742059  0.989249  1
  Na  Na3  1  0.901342  0.257941  0.489249  1
  H  H4  1  0.241441  0.390917  0.340714  1
  H  H5  1  0.258559  0.609083  0.840714  1
  H  H6  1  0.741441  0.109083  0.659286  1
  H  H7  1  0.758559  0.890917  0.159286  1
  H  H8  1  0.181228  0.214237  0.305503  1
  H  H9  1  0.318772  0.785763  0.805503  1
  H  H10  1  0.681228  0.285763  0.694497  1
  H  H11  1  0.818772  0.714237  0.194497  1
  H  H12  1  0.605490  0.093718  0.334265  1
  H  H13  1  0.894510  0.906282  0.834265  1
  H  H14  1  0.105490  0.406282  0.665735  1
  H  H15  1  0.394510  0.593718  0.165735  1
  H  H16  1  0.648079  0.963103  0.417259  1
  H  H17  1  0.851921  0.036897  0.917259  1
  H  H18  1  0.148079  0.536897  0.582741  1
  H  H19  1  0.351921  0.463103  0.082741  1
  H  H20  1  0.143544  0.905741  0.298385  1
  H  H21  1  0.356456  0.094259  0.798385  1
  H  H22  1  0.643544  0.594259  0.701615  1
  H  H23  1  0.856456  0.405741  0.201615  1
  H  H24  1  0.198145  0.853710  0.423707  1
  H  H25  1  0.301855  0.146290  0.923707  1
  H  H26  1  0.698145  0.646290  0.576293  1
  H  H27  1  0.801855  0.353710  0.076293  1
  H  H28  1  0.017567  0.747438  0.356864  1
  H  H29  1  0.482433  0.252562  0.856864  1
  H  H30  1  0.517567  0.752562  0.643136  1
  H  H31  1  0.982433  0.247438  0.143136  1
  H  H32  1  0.272508  0.728846  0.326581  1
  H  H33  1  0.227492  0.271154  0.826581  1
  H  H34  1  0.772508  0.771154  0.673419  1
  H  H35  1  0.727492  0.228846  0.173419  1
  S  S36  1  0.633502  0.586742  0.368634  1
  S  S37  1  0.866498  0.413258  0.868634  1
  S  S38  1  0.133502  0.913258  0.631366  1
  S  S39  1  0.366498  0.086742  0.131366  1
  N  N40  1  0.656903  0.688649  0.648546  1
  N  N41  1  0.843097  0.311351  0.148546  1
  N  N42  1  0.156903  0.811351  0.351454  1
  N  N43  1  0.343097  0.188649  0.851454  1
  O  O44  1  0.820899  0.574833  0.297737  1
  O  O45  1  0.679101  0.425167  0.797737  1
  O  O46  1  0.320899  0.925167  0.702263  1
  O  O47  1  0.179101  0.074833  0.202263  1
  O  O48  1  0.435066  0.566592  0.305276  1
  O  O49  1  0.064934  0.433408  0.805276  1
  O  O50  1  0.935066  0.933408  0.694724  1
  O  O51  1  0.564934  0.066592  0.194724  1
  O  O52  1  0.633639  0.747809  0.419384  1
  O  O53  1  0.866361  0.252191  0.919384  1
  O  O54  1  0.133639  0.752191  0.580616  1
  O  O55  1  0.366361  0.247809  0.080616  1
  O  O56  1  0.857191  0.542145  0.948305  1
  O  O57  1  0.642809  0.457855  0.448305  1
  O  O58  1  0.357191  0.957855  0.051695  1
  O  O59  1  0.142809  0.042145  0.551695  1
  O  O60  1  0.330378  0.708133  0.863751  1
  O  O61  1  0.169622  0.291867  0.363751  1
  O  O62  1  0.830378  0.791867  0.136249  1
  O  O63  1  0.669622  0.208133  0.636249  1
  O  O64  1  0.357846  0.581759  0.092082  1
  O  O65  1  0.142154  0.418241  0.592082  1
  O  O66  1  0.857846  0.918241  0.907918  1
  O  O67  1  0.642154  0.081759  0.407918  1
