# generated using pymatgen
data_K6U2(Cu4S5)3
_symmetry_space_group_name_H-M   'P 1'
_cell_length_a   16.24585890
_cell_length_b   16.24585965
_cell_length_c   16.24585954
_cell_angle_alpha   109.47122048
_cell_angle_beta   109.47122141
_cell_angle_gamma   109.47122070
_symmetry_Int_Tables_number   1
_chemical_formula_structural   K6U2(Cu4S5)3
_chemical_formula_sum   'K24 U8 Cu48 S60'
_cell_volume   3300.70091583
_cell_formula_units_Z   4
loop_
 _symmetry_equiv_pos_site_id
 _symmetry_equiv_pos_as_xyz
  1  'x, y, z'
loop_
 _atom_site_type_symbol
 _atom_site_label
 _atom_site_symmetry_multiplicity
 _atom_site_fract_x
 _atom_site_fract_y
 _atom_site_fract_z
 _atom_site_occupancy
  K  K0  1  0.592063  0.750000  0.907937  1
  K  K1  1  0.315873  0.407937  0.657937  1
  K  K2  1  0.092063  0.184127  0.842063  1
  K  K3  1  0.842063  0.092063  0.184127  1
  K  K4  1  0.842063  0.250000  0.657937  1
  K  K5  1  0.815873  0.157937  0.907937  1
  K  K6  1  0.750000  0.907937  0.592063  1
  K  K7  1  0.684127  0.592063  0.342063  1
  K  K8  1  0.342063  0.157937  0.750000  1
  K  K9  1  0.250000  0.657937  0.842063  1
  K  K10  1  0.184127  0.842063  0.092063  1
  K  K11  1  0.157937  0.907937  0.815873  1
  K  K12  1  0.407937  0.250000  0.092063  1
  K  K13  1  0.750000  0.342063  0.157937  1
  K  K14  1  0.250000  0.092063  0.407937  1
  K  K15  1  0.407937  0.657937  0.315873  1
  K  K16  1  0.342063  0.684127  0.592063  1
  K  K17  1  0.157937  0.750000  0.342063  1
  K  K18  1  0.657937  0.842063  0.250000  1
  K  K19  1  0.092063  0.407937  0.250000  1
  K  K20  1  0.592063  0.342063  0.684127  1
  K  K21  1  0.907937  0.592063  0.750000  1
  K  K22  1  0.657937  0.315873  0.407937  1
  K  K23  1  0.907937  0.815873  0.157937  1
  U  U24  1  0.000000  0.000000  0.000000  1
  U  U25  1  0.000000  0.500000  0.500000  1
  U  U26  1  0.000000  0.000000  0.500000  1
  U  U27  1  0.500000  0.000000  0.000000  1
  U  U28  1  0.000000  0.500000  0.000000  1
  U  U29  1  0.500000  0.500000  0.000000  1
  U  U30  1  0.500000  0.500000  0.500000  1
  U  U31  1  0.500000  0.000000  0.500000  1
  Cu  Cu32  1  0.915684  0.848786  0.780950  1
  Cu  Cu33  1  0.066898  0.151214  0.432163  1
  Cu  Cu34  1  0.433102  0.067837  0.348786  1
  Cu  Cu35  1  0.067837  0.219050  0.634735  1
  Cu  Cu36  1  0.567837  0.134735  0.719050  1
  Cu  Cu37  1  0.634735  0.066898  0.415684  1
  Cu  Cu38  1  0.651214  0.566898  0.932163  1
  Cu  Cu39  1  0.915684  0.566898  0.134735  1
  Cu  Cu40  1  0.848786  0.567837  0.933102  1
  Cu  Cu41  1  0.932163  0.651214  0.566898  1
  Cu  Cu42  1  0.365265  0.932163  0.780950  1
  Cu  Cu43  1  0.651214  0.584316  0.719050  1
  Cu  Cu44  1  0.134735  0.719050  0.567837  1
  Cu  Cu45  1  0.433102  0.865265  0.084316  1
  Cu  Cu46  1  0.280950  0.348786  0.415684  1
  Cu  Cu47  1  0.151214  0.219050  0.084316  1
  Cu  Cu48  1  0.584316  0.365265  0.933102  1
  Cu  Cu49  1  0.348786  0.433102  0.067837  1
  Cu  Cu50  1  0.865265  0.084316  0.433102  1
  Cu  Cu51  1  0.566898  0.134735  0.915684  1
  Cu  Cu52  1  0.365265  0.933102  0.584316  1
  Cu  Cu53  1  0.634735  0.067837  0.219050  1
  Cu  Cu54  1  0.415684  0.634735  0.066898  1
  Cu  Cu55  1  0.348786  0.415684  0.280950  1
  Cu  Cu56  1  0.865265  0.280950  0.432163  1
  Cu  Cu57  1  0.432163  0.865265  0.280950  1
  Cu  Cu58  1  0.848786  0.780950  0.915684  1
  Cu  Cu59  1  0.280950  0.432163  0.865265  1
  Cu  Cu60  1  0.432163  0.066898  0.151214  1
  Cu  Cu61  1  0.719050  0.651214  0.584316  1
  Cu  Cu62  1  0.780950  0.915684  0.848786  1
  Cu  Cu63  1  0.067837  0.348786  0.433102  1
  Cu  Cu64  1  0.719050  0.567837  0.134735  1
  Cu  Cu65  1  0.219050  0.634735  0.067837  1
  Cu  Cu66  1  0.567837  0.933102  0.848786  1
  Cu  Cu67  1  0.084316  0.433102  0.865265  1
  Cu  Cu68  1  0.932163  0.780950  0.365265  1
  Cu  Cu69  1  0.415684  0.280950  0.348786  1
  Cu  Cu70  1  0.780950  0.365265  0.932163  1
  Cu  Cu71  1  0.584316  0.719050  0.651214  1
  Cu  Cu72  1  0.084316  0.151214  0.219050  1
  Cu  Cu73  1  0.566898  0.932163  0.651214  1
  Cu  Cu74  1  0.134735  0.915684  0.566898  1
  Cu  Cu75  1  0.933102  0.848786  0.567837  1
  Cu  Cu76  1  0.151214  0.432163  0.066898  1
  Cu  Cu77  1  0.933102  0.584316  0.365265  1
  Cu  Cu78  1  0.219050  0.084316  0.151214  1
  Cu  Cu79  1  0.066898  0.415684  0.634735  1
  S  S80  1  0.583182  0.164424  0.491685  1
  S  S81  1  0.164424  0.172739  0.581241  1
  S  S82  1  0.991685  0.827261  0.908502  1
  S  S83  1  0.125000  0.375000  0.750000  1
  S  S84  1  0.491685  0.408502  0.327261  1
  S  S85  1  0.875000  0.750000  0.625000  1
  S  S86  1  0.172739  0.091498  0.008315  1
  S  S87  1  0.083182  0.991685  0.664424  1
  S  S88  1  0.875000  0.625000  0.250000  1
  S  S89  1  0.827261  0.908502  0.991685  1
  S  S90  1  0.091498  0.583182  0.918759  1
  S  S91  1  0.083182  0.591498  0.418759  1
  S  S92  1  0.581241  0.164424  0.172739  1
  S  S93  1  0.916818  0.408502  0.581241  1
  S  S94  1  0.918759  0.327261  0.335576  1
  S  S95  1  0.625000  0.875000  0.750000  1
  S  S96  1  0.508315  0.591498  0.672739  1
  S  S97  1  0.835576  0.508315  0.416818  1
  S  S98  1  0.081241  0.908502  0.416818  1
  S  S99  1  0.491685  0.583182  0.164424  1
  S  S100  1  0.583182  0.918759  0.091498  1
  S  S101  1  0.375000  0.750000  0.125000  1
  S  S102  1  0.375000  0.125000  0.250000  1
  S  S103  1  0.091498  0.008315  0.172739  1
  S  S104  1  0.418759  0.835576  0.827261  1
  S  S105  1  0.916818  0.008315  0.335576  1
  S  S106  1  0.835576  0.827261  0.418759  1
  S  S107  1  0.581241  0.916818  0.408502  1
  S  S108  1  0.827261  0.418759  0.835576  1
  S  S109  1  0.908502  0.416818  0.081241  1
  S  S110  1  0.250000  0.875000  0.625000  1
  S  S111  1  0.664424  0.083182  0.991685  1
  S  S112  1  0.750000  0.125000  0.375000  1
  S  S113  1  0.335576  0.916818  0.008315  1
  S  S114  1  0.508315  0.416818  0.835576  1
  S  S115  1  0.408502  0.581241  0.916818  1
  S  S116  1  0.164424  0.491685  0.583182  1
  S  S117  1  0.125000  0.250000  0.375000  1
  S  S118  1  0.672739  0.664424  0.081241  1
  S  S119  1  0.591498  0.672739  0.508315  1
  S  S120  1  0.327261  0.491685  0.408502  1
  S  S121  1  0.991685  0.664424  0.083182  1
  S  S122  1  0.625000  0.250000  0.875000  1
  S  S123  1  0.672739  0.508315  0.591498  1
  S  S124  1  0.327261  0.335576  0.918759  1
  S  S125  1  0.081241  0.672739  0.664424  1
  S  S126  1  0.664424  0.081241  0.672739  1
  S  S127  1  0.918759  0.091498  0.583182  1
  S  S128  1  0.418759  0.083182  0.591498  1
  S  S129  1  0.908502  0.991685  0.827261  1
  S  S130  1  0.416818  0.835576  0.508315  1
  S  S131  1  0.408502  0.327261  0.491685  1
  S  S132  1  0.335576  0.918759  0.327261  1
  S  S133  1  0.172739  0.581241  0.164424  1
  S  S134  1  0.250000  0.375000  0.125000  1
  S  S135  1  0.008315  0.172739  0.091498  1
  S  S136  1  0.008315  0.335576  0.916818  1
  S  S137  1  0.750000  0.625000  0.875000  1
  S  S138  1  0.591498  0.418759  0.083182  1
  S  S139  1  0.416818  0.081241  0.908502  1
