# generated using pymatgen
data_KU2F9
_symmetry_space_group_name_H-M   'P 1'
_cell_length_a   7.09104928
_cell_length_b   8.75564808
_cell_length_c   11.58742850
_cell_angle_alpha   90.00000000
_cell_angle_beta   90.00000000
_cell_angle_gamma   90.00000000
_symmetry_Int_Tables_number   1
_chemical_formula_structural   KU2F9
_chemical_formula_sum   'K4 U8 F36'
_cell_volume   719.42556801
_cell_formula_units_Z   4
loop_
 _symmetry_equiv_pos_site_id
 _symmetry_equiv_pos_as_xyz
  1  'x, y, z'
loop_
 _atom_site_type_symbol
 _atom_site_label
 _atom_site_symmetry_multiplicity
 _atom_site_fract_x
 _atom_site_fract_y
 _atom_site_fract_z
 _atom_site_occupancy
  U  U0  1  0.347487  0.324548  0.449619  1
  U  U1  1  0.847487  0.175452  0.550381  1
  U  U2  1  0.152513  0.824548  0.050381  1
  U  U3  1  0.652513  0.675452  0.949619  1
  U  U4  1  0.652513  0.675452  0.550381  1
  U  U5  1  0.152513  0.824548  0.449619  1
  U  U6  1  0.847487  0.175452  0.949619  1
  U  U7  1  0.347487  0.324548  0.050381  1
  K  K8  1  0.856643  0.464090  0.250000  1
  K  K9  1  0.356643  0.035910  0.750000  1
  K  K10  1  0.643357  0.964090  0.250000  1
  K  K11  1  0.143357  0.535910  0.750000  1
  F  F12  1  0.073586  0.996682  0.598599  1
  F  F13  1  0.573586  0.503318  0.401401  1
  F  F14  1  0.426414  0.496682  0.901401  1
  F  F15  1  0.926414  0.003318  0.098599  1
  F  F16  1  0.926414  0.003318  0.401401  1
  F  F17  1  0.426414  0.496682  0.598599  1
  F  F18  1  0.573586  0.503318  0.098599  1
  F  F19  1  0.073586  0.996682  0.901401  1
  F  F20  1  0.027700  0.290624  0.095336  1
  F  F21  1  0.527700  0.209376  0.904664  1
  F  F22  1  0.472300  0.790624  0.404664  1
  F  F23  1  0.972300  0.709376  0.595336  1
  F  F24  1  0.972300  0.709376  0.904664  1
  F  F25  1  0.472300  0.790624  0.095336  1
  F  F26  1  0.527700  0.209376  0.595336  1
  F  F27  1  0.027700  0.290624  0.404664  1
  F  F28  1  0.147179  0.285821  0.606275  1
  F  F29  1  0.647179  0.214179  0.393725  1
  F  F30  1  0.352821  0.785821  0.893725  1
  F  F31  1  0.852821  0.714179  0.106275  1
  F  F32  1  0.852821  0.714179  0.393725  1
  F  F33  1  0.352821  0.785821  0.606275  1
  F  F34  1  0.647179  0.214179  0.106275  1
  F  F35  1  0.147179  0.285821  0.893725  1
  F  F36  1  0.197620  0.566198  0.078956  1
  F  F37  1  0.697620  0.933802  0.921044  1
  F  F38  1  0.302380  0.066198  0.421044  1
  F  F39  1  0.802380  0.433802  0.578956  1
  F  F40  1  0.802380  0.433802  0.921044  1
  F  F41  1  0.302380  0.066198  0.078956  1
  F  F42  1  0.697620  0.933802  0.578956  1
  F  F43  1  0.197620  0.566198  0.421044  1
  F  F44  1  0.338810  0.324116  0.250000  1
  F  F45  1  0.838810  0.175884  0.750000  1
  F  F46  1  0.161190  0.824116  0.250000  1
  F  F47  1  0.661190  0.675884  0.750000  1
