# generated using pymatgen
data_Sr10Sm6Al6Si30N54O7
_symmetry_space_group_name_H-M   'P 1'
_cell_length_a   9.88566727
_cell_length_b   9.88566701
_cell_length_c   17.49616752
_cell_angle_alpha   98.25811476
_cell_angle_beta   98.25811453
_cell_angle_gamma   119.44465472
_symmetry_Int_Tables_number   1
_chemical_formula_structural   Sr10Sm6Al6Si30N54O7
_chemical_formula_sum   'Sr10 Sm6 Al6 Si30 N54 O7'
_cell_volume   1427.28208485
_cell_formula_units_Z   1
loop_
 _symmetry_equiv_pos_site_id
 _symmetry_equiv_pos_as_xyz
  1  'x, y, z'
loop_
 _atom_site_type_symbol
 _atom_site_label
 _atom_site_symmetry_multiplicity
 _atom_site_fract_x
 _atom_site_fract_y
 _atom_site_fract_z
 _atom_site_occupancy
  Sr  Sr0  1  0.017338  0.339053  1.000000  1
  Sr  Sr1  1  0.339053  0.017338  1.000000  1
  Sr  Sr2  1  0.684502  0.355554  0.697284  1
  Sr  Sr3  1  0.321077  0.321077  0.294027  1
  Sr  Sr4  1  0.863049  0.863049  0.000000  1
  Sr  Sr5  1  0.987218  0.658270  0.302716  1
  Sr  Sr6  1  0.027050  0.027050  0.705973  1
  Sr  Sr7  1  0.355554  0.684502  0.697284  1
  Sr  Sr8  1  0.658270  0.987218  0.302716  1
  Sr  Sr9  1  0.491817  0.491817  0.000000  1
  Sm  Sm10  1  0.682030  0.682030  0.392358  1
  Sm  Sm11  1  0.664531  0.664531  0.613867  1
  Sm  Sm12  1  0.289672  0.289672  0.607642  1
  Sm  Sm13  1  0.941569  0.441569  0.500000  1
  Sm  Sm14  1  0.050664  0.050664  0.386133  1
  Sm  Sm15  1  0.441569  0.941569  0.500000  1
  Al  Al16  1  0.088759  0.441817  0.179544  1
  Al  Al17  1  0.909215  0.262273  0.820456  1
  Al  Al18  1  0.239812  0.239812  0.107734  1
  Al  Al19  1  0.441817  0.088759  0.179544  1
  Al  Al20  1  0.132079  0.132079  0.892266  1
  Al  Al21  1  0.262273  0.909215  0.820456  1
  Si  Si22  1  0.783431  0.475013  0.904754  1
  Si  Si23  1  0.861653  0.043814  0.528396  1
  Si  Si24  1  0.475013  0.783431  0.904754  1
  Si  Si25  1  0.620870  0.127152  0.902841  1
  Si  Si26  1  0.926818  0.750066  0.820684  1
  Si  Si27  1  0.224311  0.718028  0.097159  1
  Si  Si28  1  0.027066  0.347268  0.337084  1
  Si  Si29  1  0.106134  0.929382  0.179316  1
  Si  Si30  1  0.332344  0.679145  0.341781  1
  Si  Si31  1  0.515418  0.333257  0.471604  1
  Si  Si32  1  0.878677  0.570259  0.095246  1
  Si  Si33  1  0.718028  0.224311  0.097159  1
  Si  Si34  1  0.689982  0.010184  0.662916  1
  Si  Si35  1  0.611842  0.433645  0.190672  1
  Si  Si36  1  0.679145  0.332344  0.341781  1
  Si  Si37  1  0.337365  0.990563  0.658219  1
  Si  Si38  1  0.775756  0.775756  0.193057  1
  Si  Si39  1  0.570259  0.878677  0.095246  1
  Si  Si40  1  0.750066  0.926818  0.820684  1
  Si  Si41  1  0.347268  0.027066  0.337084  1
  Si  Si42  1  0.127152  0.620870  0.902841  1
  Si  Si43  1  0.433645  0.611842  0.190672  1
  Si  Si44  1  0.010184  0.689982  0.662916  1
  Si  Si45  1  0.333257  0.515418  0.471604  1
  Si  Si46  1  0.929382  0.106134  0.179316  1
  Si  Si47  1  0.043814  0.861653  0.528396  1
  Si  Si48  1  0.421170  0.242973  0.809328  1
  Si  Si49  1  0.582699  0.582699  0.806943  1
  Si  Si50  1  0.990563  0.337365  0.658219  1
  Si  Si51  1  0.242973  0.421170  0.809328  1
  N  N52  1  0.006678  0.515167  0.651455  1
  N  N53  1  0.104666  0.931521  0.860841  1
  N  N54  1  0.139691  0.356373  0.426672  1
  N  N55  1  0.515167  0.006678  0.651455  1
  N  N56  1  0.034956  0.034956  0.550458  1
  N  N57  1  0.897905  0.411177  0.117533  1
  N  N58  1  0.275892  0.275892  0.841879  1
  N  N59  1  0.143221  0.632247  0.000000  1
  N  N60  1  0.355223  0.863712  0.348545  1
  N  N61  1  0.780371  0.293643  0.882467  1
  N  N62  1  0.632247  0.143221  0.000000  1
  N  N63  1  0.917275  0.917275  0.153059  1
  N  N64  1  0.659991  0.469011  0.293790  1
  N  N65  1  0.850835  0.212247  0.708941  1
  N  N66  1  0.241532  0.924974  0.558400  1
  N  N67  1  0.366201  0.175221  0.706210  1
  N  N68  1  0.713020  0.929701  0.573328  1
  N  N69  1  0.606528  0.939525  0.865069  1
  N  N70  1  0.683132  0.366574  0.441600  1
  N  N71  1  0.882342  0.696450  0.719194  1
  N  N72  1  0.074456  0.741458  0.134931  1
  N  N73  1  0.929701  0.713020  0.573328  1
  N  N74  1  0.070680  0.243825  0.139159  1
  N  N75  1  0.212247  0.850835  0.708941  1
  N  N76  1  0.696450  0.882342  0.719194  1
  N  N77  1  0.763143  0.593962  0.160137  1
  N  N78  1  0.924974  0.241532  0.558400  1
  N  N79  1  0.584561  0.254825  0.141427  1
  N  N80  1  0.603006  0.433825  0.839863  1
  N  N81  1  0.433825  0.603006  0.839863  1
  N  N82  1  0.782855  0.552908  1.000000  1
  N  N83  1  0.254825  0.584561  0.141427  1
  N  N84  1  0.141894  0.503306  0.291059  1
  N  N85  1  0.443134  0.113398  0.858573  1
  N  N86  1  0.175221  0.366201  0.706210  1
  N  N87  1  0.293643  0.780371  0.882467  1
  N  N88  1  0.503306  0.141894  0.291059  1
  N  N89  1  0.939525  0.606528  0.865069  1
  N  N90  1  0.434013  0.434013  0.158121  1
  N  N91  1  0.977256  0.163148  0.280806  1
  N  N92  1  0.366574  0.683132  0.441600  1
  N  N93  1  0.113398  0.443134  0.858573  1
  N  N94  1  0.863712  0.355223  0.348545  1
  N  N95  1  0.163148  0.977256  0.280806  1
  N  N96  1  0.552908  0.782855  1.000000  1
  N  N97  1  0.469011  0.659991  0.293790  1
  N  N98  1  0.931521  0.104666  0.860841  1
  N  N99  1  0.411177  0.897905  0.117533  1
  N  N100  1  0.741458  0.074456  0.134931  1
  N  N101  1  0.593962  0.763143  0.160137  1
  N  N102  1  0.764216  0.764216  0.846941  1
  N  N103  1  0.243825  0.070680  0.139159  1
  N  N104  1  0.484498  0.484498  0.449542  1
  N  N105  1  0.356373  0.139691  0.426672  1
  O  O106  1  0.543733  0.363807  0.571210  1
  O  O107  1  0.820342  0.820342  0.290550  1
  O  O108  1  0.972522  0.792597  0.428790  1
  O  O109  1  0.215357  0.215357  1.000000  1
  O  O110  1  0.792597  0.972522  0.428790  1
  O  O111  1  0.363807  0.543733  0.571210  1
  O  O112  1  0.529792  0.529792  0.709450  1
