# generated using pymatgen
data_SbSe9Cl7
_symmetry_space_group_name_H-M   'P 1'
_cell_length_a   12.52988561
_cell_length_b   13.05765462
_cell_length_c   15.14373660
_cell_angle_alpha   90.00000000
_cell_angle_beta   114.70123737
_cell_angle_gamma   90.00000000
_symmetry_Int_Tables_number   1
_chemical_formula_structural   SbSe9Cl7
_chemical_formula_sum   'Sb4 Se36 Cl28'
_cell_volume   2250.97077932
_cell_formula_units_Z   4
loop_
 _symmetry_equiv_pos_site_id
 _symmetry_equiv_pos_as_xyz
  1  'x, y, z'
loop_
 _atom_site_type_symbol
 _atom_site_label
 _atom_site_symmetry_multiplicity
 _atom_site_fract_x
 _atom_site_fract_y
 _atom_site_fract_z
 _atom_site_occupancy
  Se  Se0  1  0.957086  0.672837  0.754926  1
  Se  Se1  1  0.042914  0.172837  0.745074  1
  Se  Se2  1  0.042914  0.327163  0.245074  1
  Se  Se3  1  0.957086  0.827163  0.254926  1
  Se  Se4  1  0.912126  0.800136  0.631167  1
  Se  Se5  1  0.087874  0.300136  0.868833  1
  Se  Se6  1  0.087874  0.199864  0.368833  1
  Se  Se7  1  0.912126  0.699864  0.131167  1
  Se  Se8  1  0.898299  0.517710  0.669764  1
  Se  Se9  1  0.101701  0.017710  0.830236  1
  Se  Se10  1  0.101701  0.482290  0.330236  1
  Se  Se11  1  0.898299  0.982290  0.169764  1
  Se  Se12  1  0.711239  0.826620  0.581701  1
  Se  Se13  1  0.288761  0.326620  0.918299  1
  Se  Se14  1  0.288761  0.173379  0.418299  1
  Se  Se15  1  0.711239  0.673380  0.081701  1
  Se  Se16  1  0.690218  0.530829  0.613554  1
  Se  Se17  1  0.309782  0.030829  0.886446  1
  Se  Se18  1  0.309782  0.469171  0.386446  1
  Se  Se19  1  0.690218  0.969171  0.113554  1
  Se  Se20  1  0.612747  0.747968  0.425001  1
  Se  Se21  1  0.387253  0.247968  0.074999  1
  Se  Se22  1  0.387253  0.252032  0.574999  1
  Se  Se23  1  0.612747  0.752032  0.925001  1
  Se  Se24  1  0.621578  0.559501  0.449383  1
  Se  Se25  1  0.378422  0.059501  0.050617  1
  Se  Se26  1  0.378422  0.440499  0.550617  1
  Se  Se27  1  0.621578  0.940499  0.949383  1
  Se  Se28  1  0.769384  0.764022  0.356594  1
  Se  Se29  1  0.230616  0.264022  0.143406  1
  Se  Se30  1  0.230616  0.235978  0.643406  1
  Se  Se31  1  0.769384  0.735978  0.856594  1
  Se  Se32  1  0.870934  0.617439  0.404998  1
  Se  Se33  1  0.129066  0.117439  0.095002  1
  Se  Se34  1  0.129066  0.382561  0.595002  1
  Se  Se35  1  0.870934  0.882561  0.904998  1
  Cl  Cl36  1  0.787845  0.995659  0.786002  1
  Cl  Cl37  1  0.212155  0.495659  0.713998  1
  Cl  Cl38  1  0.212155  0.004341  0.213998  1
  Cl  Cl39  1  0.787845  0.504341  0.286002  1
  Sb  Sb40  1  0.696464  0.167174  0.412757  1
  Sb  Sb41  1  0.303536  0.667174  0.087243  1
  Sb  Sb42  1  0.303536  0.832826  0.587243  1
  Sb  Sb43  1  0.696464  0.332826  0.912757  1
  Cl  Cl44  1  0.461691  0.791594  0.146919  1
  Cl  Cl45  1  0.538309  0.291594  0.353081  1
  Cl  Cl46  1  0.538309  0.208406  0.853081  1
  Cl  Cl47  1  0.461691  0.708406  0.646919  1
  Cl  Cl48  1  0.356178  0.628410  0.955160  1
  Cl  Cl49  1  0.643822  0.128410  0.544840  1
  Cl  Cl50  1  0.643822  0.371590  0.044840  1
  Cl  Cl51  1  0.356178  0.871590  0.455160  1
  Cl  Cl52  1  0.435762  0.534163  0.184388  1
  Cl  Cl53  1  0.564238  0.034163  0.315612  1
  Cl  Cl54  1  0.564238  0.465837  0.815612  1
  Cl  Cl55  1  0.435762  0.965837  0.684388  1
  Cl  Cl56  1  0.170117  0.800185  0.990767  1
  Cl  Cl57  1  0.829883  0.300185  0.509233  1
  Cl  Cl58  1  0.829883  0.199815  0.009233  1
  Cl  Cl59  1  0.170117  0.699815  0.490767  1
  Cl  Cl60  1  0.255496  0.792688  0.721529  1
  Cl  Cl61  1  0.744504  0.292688  0.778471  1
  Cl  Cl62  1  0.744504  0.207312  0.278471  1
  Cl  Cl63  1  0.255496  0.707312  0.221529  1
  Cl  Cl64  1  0.143711  0.954205  0.526606  1
  Cl  Cl65  1  0.856289  0.454205  0.973394  1
  Cl  Cl66  1  0.856289  0.045795  0.473394  1
  Cl  Cl67  1  0.143711  0.545795  0.026606  1
