# generated using pymatgen
data_Ba(CuP2)2
_symmetry_space_group_name_H-M   'P 1'
_cell_length_a   5.46584602
_cell_length_b   5.81284040
_cell_length_c   9.91990118
_cell_angle_alpha   82.55776116
_cell_angle_beta   74.00824530
_cell_angle_gamma   61.95579181
_symmetry_Int_Tables_number   1
_chemical_formula_structural   Ba(CuP2)2
_chemical_formula_sum   'Ba2 Cu4 P8'
_cell_volume   267.40485033
_cell_formula_units_Z   2
loop_
 _symmetry_equiv_pos_site_id
 _symmetry_equiv_pos_as_xyz
  1  'x, y, z'
loop_
 _atom_site_type_symbol
 _atom_site_label
 _atom_site_symmetry_multiplicity
 _atom_site_fract_x
 _atom_site_fract_y
 _atom_site_fract_z
 _atom_site_occupancy
  Ba  Ba0  1  0.125000  0.750000  0.750000  1
  Ba  Ba1  1  0.875000  0.250000  0.250000  1
  Cu  Cu2  1  0.253419  0.250000  0.493161  1
  Cu  Cu3  1  0.746581  0.750000  0.506839  1
  Cu  Cu4  1  0.496581  0.250000  0.006839  1
  Cu  Cu5  1  0.503419  0.750000  0.993161  1
  P  P6  1  0.828992  0.368886  0.858181  1
  P  P7  1  0.312827  0.131114  0.858181  1
  P  P8  1  0.443942  0.868886  0.358181  1
  P  P9  1  0.556058  0.131114  0.641819  1
  P  P10  1  0.197878  0.631114  0.358181  1
  P  P11  1  0.687173  0.868886  0.141819  1
  P  P12  1  0.802122  0.368886  0.641819  1
  P  P13  1  0.171008  0.631114  0.141819  1
