# generated using pymatgen
data_K2HgC2S2(BrN)2
_symmetry_space_group_name_H-M   'P 1'
_cell_length_a   13.23250621
_cell_length_b   13.23250657
_cell_length_c   11.70173341
_cell_angle_alpha   90.00000000
_cell_angle_beta   90.00000000
_cell_angle_gamma   119.99999906
_symmetry_Int_Tables_number   1
_chemical_formula_structural   K2HgC2S2(BrN)2
_chemical_formula_sum   'K12 Hg6 C12 S12 Br12 N12'
_cell_volume   1774.45528687
_cell_formula_units_Z   6
loop_
 _symmetry_equiv_pos_site_id
 _symmetry_equiv_pos_as_xyz
  1  'x, y, z'
loop_
 _atom_site_type_symbol
 _atom_site_label
 _atom_site_symmetry_multiplicity
 _atom_site_fract_x
 _atom_site_fract_y
 _atom_site_fract_z
 _atom_site_occupancy
  K  K0  1  0.856624  0.531596  0.250000  1
  K  K1  1  0.333333  0.666667  0.451938  1
  K  K2  1  0.674972  0.143376  0.250000  1
  K  K3  1  0.143376  0.468404  0.750000  1
  K  K4  1  0.666667  0.333333  0.951938  1
  K  K5  1  0.325028  0.856624  0.750000  1
  K  K6  1  0.468404  0.325028  0.250000  1
  K  K7  1  0.333333  0.666667  0.048062  1
  K  K8  1  0.531596  0.674972  0.750000  1
  K  K9  1  0.000000  0.000000  0.500000  1
  K  K10  1  0.666667  0.333333  0.548062  1
  K  K11  1  0.000000  0.000000  0.000000  1
  Hg  Hg12  1  0.862221  0.673391  0.750000  1
  Hg  Hg13  1  0.811170  0.137779  0.750000  1
  Hg  Hg14  1  0.673391  0.811170  0.250000  1
  Hg  Hg15  1  0.137779  0.326609  0.250000  1
  Hg  Hg16  1  0.326609  0.188830  0.750000  1
  Hg  Hg17  1  0.188830  0.862221  0.250000  1
  C  C18  1  0.066841  0.659968  0.587107  1
  C  C19  1  0.406872  0.066841  0.087107  1
  C  C20  1  0.340032  0.406872  0.587107  1
  C  C21  1  0.933159  0.340032  0.412893  1
  C  C22  1  0.659968  0.593128  0.412893  1
  C  C23  1  0.593128  0.933159  0.912893  1
  C  C24  1  0.659968  0.593128  0.087107  1
  C  C25  1  0.593128  0.933159  0.587107  1
  C  C26  1  0.066841  0.659968  0.912893  1
  C  C27  1  0.933159  0.340032  0.087107  1
  C  C28  1  0.340032  0.406872  0.912893  1
  C  C29  1  0.406872  0.066841  0.412893  1
  S  S30  1  0.947548  0.663376  0.946708  1
  S  S31  1  0.284172  0.947548  0.053292  1
  S  S32  1  0.052452  0.336624  0.053292  1
  S  S33  1  0.284172  0.947548  0.446708  1
  S  S34  1  0.715828  0.052452  0.946708  1
  S  S35  1  0.052452  0.336624  0.446708  1
  S  S36  1  0.663376  0.715828  0.446708  1
  S  S37  1  0.336624  0.284172  0.946708  1
  S  S38  1  0.715828  0.052452  0.553292  1
  S  S39  1  0.336624  0.284172  0.553292  1
  S  S40  1  0.663376  0.715828  0.053292  1
  S  S41  1  0.947548  0.663376  0.553292  1
  Br  Br42  1  0.858861  0.363409  0.750000  1
  Br  Br43  1  0.180023  0.148153  0.250000  1
  Br  Br44  1  0.851847  0.031870  0.250000  1
  Br  Br45  1  0.636591  0.495452  0.750000  1
  Br  Br46  1  0.141139  0.636591  0.250000  1
  Br  Br47  1  0.968130  0.819977  0.250000  1
  Br  Br48  1  0.495452  0.858861  0.250000  1
  Br  Br49  1  0.819977  0.851847  0.750000  1
  Br  Br50  1  0.031870  0.180023  0.750000  1
  Br  Br51  1  0.363409  0.504548  0.250000  1
  Br  Br52  1  0.504548  0.141139  0.750000  1
  Br  Br53  1  0.148153  0.968130  0.750000  1
  N  N54  1  0.846092  0.341578  0.393826  1
  N  N55  1  0.341578  0.495486  0.893826  1
  N  N56  1  0.153908  0.658422  0.893826  1
  N  N57  1  0.495486  0.153908  0.393826  1
  N  N58  1  0.846092  0.341578  0.106174  1
  N  N59  1  0.504514  0.846092  0.606174  1
  N  N60  1  0.495486  0.153908  0.106174  1
  N  N61  1  0.658422  0.504514  0.393826  1
  N  N62  1  0.504514  0.846092  0.893826  1
  N  N63  1  0.341578  0.495486  0.606174  1
  N  N64  1  0.658422  0.504514  0.106174  1
  N  N65  1  0.153908  0.658422  0.606174  1
