# generated using pymatgen
data_K2Be(CO2)4
_symmetry_space_group_name_H-M   'P 1'
_cell_length_a   6.73716964
_cell_length_b   9.15415125
_cell_length_c   13.60506604
_cell_angle_alpha   90.00000000
_cell_angle_beta   90.00000000
_cell_angle_gamma   90.00000000
_symmetry_Int_Tables_number   1
_chemical_formula_structural   K2Be(CO2)4
_chemical_formula_sum   'K8 Be4 C16 O32'
_cell_volume   839.06618863
_cell_formula_units_Z   4
loop_
 _symmetry_equiv_pos_site_id
 _symmetry_equiv_pos_as_xyz
  1  'x, y, z'
loop_
 _atom_site_type_symbol
 _atom_site_label
 _atom_site_symmetry_multiplicity
 _atom_site_fract_x
 _atom_site_fract_y
 _atom_site_fract_z
 _atom_site_occupancy
  K  K0  1  0.689473  0.002394  0.604526  1
  K  K1  1  0.310527  0.502394  0.395474  1
  K  K2  1  0.189473  0.502394  0.895474  1
  K  K3  1  0.310527  0.997606  0.395474  1
  K  K4  1  0.189473  0.997606  0.895474  1
  K  K5  1  0.810527  0.002394  0.104526  1
  K  K6  1  0.689473  0.497606  0.604526  1
  K  K7  1  0.810527  0.497606  0.104526  1
  Be  Be8  1  0.576722  0.750000  0.254377  1
  Be  Be9  1  0.076722  0.250000  0.245623  1
  Be  Be10  1  0.423278  0.250000  0.745623  1
  Be  Be11  1  0.923278  0.750000  0.754377  1
  C  C12  1  0.176038  0.664686  0.642683  1
  C  C13  1  0.676038  0.335314  0.857317  1
  C  C14  1  0.758566  0.750000  0.406759  1
  C  C15  1  0.258566  0.250000  0.093241  1
  C  C16  1  0.909076  0.750000  0.319501  1
  C  C17  1  0.823962  0.164686  0.357317  1
  C  C18  1  0.590924  0.750000  0.819501  1
  C  C19  1  0.176038  0.835314  0.642683  1
  C  C20  1  0.409076  0.250000  0.180499  1
  C  C21  1  0.323962  0.835314  0.142683  1
  C  C22  1  0.090924  0.250000  0.680499  1
  C  C23  1  0.676038  0.164686  0.857317  1
  C  C24  1  0.241434  0.250000  0.593241  1
  C  C25  1  0.323962  0.664686  0.142683  1
  C  C26  1  0.823962  0.335314  0.357317  1
  C  C27  1  0.741434  0.750000  0.906759  1
  O  O28  1  0.409170  0.750000  0.831922  1
  O  O29  1  0.289002  0.590876  0.591287  1
  O  O30  1  0.789002  0.090876  0.908713  1
  O  O31  1  0.811741  0.750000  0.493738  1
  O  O32  1  0.040547  0.613496  0.702537  1
  O  O33  1  0.959453  0.386504  0.297463  1
  O  O34  1  0.959453  0.113496  0.297463  1
  O  O35  1  0.683460  0.750000  0.735089  1
  O  O36  1  0.210998  0.909124  0.091287  1
  O  O37  1  0.459453  0.613496  0.202537  1
  O  O38  1  0.459453  0.886504  0.202537  1
  O  O39  1  0.710998  0.409124  0.408713  1
  O  O40  1  0.289002  0.909124  0.591287  1
  O  O41  1  0.816540  0.750000  0.235089  1
  O  O42  1  0.090830  0.750000  0.331922  1
  O  O43  1  0.710998  0.090876  0.408713  1
  O  O44  1  0.590830  0.250000  0.168078  1
  O  O45  1  0.183460  0.250000  0.764911  1
  O  O46  1  0.424454  0.250000  0.625370  1
  O  O47  1  0.210998  0.590876  0.091287  1
  O  O48  1  0.575546  0.750000  0.374630  1
  O  O49  1  0.688259  0.750000  0.993738  1
  O  O50  1  0.316540  0.250000  0.264911  1
  O  O51  1  0.789002  0.409124  0.908713  1
  O  O52  1  0.040547  0.886504  0.702537  1
  O  O53  1  0.075546  0.250000  0.125370  1
  O  O54  1  0.540547  0.113496  0.797463  1
  O  O55  1  0.311741  0.250000  0.006262  1
  O  O56  1  0.924454  0.750000  0.874630  1
  O  O57  1  0.540547  0.386504  0.797463  1
  O  O58  1  0.909170  0.250000  0.668078  1
  O  O59  1  0.188259  0.250000  0.506262  1
