# generated using pymatgen
data_Cd2Si(P2O7)2
_symmetry_space_group_name_H-M   'P 1'
_cell_length_a   5.25918297
_cell_length_b   9.13091794
_cell_length_c   12.68652834
_cell_angle_alpha   102.69341260
_cell_angle_beta   90.00000000
_cell_angle_gamma   106.73751707
_symmetry_Int_Tables_number   1
_chemical_formula_structural   Cd2Si(P2O7)2
_chemical_formula_sum   'Cd4 Si2 P8 O28'
_cell_volume   567.84582767
_cell_formula_units_Z   2
loop_
 _symmetry_equiv_pos_site_id
 _symmetry_equiv_pos_as_xyz
  1  'x, y, z'
loop_
 _atom_site_type_symbol
 _atom_site_label
 _atom_site_symmetry_multiplicity
 _atom_site_fract_x
 _atom_site_fract_y
 _atom_site_fract_z
 _atom_site_occupancy
  Cd  Cd0  1  0.910971  0.510803  0.368181  1
  Cd  Cd1  1  0.400167  0.489197  0.131819  1
  Cd  Cd2  1  0.089029  0.489197  0.631819  1
  Cd  Cd3  1  0.599833  0.510803  0.868181  1
  Si  Si4  1  0.139034  0.000000  0.750000  1
  Si  Si5  1  0.860966  0.000000  0.250000  1
  P  P6  1  0.696154  0.738062  0.585862  1
  P  P7  1  0.958092  0.261938  0.914138  1
  P  P8  1  0.303846  0.261938  0.414138  1
  P  P9  1  0.041908  0.738062  0.085862  1
  P  P10  1  0.528645  0.764047  0.370480  1
  P  P11  1  0.764599  0.235953  0.129520  1
  P  P12  1  0.471355  0.235953  0.629520  1
  P  P13  1  0.235401  0.764047  0.870480  1
  O  O14  1  0.896476  0.874465  0.670462  1
  O  O15  1  0.022011  0.125535  0.829538  1
  O  O16  1  0.103524  0.125535  0.329538  1
  O  O17  1  0.977989  0.874465  0.170462  1
  O  O18  1  0.699467  0.822643  0.485793  1
  O  O19  1  0.876824  0.177357  0.014207  1
  O  O20  1  0.300533  0.177357  0.514207  1
  O  O21  1  0.123176  0.822643  0.985793  1
  O  O22  1  0.637224  0.916360  0.324343  1
  O  O23  1  0.720865  0.083640  0.175657  1
  O  O24  1  0.362776  0.083640  0.675657  1
  O  O25  1  0.279135  0.916360  0.824343  1
  O  O26  1  0.426483  0.704469  0.629655  1
  O  O27  1  0.722014  0.295531  0.870345  1
  O  O28  1  0.573517  0.295531  0.370345  1
  O  O29  1  0.277986  0.704469  0.129655  1
  O  O30  1  0.812668  0.602370  0.549134  1
  O  O31  1  0.210298  0.397630  0.950866  1
  O  O32  1  0.187332  0.397630  0.450866  1
  O  O33  1  0.789702  0.602370  0.049134  1
  O  O34  1  0.614010  0.627353  0.303026  1
  O  O35  1  0.986657  0.372647  0.196974  1
  O  O36  1  0.385990  0.372647  0.696974  1
  O  O37  1  0.013343  0.627353  0.803026  1
  O  O38  1  0.237283  0.736132  0.384900  1
  O  O39  1  0.501151  0.263868  0.115100  1
  O  O40  1  0.762717  0.263868  0.615100  1
  O  O41  1  0.498849  0.736132  0.884900  1
