# generated using pymatgen
data_Li8Zn2Ge3
_symmetry_space_group_name_H-M   'P 1'
_cell_length_a   9.21039450
_cell_length_b   9.21039441
_cell_length_c   9.21039400
_cell_angle_alpha   48.49516449
_cell_angle_beta   48.49516501
_cell_angle_gamma   48.49516411
_symmetry_Int_Tables_number   1
_chemical_formula_structural   Li8Zn2Ge3
_chemical_formula_sum   'Li16 Zn4 Ge6'
_cell_volume   401.90025162
_cell_formula_units_Z   2
loop_
 _symmetry_equiv_pos_site_id
 _symmetry_equiv_pos_as_xyz
  1  'x, y, z'
loop_
 _atom_site_type_symbol
 _atom_site_label
 _atom_site_symmetry_multiplicity
 _atom_site_fract_x
 _atom_site_fract_y
 _atom_site_fract_z
 _atom_site_occupancy
  Li  Li0  1  0.939560  0.939560  0.939560  1
  Li  Li1  1  0.703167  0.406078  0.043969  1
  Li  Li2  1  0.439560  0.439560  0.439560  1
  Li  Li3  1  0.794661  0.092537  0.440754  1
  Li  Li4  1  0.406078  0.043969  0.703167  1
  Li  Li5  1  0.940754  0.592537  0.294661  1
  Li  Li6  1  0.092537  0.440754  0.794661  1
  Li  Li7  1  0.203167  0.543969  0.906078  1
  Li  Li8  1  0.043969  0.703167  0.406078  1
  Li  Li9  1  0.440754  0.794661  0.092537  1
  Li  Li10  1  0.543969  0.906078  0.203167  1
  Li  Li11  1  0.294661  0.940754  0.592537  1
  Li  Li12  1  0.906078  0.203167  0.543969  1
  Li  Li13  1  0.541775  0.541775  0.541775  1
  Li  Li14  1  0.041775  0.041775  0.041775  1
  Li  Li15  1  0.592537  0.294661  0.940754  1
  Zn  Zn16  1  0.325217  0.325217  0.325217  1
  Zn  Zn17  1  0.664192  0.664192  0.664192  1
  Zn  Zn18  1  0.164192  0.164192  0.164192  1
  Zn  Zn19  1  0.825217  0.825217  0.825217  1
  Ge  Ge20  1  0.820223  0.497945  0.171550  1
  Ge  Ge21  1  0.320223  0.671550  0.997945  1
  Ge  Ge22  1  0.171550  0.820223  0.497945  1
  Ge  Ge23  1  0.671550  0.997945  0.320223  1
  Ge  Ge24  1  0.997945  0.320223  0.671550  1
  Ge  Ge25  1  0.497945  0.171550  0.820223  1
