# generated using pymatgen
data_Zn(PO3)2
_symmetry_space_group_name_H-M   'P 1'
_cell_length_a   5.48413092
_cell_length_b   5.48413147
_cell_length_c   16.64323331
_cell_angle_alpha   88.65945743
_cell_angle_beta   88.65945727
_cell_angle_gamma   89.79639204
_symmetry_Int_Tables_number   1
_chemical_formula_structural   Zn(PO3)2
_chemical_formula_sum   'Zn4 P8 O24'
_cell_volume   500.28058318
_cell_formula_units_Z   4
loop_
 _symmetry_equiv_pos_site_id
 _symmetry_equiv_pos_as_xyz
  1  'x, y, z'
loop_
 _atom_site_type_symbol
 _atom_site_label
 _atom_site_symmetry_multiplicity
 _atom_site_fract_x
 _atom_site_fract_y
 _atom_site_fract_z
 _atom_site_occupancy
  Zn  Zn0  1  0.945892  0.327907  0.879525  1
  Zn  Zn1  1  0.942744  0.137652  0.098707  1
  Zn  Zn2  1  0.327907  0.945892  0.379525  1
  Zn  Zn3  1  0.137652  0.942744  0.598707  1
  P  P4  1  0.435817  0.468017  0.122983  1
  P  P5  1  0.005662  0.436982  0.353758  1
  P  P6  1  0.468017  0.435817  0.622983  1
  P  P7  1  0.711125  0.750055  0.240411  1
  P  P8  1  0.730688  0.191848  0.488568  1
  P  P9  1  0.191848  0.730688  0.988568  1
  P  P10  1  0.436982  0.005662  0.853758  1
  P  P11  1  0.750055  0.711125  0.740411  1
  O  O12  1  0.638622  0.153383  0.886972  1
  O  O13  1  0.865959  0.861423  0.674015  1
  O  O14  1  0.153383  0.638622  0.386972  1
  O  O15  1  0.667357  0.359020  0.090688  1
  O  O16  1  0.041748  0.957804  1.001256  1
  O  O17  1  0.130983  0.204145  0.332003  1
  O  O18  1  0.204145  0.130983  0.832003  1
  O  O19  1  0.222171  0.306113  0.140538  1
  O  O20  1  0.306113  0.222171  0.640538  1
  O  O21  1  0.903358  0.616844  0.807604  1
  O  O22  1  0.065680  0.492598  0.974907  1
  O  O23  1  0.777921  0.384722  0.415749  1
  O  O24  1  0.864760  0.520760  0.274662  1
  O  O25  1  0.359020  0.667357  0.590688  1
  O  O26  1  0.366173  0.696417  0.064300  1
  O  O27  1  0.492598  0.065680  0.474907  1
  O  O28  1  0.611116  0.479491  0.704734  1
  O  O29  1  0.520760  0.864760  0.774662  1
  O  O30  1  0.696417  0.366173  0.564300  1
  O  O31  1  0.479491  0.611116  0.204734  1
  O  O32  1  0.957804  0.041748  0.501256  1
  O  O33  1  0.616844  0.903358  0.307604  1
  O  O34  1  0.384722  0.777921  0.915749  1
  O  O35  1  0.861423  0.865959  0.174015  1
