# generated using pymatgen
data_CuSb2BrO3
_symmetry_space_group_name_H-M   'P 1'
_cell_length_a   8.03104814
_cell_length_b   8.03104808
_cell_length_c   19.29812206
_cell_angle_alpha   90.03132891
_cell_angle_beta   90.03132892
_cell_angle_gamma   120.15988946
_symmetry_Int_Tables_number   1
_chemical_formula_structural   CuSb2BrO3
_chemical_formula_sum   'Cu8 Sb16 Br8 O24'
_cell_volume   1076.18740098
_cell_formula_units_Z   8
loop_
 _symmetry_equiv_pos_site_id
 _symmetry_equiv_pos_as_xyz
  1  'x, y, z'
loop_
 _atom_site_type_symbol
 _atom_site_label
 _atom_site_symmetry_multiplicity
 _atom_site_fract_x
 _atom_site_fract_y
 _atom_site_fract_z
 _atom_site_occupancy
  Cu  Cu0  1  0.969152  0.975742  0.717197  1
  Cu  Cu1  1  0.510273  0.516835  0.717114  1
  Cu  Cu2  1  0.975742  0.969152  0.217197  1
  Cu  Cu3  1  0.000410  0.488758  0.784799  1
  Cu  Cu4  1  0.499705  0.988423  0.709970  1
  Cu  Cu5  1  0.988423  0.499705  0.209970  1
  Cu  Cu6  1  0.516835  0.510273  0.217114  1
  Cu  Cu7  1  0.488758  0.000410  0.284799  1
  Sb  Sb8  1  0.171203  0.307626  0.418014  1
  Sb  Sb9  1  0.816287  0.132716  0.576721  1
  Sb  Sb10  1  0.670273  0.350061  0.077033  1
  Sb  Sb11  1  0.819889  0.659931  0.921143  1
  Sb  Sb12  1  0.350061  0.670273  0.577033  1
  Sb  Sb13  1  0.158163  0.322756  0.074799  1
  Sb  Sb14  1  0.315584  0.630565  0.918676  1
  Sb  Sb15  1  0.322756  0.158163  0.574799  1
  Sb  Sb16  1  0.307626  0.171203  0.918014  1
  Sb  Sb17  1  0.659931  0.819889  0.421143  1
  Sb  Sb18  1  0.132716  0.816287  0.076721  1
  Sb  Sb19  1  0.811439  0.668313  0.578318  1
  Sb  Sb20  1  0.668313  0.811439  0.078318  1
  Sb  Sb21  1  0.630565  0.315584  0.418676  1
  Sb  Sb22  1  0.851166  0.169718  0.918463  1
  Sb  Sb23  1  0.169718  0.851166  0.418463  1
  Br  Br24  1  0.831578  0.654535  0.272752  1
  Br  Br25  1  0.330940  0.154752  0.221523  1
  Br  Br26  1  0.659375  0.327317  0.747912  1
  Br  Br27  1  0.829041  0.160870  0.248400  1
  Br  Br28  1  0.160870  0.829041  0.748400  1
  Br  Br29  1  0.327317  0.659375  0.247912  1
  Br  Br30  1  0.654535  0.831578  0.772752  1
  Br  Br31  1  0.154752  0.330940  0.721523  1
  O  O32  1  0.783915  0.694941  0.476236  1
  O  O33  1  0.579755  0.535988  0.105751  1
  O  O34  1  0.036395  0.447804  0.889579  1
  O  O35  1  0.906775  0.201840  0.021104  1
  O  O36  1  0.946743  0.538815  0.105989  1
  O  O37  1  0.573810  0.281648  0.521091  1
  O  O38  1  0.281648  0.573810  0.021091  1
  O  O39  1  0.032580  0.078108  0.894800  1
  O  O40  1  0.411008  0.700615  0.475935  1
  O  O41  1  0.782254  0.069285  0.475860  1
  O  O42  1  0.538815  0.946743  0.605989  1
  O  O43  1  0.447804  0.036395  0.389579  1
  O  O44  1  0.078108  0.032580  0.394800  1
  O  O45  1  0.904394  0.945331  0.605711  1
  O  O46  1  0.404763  0.447354  0.894744  1
  O  O47  1  0.447354  0.404763  0.394744  1
  O  O48  1  0.694941  0.783915  0.976236  1
  O  O49  1  0.283222  0.195496  0.021758  1
  O  O50  1  0.069285  0.782254  0.975860  1
  O  O51  1  0.201840  0.906775  0.521104  1
  O  O52  1  0.700615  0.411008  0.975935  1
  O  O53  1  0.195496  0.283222  0.521758  1
  O  O54  1  0.945331  0.904394  0.105711  1
  O  O55  1  0.535988  0.579755  0.605751  1
