# generated using pymatgen
data_Bi3Se4
_symmetry_space_group_name_H-M   'P 1'
_cell_length_a   13.56567349
_cell_length_b   13.56567344
_cell_length_c   13.56567256
_cell_angle_alpha   18.35715475
_cell_angle_beta   18.35715542
_cell_angle_gamma   18.35715423
_symmetry_Int_Tables_number   1
_chemical_formula_structural   Bi3Se4
_chemical_formula_sum   'Bi3 Se4'
_cell_volume   216.27543984
_cell_formula_units_Z   1
loop_
 _symmetry_equiv_pos_site_id
 _symmetry_equiv_pos_as_xyz
  1  'x, y, z'
loop_
 _atom_site_type_symbol
 _atom_site_label
 _atom_site_symmetry_multiplicity
 _atom_site_fract_x
 _atom_site_fract_y
 _atom_site_fract_z
 _atom_site_occupancy
  Bi  Bi0  1  0.000000  0.000000  0.000000  1
  Bi  Bi1  1  0.426089  0.426089  0.426089  1
  Bi  Bi2  1  0.573911  0.573911  0.573911  1
  Se  Se3  1  0.128035  0.128035  0.128035  1
  Se  Se4  1  0.871965  0.871965  0.871965  1
  Se  Se5  1  0.291517  0.291517  0.291517  1
  Se  Se6  1  0.708483  0.708483  0.708483  1
