# generated using pymatgen
data_Sm9(SbO)5
_symmetry_space_group_name_H-M   'P 1'
_cell_length_a   9.10737616
_cell_length_b   10.11498757
_cell_length_c   10.11498757
_cell_angle_alpha   90.00000000
_cell_angle_beta   90.00000000
_cell_angle_gamma   90.00000000
_symmetry_Int_Tables_number   1
_chemical_formula_structural   Sm9(SbO)5
_chemical_formula_sum   'Sm18 Sb10 O10'
_cell_volume   931.80273609
_cell_formula_units_Z   2
loop_
 _symmetry_equiv_pos_site_id
 _symmetry_equiv_pos_as_xyz
  1  'x, y, z'
loop_
 _atom_site_type_symbol
 _atom_site_label
 _atom_site_symmetry_multiplicity
 _atom_site_fract_x
 _atom_site_fract_y
 _atom_site_fract_z
 _atom_site_occupancy
  Sm  Sm0  1  0.001388  0.832036  0.523798  1
  Sm  Sm1  1  0.656766  0.145954  0.954729  1
  Sm  Sm2  1  0.656766  0.354046  0.545271  1
  Sm  Sm3  1  0.998612  0.167964  0.476202  1
  Sm  Sm4  1  0.343234  0.045271  0.645954  1
  Sm  Sm5  1  0.343234  0.454729  0.854046  1
  Sm  Sm6  1  0.001388  0.976202  0.832036  1
  Sm  Sm7  1  0.343234  0.854046  0.045271  1
  Sm  Sm8  1  0.998612  0.476202  0.332036  1
  Sm  Sm9  1  0.656766  0.954729  0.354046  1
  Sm  Sm10  1  0.998612  0.023798  0.167964  1
  Sm  Sm11  1  0.343234  0.645954  0.454729  1
  Sm  Sm12  1  0.669985  0.750000  0.750000  1
  Sm  Sm13  1  0.001388  0.523798  0.667964  1
  Sm  Sm14  1  0.998612  0.332036  0.023798  1
  Sm  Sm15  1  0.330015  0.250000  0.250000  1
  Sm  Sm16  1  0.656766  0.545271  0.145954  1
  Sm  Sm17  1  0.001388  0.667964  0.976202  1
  Sb  Sb18  1  0.300657  0.346296  0.553736  1
  Sb  Sb19  1  0.300657  0.153704  0.946264  1
  Sb  Sb20  1  0.300657  0.553736  0.153704  1
  Sb  Sb21  1  0.699343  0.053736  0.653704  1
  Sb  Sb22  1  0.300657  0.946264  0.346296  1
  Sb  Sb23  1  0.316249  0.750000  0.750000  1
  Sb  Sb24  1  0.699343  0.846296  0.053736  1
  Sb  Sb25  1  0.683751  0.250000  0.250000  1
  Sb  Sb26  1  0.699343  0.446264  0.846296  1
  Sb  Sb27  1  0.699343  0.653704  0.446264  1
  O  O28  1  0.088562  0.025257  0.629577  1
  O  O29  1  0.911438  0.129577  0.974743  1
  O  O30  1  0.088562  0.474743  0.870423  1
  O  O31  1  0.911438  0.370423  0.525257  1
  O  O32  1  0.088562  0.629577  0.474743  1
  O  O33  1  0.911438  0.525257  0.129577  1
  O  O34  1  0.065811  0.250000  0.250000  1
  O  O35  1  0.911438  0.974743  0.370423  1
  O  O36  1  0.934189  0.750000  0.750000  1
  O  O37  1  0.088562  0.870423  0.025257  1
