# generated using pymatgen
data_K6PdSe20
_symmetry_space_group_name_H-M   'P 1'
_cell_length_a   12.80182213
_cell_length_b   14.27438412
_cell_length_c   19.44707302
_cell_angle_alpha   90.00000000
_cell_angle_beta   90.00000000
_cell_angle_gamma   90.00000000
_symmetry_Int_Tables_number   1
_chemical_formula_structural   K6PdSe20
_chemical_formula_sum   'K24 Pd4 Se80'
_cell_volume   3553.72168996
_cell_formula_units_Z   4
loop_
 _symmetry_equiv_pos_site_id
 _symmetry_equiv_pos_as_xyz
  1  'x, y, z'
loop_
 _atom_site_type_symbol
 _atom_site_label
 _atom_site_symmetry_multiplicity
 _atom_site_fract_x
 _atom_site_fract_y
 _atom_site_fract_z
 _atom_site_occupancy
  K  K0  1  0.000000  0.987422  0.750000  1
  K  K1  1  0.000000  0.012578  0.250000  1
  K  K2  1  0.500000  0.487422  0.750000  1
  K  K3  1  0.500000  0.804247  0.750000  1
  K  K4  1  0.353165  0.206275  0.998987  1
  K  K5  1  0.000000  0.695753  0.250000  1
  K  K6  1  0.000000  0.304247  0.750000  1
  K  K7  1  0.000000  0.000000  0.000000  1
  K  K8  1  0.146835  0.706275  0.998987  1
  K  K9  1  0.500000  0.512578  0.250000  1
  K  K10  1  0.500000  0.500000  0.000000  1
  K  K11  1  0.853165  0.293725  0.001013  1
  K  K12  1  0.500000  0.165115  0.750000  1
  K  K13  1  0.000000  0.000000  0.500000  1
  K  K14  1  0.500000  0.834885  0.250000  1
  K  K15  1  0.500000  0.500000  0.500000  1
  K  K16  1  0.146835  0.293725  0.498987  1
  K  K17  1  0.646835  0.793725  0.001013  1
  K  K18  1  0.000000  0.334885  0.250000  1
  K  K19  1  0.000000  0.665115  0.750000  1
  K  K20  1  0.646835  0.206275  0.501013  1
  K  K21  1  0.853165  0.706275  0.501013  1
  K  K22  1  0.500000  0.195753  0.250000  1
  K  K23  1  0.353165  0.793725  0.498987  1
  Pd  Pd24  1  0.500000  0.000000  0.500000  1
  Pd  Pd25  1  0.500000  0.000000  0.000000  1
  Pd  Pd26  1  0.000000  0.500000  0.500000  1
  Pd  Pd27  1  0.000000  0.500000  0.000000  1
  Se  Se28  1  0.255193  0.950556  0.877821  1
  Se  Se29  1  0.189593  0.487205  0.160636  1
  Se  Se30  1  0.256887  0.368890  0.709601  1
  Se  Se31  1  0.612938  0.694991  0.604174  1
  Se  Se32  1  0.561741  0.650362  0.873914  1
  Se  Se33  1  0.244807  0.450556  0.877821  1
  Se  Se34  1  0.342352  0.728684  0.126816  1
  Se  Se35  1  0.887062  0.194991  0.604174  1
  Se  Se36  1  0.938259  0.150362  0.873914  1
  Se  Se37  1  0.244807  0.549444  0.377821  1
  Se  Se38  1  0.689593  0.012795  0.839364  1
  Se  Se39  1  0.986423  0.484431  0.873674  1
  Se  Se40  1  0.483636  0.327704  0.878600  1
  Se  Se41  1  0.983636  0.827704  0.621400  1
  Se  Se42  1  0.013577  0.484431  0.626326  1
  Se  Se43  1  0.755193  0.549444  0.122179  1
  Se  Se44  1  0.191062  0.530440  0.493287  1
  Se  Se45  1  0.310407  0.012795  0.660636  1
  Se  Se46  1  0.810407  0.487205  0.339364  1
  Se  Se47  1  0.189593  0.512795  0.660636  1
  Se  Se48  1  0.691062  0.030440  0.006713  1
  Se  Se49  1  0.755193  0.450556  0.622179  1
  Se  Se50  1  0.310407  0.987205  0.160636  1
  Se  Se51  1  0.387062  0.694991  0.895826  1
  Se  Se52  1  0.808938  0.469560  0.506713  1
  Se  Se53  1  0.513577  0.984431  0.873674  1
  Se  Se54  1  0.255193  0.049444  0.377821  1
  Se  Se55  1  0.438259  0.650362  0.626086  1
  Se  Se56  1  0.808938  0.530440  0.006713  1
  Se  Se57  1  0.516364  0.327704  0.621400  1
  Se  Se58  1  0.191062  0.469560  0.993287  1
  Se  Se59  1  0.728083  0.394196  0.173248  1
  Se  Se60  1  0.228083  0.105804  0.826752  1
  Se  Se61  1  0.438259  0.349638  0.126086  1
  Se  Se62  1  0.486423  0.015569  0.126326  1
  Se  Se63  1  0.771917  0.105804  0.673248  1
  Se  Se64  1  0.243113  0.131110  0.209601  1
  Se  Se65  1  0.728083  0.605804  0.673248  1
  Se  Se66  1  0.342352  0.271316  0.626816  1
  Se  Se67  1  0.271917  0.605804  0.826752  1
  Se  Se68  1  0.486423  0.984431  0.626326  1
  Se  Se69  1  0.842352  0.228684  0.373184  1
  Se  Se70  1  0.016364  0.172296  0.378600  1
  Se  Se71  1  0.689593  0.987205  0.339364  1
  Se  Se72  1  0.986423  0.515569  0.373674  1
  Se  Se73  1  0.061741  0.849638  0.126086  1
  Se  Se74  1  0.756887  0.131110  0.290399  1
  Se  Se75  1  0.016364  0.827704  0.878600  1
  Se  Se76  1  0.744807  0.049444  0.122179  1
  Se  Se77  1  0.691062  0.969560  0.506713  1
  Se  Se78  1  0.657648  0.728684  0.373184  1
  Se  Se79  1  0.157648  0.771316  0.626816  1
  Se  Se80  1  0.112938  0.805009  0.395826  1
  Se  Se81  1  0.013577  0.515569  0.126326  1
  Se  Se82  1  0.271917  0.394196  0.326752  1
  Se  Se83  1  0.938259  0.849638  0.373914  1
  Se  Se84  1  0.308938  0.030440  0.493287  1
  Se  Se85  1  0.810407  0.512795  0.839364  1
  Se  Se86  1  0.061741  0.150362  0.626086  1
  Se  Se87  1  0.771917  0.894196  0.173248  1
  Se  Se88  1  0.228083  0.894196  0.326752  1
  Se  Se89  1  0.112938  0.194991  0.895826  1
  Se  Se90  1  0.983636  0.172296  0.121400  1
  Se  Se91  1  0.744807  0.950556  0.622179  1
  Se  Se92  1  0.756887  0.868890  0.790399  1
  Se  Se93  1  0.887062  0.805009  0.104174  1
  Se  Se94  1  0.612938  0.305009  0.104174  1
  Se  Se95  1  0.561741  0.349638  0.373914  1
  Se  Se96  1  0.657648  0.271316  0.873184  1
  Se  Se97  1  0.243113  0.868890  0.709601  1
  Se  Se98  1  0.842352  0.771316  0.873184  1
  Se  Se99  1  0.513577  0.015569  0.373674  1
  Se  Se100  1  0.483636  0.672296  0.378600  1
  Se  Se101  1  0.516364  0.672296  0.121400  1
  Se  Se102  1  0.157648  0.228684  0.126816  1
  Se  Se103  1  0.256887  0.631110  0.209601  1
  Se  Se104  1  0.308938  0.969560  0.993287  1
  Se  Se105  1  0.743113  0.631110  0.290399  1
  Se  Se106  1  0.743113  0.368890  0.790399  1
  Se  Se107  1  0.387062  0.305009  0.395826  1
