# generated using pymatgen
data_Al2BiSe4
_symmetry_space_group_name_H-M   'P 1'
_cell_length_a   8.01592609
_cell_length_b   8.01592609
_cell_length_c   12.61241906
_cell_angle_alpha   90.00000000
_cell_angle_beta   90.00000000
_cell_angle_gamma   90.00000000
_symmetry_Int_Tables_number   1
_chemical_formula_structural   Al2BiSe4
_chemical_formula_sum   'Al8 Bi4 Se16'
_cell_volume   810.41188320
_cell_formula_units_Z   4
loop_
 _symmetry_equiv_pos_site_id
 _symmetry_equiv_pos_as_xyz
  1  'x, y, z'
loop_
 _atom_site_type_symbol
 _atom_site_label
 _atom_site_symmetry_multiplicity
 _atom_site_fract_x
 _atom_site_fract_y
 _atom_site_fract_z
 _atom_site_occupancy
  Al  Al0  1  0.250000  0.750000  0.000000  1
  Al  Al1  1  0.250000  0.750000  0.250000  1
  Al  Al2  1  0.250000  0.750000  0.500000  1
  Al  Al3  1  0.750000  0.250000  0.750000  1
  Al  Al4  1  0.750000  0.250000  0.500000  1
  Al  Al5  1  0.750000  0.250000  0.000000  1
  Al  Al6  1  0.250000  0.750000  0.750000  1
  Al  Al7  1  0.750000  0.250000  0.250000  1
  Bi  Bi8  1  0.250000  0.250000  0.124976  1
  Bi  Bi9  1  0.750000  0.750000  0.875024  1
  Bi  Bi10  1  0.750000  0.750000  0.624976  1
  Bi  Bi11  1  0.250000  0.250000  0.375024  1
  Se  Se12  1  0.586933  0.412620  0.125233  1
  Se  Se13  1  0.587380  0.413067  0.625233  1
  Se  Se14  1  0.086933  0.587380  0.625233  1
  Se  Se15  1  0.913067  0.087380  0.125233  1
  Se  Se16  1  0.587380  0.086933  0.874767  1
  Se  Se17  1  0.412620  0.586933  0.374767  1
  Se  Se18  1  0.586933  0.087380  0.374767  1
  Se  Se19  1  0.087380  0.586933  0.125233  1
  Se  Se20  1  0.087380  0.913067  0.374767  1
  Se  Se21  1  0.912620  0.413067  0.874767  1
  Se  Se22  1  0.412620  0.913067  0.125233  1
  Se  Se23  1  0.912620  0.086933  0.625233  1
  Se  Se24  1  0.413067  0.912620  0.625233  1
  Se  Se25  1  0.086933  0.912620  0.874767  1
  Se  Se26  1  0.413067  0.587380  0.874767  1
  Se  Se27  1  0.913067  0.412620  0.374767  1
