# generated using pymatgen
data_Na2Cu3H8(CO2)8
_symmetry_space_group_name_H-M   'P 1'
_cell_length_a   7.82264480
_cell_length_b   7.98001688
_cell_length_c   8.92071877
_cell_angle_alpha   112.92611167
_cell_angle_beta   109.25221324
_cell_angle_gamma   97.82352379
_symmetry_Int_Tables_number   1
_chemical_formula_structural   Na2Cu3H8(CO2)8
_chemical_formula_sum   'Na2 Cu3 H8 C8 O16'
_cell_volume   461.24482311
_cell_formula_units_Z   1
loop_
 _symmetry_equiv_pos_site_id
 _symmetry_equiv_pos_as_xyz
  1  'x, y, z'
loop_
 _atom_site_type_symbol
 _atom_site_label
 _atom_site_symmetry_multiplicity
 _atom_site_fract_x
 _atom_site_fract_y
 _atom_site_fract_z
 _atom_site_occupancy
  Cu  Cu0  1  0.890687  0.037304  0.083809  1
  Cu  Cu1  1  0.109313  0.962696  0.916191  1
  Cu  Cu2  1  0.000000  0.500000  0.500000  1
  O  O3  1  0.096772  0.282195  0.258222  1
  O  O4  1  0.903228  0.717805  0.741778  1
  O  O5  1  0.289747  0.220094  0.113092  1
  O  O6  1  0.710253  0.779906  0.886908  1
  O  O7  1  0.787421  0.163396  0.930614  1
  O  O8  1  0.212579  0.836604  0.069386  1
  O  O9  1  0.979705  0.094551  0.784438  1
  O  O10  1  0.020295  0.905449  0.215562  1
  O  O11  1  0.783694  0.506345  0.314053  1
  O  O12  1  0.216306  0.493655  0.685947  1
  O  O13  1  0.591065  0.656188  0.212161  1
  O  O14  1  0.408935  0.343812  0.787839  1
  O  O15  1  0.817324  0.290490  0.490669  1
  O  O16  1  0.182676  0.709510  0.509331  1
  O  O17  1  0.676846  0.071483  0.193493  1
  O  O18  1  0.323154  0.928517  0.806507  1
  C  C19  1  0.245584  0.322596  0.235445  1
  C  C20  1  0.754416  0.677404  0.764555  1
  C  C21  1  0.854493  0.166337  0.819343  1
  C  C22  1  0.145507  0.833663  0.180657  1
  C  C23  1  0.745101  0.660283  0.318517  1
  C  C24  1  0.254899  0.339717  0.681483  1
  C  C25  1  0.691069  0.143860  0.352244  1
  C  C26  1  0.308931  0.856140  0.647756  1
  Na  Na27  1  0.539695  0.265637  0.018242  1
  Na  Na28  1  0.460305  0.734363  0.981758  1
  H  H29  1  0.348857  0.465121  0.333864  1
  H  H30  1  0.651143  0.534879  0.666136  1
  H  H31  1  0.796820  0.241561  0.742250  1
  H  H32  1  0.203180  0.758439  0.257750  1
  H  H33  1  0.855467  0.797989  0.420854  1
  H  H34  1  0.144533  0.202011  0.579146  1
  H  H35  1  0.579305  0.072393  0.377754  1
  H  H36  1  0.420695  0.927607  0.622246  1
