# generated using pymatgen
data_BaSrTa2O7
_symmetry_space_group_name_H-M   'P 1'
_cell_length_a   4.02968472
_cell_length_b   7.90810848
_cell_length_c   11.18256975
_cell_angle_alpha   110.70710955
_cell_angle_beta   100.38007443
_cell_angle_gamma   89.99999994
_symmetry_Int_Tables_number   1
_chemical_formula_structural   BaSrTa2O7
_chemical_formula_sum   'Ba2 Sr2 Ta4 O14'
_cell_volume   327.09413235
_cell_formula_units_Z   2
loop_
 _symmetry_equiv_pos_site_id
 _symmetry_equiv_pos_as_xyz
  1  'x, y, z'
loop_
 _atom_site_type_symbol
 _atom_site_label
 _atom_site_symmetry_multiplicity
 _atom_site_fract_x
 _atom_site_fract_y
 _atom_site_fract_z
 _atom_site_occupancy
  Ba  Ba0  1  0.738021  0.238021  0.476042  1
  Ba  Ba1  1  0.261979  0.761979  0.523958  1
  Sr  Sr2  1  0.500000  0.500000  0.000000  1
  Sr  Sr3  1  0.500000  0.000000  0.000000  1
  Ta  Ta4  1  0.102686  0.854456  0.205373  1
  Ta  Ta5  1  0.102686  0.350917  0.205373  1
  Ta  Ta6  1  0.897314  0.145544  0.794627  1
  Ta  Ta7  1  0.897314  0.649083  0.794627  1
  O  O8  1  0.920443  0.920443  0.840886  1
  O  O9  1  0.407441  0.154617  0.814882  1
  O  O10  1  0.592559  0.339736  0.185118  1
  O  O11  1  0.807454  0.010644  0.614909  1
  O  O12  1  0.000000  0.712681  0.000000  1
  O  O13  1  0.407441  0.660264  0.814882  1
  O  O14  1  0.192546  0.395736  0.385091  1
  O  O15  1  1.000000  0.287319  1.000000  1
  O  O16  1  0.192546  0.989356  0.385091  1
  O  O17  1  0.887345  0.387345  0.774690  1
  O  O18  1  0.079557  0.079557  0.159114  1
  O  O19  1  0.592559  0.845383  0.185118  1
  O  O20  1  0.807454  0.604264  0.614909  1
  O  O21  1  0.112655  0.612655  0.225310  1
