# generated using pymatgen
data_LiNi(PO3)3
_symmetry_space_group_name_H-M   'P 1'
_cell_length_a   6.49476555
_cell_length_b   7.30234674
_cell_length_c   6.83222892
_cell_angle_alpha   101.47349377
_cell_angle_beta   89.37330215
_cell_angle_gamma   87.19956502
_symmetry_Int_Tables_number   1
_chemical_formula_structural   LiNi(PO3)3
_chemical_formula_sum   'Li2 Ni2 P6 O18'
_cell_volume   317.10726569
_cell_formula_units_Z   2
loop_
 _symmetry_equiv_pos_site_id
 _symmetry_equiv_pos_as_xyz
  1  'x, y, z'
loop_
 _atom_site_type_symbol
 _atom_site_label
 _atom_site_symmetry_multiplicity
 _atom_site_fract_x
 _atom_site_fract_y
 _atom_site_fract_z
 _atom_site_occupancy
  Li  Li0  1  0.139496  0.174731  0.422403  1
  Li  Li1  1  0.860504  0.825269  0.577597  1
  Ni  Ni2  1  0.149483  0.139370  0.913239  1
  Ni  Ni3  1  0.850517  0.860630  0.086761  1
  O  O4  1  0.051611  0.322124  0.190996  1
  O  O5  1  0.119991  0.341481  0.728032  1
  O  O6  1  0.175072  0.944641  0.635154  1
  O  O7  1  0.164963  0.930279  0.097130  1
  O  O8  1  0.272461  0.587334  0.984207  1
  O  O9  1  0.294645  0.603486  0.620944  1
  O  O10  1  0.322966  0.728377  0.325342  1
  O  O11  1  0.434075  0.157677  0.390300  1
  O  O12  1  0.449404  0.180321  0.944374  1
  O  O13  1  0.550596  0.819679  0.055626  1
  O  O14  1  0.565925  0.842323  0.609700  1
  O  O15  1  0.677033  0.271623  0.674658  1
  O  O16  1  0.705355  0.396514  0.379056  1
  O  O17  1  0.727539  0.412666  0.015793  1
  O  O18  1  0.835037  0.069721  0.902870  1
  O  O19  1  0.824928  0.055359  0.364846  1
  O  O20  1  0.880009  0.658519  0.271968  1
  O  O21  1  0.948389  0.677876  0.809004  1
  P  P22  1  0.141035  0.550155  0.783729  1
  P  P23  1  0.338810  0.784422  0.114240  1
  P  P24  1  0.350389  0.800564  0.560727  1
  P  P25  1  0.649611  0.199436  0.439273  1
  P  P26  1  0.661190  0.215578  0.885760  1
  P  P27  1  0.858965  0.449845  0.216271  1
