# generated using pymatgen
data_TlV3Cu5O13
_symmetry_space_group_name_H-M   'P 1'
_cell_length_a   6.20380213
_cell_length_b   8.32024625
_cell_length_c   10.92776734
_cell_angle_alpha   97.56220601
_cell_angle_beta   92.73746441
_cell_angle_gamma   90.68546249
_symmetry_Int_Tables_number   1
_chemical_formula_structural   TlV3Cu5O13
_chemical_formula_sum   'Tl2 V6 Cu10 O26'
_cell_volume   558.42151888
_cell_formula_units_Z   2
loop_
 _symmetry_equiv_pos_site_id
 _symmetry_equiv_pos_as_xyz
  1  'x, y, z'
loop_
 _atom_site_type_symbol
 _atom_site_label
 _atom_site_symmetry_multiplicity
 _atom_site_fract_x
 _atom_site_fract_y
 _atom_site_fract_z
 _atom_site_occupancy
  O  O0  1  0.545677  0.755316  0.519980  1
  O  O1  1  0.454323  0.244684  0.480019  1
  O  O2  1  0.004989  0.225945  0.464691  1
  O  O3  1  0.995011  0.774054  0.535309  1
  O  O4  1  0.021130  0.117902  0.186468  1
  O  O5  1  0.978870  0.882098  0.813531  1
  O  O6  1  0.727427  0.911875  0.032221  1
  O  O7  1  0.272573  0.088125  0.967779  1
  O  O8  1  0.745276  0.040278  0.617786  1
  O  O9  1  0.254724  0.959722  0.382214  1
  O  O10  1  0.761022  0.618520  0.884248  1
  O  O11  1  0.238978  0.381480  0.115751  1
  O  O12  1  0.767348  0.157160  0.880344  1
  O  O13  1  0.232652  0.842840  0.119655  1
  O  O14  1  0.731434  0.383014  0.074175  1
  O  O15  1  0.268566  0.616986  0.925825  1
  O  O16  1  0.477579  0.343287  0.783217  1
  O  O17  1  0.522421  0.656713  0.216783  1
  O  O18  1  0.756892  0.949182  0.341060  1
  O  O19  1  0.243108  0.050818  0.658940  1
  O  O20  1  0.252601  0.579023  0.667054  1
  O  O21  1  0.747399  0.420976  0.332946  1
  O  O22  1  0.512379  0.131264  0.201455  1
  O  O23  1  0.023450  0.341706  0.781387  1
  O  O24  1  0.487621  0.868735  0.798545  1
  O  O25  1  0.976550  0.658295  0.218613  1
  V  V26  1  0.259905  0.179453  0.120515  1
  V  V27  1  0.740095  0.820547  0.879484  1
  V  V28  1  0.760477  0.879528  0.505565  1
  V  V29  1  0.239523  0.120472  0.494435  1
  V  V30  1  0.743346  0.528164  0.208460  1
  V  V31  1  0.256654  0.471835  0.791540  1
  Cu  Cu32  1  0.255400  0.808620  0.648199  1
  Cu  Cu33  1  0.744600  0.191379  0.351801  1
  Cu  Cu34  1  0.505088  0.105935  0.770143  1
  Cu  Cu35  1  0.266145  0.854375  0.941131  1
  Cu  Cu36  1  0.002809  0.103759  0.772819  1
  Cu  Cu37  1  0.997191  0.896241  0.227181  1
  Cu  Cu38  1  0.770272  0.394647  0.893622  1
  Cu  Cu39  1  0.229728  0.605353  0.106378  1
  Cu  Cu40  1  0.733855  0.145625  0.058869  1
  Cu  Cu41  1  0.494912  0.894065  0.229857  1
  Tl  Tl42  1  0.750656  0.479275  0.594136  1
  Tl  Tl43  1  0.249344  0.520725  0.405864  1
