# generated using pymatgen
data_YCu(WO4)2
_symmetry_space_group_name_H-M   'P 1'
_cell_length_a   5.13524917
_cell_length_b   6.13820660
_cell_length_c   6.07497313
_cell_angle_alpha   108.83463736
_cell_angle_beta   113.92164974
_cell_angle_gamma   91.65103103
_symmetry_Int_Tables_number   1
_chemical_formula_structural   YCu(WO4)2
_chemical_formula_sum   'Y1 Cu1 W2 O8'
_cell_volume   162.82132011
_cell_formula_units_Z   1
loop_
 _symmetry_equiv_pos_site_id
 _symmetry_equiv_pos_as_xyz
  1  'x, y, z'
loop_
 _atom_site_type_symbol
 _atom_site_label
 _atom_site_symmetry_multiplicity
 _atom_site_fract_x
 _atom_site_fract_y
 _atom_site_fract_z
 _atom_site_occupancy
  O  O0  1  0.138299  0.647039  0.837801  1
  O  O1  1  0.640178  0.509666  0.354355  1
  O  O2  1  0.161727  0.197195  0.802431  1
  O  O3  1  0.596094  0.053329  0.406434  1
  O  O4  1  0.607944  0.935648  0.844328  1
  O  O5  1  0.110204  0.799534  0.361184  1
  O  O6  1  0.088003  0.249618  0.397092  1
  O  O7  1  0.653458  0.392480  0.792971  1
  Cu  Cu8  1  0.126452  0.225016  0.100814  1
  Y  Y9  1  0.624341  0.722866  0.099481  1
  W  W10  1  0.872833  0.389599  0.586192  1
  W  W11  1  0.376466  0.056507  0.613013  1
