# generated using pymatgen
data_CdI2
_symmetry_space_group_name_H-M   'P 1'
_cell_length_a   4.33504858
_cell_length_b   4.33504884
_cell_length_c   91.87212046
_cell_angle_alpha   90.00000000
_cell_angle_beta   90.00000000
_cell_angle_gamma   119.99999800
_symmetry_Int_Tables_number   1
_chemical_formula_structural   CdI2
_chemical_formula_sum   'Cd12 I24'
_cell_volume   1495.21052136
_cell_formula_units_Z   12
loop_
 _symmetry_equiv_pos_site_id
 _symmetry_equiv_pos_as_xyz
  1  'x, y, z'
loop_
 _atom_site_type_symbol
 _atom_site_label
 _atom_site_symmetry_multiplicity
 _atom_site_fract_x
 _atom_site_fract_y
 _atom_site_fract_z
 _atom_site_occupancy
  Cd  Cd0  1  0.666667  0.333333  0.020864  1
  Cd  Cd1  1  0.666667  0.333333  0.187526  1
  Cd  Cd2  1  0.000000  0.000000  0.104154  1
  Cd  Cd3  1  0.000000  0.000000  0.604155  1
  Cd  Cd4  1  0.000000  0.000000  0.854174  1
  Cd  Cd5  1  0.000000  0.000000  0.520843  1
  Cd  Cd6  1  0.666667  0.333333  0.770817  1
  Cd  Cd7  1  0.000000  0.000000  0.270818  1
  Cd  Cd8  1  0.000000  0.000000  0.354164  1
  Cd  Cd9  1  0.666667  0.333333  0.437498  1
  Cd  Cd10  1  0.000000  0.000000  0.937497  1
  Cd  Cd11  1  0.000000  0.000000  0.687507  1
  I  I12  1  0.000000  0.000000  0.168762  1
  I  I13  1  0.666667  0.333333  0.585412  1
  I  I14  1  0.333333  0.666667  0.789569  1
  I  I15  1  0.666667  0.333333  0.335421  1
  I  I16  1  0.000000  0.000000  0.418732  1
  I  I17  1  0.666667  0.333333  0.085413  1
  I  I18  1  0.333333  0.666667  0.456251  1
  I  I19  1  0.333333  0.666667  0.206272  1
  I  I20  1  0.333333  0.666667  0.956240  1
  I  I21  1  0.666667  0.333333  0.835429  1
  I  I22  1  0.666667  0.333333  0.918759  1
  I  I23  1  0.666667  0.333333  0.502099  1
  I  I24  1  0.333333  0.666667  0.539586  1
  I  I25  1  0.333333  0.666667  0.122900  1
  I  I26  1  0.333333  0.666667  0.039610  1
  I  I27  1  0.000000  0.000000  0.002100  1
  I  I28  1  0.333333  0.666667  0.289565  1
  I  I29  1  0.333333  0.666667  0.372905  1
  I  I30  1  0.333333  0.666667  0.622904  1
  I  I31  1  0.333333  0.666667  0.706249  1
  I  I32  1  0.000000  0.000000  0.752049  1
  I  I33  1  0.666667  0.333333  0.668763  1
  I  I34  1  0.666667  0.333333  0.252077  1
  I  I35  1  0.333333  0.666667  0.872917  1
