# generated using pymatgen
data_Sr2MnCu2(SO)2
_symmetry_space_group_name_H-M   'P 1'
_cell_length_a   4.10932170
_cell_length_b   4.10942515
_cell_length_c   9.24770441
_cell_angle_alpha   102.83526154
_cell_angle_beta   102.83466552
_cell_angle_gamma   90.00068460
_symmetry_Int_Tables_number   1
_chemical_formula_structural   Sr2MnCu2(SO)2
_chemical_formula_sum   'Sr2 Mn1 Cu2 S2 O2'
_cell_volume   148.25885591
_cell_formula_units_Z   1
loop_
 _symmetry_equiv_pos_site_id
 _symmetry_equiv_pos_as_xyz
  1  'x, y, z'
loop_
 _atom_site_type_symbol
 _atom_site_label
 _atom_site_symmetry_multiplicity
 _atom_site_fract_x
 _atom_site_fract_y
 _atom_site_fract_z
 _atom_site_occupancy
  Sr  Sr0  1  0.593340  0.593328  0.186744  1
  Sr  Sr1  1  0.406602  0.406598  0.813235  1
  Mn  Mn2  1  0.000180  0.000241  0.000110  1
  Cu  Cu3  1  0.250027  0.749970  0.500018  1
  Cu  Cu4  1  0.749975  0.250011  0.499971  1
  S  S5  1  0.825581  0.825584  0.651122  1
  S  S6  1  0.174426  0.174414  0.348825  1
  O  O7  1  -0.000038  0.499898  0.999988  1
  O  O8  1  0.499909  -0.000047  0.999988  1
