# generated using pymatgen
data_Na7Al3O8
_symmetry_space_group_name_H-M   'P 1'
_cell_length_a   5.91862041
_cell_length_b   8.03631338
_cell_length_c   11.40940435
_cell_angle_alpha   69.45781884
_cell_angle_beta   89.77377758
_cell_angle_gamma   71.08815557
_symmetry_Int_Tables_number   1
_chemical_formula_structural   Na7Al3O8
_chemical_formula_sum   'Na14 Al6 O16'
_cell_volume   477.03153307
_cell_formula_units_Z   2
loop_
 _symmetry_equiv_pos_site_id
 _symmetry_equiv_pos_as_xyz
  1  'x, y, z'
loop_
 _atom_site_type_symbol
 _atom_site_label
 _atom_site_symmetry_multiplicity
 _atom_site_fract_x
 _atom_site_fract_y
 _atom_site_fract_z
 _atom_site_occupancy
  Na  Na0  1  0.151431  0.099652  0.667244  1
  Na  Na1  1  0.276617  0.483045  0.447617  1
  Na  Na2  1  0.553116  0.692738  0.237977  1
  Na  Na3  1  0.371559  0.912399  0.444116  1
  Na  Na4  1  0.628441  0.087601  0.555884  1
  Na  Na5  1  0.528666  0.707636  0.729470  1
  Na  Na6  1  0.723383  0.516955  0.552383  1
  Na  Na7  1  0.848569  0.900348  0.332756  1
  Na  Na8  1  0.744821  0.490628  0.056352  1
  Na  Na9  1  0.340715  0.902117  0.948483  1
  Na  Na10  1  0.255179  0.509372  0.943648  1
  Na  Na11  1  0.471334  0.292364  0.270530  1
  Na  Na12  1  0.446884  0.307262  0.762023  1
  Na  Na13  1  0.659285  0.097883  0.051517  1
  Al  Al14  1  0.165346  0.093942  0.159303  1
  Al  Al15  1  0.834654  0.906058  0.840697  1
  Al  Al16  1  0.041229  0.675772  0.645521  1
  Al  Al17  1  0.958771  0.324228  0.354479  1
  Al  Al18  1  0.930734  0.299939  0.864125  1
  Al  Al19  1  0.069266  0.700061  0.135875  1
  O  O20  1  0.846342  0.767431  0.004878  1
  O  O21  1  0.360671  0.595086  0.104126  1
  O  O22  1  0.978863  0.557217  0.271874  1
  O  O23  1  0.049732  0.784300  0.760093  1
  O  O24  1  0.319937  0.632802  0.582456  1
  O  O25  1  0.931648  0.096750  0.834300  1
  O  O26  1  0.778853  0.799907  0.535686  1
  O  O27  1  0.950268  0.215700  0.239907  1
  O  O28  1  0.639329  0.404914  0.895874  1
  O  O29  1  0.021137  0.442783  0.728126  1
  O  O30  1  0.068352  0.903250  0.165700  1
  O  O31  1  0.221147  0.200093  0.464314  1
  O  O32  1  0.535754  0.990191  0.769276  1
  O  O33  1  0.153658  0.232569  0.995122  1
  O  O34  1  0.464246  0.009809  0.230724  1
  O  O35  1  0.680063  0.367198  0.417544  1
