# generated using pymatgen
data_Ba7Ru4Br2O15
_symmetry_space_group_name_H-M   'P 1'
_cell_length_a   18.13759426
_cell_length_b   18.13759434
_cell_length_c   18.13759490
_cell_angle_alpha   18.71407448
_cell_angle_beta   18.71407366
_cell_angle_gamma   18.71407484
_symmetry_Int_Tables_number   1
_chemical_formula_structural   Ba7Ru4Br2O15
_chemical_formula_sum   'Ba7 Ru4 Br2 O15'
_cell_volume   536.66726821
_cell_formula_units_Z   1
loop_
 _symmetry_equiv_pos_site_id
 _symmetry_equiv_pos_as_xyz
  1  'x, y, z'
loop_
 _atom_site_type_symbol
 _atom_site_label
 _atom_site_symmetry_multiplicity
 _atom_site_fract_x
 _atom_site_fract_y
 _atom_site_fract_z
 _atom_site_occupancy
  Ba  Ba0  1  0.081412  0.081412  0.081412  1
  Ba  Ba1  1  0.208528  0.208528  0.208528  1
  Ba  Ba2  1  0.791472  0.791472  0.791472  1
  Ba  Ba3  1  0.918588  0.918588  0.918588  1
  Ba  Ba4  1  0.712748  0.712748  0.712748  1
  Ba  Ba5  1  0.287252  0.287252  0.287252  1
  Ba  Ba6  1  0.000000  0.000000  0.000000  1
  Ru  Ru7  1  0.405098  0.405098  0.405098  1
  Ru  Ru8  1  0.646764  0.646764  0.646764  1
  Ru  Ru9  1  0.594902  0.594902  0.594902  1
  Ru  Ru10  1  0.353236  0.353236  0.353236  1
  Br  Br11  1  0.856286  0.856286  0.856286  1
  Br  Br12  1  0.143714  0.143714  0.143714  1
  O  O13  1  0.772843  0.320682  0.772843  1
  O  O14  1  0.320682  0.772843  0.772843  1
  O  O15  1  0.415917  0.899210  0.415917  1
  O  O16  1  0.679318  0.227157  0.227157  1
  O  O17  1  0.899210  0.415917  0.415917  1
  O  O18  1  0.100790  0.584083  0.584083  1
  O  O19  1  0.772843  0.772843  0.320682  1
  O  O20  1  0.500000  0.000000  0.500000  1
  O  O21  1  0.584083  0.100790  0.584083  1
  O  O22  1  0.227157  0.679318  0.227157  1
  O  O23  1  0.584083  0.584083  0.100790  1
  O  O24  1  0.227157  0.227157  0.679318  1
  O  O25  1  0.415917  0.415917  0.899210  1
  O  O26  1  0.000000  0.500000  0.500000  1
  O  O27  1  0.500000  0.500000  0.000000  1
