# generated using pymatgen
data_K2Cu3(AsO3)4
_symmetry_space_group_name_H-M   'P 1'
_cell_length_a   5.44857624
_cell_length_b   5.97887259
_cell_length_c   11.20775090
_cell_angle_alpha   78.96945414
_cell_angle_beta   75.95202115
_cell_angle_gamma   62.87077243
_symmetry_Int_Tables_number   1
_chemical_formula_structural   K2Cu3(AsO3)4
_chemical_formula_sum   'K2 Cu3 As4 O12'
_cell_volume   313.84232713
_cell_formula_units_Z   1
loop_
 _symmetry_equiv_pos_site_id
 _symmetry_equiv_pos_as_xyz
  1  'x, y, z'
loop_
 _atom_site_type_symbol
 _atom_site_label
 _atom_site_symmetry_multiplicity
 _atom_site_fract_x
 _atom_site_fract_y
 _atom_site_fract_z
 _atom_site_occupancy
  K  K0  1  0.361782  0.852218  0.424288  1
  K  K1  1  0.638218  0.147782  0.575712  1
  Cu  Cu2  1  0.235948  0.767678  0.759544  1
  Cu  Cu3  1  0.000000  0.000000  0.000000  1
  Cu  Cu4  1  0.764052  0.232322  0.240456  1
  As  As5  1  0.083294  0.527375  0.306942  1
  As  As6  1  0.916706  0.472625  0.693058  1
  As  As7  1  0.328647  0.298264  0.044877  1
  As  As8  1  0.671353  0.701736  0.955123  1
  O  O9  1  0.890660  0.353613  0.353024  1
  O  O10  1  0.882419  0.871218  0.884322  1
  O  O11  1  0.403678  0.353408  0.353060  1
  O  O12  1  0.145407  0.568581  0.141086  1
  O  O13  1  0.109340  0.646387  0.646976  1
  O  O14  1  0.912560  0.818189  0.357358  1
  O  O15  1  0.596322  0.646592  0.646940  1
  O  O16  1  0.638356  0.128644  0.115796  1
  O  O17  1  0.117581  0.128782  0.115678  1
  O  O18  1  0.361644  0.871356  0.884204  1
  O  O19  1  0.087440  0.181811  0.642642  1
  O  O20  1  0.854593  0.431419  0.858914  1
