# generated using pymatgen
data_CsEr(PO3)4
_symmetry_space_group_name_H-M   'P 1'
_cell_length_a   8.92294883
_cell_length_b   10.37716930
_cell_length_c   11.28069277
_cell_angle_alpha   106.70525819
_cell_angle_beta   90.00000000
_cell_angle_gamma   90.00000000
_symmetry_Int_Tables_number   1
_chemical_formula_structural   CsEr(PO3)4
_chemical_formula_sum   'Cs4 Er4 P16 O48'
_cell_volume   1000.45175203
_cell_formula_units_Z   4
loop_
 _symmetry_equiv_pos_site_id
 _symmetry_equiv_pos_as_xyz
  1  'x, y, z'
loop_
 _atom_site_type_symbol
 _atom_site_label
 _atom_site_symmetry_multiplicity
 _atom_site_fract_x
 _atom_site_fract_y
 _atom_site_fract_z
 _atom_site_occupancy
  Cs  Cs0  1  0.934949  0.178928  0.960571  1
  Cs  Cs1  1  0.434949  0.321072  0.539429  1
  Cs  Cs2  1  0.065051  0.821072  0.039429  1
  Cs  Cs3  1  0.565051  0.678928  0.460571  1
  Er  Er4  1  0.273801  0.496715  0.180885  1
  Er  Er5  1  0.226199  0.996715  0.680885  1
  Er  Er6  1  0.773801  0.003285  0.319115  1
  Er  Er7  1  0.726199  0.503285  0.819115  1
  P  P8  1  0.888214  0.326684  0.527476  1
  P  P9  1  0.327759  0.540284  0.870421  1
  P  P10  1  0.172241  0.040284  0.370421  1
  P  P11  1  0.910517  0.647694  0.256241  1
  P  P12  1  0.027309  0.255704  0.287499  1
  P  P13  1  0.672241  0.459716  0.129579  1
  P  P14  1  0.827759  0.959716  0.629579  1
  P  P15  1  0.388214  0.173316  0.972524  1
  P  P16  1  0.589483  0.147694  0.756241  1
  P  P17  1  0.527309  0.244296  0.212501  1
  P  P18  1  0.089483  0.352306  0.743759  1
  P  P19  1  0.472691  0.755704  0.787499  1
  P  P20  1  0.111786  0.673316  0.472524  1
  P  P21  1  0.972691  0.744296  0.712501  1
  P  P22  1  0.410517  0.852306  0.243759  1
  P  P23  1  0.611786  0.826684  0.027476  1
  O  O24  1  0.785829  0.435544  0.600658  1
  O  O25  1  0.660060  0.311153  0.150537  1
  O  O26  1  0.672792  0.686417  0.982806  1
  O  O27  1  0.160060  0.188847  0.349463  1
  O  O28  1  0.339940  0.688847  0.849463  1
  O  O29  1  0.791706  0.524845  0.239975  1
  O  O30  1  0.256551  0.559949  0.994375  1
  O  O31  1  0.173134  0.231682  0.755769  1
  O  O32  1  0.455407  0.098526  0.675681  1
  O  O33  1  0.044593  0.598526  0.175681  1
  O  O34  1  0.756551  0.940051  0.505625  1
  O  O35  1  0.095997  0.332957  0.207931  1
  O  O36  1  0.544593  0.901474  0.324319  1
  O  O37  1  0.084402  0.852319  0.772308  1
  O  O38  1  0.954283  0.670884  0.399526  1
  O  O39  1  0.172792  0.813583  0.517194  1
  O  O40  1  0.708294  0.024845  0.739975  1
  O  O41  1  0.972939  0.033991  0.661891  1
  O  O42  1  0.045847  0.635334  0.592490  1
  O  O43  1  0.915598  0.147681  0.227692  1
  O  O44  1  0.208294  0.475155  0.760025  1
  O  O45  1  0.327208  0.313583  0.017194  1
  O  O46  1  0.545717  0.170884  0.899526  1
  O  O47  1  0.839940  0.811153  0.650537  1
  O  O48  1  0.326866  0.731682  0.255769  1
  O  O49  1  0.673134  0.268318  0.744231  1
  O  O50  1  0.826866  0.768318  0.244231  1
  O  O51  1  0.454153  0.135334  0.092490  1
  O  O52  1  0.827208  0.186417  0.482806  1
  O  O53  1  0.955407  0.401474  0.824319  1
  O  O54  1  0.027061  0.966009  0.338109  1
  O  O55  1  0.954153  0.364666  0.407510  1
  O  O56  1  0.584402  0.647681  0.727692  1
  O  O57  1  0.243449  0.059949  0.494375  1
  O  O58  1  0.045717  0.329116  0.600474  1
  O  O59  1  0.743449  0.440051  0.005625  1
  O  O60  1  0.714171  0.935544  0.100658  1
  O  O61  1  0.214171  0.564456  0.399342  1
  O  O62  1  0.904003  0.667043  0.792069  1
  O  O63  1  0.472939  0.466009  0.838109  1
  O  O64  1  0.595997  0.167043  0.292069  1
  O  O65  1  0.291706  0.975155  0.260025  1
  O  O66  1  0.285829  0.064456  0.899342  1
  O  O67  1  0.415598  0.352319  0.272308  1
  O  O68  1  0.404003  0.832957  0.707931  1
  O  O69  1  0.527061  0.533991  0.161891  1
  O  O70  1  0.454283  0.829116  0.100474  1
  O  O71  1  0.545847  0.864666  0.907510  1
