# generated using pymatgen
data_CsHSO4
_symmetry_space_group_name_H-M   'P 1'
_cell_length_a   8.04394686
_cell_length_b   7.80018635
_cell_length_c   8.21086641
_cell_angle_alpha   90.00000000
_cell_angle_beta   90.00000000
_cell_angle_gamma   106.31603839
_symmetry_Int_Tables_number   1
_chemical_formula_structural   CsHSO4
_chemical_formula_sum   'Cs4 H4 S4 O16'
_cell_volume   494.43673511
_cell_formula_units_Z   4
loop_
 _symmetry_equiv_pos_site_id
 _symmetry_equiv_pos_as_xyz
  1  'x, y, z'
loop_
 _atom_site_type_symbol
 _atom_site_label
 _atom_site_symmetry_multiplicity
 _atom_site_fract_x
 _atom_site_fract_y
 _atom_site_fract_z
 _atom_site_occupancy
  Cs  Cs0  1  0.185284  0.229045  0.874190  1
  Cs  Cs1  1  0.314716  0.770955  0.374190  1
  Cs  Cs2  1  0.814716  0.770955  0.125810  1
  Cs  Cs3  1  0.685284  0.229045  0.625810  1
  S  S4  1  0.218948  0.232862  0.364818  1
  S  S5  1  0.281052  0.767138  0.864818  1
  S  S6  1  0.781052  0.767138  0.635182  1
  S  S7  1  0.718948  0.232862  0.135182  1
  O  O8  1  0.082668  0.330649  0.432948  1
  O  O9  1  0.417332  0.669351  0.932948  1
  O  O10  1  0.917332  0.669351  0.567052  1
  O  O11  1  0.582668  0.330649  0.067052  1
  O  O12  1  0.335139  0.366500  0.255583  1
  O  O13  1  0.164861  0.633500  0.755583  1
  O  O14  1  0.664861  0.633500  0.744417  1
  O  O15  1  0.835139  0.366500  0.244417  1
  O  O16  1  0.306992  0.197185  0.510862  1
  O  O17  1  0.193008  0.802815  0.010862  1
  O  O18  1  0.693008  0.802815  0.489138  1
  O  O19  1  0.806992  0.197185  0.989138  1
  O  O20  1  0.121724  0.073700  0.276090  1
  O  O21  1  0.378276  0.926300  0.776090  1
  O  O22  1  0.878276  0.926300  0.723910  1
  O  O23  1  0.621724  0.073700  0.223910  1
  H  H24  1  0.491425  0.334339  0.152764  1
  H  H25  1  1.008575  0.665661  0.652764  1
  H  H26  1  0.508575  0.665661  0.847236  1
  H  H27  1  -0.008575  0.334339  0.347236  1
