# generated using pymatgen
data_Fe(Se2O5)2
_symmetry_space_group_name_H-M   'P 1'
_cell_length_a   6.08586884
_cell_length_b   7.00232247
_cell_length_c   10.54704671
_cell_angle_alpha   89.99874389
_cell_angle_beta   90.00066384
_cell_angle_gamma   89.99996075
_symmetry_Int_Tables_number   1
_chemical_formula_structural   Fe(Se2O5)2
_chemical_formula_sum   'Fe2 Se8 O20'
_cell_volume   449.46467499
_cell_formula_units_Z   2
loop_
 _symmetry_equiv_pos_site_id
 _symmetry_equiv_pos_as_xyz
  1  'x, y, z'
loop_
 _atom_site_type_symbol
 _atom_site_label
 _atom_site_symmetry_multiplicity
 _atom_site_fract_x
 _atom_site_fract_y
 _atom_site_fract_z
 _atom_site_occupancy
  O  O0  1  0.573317  0.258403  0.131598  1
  O  O1  1  0.890976  0.819125  0.043374  1
  O  O2  1  0.999988  0.999987  0.268259  1
  O  O3  1  0.000014  0.499988  0.768279  1
  O  O4  1  0.109011  0.180884  0.043375  1
  O  O5  1  0.109037  0.319128  0.543404  1
  O  O6  1  0.164211  0.140723  0.763018  1
  O  O7  1  0.164181  0.359285  0.263048  1
  O  O8  1  0.263808  0.675477  0.399961  1
  O  O9  1  0.263791  0.824546  0.899954  1
  O  O10  1  0.426688  0.741574  0.131600  1
  O  O11  1  0.426671  0.758418  0.631584  1
  O  O12  1  0.499984  0.500002  0.920258  1
  O  O13  1  0.500008  0.999997  0.420232  1
  O  O14  1  0.573328  0.241558  0.631586  1
  O  O15  1  0.835832  0.640695  0.263049  1
  O  O16  1  0.736241  0.324532  0.399963  1
  O  O17  1  0.736151  0.175486  0.899952  1
  O  O18  1  0.835787  0.859267  0.763016  1
  O  O19  1  0.890982  0.680871  0.543404  1
  Fe  Fe20  1  0.000037  0.500004  0.400284  1
  Fe  Fe21  1  0.999954  0.000026  0.900174  1
  Se  Se22  1  0.217849  0.149539  0.191872  1
  Se  Se23  1  0.217919  0.350521  0.691890  1
  Se  Se24  1  0.288591  0.645915  0.008850  1
  Se  Se25  1  0.288590  0.854152  0.508839  1
  Se  Se26  1  0.711422  0.145864  0.508828  1
  Se  Se27  1  0.711392  0.354112  0.008865  1
  Se  Se28  1  0.782093  0.649472  0.691890  1
  Se  Se29  1  0.782147  0.850448  0.191870  1
