# generated using pymatgen
data_SiO2
_symmetry_space_group_name_H-M   'P 1'
_cell_length_a   4.76924033
_cell_length_b   5.92189309
_cell_length_c   5.92189283
_cell_angle_alpha   95.21747550
_cell_angle_beta   90.00000000
_cell_angle_gamma   90.00000000
_symmetry_Int_Tables_number   1
_chemical_formula_structural   SiO2
_chemical_formula_sum   'Si4 O8'
_cell_volume   166.55864060
_cell_formula_units_Z   4
loop_
 _symmetry_equiv_pos_site_id
 _symmetry_equiv_pos_as_xyz
  1  'x, y, z'
loop_
 _atom_site_type_symbol
 _atom_site_label
 _atom_site_symmetry_multiplicity
 _atom_site_fract_x
 _atom_site_fract_y
 _atom_site_fract_z
 _atom_site_occupancy
  Si  Si0  1  0.363665  0.031011  0.347873  1
  Si  Si1  1  0.863665  0.968989  0.652127  1
  Si  Si2  1  0.136335  0.652127  0.968989  1
  Si  Si3  1  0.636335  0.347873  0.031011  1
  O  O4  1  0.396744  0.482045  0.898218  1
  O  O5  1  0.603256  0.898218  0.482045  1
  O  O6  1  0.000000  0.739995  0.739995  1
  O  O7  1  0.896744  0.517955  0.101782  1
  O  O8  1  0.103256  0.101782  0.517955  1
  O  O9  1  0.250000  0.867912  0.132088  1
  O  O10  1  0.500000  0.260005  0.260005  1
  O  O11  1  0.750000  0.132088  0.867912  1
