# generated using pymatgen
data_SN
_symmetry_space_group_name_H-M   'P 1'
_cell_length_a   7.70690320
_cell_length_b   9.18379773
_cell_length_c   9.40390002
_cell_angle_alpha   92.44426995
_cell_angle_beta   90.00000000
_cell_angle_gamma   90.00000000
_symmetry_Int_Tables_number   1
_chemical_formula_structural   SN
_chemical_formula_sum   'S16 N16'
_cell_volume   664.98968107
_cell_formula_units_Z   16
loop_
 _symmetry_equiv_pos_site_id
 _symmetry_equiv_pos_as_xyz
  1  'x, y, z'
loop_
 _atom_site_type_symbol
 _atom_site_label
 _atom_site_symmetry_multiplicity
 _atom_site_fract_x
 _atom_site_fract_y
 _atom_site_fract_z
 _atom_site_occupancy
  S  S0  1  0.912723  0.296340  0.011466  1
  S  S1  1  0.412723  0.203660  0.488534  1
  S  S2  1  0.087277  0.703660  0.988534  1
  S  S3  1  0.587277  0.796340  0.511466  1
  S  S4  1  0.715748  0.094140  0.143296  1
  S  S5  1  0.215748  0.405860  0.356704  1
  S  S6  1  0.284252  0.905860  0.856704  1
  S  S7  1  0.784252  0.594140  0.643296  1
  S  S8  1  0.787882  0.065506  0.858534  1
  S  S9  1  0.287882  0.434494  0.641466  1
  S  S10  1  0.212118  0.934494  0.141466  1
  S  S11  1  0.712118  0.565506  0.358534  1
  S  S12  1  0.563688  0.274525  0.963330  1
  S  S13  1  0.063688  0.225475  0.536670  1
  S  S14  1  0.436312  0.725475  0.036670  1
  S  S15  1  0.936312  0.774525  0.463330  1
  N  N16  1  0.758362  0.983769  0.007193  1
  N  N17  1  0.258362  0.516231  0.492807  1
  N  N18  1  0.241638  0.016231  0.992807  1
  N  N19  1  0.741638  0.483769  0.507193  1
  N  N20  1  0.731690  0.381311  0.981168  1
  N  N21  1  0.231690  0.118689  0.518832  1
  N  N22  1  0.268310  0.618689  0.018832  1
  N  N23  1  0.768310  0.881311  0.481168  1
  N  N24  1  0.611496  0.158352  0.832929  1
  N  N25  1  0.111496  0.341648  0.667071  1
  N  N26  1  0.388504  0.841648  0.167071  1
  N  N27  1  0.888504  0.658352  0.332929  1
  N  N28  1  0.878727  0.206735  0.155076  1
  N  N29  1  0.378727  0.293265  0.344924  1
  N  N30  1  0.121273  0.793265  0.844924  1
  N  N31  1  0.621273  0.706735  0.655076  1
