# generated using pymatgen
data_La20C20Cl13
_symmetry_space_group_name_H-M   'P 1'
_cell_length_a   6.94968457
_cell_length_b   7.82178727
_cell_length_c   43.17939703
_cell_angle_alpha   90.00000000
_cell_angle_beta   90.00000000
_cell_angle_gamma   104.23899752
_symmetry_Int_Tables_number   1
_chemical_formula_structural   La20C20Cl13
_chemical_formula_sum   'La40 C40 Cl26'
_cell_volume   2275.07697228
_cell_formula_units_Z   2
loop_
 _symmetry_equiv_pos_site_id
 _symmetry_equiv_pos_as_xyz
  1  'x, y, z'
loop_
 _atom_site_type_symbol
 _atom_site_label
 _atom_site_symmetry_multiplicity
 _atom_site_fract_x
 _atom_site_fract_y
 _atom_site_fract_z
 _atom_site_occupancy
  La  La0  1  0.392950  0.857089  0.771681  1
  La  La1  1  0.362668  0.835696  0.171848  1
  La  La2  1  0.891571  0.705609  0.929961  1
  La  La3  1  0.873436  0.915941  0.422626  1
  La  La4  1  0.118416  0.224189  0.480019  1
  La  La5  1  0.885341  0.783527  0.822846  1
  La  La6  1  0.373436  0.915941  0.077374  1
  La  La7  1  0.107050  0.142911  0.271681  1
  La  La8  1  0.123717  0.154844  0.972656  1
  La  La9  1  0.637332  0.164304  0.828152  1
  La  La10  1  0.137332  0.164304  0.671848  1
  La  La11  1  0.124101  0.238190  0.780039  1
  La  La12  1  0.623717  0.154844  0.527344  1
  La  La13  1  0.114659  0.216473  0.177154  1
  La  La14  1  0.376283  0.845156  0.472656  1
  La  La15  1  0.391571  0.705609  0.570039  1
  La  La16  1  0.607050  0.142911  0.228319  1
  La  La17  1  0.381584  0.775811  0.980019  1
  La  La18  1  0.608429  0.294391  0.429961  1
  La  La19  1  0.881584  0.775811  0.519981  1
  La  La20  1  0.892950  0.857089  0.728319  1
  La  La21  1  0.385341  0.783527  0.677154  1
  La  La22  1  0.600595  0.291502  0.130233  1
  La  La23  1  0.399405  0.708498  0.869767  1
  La  La24  1  0.626564  0.084059  0.922626  1
  La  La25  1  0.127894  0.089989  0.878970  1
  La  La26  1  0.899405  0.708498  0.630233  1
  La  La27  1  0.872106  0.910011  0.121030  1
  La  La28  1  0.875899  0.761810  0.219961  1
  La  La29  1  0.614659  0.216473  0.322846  1
  La  La30  1  0.372106  0.910011  0.378970  1
  La  La31  1  0.100595  0.291502  0.369767  1
  La  La32  1  0.624101  0.238190  0.719961  1
  La  La33  1  0.126564  0.084059  0.577374  1
  La  La34  1  0.876283  0.845156  0.027344  1
  La  La35  1  0.627894  0.089989  0.621030  1
  La  La36  1  0.618416  0.224189  0.019981  1
  La  La37  1  0.108429  0.294391  0.070039  1
  La  La38  1  0.862668  0.835696  0.328152  1
  La  La39  1  0.375899  0.761810  0.280039  1
  C  C40  1  0.719687  0.020368  0.984903  1
  C  C41  1  0.712787  0.019744  0.285536  1
  C  C42  1  0.217153  0.141377  0.113240  1
  C  C43  1  0.761572  0.912429  0.263651  1
  C  C44  1  0.219687  0.020368  0.515097  1
  C  C45  1  0.269009  0.043041  0.436151  1
  C  C46  1  0.267413  0.966819  0.316230  1
  C  C47  1  0.217765  0.146374  0.414034  1
  C  C48  1  0.780313  0.979632  0.484903  1
  C  C49  1  0.238428  0.087571  0.736349  1
  C  C50  1  0.235528  0.967783  0.635018  1
  C  C51  1  0.782847  0.858623  0.886760  1
  C  C52  1  0.738428  0.087571  0.763651  1
  C  C53  1  0.282847  0.858623  0.613240  1
  C  C54  1  0.720308  0.094029  0.465805  1
  C  C55  1  0.287213  0.980256  0.714464  1
  C  C56  1  0.261572  0.912429  0.236349  1
  C  C57  1  0.289675  0.915827  0.834332  1
  C  C58  1  0.717153  0.141377  0.386760  1
  C  C59  1  0.735528  0.967783  0.864982  1
  C  C60  1  0.769009  0.043041  0.063849  1
  C  C61  1  0.282235  0.853626  0.914034  1
  C  C62  1  0.779692  0.905971  0.965805  1
  C  C63  1  0.232587  0.033181  0.816230  1
  C  C64  1  0.220308  0.094029  0.034195  1
  C  C65  1  0.782235  0.853626  0.585966  1
  C  C66  1  0.280313  0.979632  0.015097  1
  C  C67  1  0.732587  0.033181  0.683770  1
  C  C68  1  0.710325  0.084173  0.165668  1
  C  C69  1  0.279692  0.905971  0.534195  1
  C  C70  1  0.212787  0.019744  0.214464  1
  C  C71  1  0.210325  0.084173  0.334332  1
  C  C72  1  0.264472  0.032217  0.135018  1
  C  C73  1  0.730991  0.956959  0.563849  1
  C  C74  1  0.764472  0.032217  0.364982  1
  C  C75  1  0.787213  0.980256  0.785536  1
  C  C76  1  0.717765  0.146374  0.085966  1
  C  C77  1  0.789675  0.915827  0.665668  1
  C  C78  1  0.230991  0.956959  0.936151  1
  C  C79  1  0.767413  0.966819  0.183770  1
  Cl  Cl80  1  -0.000084  0.476705  0.308289  1
  Cl  Cl81  1  0.976318  0.642311  0.079479  1
  Cl  Cl82  1  1.000084  0.523295  0.691711  1
  Cl  Cl83  1  0.476318  0.642311  0.420521  1
  Cl  Cl84  1  0.477298  0.585305  0.038097  1
  Cl  Cl85  1  0.995973  0.590194  0.769147  1
  Cl  Cl86  1  0.500084  0.523295  0.808289  1
  Cl  Cl87  1  0.023682  0.357689  0.920521  1
  Cl  Cl88  1  0.476368  0.578038  0.342629  1
  Cl  Cl89  1  0.022702  0.414695  0.538097  1
  Cl  Cl90  1  0.000000  0.500000  0.000000  1
  Cl  Cl91  1  0.473843  0.642150  0.117383  1
  Cl  Cl92  1  0.023632  0.421962  0.842629  1
  Cl  Cl93  1  0.526157  0.357850  0.882617  1
  Cl  Cl94  1  0.523682  0.357689  0.579479  1
  Cl  Cl95  1  0.495973  0.590194  0.730853  1
  Cl  Cl96  1  0.522702  0.414695  0.961903  1
  Cl  Cl97  1  0.976368  0.578038  0.157371  1
  Cl  Cl98  1  0.004027  0.409806  0.230853  1
  Cl  Cl99  1  0.499916  0.476705  0.191711  1
  Cl  Cl100  1  0.504027  0.409806  0.269147  1
  Cl  Cl101  1  0.523632  0.421962  0.657371  1
  Cl  Cl102  1  0.026157  0.357850  0.617383  1
  Cl  Cl103  1  0.500000  0.500000  0.500000  1
  Cl  Cl104  1  0.973843  0.642150  0.382617  1
  Cl  Cl105  1  0.977298  0.585305  0.461903  1
