# generated using pymatgen
data_CsZr2(PO4)3
_symmetry_space_group_name_H-M   'P 1'
_cell_length_a   9.79488858
_cell_length_b   9.79488847
_cell_length_c   9.79488869
_cell_angle_alpha   53.15988967
_cell_angle_beta   53.15989017
_cell_angle_gamma   53.15989025
_symmetry_Int_Tables_number   1
_chemical_formula_structural   CsZr2(PO4)3
_chemical_formula_sum   'Cs2 Zr4 P6 O24'
_cell_volume   558.00632641
_cell_formula_units_Z   2
loop_
 _symmetry_equiv_pos_site_id
 _symmetry_equiv_pos_as_xyz
  1  'x, y, z'
loop_
 _atom_site_type_symbol
 _atom_site_label
 _atom_site_symmetry_multiplicity
 _atom_site_fract_x
 _atom_site_fract_y
 _atom_site_fract_z
 _atom_site_occupancy
  Cs  Cs0  1  0.000000  0.000000  0.000000  1
  Cs  Cs1  1  0.500000  0.500000  0.500000  1
  Zr  Zr2  1  0.152204  0.152204  0.152204  1
  Zr  Zr3  1  0.652204  0.652204  0.652204  1
  Zr  Zr4  1  0.347796  0.347796  0.347796  1
  Zr  Zr5  1  0.847796  0.847796  0.847796  1
  P  P6  1  0.966695  0.533305  0.250000  1
  P  P7  1  0.250000  0.966695  0.533305  1
  P  P8  1  0.533305  0.250000  0.966695  1
  P  P9  1  0.750000  0.033305  0.466695  1
  P  P10  1  0.033305  0.466695  0.750000  1
  P  P11  1  0.466695  0.750000  0.033305  1
  O  O12  1  0.576058  0.194052  0.424673  1
  O  O13  1  0.423942  0.805948  0.575327  1
  O  O14  1  0.738166  0.013295  0.642104  1
  O  O15  1  0.923942  0.075327  0.305948  1
  O  O16  1  0.642104  0.738166  0.013295  1
  O  O17  1  0.924673  0.694052  0.076058  1
  O  O18  1  0.013295  0.642104  0.738166  1
  O  O19  1  0.424673  0.576058  0.194052  1
  O  O20  1  0.486705  0.761834  0.857896  1
  O  O21  1  0.805948  0.575327  0.423942  1
  O  O22  1  0.238166  0.142104  0.513295  1
  O  O23  1  0.305948  0.923942  0.075327  1
  O  O24  1  0.575327  0.423942  0.805948  1
  O  O25  1  0.857896  0.486705  0.761834  1
  O  O26  1  0.261834  0.986705  0.357896  1
  O  O27  1  0.986705  0.357896  0.261834  1
  O  O28  1  0.357896  0.261834  0.986705  1
  O  O29  1  0.076058  0.924673  0.694052  1
  O  O30  1  0.142104  0.513295  0.238166  1
  O  O31  1  0.694052  0.076058  0.924673  1
  O  O32  1  0.513295  0.238166  0.142104  1
  O  O33  1  0.075327  0.305948  0.923942  1
  O  O34  1  0.761834  0.857896  0.486705  1
  O  O35  1  0.194052  0.424673  0.576058  1
