# generated using pymatgen
data_Li2Ti6PbO14
_symmetry_space_group_name_H-M   'P 1'
_cell_length_a   10.11515301
_cell_length_b   10.11515272
_cell_length_c   11.58466836
_cell_angle_alpha   90.00000000
_cell_angle_beta   90.00000000
_cell_angle_gamma   112.49318943
_symmetry_Int_Tables_number   1
_chemical_formula_structural   Li2Ti6PbO14
_chemical_formula_sum   'Li8 Ti24 Pb4 O56'
_cell_volume   1095.12887832
_cell_formula_units_Z   4
loop_
 _symmetry_equiv_pos_site_id
 _symmetry_equiv_pos_as_xyz
  1  'x, y, z'
loop_
 _atom_site_type_symbol
 _atom_site_label
 _atom_site_symmetry_multiplicity
 _atom_site_fract_x
 _atom_site_fract_y
 _atom_site_fract_z
 _atom_site_occupancy
  Li  Li0  1  0.058948  0.431338  0.123638  1
  Li  Li1  1  0.441052  0.068662  0.623638  1
  Li  Li2  1  0.558948  0.931338  0.376362  1
  Li  Li3  1  0.931338  0.558948  0.376362  1
  Li  Li4  1  0.568662  0.941052  0.876362  1
  Li  Li5  1  0.941052  0.568662  0.876362  1
  Li  Li6  1  0.068662  0.441052  0.623638  1
  Li  Li7  1  0.431338  0.058948  0.123638  1
  Ti  Ti8  1  0.989298  0.775211  0.116965  1
  Ti  Ti9  1  0.756780  0.256780  0.750000  1
  Ti  Ti10  1  0.768979  0.986629  0.635565  1
  Ti  Ti11  1  0.256780  0.756780  0.750000  1
  Ti  Ti12  1  0.513371  0.731021  0.135565  1
  Ti  Ti13  1  0.743220  0.243220  0.250000  1
  Ti  Ti14  1  0.256369  0.743631  0.000000  1
  Ti  Ti15  1  0.224789  0.010702  0.883035  1
  Ti  Ti16  1  0.243631  0.756369  0.500000  1
  Ti  Ti17  1  0.243220  0.743220  0.250000  1
  Ti  Ti18  1  0.986629  0.768979  0.635565  1
  Ti  Ti19  1  0.010702  0.224789  0.883035  1
  Ti  Ti20  1  0.775211  0.989298  0.116965  1
  Ti  Ti21  1  0.743631  0.256369  0.000000  1
  Ti  Ti22  1  0.275211  0.489298  0.383035  1
  Ti  Ti23  1  0.756369  0.243631  0.500000  1
  Ti  Ti24  1  0.486629  0.268979  0.864435  1
  Ti  Ti25  1  0.731021  0.513371  0.135565  1
  Ti  Ti26  1  0.013371  0.231021  0.364435  1
  Ti  Ti27  1  0.724789  0.510702  0.616965  1
  Ti  Ti28  1  0.231021  0.013371  0.364435  1
  Ti  Ti29  1  0.489298  0.275211  0.383035  1
  Ti  Ti30  1  0.510702  0.724789  0.616965  1
  Ti  Ti31  1  0.268979  0.486629  0.864435  1
  Pb  Pb32  1  0.341797  0.341797  0.120385  1
  Pb  Pb33  1  0.158203  0.158203  0.620385  1
  Pb  Pb34  1  0.658203  0.658203  0.879615  1
  Pb  Pb35  1  0.841797  0.841797  0.379615  1
  O  O36  1  0.640218  0.857430  0.737715  1
  O  O37  1  0.140218  0.357430  0.762285  1
  O  O38  1  0.139829  0.355833  0.485276  1
  O  O39  1  0.619038  0.145831  0.377327  1
  O  O40  1  0.860171  0.644167  0.514724  1
  O  O41  1  0.644167  0.860171  0.514724  1
  O  O42  1  0.120208  0.651612  0.627458  1
  O  O43  1  0.363858  0.628900  0.250216  1
  O  O44  1  0.380962  0.854169  0.622673  1
  O  O45  1  0.410995  0.410995  0.369487  1
  O  O46  1  0.880962  0.354169  0.877327  1
  O  O47  1  0.359782  0.142570  0.262285  1
  O  O48  1  0.589005  0.589005  0.630513  1
  O  O49  1  0.866278  0.133722  0.000000  1
  O  O50  1  0.636142  0.371100  0.749784  1
  O  O51  1  0.371100  0.636142  0.749784  1
  O  O52  1  0.417299  0.417299  0.878576  1
  O  O53  1  0.582701  0.582701  0.121424  1
  O  O54  1  0.089005  0.089005  0.869487  1
  O  O55  1  0.628900  0.363858  0.250216  1
  O  O56  1  0.848388  0.379792  0.127458  1
  O  O57  1  0.366278  0.633722  0.500000  1
  O  O58  1  0.379792  0.848388  0.127458  1
  O  O59  1  0.144167  0.360171  0.985276  1
  O  O60  1  0.869106  0.130894  0.500000  1
  O  O61  1  0.360171  0.144167  0.985276  1
  O  O62  1  0.620208  0.151612  0.872542  1
  O  O63  1  0.369106  0.630894  0.000000  1
  O  O64  1  0.348388  0.879792  0.372542  1
  O  O65  1  0.082701  0.082701  0.378576  1
  O  O66  1  0.130894  0.869106  0.500000  1
  O  O67  1  0.917299  0.917299  0.621424  1
  O  O68  1  0.133722  0.866278  0.000000  1
  O  O69  1  0.355833  0.139829  0.485276  1
  O  O70  1  0.119038  0.645831  0.122673  1
  O  O71  1  0.151612  0.620208  0.872542  1
  O  O72  1  0.633722  0.366278  0.500000  1
  O  O73  1  0.642570  0.859782  0.237715  1
  O  O74  1  0.651612  0.120208  0.627458  1
  O  O75  1  0.639829  0.855833  0.014724  1
  O  O76  1  0.136142  0.871100  0.750216  1
  O  O77  1  0.879792  0.348388  0.372542  1
  O  O78  1  0.910995  0.910995  0.130513  1
  O  O79  1  0.855833  0.639829  0.014724  1
  O  O80  1  0.871100  0.136142  0.750216  1
  O  O81  1  0.645831  0.119038  0.122673  1
  O  O82  1  0.145831  0.619038  0.377327  1
  O  O83  1  0.142570  0.359782  0.262285  1
  O  O84  1  0.854169  0.380962  0.622673  1
  O  O85  1  0.857430  0.640218  0.737715  1
  O  O86  1  0.354169  0.880962  0.877327  1
  O  O87  1  0.863858  0.128900  0.249784  1
  O  O88  1  0.630894  0.369106  0.000000  1
  O  O89  1  0.859782  0.642570  0.237715  1
  O  O90  1  0.128900  0.863858  0.249784  1
  O  O91  1  0.357430  0.140218  0.762285  1
