# generated using pymatgen
data_Ca(ClO2)2
_symmetry_space_group_name_H-M   'P 1'
_cell_length_a   5.78997627
_cell_length_b   5.81381293
_cell_length_c   7.17893201
_cell_angle_alpha   113.88623533
_cell_angle_beta   90.00000000
_cell_angle_gamma   90.00000000
_symmetry_Int_Tables_number   1
_chemical_formula_structural   Ca(ClO2)2
_chemical_formula_sum   'Ca2 Cl4 O8'
_cell_volume   220.95851622
_cell_formula_units_Z   2
loop_
 _symmetry_equiv_pos_site_id
 _symmetry_equiv_pos_as_xyz
  1  'x, y, z'
loop_
 _atom_site_type_symbol
 _atom_site_label
 _atom_site_symmetry_multiplicity
 _atom_site_fract_x
 _atom_site_fract_y
 _atom_site_fract_z
 _atom_site_occupancy
  Ca  Ca0  1  0.750000  0.250000  0.500000  1
  Ca  Ca1  1  0.250000  0.750000  0.500000  1
  Cl  Cl2  1  0.250000  0.087498  0.174997  1
  Cl  Cl3  1  0.750000  0.587498  0.174997  1
  Cl  Cl4  1  0.250000  0.412502  0.825003  1
  Cl  Cl5  1  0.750000  0.912502  0.825003  1
  O  O6  1  0.409396  0.995241  0.310705  1
  O  O7  1  0.409396  0.504759  0.689295  1
  O  O8  1  0.590604  0.004759  0.689295  1
  O  O9  1  0.090604  0.184536  0.689295  1
  O  O10  1  0.909396  0.684536  0.689295  1
  O  O11  1  0.909396  0.815464  0.310705  1
  O  O12  1  0.590604  0.495241  0.310705  1
  O  O13  1  0.090604  0.315464  0.310705  1
