# generated using pymatgen
data_Na15S5Cl(O5F)4
_symmetry_space_group_name_H-M   'P 1'
_cell_length_a   12.32685838
_cell_length_b   12.32685851
_cell_length_c   14.15477481
_cell_angle_alpha   90.00000000
_cell_angle_beta   90.00000000
_cell_angle_gamma   119.99999964
_symmetry_Int_Tables_number   1
_chemical_formula_structural   Na15S5Cl(O5F)4
_chemical_formula_sum   'Na45 S15 Cl3 O60 F12'
_cell_volume   1862.68070353
_cell_formula_units_Z   3
loop_
 _symmetry_equiv_pos_site_id
 _symmetry_equiv_pos_as_xyz
  1  'x, y, z'
loop_
 _atom_site_type_symbol
 _atom_site_label
 _atom_site_symmetry_multiplicity
 _atom_site_fract_x
 _atom_site_fract_y
 _atom_site_fract_z
 _atom_site_occupancy
  Na  Na0  1  0.852413  0.522269  0.142718  1
  Na  Na1  1  0.667479  0.846891  0.329800  1
  Na  Na2  1  0.330144  0.477731  0.142718  1
  Na  Na3  1  0.828004  0.665932  0.713444  1
  Na  Na4  1  0.000000  0.817216  0.524141  1
  Na  Na5  1  0.846891  0.667479  0.329800  1
  Na  Na6  1  0.484583  0.484583  0.716156  1
  Na  Na7  1  0.663895  0.510065  0.909597  1
  Na  Na8  1  0.336105  0.846170  0.909597  1
  Na  Na9  1  0.332840  0.484950  0.530477  1
  Na  Na10  1  0.489935  0.153830  0.909597  1
  Na  Na11  1  0.820588  0.153109  0.329800  1
  Na  Na12  1  0.179412  0.332521  0.329800  1
  Na  Na13  1  0.477731  0.330144  0.142718  1
  Na  Na14  1  1.000000  0.824538  0.133399  1
  Na  Na15  1  0.817216  0.000000  0.524141  1
  Na  Na16  1  0.190192  0.000000  0.896480  1
  Na  Na17  1  0.481837  0.481837  0.324663  1
  Na  Na18  1  0.000000  0.190192  0.896480  1
  Na  Na19  1  0.484950  0.332840  0.530477  1
  Na  Na20  1  0.182784  0.182784  0.524141  1
  Na  Na21  1  0.162073  0.334068  0.713444  1
  Na  Na22  1  0.000000  0.515417  0.716156  1
  Na  Na23  1  0.332521  0.179412  0.329800  1
  Na  Na24  1  0.837927  0.171996  0.713444  1
  Na  Na25  1  0.809808  0.809808  0.896480  1
  Na  Na26  1  0.518163  0.000000  0.324663  1
  Na  Na27  1  0.153830  0.489935  0.909597  1
  Na  Na28  1  0.515417  0.000000  0.716156  1
  Na  Na29  1  0.153109  0.820588  0.329800  1
  Na  Na30  1  0.334068  0.162073  0.713444  1
  Na  Na31  1  0.147587  0.669856  0.142718  1
  Na  Na32  1  0.669856  0.147587  0.142718  1
  Na  Na33  1  0.667160  0.152111  0.530477  1
  Na  Na34  1  0.847889  0.515050  0.530477  1
  Na  Na35  1  0.515050  0.847889  0.530477  1
  Na  Na36  1  0.152111  0.667160  0.530477  1
  Na  Na37  1  0.824538  0.000000  0.133399  1
  Na  Na38  1  0.171996  0.837927  0.713444  1
  Na  Na39  1  0.175462  0.175462  0.133399  1
  Na  Na40  1  1.000000  0.518163  0.324663  1
  Na  Na41  1  0.522269  0.852413  0.142718  1
  Na  Na42  1  0.665932  0.828004  0.713444  1
  Na  Na43  1  0.846170  0.336105  0.909597  1
  Na  Na44  1  0.510065  0.663895  0.909597  1
  S  S45  1  1.000000  0.668774  0.917564  1
  S  S46  1  0.336814  0.000000  0.507589  1
  S  S47  1  0.665410  0.665410  0.125340  1
  S  S48  1  0.333333  0.666667  0.722259  1
  S  S49  1  0.668774  0.000000  0.917564  1
  S  S50  1  0.000000  0.000000  0.699720  1
  S  S51  1  0.663186  0.663186  0.507589  1
  S  S52  1  0.000000  0.336814  0.507589  1
  S  S53  1  0.334590  0.000000  0.125340  1
  S  S54  1  0.333333  0.666667  0.345115  1
  S  S55  1  0.666667  0.333333  0.345115  1
  S  S56  1  0.666667  0.333333  0.722259  1
  S  S57  1  0.000000  0.334590  0.125340  1
  S  S58  1  0.000000  0.000000  0.328779  1
  S  S59  1  0.331226  0.331226  0.917564  1
  Cl  Cl60  1  0.666667  0.333333  0.043333  1
  Cl  Cl61  1  0.333333  0.666667  0.043333  1
  Cl  Cl62  1  0.000000  0.000000  0.998719  1
  O  O63  1  0.672046  0.000000  0.022724  1
  O  O64  1  0.220552  0.885822  0.539739  1
  O  O65  1  0.551145  0.330865  0.687657  1
  O  O66  1  0.330865  0.551145  0.687657  1
  O  O67  1  0.449073  0.779382  0.310411  1
  O  O68  1  0.220280  0.669135  0.687657  1
  O  O69  1  0.551513  0.551513  0.548218  1
  O  O70  1  0.669135  0.220280  0.687657  1
  O  O71  1  1.000000  0.448487  0.548218  1
  O  O72  1  0.666667  0.333333  0.827950  1
  O  O73  1  0.114488  0.000000  0.734215  1
  O  O74  1  1.000000  0.335261  0.019453  1
  O  O75  1  0.885356  0.666746  0.880321  1
  O  O76  1  0.779448  0.665270  0.539739  1
  O  O77  1  0.218611  0.333254  0.880321  1
  O  O78  1  0.666746  0.885356  0.880321  1
  O  O79  1  0.327954  0.327954  0.022724  1
  O  O80  1  0.000000  0.114488  0.734215  1
  O  O81  1  0.665270  0.779448  0.539739  1
  O  O82  1  0.779933  0.666411  0.160779  1
  O  O83  1  0.000000  0.448703  0.160993  1
  O  O84  1  0.779382  0.449073  0.310411  1
  O  O85  1  0.448487  0.000000  0.548218  1
  O  O86  1  1.000000  0.342911  0.401602  1
  O  O87  1  0.114644  0.781389  0.880321  1
  O  O88  1  0.335261  0.000000  0.019453  1
  O  O89  1  0.666411  0.779933  0.160779  1
  O  O90  1  0.333254  0.218611  0.880321  1
  O  O91  1  0.886478  0.220067  0.160779  1
  O  O92  1  0.220067  0.886478  0.160779  1
  O  O93  1  0.000000  0.885684  0.363823  1
  O  O94  1  0.666667  0.333333  0.451512  1
  O  O95  1  0.333333  0.666667  0.451512  1
  O  O96  1  0.664739  0.664739  0.019453  1
  O  O97  1  0.000000  0.000000  0.593578  1
  O  O98  1  0.448855  0.779720  0.687657  1
  O  O99  1  0.885512  0.885512  0.734215  1
  O  O100  1  0.885684  0.000000  0.363823  1
  O  O101  1  0.113522  0.333589  0.160779  1
  O  O102  1  0.114316  0.114316  0.363823  1
  O  O103  1  0.551297  0.551297  0.160993  1
  O  O104  1  0.779720  0.448855  0.687657  1
  O  O105  1  0.550927  0.330309  0.310411  1
  O  O106  1  0.000000  0.000000  0.223047  1
  O  O107  1  0.330309  0.550927  0.310411  1
  O  O108  1  0.342911  0.000000  0.401602  1
  O  O109  1  0.885822  0.220552  0.539739  1
  O  O110  1  0.000000  0.672046  0.022724  1
  O  O111  1  0.657089  0.657089  0.401602  1
  O  O112  1  0.446494  0.446494  0.884622  1
  O  O113  1  0.000000  0.553506  0.884622  1
  O  O114  1  0.553506  0.000000  0.884622  1
  O  O115  1  0.333333  0.666667  0.827950  1
  O  O116  1  0.669691  0.220618  0.310411  1
  O  O117  1  0.781389  0.114644  0.880321  1
  O  O118  1  0.333589  0.113522  0.160779  1
  O  O119  1  0.334730  0.114178  0.539739  1
  O  O120  1  0.448703  0.000000  0.160993  1
  O  O121  1  0.220618  0.669691  0.310411  1
  O  O122  1  0.114178  0.334730  0.539739  1
  F  F123  1  0.340543  0.340543  0.432686  1
  F  F124  1  0.652708  0.652708  0.792424  1
  F  F125  1  0.347292  0.000000  0.792424  1
  F  F126  1  0.659457  0.000000  0.432686  1
  F  F127  1  0.000000  0.659457  0.432686  1
  F  F128  1  0.316028  0.316028  0.641394  1
  F  F129  1  0.683972  0.000000  0.641394  1
  F  F130  1  1.000000  0.347292  0.792424  1
  F  F131  1  0.000000  0.683972  0.641394  1
  F  F132  1  0.323284  0.323284  0.232205  1
  F  F133  1  0.676716  0.000000  0.232205  1
  F  F134  1  0.000000  0.676716  0.232205  1
