# generated using pymatgen
data_Bi4RuBr2
_symmetry_space_group_name_H-M   'P 1'
_cell_length_a   6.87944814
_cell_length_b   8.89436564
_cell_length_c   9.11700584
_cell_angle_alpha   75.75948634
_cell_angle_beta   67.84822409
_cell_angle_gamma   67.23695492
_symmetry_Int_Tables_number   1
_chemical_formula_structural   Bi4RuBr2
_chemical_formula_sum   'Bi8 Ru2 Br4'
_cell_volume   473.15180486
_cell_formula_units_Z   2
loop_
 _symmetry_equiv_pos_site_id
 _symmetry_equiv_pos_as_xyz
  1  'x, y, z'
loop_
 _atom_site_type_symbol
 _atom_site_label
 _atom_site_symmetry_multiplicity
 _atom_site_fract_x
 _atom_site_fract_y
 _atom_site_fract_z
 _atom_site_occupancy
  Bi  Bi0  1  0.554601  0.758805  0.132098  1
  Bi  Bi1  1  0.445399  0.241195  0.867902  1
  Bi  Bi2  1  0.663536  0.892503  0.780331  1
  Bi  Bi3  1  0.336464  0.107497  0.219669  1
  Bi  Bi4  1  0.171880  0.725244  0.931164  1
  Bi  Bi5  1  0.828120  0.274756  0.068836  1
  Bi  Bi6  1  0.913976  0.895122  0.277176  1
  Bi  Bi7  1  0.086024  0.104878  0.722824  1
  Ru  Ru8  1  0.208992  0.000033  1.000002  1
  Ru  Ru9  1  0.791008  0.999967  -0.000002  1
  Br  Br10  1  0.106163  0.531276  0.257299  1
  Br  Br11  1  0.893837  0.468724  0.742701  1
  Br  Br12  1  0.321813  0.786738  0.569933  1
  Br  Br13  1  0.678187  0.213262  0.430067  1
