# generated using pymatgen
data_CsAlF4
_symmetry_space_group_name_H-M   'P 1'
_cell_length_a   6.85267420
_cell_length_b   10.78666642
_cell_length_c   17.86152912
_cell_angle_alpha   90.00000000
_cell_angle_beta   90.00000000
_cell_angle_gamma   90.00000000
_symmetry_Int_Tables_number   1
_chemical_formula_structural   CsAlF4
_chemical_formula_sum   'Cs12 Al12 F48'
_cell_volume   1320.27976949
_cell_formula_units_Z   12
loop_
 _symmetry_equiv_pos_site_id
 _symmetry_equiv_pos_as_xyz
  1  'x, y, z'
loop_
 _atom_site_type_symbol
 _atom_site_label
 _atom_site_symmetry_multiplicity
 _atom_site_fract_x
 _atom_site_fract_y
 _atom_site_fract_z
 _atom_site_occupancy
  Cs  Cs0  1  0.250000  0.881056  0.456959  1
  Cs  Cs1  1  0.250000  0.191221  0.816375  1
  Cs  Cs2  1  0.750000  0.118944  0.543041  1
  Cs  Cs3  1  0.750000  0.429683  0.727682  1
  Cs  Cs4  1  0.750000  0.929683  0.772318  1
  Cs  Cs5  1  0.750000  0.308779  0.316375  1
  Cs  Cs6  1  0.250000  0.570317  0.272318  1
  Cs  Cs7  1  0.250000  0.381056  0.043041  1
  Cs  Cs8  1  0.250000  0.691221  0.683625  1
  Cs  Cs9  1  0.750000  0.618944  0.956959  1
  Cs  Cs10  1  0.250000  0.070317  0.227682  1
  Cs  Cs11  1  0.750000  0.808779  0.183625  1
  Al  Al12  1  0.250000  0.740561  0.075395  1
  Al  Al13  1  0.750000  0.199541  0.125988  1
  Al  Al14  1  0.750000  0.759439  0.575395  1
  Al  Al15  1  0.250000  0.300459  0.625988  1
  Al  Al16  1  0.250000  0.240561  0.424605  1
  Al  Al17  1  0.750000  0.259439  0.924605  1
  Al  Al18  1  0.250000  0.800459  0.874012  1
  Al  Al19  1  0.000000  0.500000  0.500000  1
  Al  Al20  1  0.750000  0.699541  0.374012  1
  Al  Al21  1  0.000000  0.000000  0.000000  1
  Al  Al22  1  0.500000  0.000000  0.000000  1
  Al  Al23  1  0.500000  0.500000  0.500000  1
  F  F24  1  0.438848  0.912883  0.916780  1
  F  F25  1  0.938848  0.587117  0.416780  1
  F  F26  1  0.938760  0.131626  0.941828  1
  F  F27  1  0.553921  0.792174  0.341754  1
  F  F28  1  0.442535  0.632067  0.085165  1
  F  F29  1  0.750000  0.211740  0.828496  1
  F  F30  1  0.053921  0.207826  0.658246  1
  F  F31  1  0.438760  0.868374  0.058172  1
  F  F32  1  0.250000  0.900432  0.793465  1
  F  F33  1  0.750000  0.776975  0.469393  1
  F  F34  1  0.250000  0.788260  0.171504  1
  F  F35  1  0.061152  0.912883  0.916780  1
  F  F36  1  0.446079  0.207826  0.658246  1
  F  F37  1  0.250000  0.723025  0.969393  1
  F  F38  1  0.561240  0.631626  0.558172  1
  F  F39  1  0.250000  0.060097  0.006710  1
  F  F40  1  0.250000  0.288260  0.328496  1
  F  F41  1  0.942535  0.867933  0.585165  1
  F  F42  1  0.061240  0.368374  0.441828  1
  F  F43  1  0.942535  0.367933  0.914835  1
  F  F44  1  0.442535  0.132067  0.414835  1
  F  F45  1  0.061152  0.412883  0.583220  1
  F  F46  1  0.938760  0.631626  0.558172  1
  F  F47  1  0.553921  0.292174  0.158246  1
  F  F48  1  0.750000  0.276975  0.030607  1
  F  F49  1  0.561152  0.587117  0.416780  1
  F  F50  1  0.057465  0.132067  0.414835  1
  F  F51  1  0.061240  0.868374  0.058172  1
  F  F52  1  0.938848  0.087117  0.083220  1
  F  F53  1  0.557465  0.867933  0.585165  1
  F  F54  1  0.557465  0.367933  0.914835  1
  F  F55  1  0.250000  0.400432  0.706535  1
  F  F56  1  0.750000  0.939903  0.993290  1
  F  F57  1  0.438848  0.412883  0.583220  1
  F  F58  1  0.561152  0.087117  0.083220  1
  F  F59  1  0.438760  0.368374  0.441828  1
  F  F60  1  0.750000  0.099568  0.206535  1
  F  F61  1  0.053921  0.707826  0.841754  1
  F  F62  1  0.250000  0.223025  0.530607  1
  F  F63  1  0.057465  0.632067  0.085165  1
  F  F64  1  0.750000  0.599568  0.293465  1
  F  F65  1  0.750000  0.711740  0.671504  1
  F  F66  1  0.250000  0.560097  0.493290  1
  F  F67  1  0.561240  0.131626  0.941828  1
  F  F68  1  0.446079  0.707826  0.841754  1
  F  F69  1  0.946079  0.792174  0.341754  1
  F  F70  1  0.750000  0.439903  0.506710  1
  F  F71  1  0.946079  0.292174  0.158246  1
