# generated using pymatgen
data_SbP(Cl2F3)2
_symmetry_space_group_name_H-M   'P 1'
_cell_length_a   6.94341235
_cell_length_b   8.71610144
_cell_length_c   8.71610144
_cell_angle_alpha   90.00000000
_cell_angle_beta   90.00000000
_cell_angle_gamma   90.00000000
_symmetry_Int_Tables_number   1
_chemical_formula_structural   SbP(Cl2F3)2
_chemical_formula_sum   'Sb2 P2 Cl8 F12'
_cell_volume   527.49398241
_cell_formula_units_Z   2
loop_
 _symmetry_equiv_pos_site_id
 _symmetry_equiv_pos_as_xyz
  1  'x, y, z'
loop_
 _atom_site_type_symbol
 _atom_site_label
 _atom_site_symmetry_multiplicity
 _atom_site_fract_x
 _atom_site_fract_y
 _atom_site_fract_z
 _atom_site_occupancy
  Sb  Sb0  1  0.146718  0.250000  0.250000  1
  Sb  Sb1  1  0.853282  0.750000  0.750000  1
  P  P2  1  0.500000  0.250000  0.750000  1
  P  P3  1  0.500000  0.750000  0.250000  1
  Cl  Cl4  1  0.662352  0.926977  0.296879  1
  Cl  Cl5  1  0.337648  0.073023  0.703121  1
  Cl  Cl6  1  0.662352  0.296879  0.573023  1
  Cl  Cl7  1  0.337648  0.796879  0.073023  1
  Cl  Cl8  1  0.337648  0.426977  0.796879  1
  Cl  Cl9  1  0.337648  0.703121  0.426977  1
  Cl  Cl10  1  0.662352  0.203121  0.926977  1
  Cl  Cl11  1  0.662352  0.573023  0.203121  1
  F  F12  1  0.853544  0.680203  0.540756  1
  F  F13  1  0.146456  0.180203  0.040756  1
  F  F14  1  0.146456  0.319797  0.459244  1
  F  F15  1  0.146456  0.459244  0.180203  1
  F  F16  1  0.853544  0.540756  0.819797  1
  F  F17  1  0.853544  0.819797  0.959244  1
  F  F18  1  0.853544  0.959244  0.680203  1
  F  F19  1  0.868781  0.250000  0.250000  1
  F  F20  1  0.146456  0.040756  0.319797  1
  F  F21  1  0.576804  0.750000  0.750000  1
  F  F22  1  0.423196  0.250000  0.250000  1
  F  F23  1  0.131219  0.750000  0.750000  1
