# generated using pymatgen
data_PCF3
_symmetry_space_group_name_H-M   'P 1'
_cell_length_a   6.34677357
_cell_length_b   11.38107819
_cell_length_c   11.38107819
_cell_angle_alpha   90.00000000
_cell_angle_beta   90.00000000
_cell_angle_gamma   90.00000000
_symmetry_Int_Tables_number   1
_chemical_formula_structural   PCF3
_chemical_formula_sum   'P8 C8 F24'
_cell_volume   822.09085781
_cell_formula_units_Z   8
loop_
 _symmetry_equiv_pos_site_id
 _symmetry_equiv_pos_as_xyz
  1  'x, y, z'
loop_
 _atom_site_type_symbol
 _atom_site_label
 _atom_site_symmetry_multiplicity
 _atom_site_fract_x
 _atom_site_fract_y
 _atom_site_fract_z
 _atom_site_occupancy
  P  P0  1  0.674696  0.458883  0.750000  1
  P  P1  1  0.174696  0.750000  0.458883  1
  P  P2  1  0.174696  0.750000  0.041117  1
  P  P3  1  0.674696  0.041117  0.750000  1
  P  P4  1  0.325304  0.958883  0.250000  1
  P  P5  1  0.325304  0.541117  0.250000  1
  P  P6  1  0.825304  0.250000  0.958883  1
  P  P7  1  0.825304  0.250000  0.541117  1
  C  C8  1  0.946077  0.506514  0.750000  1
  C  C9  1  0.446077  0.750000  0.506514  1
  C  C10  1  0.446077  0.750000  0.993486  1
  C  C11  1  0.946077  0.993486  0.750000  1
  C  C12  1  0.053923  0.006514  0.250000  1
  C  C13  1  0.053923  0.493486  0.250000  1
  C  C14  1  0.553923  0.250000  0.006514  1
  C  C15  1  0.553923  0.250000  0.493486  1
  F  F16  1  0.108146  0.433234  0.750000  1
  F  F17  1  0.608146  0.750000  0.433234  1
  F  F18  1  0.608146  0.750000  0.066766  1
  F  F19  1  0.108146  0.066766  0.750000  1
  F  F20  1  0.891854  0.933234  0.250000  1
  F  F21  1  0.891854  0.566766  0.250000  1
  F  F22  1  0.391854  0.250000  0.933234  1
  F  F23  1  0.391854  0.250000  0.566766  1
  F  F24  1  0.584055  0.538665  0.855105  1
  F  F25  1  0.084055  0.644895  0.538665  1
  F  F26  1  0.084055  0.855105  0.961335  1
  F  F27  1  0.584055  0.961335  0.644895  1
  F  F28  1  0.415945  0.038665  0.144895  1
  F  F29  1  0.415945  0.461335  0.355105  1
  F  F30  1  0.915945  0.355105  0.038665  1
  F  F31  1  0.915945  0.144895  0.461335  1
  F  F32  1  0.415945  0.461335  0.144895  1
  F  F33  1  0.915945  0.355105  0.461335  1
  F  F34  1  0.915945  0.144895  0.038665  1
  F  F35  1  0.415945  0.038665  0.355105  1
  F  F36  1  0.584055  0.961335  0.855105  1
  F  F37  1  0.584055  0.538665  0.644895  1
  F  F38  1  0.084055  0.644895  0.961335  1
  F  F39  1  0.084055  0.855105  0.538665  1
