# generated using pymatgen
data_Ba(BO2)2
_symmetry_space_group_name_H-M   'P 1'
_cell_length_a   8.51755277
_cell_length_b   8.51755265
_cell_length_c   8.51755290
_cell_angle_alpha   96.19265024
_cell_angle_beta   96.19265015
_cell_angle_gamma   96.19265111
_symmetry_Int_Tables_number   1
_chemical_formula_structural   Ba(BO2)2
_chemical_formula_sum   'Ba6 B12 O24'
_cell_volume   606.26575529
_cell_formula_units_Z   6
loop_
 _symmetry_equiv_pos_site_id
 _symmetry_equiv_pos_as_xyz
  1  'x, y, z'
loop_
 _atom_site_type_symbol
 _atom_site_label
 _atom_site_symmetry_multiplicity
 _atom_site_fract_x
 _atom_site_fract_y
 _atom_site_fract_z
 _atom_site_occupancy
  Ba  Ba0  1  0.022392  0.736855  0.374592  1
  Ba  Ba1  1  0.874592  0.236855  0.522392  1
  Ba  Ba2  1  0.522392  0.874592  0.236855  1
  Ba  Ba3  1  0.374592  0.022392  0.736855  1
  Ba  Ba4  1  0.736855  0.374592  0.022392  1
  Ba  Ba5  1  0.236855  0.522392  0.874592  1
  B  B6  1  0.872318  0.043805  0.088892  1
  B  B7  1  0.116549  0.340655  0.261432  1
  B  B8  1  0.261432  0.116549  0.340655  1
  B  B9  1  0.840655  0.616549  0.761432  1
  B  B10  1  0.588892  0.543805  0.372318  1
  B  B11  1  0.616549  0.761432  0.840655  1
  B  B12  1  0.340655  0.261432  0.116549  1
  B  B13  1  0.088892  0.872318  0.043805  1
  B  B14  1  0.043805  0.088892  0.872318  1
  B  B15  1  0.543805  0.372318  0.588892  1
  B  B16  1  0.761432  0.840655  0.616549  1
  B  B17  1  0.372318  0.588892  0.543805  1
  O  O18  1  0.123723  0.958666  0.916579  1
  O  O19  1  0.279330  0.995713  0.424905  1
  O  O20  1  0.495713  0.779330  0.924905  1
  O  O21  1  0.860488  0.720277  0.644949  1
  O  O22  1  0.916579  0.123723  0.958666  1
  O  O23  1  0.644949  0.860488  0.720277  1
  O  O24  1  0.258173  0.670493  0.591295  1
  O  O25  1  0.144949  0.220277  0.360488  1
  O  O26  1  0.924905  0.495713  0.779330  1
  O  O27  1  0.424905  0.279330  0.995713  1
  O  O28  1  0.416579  0.458666  0.623723  1
  O  O29  1  0.958666  0.916579  0.123723  1
  O  O30  1  0.995713  0.424905  0.279330  1
  O  O31  1  0.758173  0.091295  0.170493  1
  O  O32  1  0.360488  0.144949  0.220277  1
  O  O33  1  0.670493  0.591295  0.258173  1
  O  O34  1  0.220277  0.360488  0.144949  1
  O  O35  1  0.779330  0.924905  0.495713  1
  O  O36  1  0.623723  0.416579  0.458666  1
  O  O37  1  0.720277  0.644949  0.860488  1
  O  O38  1  0.591295  0.258173  0.670493  1
  O  O39  1  0.458666  0.623723  0.416579  1
  O  O40  1  0.091295  0.170493  0.758173  1
  O  O41  1  0.170493  0.758173  0.091295  1
