# generated using pymatgen
data_NiO2
_symmetry_space_group_name_H-M   'P 1'
_cell_length_a   2.80891871
_cell_length_b   9.30963404
_cell_length_c   2.80893718
_cell_angle_alpha   89.99974149
_cell_angle_beta   120.00042482
_cell_angle_gamma   90.00018271
_symmetry_Int_Tables_number   1
_chemical_formula_structural   NiO2
_chemical_formula_sum   'Ni2 O4'
_cell_volume   63.61251690
_cell_formula_units_Z   2
loop_
 _symmetry_equiv_pos_site_id
 _symmetry_equiv_pos_as_xyz
  1  'x, y, z'
loop_
 _atom_site_type_symbol
 _atom_site_label
 _atom_site_symmetry_multiplicity
 _atom_site_fract_x
 _atom_site_fract_y
 _atom_site_fract_z
 _atom_site_occupancy
  Ni  Ni0  1  0.000002  -0.000001  0.999976  1
  Ni  Ni1  1  0.000000  0.500005  0.999975  1
  O  O2  1  0.666668  0.102692  0.333295  1
  O  O3  1  0.666667  0.602702  0.333297  1
  O  O4  1  0.333332  0.397304  0.666630  1
  O  O5  1  0.333332  0.897298  0.666628  1
