# generated using pymatgen
data_RbAg2(AsSe2)3
_symmetry_space_group_name_H-M   'P 1'
_cell_length_a   7.82250230
_cell_length_b   10.16758791
_cell_length_c   17.63319531
_cell_angle_alpha   90.28997584
_cell_angle_beta   90.00000000
_cell_angle_gamma   90.00000000
_symmetry_Int_Tables_number   1
_chemical_formula_structural   RbAg2(AsSe2)3
_chemical_formula_sum   'Rb4 Ag8 As12 Se24'
_cell_volume   1402.45550428
_cell_formula_units_Z   4
loop_
 _symmetry_equiv_pos_site_id
 _symmetry_equiv_pos_as_xyz
  1  'x, y, z'
loop_
 _atom_site_type_symbol
 _atom_site_label
 _atom_site_symmetry_multiplicity
 _atom_site_fract_x
 _atom_site_fract_y
 _atom_site_fract_z
 _atom_site_occupancy
  Rb  Rb0  1  0.324885  0.493415  0.332377  1
  Rb  Rb1  1  0.675115  0.506585  0.667623  1
  Rb  Rb2  1  0.175115  0.993415  0.832377  1
  Rb  Rb3  1  0.824885  0.006585  0.167623  1
  Ag  Ag4  1  0.038360  0.032931  0.580778  1
  Ag  Ag5  1  0.015021  0.349535  0.999310  1
  Ag  Ag6  1  0.515021  0.150465  0.500690  1
  Ag  Ag7  1  0.961640  0.967069  0.419222  1
  Ag  Ag8  1  0.538360  0.467069  0.919222  1
  Ag  Ag9  1  0.984979  0.650465  0.000690  1
  Ag  Ag10  1  0.484979  0.849535  0.499310  1
  Ag  Ag11  1  0.461640  0.532931  0.080778  1
  As  As12  1  0.650461  0.806890  0.853380  1
  As  As13  1  0.130338  0.430180  0.776775  1
  As  As14  1  0.881676  0.631999  0.418587  1
  As  As15  1  0.381676  0.868001  0.081413  1
  As  As16  1  0.349539  0.193110  0.146620  1
  As  As17  1  0.618324  0.131999  0.918587  1
  As  As18  1  0.849539  0.306890  0.353380  1
  As  As19  1  0.630338  0.069820  0.723225  1
  As  As20  1  0.118324  0.368001  0.581413  1
  As  As21  1  0.150461  0.693110  0.646620  1
  As  As22  1  0.369662  0.930180  0.276775  1
  As  As23  1  0.869662  0.569820  0.223225  1
  Se  Se24  1  0.250354  0.845758  0.392043  1
  Se  Se25  1  0.249646  0.345758  0.892043  1
  Se  Se26  1  0.696886  0.369653  0.235626  1
  Se  Se27  1  0.196886  0.130347  0.264374  1
  Se  Se28  1  0.779632  0.220757  0.810971  1
  Se  Se29  1  0.220368  0.779243  0.189029  1
  Se  Se30  1  0.195440  0.216074  0.482767  1
  Se  Se31  1  0.797742  0.603800  0.871967  1
  Se  Se32  1  0.720368  0.720757  0.310971  1
  Se  Se33  1  0.202258  0.396200  0.128033  1
  Se  Se34  1  0.297742  0.896200  0.628033  1
  Se  Se35  1  0.695440  0.283926  0.017233  1
  Se  Se36  1  0.702258  0.103800  0.371967  1
  Se  Se37  1  0.803114  0.869653  0.735626  1
  Se  Se38  1  0.296226  0.561222  0.548653  1
  Se  Se39  1  0.703774  0.438778  0.451347  1
  Se  Se40  1  0.203774  0.061222  0.048653  1
  Se  Se41  1  0.804560  0.783926  0.517233  1
  Se  Se42  1  0.279632  0.279243  0.689029  1
  Se  Se43  1  0.796226  0.938778  0.951347  1
  Se  Se44  1  0.304560  0.716074  0.982767  1
  Se  Se45  1  0.750354  0.654242  0.107957  1
  Se  Se46  1  0.303114  0.630347  0.764374  1
  Se  Se47  1  0.749646  0.154242  0.607957  1
