# generated using pymatgen
data_K2Ag4Pt3(NO2)12
_symmetry_space_group_name_H-M   'P 1'
_cell_length_a   7.28633229
_cell_length_b   7.85298965
_cell_length_c   24.14078636
_cell_angle_alpha   90.00000000
_cell_angle_beta   90.00000000
_cell_angle_gamma   99.13537333
_symmetry_Int_Tables_number   1
_chemical_formula_structural   K2Ag4Pt3(NO2)12
_chemical_formula_sum   'K4 Ag8 Pt6 N24 O48'
_cell_volume   1363.80278994
_cell_formula_units_Z   2
loop_
 _symmetry_equiv_pos_site_id
 _symmetry_equiv_pos_as_xyz
  1  'x, y, z'
loop_
 _atom_site_type_symbol
 _atom_site_label
 _atom_site_symmetry_multiplicity
 _atom_site_fract_x
 _atom_site_fract_y
 _atom_site_fract_z
 _atom_site_occupancy
  K  K0  1  0.395427  0.064230  0.365962  1
  K  K1  1  0.895427  0.564230  0.134038  1
  K  K2  1  0.604573  0.935770  0.634038  1
  K  K3  1  0.104573  0.435770  0.865962  1
  Ag  Ag4  1  0.371958  0.606008  0.473839  1
  Ag  Ag5  1  0.389591  0.816239  0.182637  1
  Ag  Ag6  1  0.628042  0.393992  0.526161  1
  Ag  Ag7  1  0.110409  0.683761  0.682637  1
  Ag  Ag8  1  0.889591  0.316239  0.317363  1
  Ag  Ag9  1  0.610409  0.183761  0.817363  1
  Ag  Ag10  1  0.128042  0.893992  0.973839  1
  Ag  Ag11  1  0.871958  0.106008  0.026161  1
  Pt  Pt12  1  0.114822  0.292936  0.676021  1
  Pt  Pt13  1  0.500000  0.500000  0.000000  1
  Pt  Pt14  1  0.385178  0.207064  0.176021  1
  Pt  Pt15  1  0.885178  0.707064  0.323979  1
  Pt  Pt16  1  0.000000  0.000000  0.500000  1
  Pt  Pt17  1  0.614822  0.792936  0.823979  1
  N  N18  1  0.293352  0.221019  0.733500  1
  N  N19  1  0.206648  0.278981  0.233500  1
  N  N20  1  0.334744  0.357684  0.622696  1
  N  N21  1  0.898634  0.231463  0.729517  1
  N  N22  1  0.398634  0.731463  0.770483  1
  N  N23  1  0.931821  0.355690  0.617052  1
  N  N24  1  0.882764  0.095973  0.431980  1
  N  N25  1  0.431821  0.855690  0.882948  1
  N  N26  1  0.617236  0.404027  0.931980  1
  N  N27  1  0.382764  0.595973  0.068020  1
  N  N28  1  0.665256  0.642316  0.377304  1
  N  N29  1  0.298051  0.286647  0.994775  1
  N  N30  1  0.706648  0.778981  0.266500  1
  N  N31  1  0.068179  0.644310  0.382948  1
  N  N32  1  0.201949  0.213353  0.494775  1
  N  N33  1  0.834744  0.857684  0.877304  1
  N  N34  1  0.798051  0.786647  0.505225  1
  N  N35  1  0.117236  0.904027  0.568020  1
  N  N36  1  0.165256  0.142316  0.122696  1
  N  N37  1  0.793352  0.721019  0.766500  1
  N  N38  1  0.101366  0.768537  0.270483  1
  N  N39  1  0.568179  0.144310  0.117052  1
  N  N40  1  0.701949  0.713353  0.005225  1
  N  N41  1  0.601366  0.268537  0.229517  1
  O  O42  1  0.138776  0.301427  0.977761  1
  O  O43  1  0.832430  0.242221  0.589266  1
  O  O44  1  0.081760  0.488815  0.390208  1
  O  O45  1  0.581760  0.988815  0.109792  1
  O  O46  1  0.332430  0.742221  0.910734  1
  O  O47  1  0.844180  0.578426  0.772244  1
  O  O48  1  0.918240  0.511185  0.609792  1
  O  O49  1  0.163937  0.358473  0.507691  1
  O  O50  1  0.663937  0.858473  0.992309  1
  O  O51  1  0.229898  0.646508  0.064819  1
  O  O52  1  0.087239  0.259794  0.102455  1
  O  O53  1  0.861224  0.698573  0.022239  1
  O  O54  1  0.426491  0.726016  0.719106  1
  O  O55  1  0.735924  0.202520  0.711915  1
  O  O56  1  0.764076  0.297480  0.211915  1
  O  O57  1  0.344180  0.078426  0.727756  1
  O  O58  1  0.270102  0.853492  0.564819  1
  O  O59  1  0.167570  0.757779  0.410734  1
  O  O60  1  0.573509  0.273984  0.280894  1
  O  O61  1  0.418240  0.011185  0.890208  1
  O  O62  1  0.361224  0.198573  0.477761  1
  O  O63  1  0.587239  0.759794  0.397545  1
  O  O64  1  0.027568  0.893201  0.612787  1
  O  O65  1  0.729898  0.146508  0.435181  1
  O  O66  1  0.073509  0.773984  0.219106  1
  O  O67  1  0.849257  0.816888  0.726396  1
  O  O68  1  0.926491  0.226016  0.780894  1
  O  O69  1  0.113588  0.989278  0.109398  1
  O  O70  1  0.412761  0.240206  0.602455  1
  O  O71  1  0.667570  0.257779  0.089266  1
  O  O72  1  0.912761  0.740206  0.897545  1
  O  O73  1  0.235924  0.702520  0.788085  1
  O  O74  1  0.336063  0.141527  0.007691  1
  O  O75  1  0.886412  0.010722  0.890602  1
  O  O76  1  0.650743  0.683112  0.226396  1
  O  O77  1  0.349257  0.316888  0.773604  1
  O  O78  1  0.770102  0.353492  0.935181  1
  O  O79  1  0.472432  0.606799  0.112787  1
  O  O80  1  0.386412  0.510722  0.609398  1
  O  O81  1  0.972432  0.106799  0.387213  1
  O  O82  1  0.155820  0.421574  0.227756  1
  O  O83  1  0.527568  0.393201  0.887213  1
  O  O84  1  0.264076  0.797480  0.288085  1
  O  O85  1  0.638776  0.801427  0.522239  1
  O  O86  1  0.655820  0.921574  0.272244  1
  O  O87  1  0.836063  0.641527  0.492309  1
  O  O88  1  0.150743  0.183112  0.273604  1
  O  O89  1  0.613588  0.489278  0.390602  1
