# generated using pymatgen
data_Ca3Cu2(BrO2)2
_symmetry_space_group_name_H-M   'P 1'
_cell_length_a   3.87950873
_cell_length_b   3.87950599
_cell_length_c   12.26960195
_cell_angle_alpha   99.09629425
_cell_angle_beta   99.09630423
_cell_angle_gamma   90.00000631
_symmetry_Int_Tables_number   1
_chemical_formula_structural   Ca3Cu2(BrO2)2
_chemical_formula_sum   'Ca3 Cu2 Br2 O4'
_cell_volume   179.98995442
_cell_formula_units_Z   1
loop_
 _symmetry_equiv_pos_site_id
 _symmetry_equiv_pos_as_xyz
  1  'x, y, z'
loop_
 _atom_site_type_symbol
 _atom_site_label
 _atom_site_symmetry_multiplicity
 _atom_site_fract_x
 _atom_site_fract_y
 _atom_site_fract_z
 _atom_site_occupancy
  O  O0  1  0.067844  0.567844  0.135689  1
  Cu  Cu1  1  0.565763  0.565763  0.131527  1
  Ca  Ca2  1  0.867426  0.867426  0.734851  1
  Br  Br3  1  0.692119  0.692119  0.384239  1
  O  O4  1  0.932154  0.432154  0.864308  1
  O  O5  1  0.567844  0.067844  0.135689  1
  O  O6  1  0.432155  0.932155  0.864309  1
  Ca  Ca7  1  0.132562  0.132562  0.265124  1
  Cu  Cu8  1  0.434232  0.434232  0.868464  1
  Ca  Ca9  1  -0.000002  -0.000002  -0.000005  1
  Br  Br10  1  0.307902  0.307902  0.615805  1
