# generated using pymatgen
data_SmI2
_symmetry_space_group_name_H-M   'P 1'
_cell_length_a   7.40034648
_cell_length_b   8.24739920
_cell_length_c   14.13088374
_cell_angle_alpha   90.00000000
_cell_angle_beta   90.00000000
_cell_angle_gamma   90.00000000
_symmetry_Int_Tables_number   1
_chemical_formula_structural   SmI2
_chemical_formula_sum   'Sm8 I16'
_cell_volume   862.45887030
_cell_formula_units_Z   8
loop_
 _symmetry_equiv_pos_site_id
 _symmetry_equiv_pos_as_xyz
  1  'x, y, z'
loop_
 _atom_site_type_symbol
 _atom_site_label
 _atom_site_symmetry_multiplicity
 _atom_site_fract_x
 _atom_site_fract_y
 _atom_site_fract_z
 _atom_site_occupancy
  Sm  Sm0  1  0.674972  0.549754  0.905621  1
  Sm  Sm1  1  0.174972  0.950246  0.905621  1
  Sm  Sm2  1  0.674972  0.049754  0.594379  1
  Sm  Sm3  1  0.825028  0.549754  0.405621  1
  Sm  Sm4  1  0.825028  0.049754  0.094379  1
  Sm  Sm5  1  0.325028  0.450246  0.094379  1
  Sm  Sm6  1  0.325028  0.950246  0.405621  1
  Sm  Sm7  1  0.174972  0.450246  0.594379  1
  I  I8  1  0.195186  0.615860  0.295178  1
  I  I9  1  0.695186  0.884140  0.295178  1
  I  I10  1  0.804814  0.384140  0.704822  1
  I  I11  1  0.804814  0.884140  0.795178  1
  I  I12  1  0.304814  0.615860  0.795178  1
  I  I13  1  0.982225  0.706720  0.046164  1
  I  I14  1  0.982225  0.206720  0.453836  1
  I  I15  1  0.017775  0.793280  0.546164  1
  I  I16  1  0.195186  0.115860  0.204822  1
  I  I17  1  0.517775  0.206720  0.953836  1
  I  I18  1  0.695186  0.384140  0.204822  1
  I  I19  1  0.517775  0.706720  0.546164  1
  I  I20  1  0.304814  0.115860  0.704822  1
  I  I21  1  0.482225  0.793280  0.046164  1
  I  I22  1  0.017775  0.293280  0.953836  1
  I  I23  1  0.482225  0.293280  0.453836  1
