# generated using pymatgen
data_ZnS
_symmetry_space_group_name_H-M   'P 1'
_cell_length_a   3.85478716
_cell_length_b   3.85478706
_cell_length_c   75.60416601
_cell_angle_alpha   90.00000000
_cell_angle_beta   90.00000000
_cell_angle_gamma   120.00000087
_symmetry_Int_Tables_number   1
_chemical_formula_structural   ZnS
_chemical_formula_sum   'Zn24 S24'
_cell_volume   972.92004447
_cell_formula_units_Z   24
loop_
 _symmetry_equiv_pos_site_id
 _symmetry_equiv_pos_as_xyz
  1  'x, y, z'
loop_
 _atom_site_type_symbol
 _atom_site_label
 _atom_site_symmetry_multiplicity
 _atom_site_fract_x
 _atom_site_fract_y
 _atom_site_fract_z
 _atom_site_occupancy
  Zn  Zn0  1  0.000000  0.000000  0.333353  1
  Zn  Zn1  1  0.333333  0.666667  0.666665  1
  Zn  Zn2  1  0.333333  0.666667  0.291675  1
  Zn  Zn3  1  0.666667  0.333333  0.083327  1
  Zn  Zn4  1  0.000000  0.000000  0.583341  1
  Zn  Zn5  1  0.000000  0.000000  0.708336  1
  Zn  Zn6  1  0.666667  0.333333  0.500004  1
  Zn  Zn7  1  0.666667  0.333333  0.916666  1
  Zn  Zn8  1  0.666667  0.333333  0.208336  1
  Zn  Zn9  1  0.666667  0.333333  0.625010  1
  Zn  Zn10  1  0.000000  0.000000  0.833336  1
  Zn  Zn11  1  0.333333  0.666667  0.541675  1
  Zn  Zn12  1  0.333333  0.666667  0.041680  1
  Zn  Zn13  1  0.000000  0.000000  0.124998  1
  Zn  Zn14  1  0.333333  0.666667  0.166670  1
  Zn  Zn15  1  0.333333  0.666667  0.416667  1
  Zn  Zn16  1  0.000000  0.000000  0.458334  1
  Zn  Zn17  1  0.333333  0.666667  0.750019  1
  Zn  Zn18  1  0.333333  0.666667  0.958339  1
  Zn  Zn19  1  0.000000  0.000000  0.249995  1
  Zn  Zn20  1  0.666667  0.333333  0.791673  1
  Zn  Zn21  1  0.666667  0.333333  0.375000  1
  Zn  Zn22  1  0.333333  0.666667  0.874989  1
  Zn  Zn23  1  0.000000  0.000000  1.000000  1
  S  S24  1  0.666667  0.333333  0.947940  1
  S  S25  1  0.333333  0.666667  0.781251  1
  S  S26  1  0.333333  0.666667  0.197912  1
  S  S27  1  0.000000  0.000000  0.364583  1
  S  S28  1  0.000000  0.000000  0.489579  1
  S  S29  1  0.666667  0.333333  0.531249  1
  S  S30  1  0.666667  0.333333  0.656251  1
  S  S31  1  0.000000  0.000000  0.739612  1
  S  S32  1  0.333333  0.666667  0.447912  1
  S  S33  1  0.666667  0.333333  0.239577  1
  S  S34  1  0.333333  0.666667  0.906212  1
  S  S35  1  0.333333  0.666667  0.989548  1
  S  S36  1  0.666667  0.333333  0.114570  1
  S  S37  1  0.000000  0.000000  0.614585  1
  S  S38  1  0.000000  0.000000  0.156243  1
  S  S39  1  0.000000  0.000000  0.281219  1
  S  S40  1  0.333333  0.666667  0.697886  1
  S  S41  1  0.333333  0.666667  0.072906  1
  S  S42  1  0.333333  0.666667  0.572918  1
  S  S43  1  0.000000  0.000000  0.864577  1
  S  S44  1  0.666667  0.333333  0.822916  1
  S  S45  1  0.666667  0.333333  0.406244  1
  S  S46  1  0.333333  0.666667  0.322949  1
  S  S47  1  0.000000  0.000000  0.031273  1
