# generated using pymatgen
data_Cr2Te4O11
_symmetry_space_group_name_H-M   'P 1'
_cell_length_a   7.12130184
_cell_length_b   7.74054794
_cell_length_c   9.92650855
_cell_angle_alpha   90.00000000
_cell_angle_beta   99.49926551
_cell_angle_gamma   90.00000000
_symmetry_Int_Tables_number   1
_chemical_formula_structural   Cr2Te4O11
_chemical_formula_sum   'Cr4 Te8 O22'
_cell_volume   539.67368771
_cell_formula_units_Z   2
loop_
 _symmetry_equiv_pos_site_id
 _symmetry_equiv_pos_as_xyz
  1  'x, y, z'
loop_
 _atom_site_type_symbol
 _atom_site_label
 _atom_site_symmetry_multiplicity
 _atom_site_fract_x
 _atom_site_fract_y
 _atom_site_fract_z
 _atom_site_occupancy
  Te  Te0  1  0.143463  0.854663  0.174573  1
  Te  Te1  1  0.856537  0.354663  0.325427  1
  Te  Te2  1  0.856537  0.145337  0.825427  1
  Te  Te3  1  0.143463  0.645337  0.674573  1
  Te  Te4  1  0.672336  0.860014  0.413546  1
  Te  Te5  1  0.327664  0.360014  0.086454  1
  Te  Te6  1  0.327664  0.139986  0.586453  1
  Te  Te7  1  0.672336  0.639986  0.913547  1
  Cr  Cr8  1  0.317734  0.500919  0.384646  1
  Cr  Cr9  1  0.682266  0.000919  0.115354  1
  Cr  Cr10  1  0.682266  0.499081  0.615354  1
  Cr  Cr11  1  0.317734  0.999081  0.884646  1
  O  O12  1  0.158176  0.649526  0.486045  1
  O  O13  1  0.841824  0.149526  0.013955  1
  O  O14  1  0.841824  0.350474  0.513955  1
  O  O15  1  0.158176  0.850474  0.986045  1
  O  O16  1  0.562829  0.639664  0.449636  1
  O  O17  1  0.437171  0.139664  0.050364  1
  O  O18  1  0.437171  0.360336  0.550364  1
  O  O19  1  0.562829  0.860336  0.949636  1
  O  O20  1  0.469784  0.368958  0.263495  1
  O  O21  1  0.530216  0.868958  0.236505  1
  O  O22  1  0.530216  0.631042  0.736505  1
  O  O23  1  0.469784  0.131042  0.763495  1
  O  O24  1  0.125140  0.312312  0.345363  1
  O  O25  1  0.874860  0.812312  0.154637  1
  O  O26  1  0.874860  0.687688  0.654637  1
  O  O27  1  0.125140  0.187688  0.845363  1
  O  O28  1  0.204353  0.617186  0.208475  1
  O  O29  1  0.795647  0.117186  0.291525  1
  O  O30  1  0.795647  0.382814  0.791525  1
  O  O31  1  0.204353  0.882814  0.708475  1
  O  O32  1  0.500000  0.000000  0.500000  1
  O  O33  1  0.500000  0.500000  0.000000  1
