# generated using pymatgen
data_PH7CN3O3F
_symmetry_space_group_name_H-M   'P 1'
_cell_length_a   6.86978626
_cell_length_b   9.44141503
_cell_length_c   10.26474556
_cell_angle_alpha   90.00000000
_cell_angle_beta   90.00000000
_cell_angle_gamma   104.56724878
_symmetry_Int_Tables_number   1
_chemical_formula_structural   PH7CN3O3F
_chemical_formula_sum   'P4 H28 C4 N12 O12 F4'
_cell_volume   644.37390960
_cell_formula_units_Z   4
loop_
 _symmetry_equiv_pos_site_id
 _symmetry_equiv_pos_as_xyz
  1  'x, y, z'
loop_
 _atom_site_type_symbol
 _atom_site_label
 _atom_site_symmetry_multiplicity
 _atom_site_fract_x
 _atom_site_fract_y
 _atom_site_fract_z
 _atom_site_occupancy
  P  P0  1  0.845121  0.124917  0.608746  1
  P  P1  1  0.845121  0.624917  0.891254  1
  P  P2  1  0.154879  0.375083  0.108746  1
  P  P3  1  0.154879  0.875083  0.391254  1
  H  H4  1  0.753240  0.646424  0.283238  1
  H  H5  1  0.753240  0.146424  0.216762  1
  H  H6  1  0.538679  0.741638  0.061190  1
  H  H7  1  0.244523  0.582378  0.442827  1
  H  H8  1  0.755477  0.417622  0.557173  1
  H  H9  1  0.831308  0.908358  0.512447  1
  H  H10  1  0.246760  0.853576  0.783238  1
  H  H11  1  0.461321  0.758362  0.561190  1
  H  H12  1  0.538679  0.241638  0.438810  1
  H  H13  1  0.842891  0.598176  0.493318  1
  H  H14  1  0.244523  0.082378  0.057173  1
  H  H15  1  0.842891  0.098176  0.006682  1
  H  H16  1  0.157109  0.401824  0.506682  1
  H  H17  1  0.392590  0.994278  0.687728  1
  H  H18  1  0.157109  0.901824  0.993318  1
  H  H19  1  0.246760  0.353576  0.716762  1
  H  H20  1  0.461321  0.258362  0.938810  1
  H  H21  1  0.392590  0.494278  0.812272  1
  H  H22  1  0.168692  0.591642  0.012447  1
  H  H23  1  0.607410  0.005722  0.312272  1
  H  H24  1  0.458285  0.282326  0.283058  1
  H  H25  1  0.831308  0.408358  0.987553  1
  H  H26  1  0.541715  0.217674  0.783058  1
  H  H27  1  0.755477  0.917622  0.942827  1
  H  H28  1  0.168692  0.091642  0.487553  1
  H  H29  1  0.541715  0.717674  0.716942  1
  H  H30  1  0.458285  0.782326  0.216942  1
  H  H31  1  0.607410  0.505722  0.187728  1
  C  C32  1  0.337144  0.552494  0.626331  1
  C  C33  1  0.662856  0.447506  0.373669  1
  C  C34  1  0.662856  0.947506  0.126331  1
  C  C35  1  0.337144  0.052494  0.873669  1
  N  N36  1  0.441974  0.692038  0.640868  1
  N  N37  1  0.758808  0.992490  0.015321  1
  N  N38  1  0.329450  0.458424  0.725146  1
  N  N39  1  0.758808  0.492490  0.484679  1
  N  N40  1  0.558026  0.807962  0.140868  1
  N  N41  1  0.329450  0.958424  0.774854  1
  N  N42  1  0.670550  0.541576  0.274854  1
  N  N43  1  0.241192  0.007510  0.984679  1
  N  N44  1  0.670550  0.041576  0.225146  1
  N  N45  1  0.558026  0.307962  0.359132  1
  N  N46  1  0.441974  0.192038  0.859132  1
  N  N47  1  0.241192  0.507510  0.515321  1
  O  O48  1  0.694194  0.214627  0.623906  1
  O  O49  1  0.305806  0.285373  0.123906  1
  O  O50  1  0.305806  0.785373  0.376094  1
  O  O51  1  0.260594  0.527974  0.046126  1
  O  O52  1  0.953380  0.306500  0.045573  1
  O  O53  1  0.046620  0.693500  0.954427  1
  O  O54  1  0.046620  0.193500  0.545573  1
  O  O55  1  0.260594  0.027974  0.453874  1
  O  O56  1  0.694194  0.714627  0.876094  1
  O  O57  1  0.739406  0.972026  0.546126  1
  O  O58  1  0.739406  0.472026  0.953874  1
  O  O59  1  0.953380  0.806500  0.454427  1
  F  F60  1  0.898722  0.080878  0.752946  1
  F  F61  1  0.101278  0.419122  0.252946  1
  F  F62  1  0.898722  0.580878  0.747054  1
  F  F63  1  0.101278  0.919122  0.247054  1
