# generated using pymatgen
data_V6O11
_symmetry_space_group_name_H-M   'P 1'
_cell_length_a   5.57272469
_cell_length_b   7.09936115
_cell_length_c   9.77224844
_cell_angle_alpha   89.14032900
_cell_angle_beta   80.27737853
_cell_angle_gamma   71.73310335
_symmetry_Int_Tables_number   1
_chemical_formula_structural   V6O11
_chemical_formula_sum   'V12 O22'
_cell_volume   361.56398741
_cell_formula_units_Z   2
loop_
 _symmetry_equiv_pos_site_id
 _symmetry_equiv_pos_as_xyz
  1  'x, y, z'
loop_
 _atom_site_type_symbol
 _atom_site_label
 _atom_site_symmetry_multiplicity
 _atom_site_fract_x
 _atom_site_fract_y
 _atom_site_fract_z
 _atom_site_occupancy
  O  O0  1  0.104275  0.648958  0.468315  1
  O  O1  1  0.895725  0.351042  0.531685  1
  O  O2  1  0.595773  0.700163  0.422924  1
  O  O3  1  0.404228  0.299836  0.577076  1
  O  O4  1  0.874138  0.020530  0.390694  1
  O  O5  1  0.125860  0.979471  0.609306  1
  O  O6  1  0.362666  0.079305  0.348447  1
  O  O7  1  0.637335  0.920695  0.651553  1
  O  O8  1  0.553367  0.358401  0.297008  1
  O  O9  1  0.446633  0.641598  0.702992  1
  O  O10  1  0.058592  0.418367  0.246222  1
  O  O11  1  0.941408  0.581633  0.753779  1
  O  O12  1  0.202280  0.548557  0.972195  1
  O  O13  1  0.797719  0.451443  0.027804  1
  O  O14  1  0.481811  0.818615  0.934025  1
  O  O15  1  0.518190  0.181384  0.065975  1
  O  O16  1  0.995062  0.903220  0.891121  1
  O  O17  1  0.332694  0.744738  0.211214  1
  O  O18  1  0.185462  0.196871  0.858138  1
  O  O19  1  0.814538  0.803129  0.141861  1
  O  O20  1  0.667307  0.255262  0.788786  1
  O  O21  1  0.004936  0.096780  0.108879  1
  V  V22  1  0.221353  0.366638  0.417722  1
  V  V23  1  0.778646  0.633362  0.582279  1
  V  V24  1  0.247467  0.856057  0.414874  1
  V  V25  1  0.752533  0.143942  0.585126  1
  V  V26  1  0.692374  0.081123  0.251408  1
  V  V27  1  0.307627  0.918877  0.748592  1
  V  V28  1  0.700257  0.567163  0.236934  1
  V  V29  1  0.299743  0.432836  0.763067  1
  V  V30  1  0.173325  0.801631  0.068724  1
  V  V31  1  0.826676  0.198369  0.931276  1
  V  V32  1  0.185782  0.298900  0.065715  1
  V  V33  1  0.814217  0.701100  0.934285  1
