# generated using pymatgen
data_Tb4MgIr
_symmetry_space_group_name_H-M   'P 1'
_cell_length_a   9.75236628
_cell_length_b   9.75236625
_cell_length_c   9.75236628
_cell_angle_alpha   59.99999988
_cell_angle_beta   60.00000001
_cell_angle_gamma   59.99999788
_symmetry_Int_Tables_number   1
_chemical_formula_structural   Tb4MgIr
_chemical_formula_sum   'Tb16 Mg4 Ir4'
_cell_volume   655.86583129
_cell_formula_units_Z   4
loop_
 _symmetry_equiv_pos_site_id
 _symmetry_equiv_pos_as_xyz
  1  'x, y, z'
loop_
 _atom_site_type_symbol
 _atom_site_label
 _atom_site_symmetry_multiplicity
 _atom_site_fract_x
 _atom_site_fract_y
 _atom_site_fract_z
 _atom_site_occupancy
  Tb  Tb0  1  0.811740  0.811740  0.188260  1
  Tb  Tb1  1  0.188260  0.188260  0.811740  1
  Tb  Tb2  1  0.436957  0.063043  0.063043  1
  Tb  Tb3  1  0.653612  0.653612  0.039165  1
  Tb  Tb4  1  0.653612  0.653612  0.653612  1
  Tb  Tb5  1  0.063043  0.436957  0.063043  1
  Tb  Tb6  1  0.811740  0.188260  0.188260  1
  Tb  Tb7  1  0.811740  0.188260  0.811740  1
  Tb  Tb8  1  0.188260  0.811740  0.811740  1
  Tb  Tb9  1  0.063043  0.436957  0.436957  1
  Tb  Tb10  1  0.436957  0.063043  0.436957  1
  Tb  Tb11  1  0.063043  0.063043  0.436957  1
  Tb  Tb12  1  0.436957  0.436957  0.063043  1
  Tb  Tb13  1  0.188260  0.811740  0.188260  1
  Tb  Tb14  1  0.653612  0.039165  0.653612  1
  Tb  Tb15  1  0.039165  0.653612  0.653612  1
  Mg  Mg16  1  0.420579  0.738264  0.420579  1
  Mg  Mg17  1  0.738264  0.420579  0.420579  1
  Mg  Mg18  1  0.420579  0.420579  0.420579  1
  Mg  Mg19  1  0.420579  0.420579  0.738264  1
  Ir  Ir20  1  0.858721  0.423838  0.858721  1
  Ir  Ir21  1  0.423838  0.858721  0.858721  1
  Ir  Ir22  1  0.858721  0.858721  0.858721  1
  Ir  Ir23  1  0.858721  0.858721  0.423838  1
