# generated using pymatgen
data_K2CrSO7
_symmetry_space_group_name_H-M   'P 1'
_cell_length_a   7.52305371
_cell_length_b   7.53030040
_cell_length_c   13.19239104
_cell_angle_alpha   91.45457844
_cell_angle_beta   90.00000000
_cell_angle_gamma   90.00000000
_symmetry_Int_Tables_number   1
_chemical_formula_structural   K2CrSO7
_chemical_formula_sum   'K8 Cr4 S4 O28'
_cell_volume   747.11939620
_cell_formula_units_Z   4
loop_
 _symmetry_equiv_pos_site_id
 _symmetry_equiv_pos_as_xyz
  1  'x, y, z'
loop_
 _atom_site_type_symbol
 _atom_site_label
 _atom_site_symmetry_multiplicity
 _atom_site_fract_x
 _atom_site_fract_y
 _atom_site_fract_z
 _atom_site_occupancy
  K  K0  1  0.119422  0.132115  0.155928  1
  K  K1  1  0.292618  0.822457  0.364160  1
  K  K2  1  0.619422  0.367885  0.344072  1
  K  K3  1  0.207382  0.322457  0.864160  1
  K  K4  1  0.707382  0.177543  0.635840  1
  K  K5  1  0.792618  0.677543  0.135840  1
  K  K6  1  0.880578  0.867885  0.844072  1
  K  K7  1  0.380578  0.632115  0.655928  1
  Cr  Cr8  1  0.168661  0.326894  0.419508  1
  Cr  Cr9  1  0.831339  0.673106  0.580492  1
  Cr  Cr10  1  0.668661  0.173106  0.080492  1
  Cr  Cr11  1  0.331339  0.826894  0.919508  1
  S  S12  1  0.791152  0.886386  0.383538  1
  S  S13  1  0.291152  0.613614  0.116462  1
  S  S14  1  0.208848  0.113614  0.616462  1
  S  S15  1  0.708848  0.386386  0.883538  1
  O  O16  1  0.784527  0.309124  0.153158  1
  O  O17  1  0.425604  0.563680  0.190738  1
  O  O18  1  0.407939  0.707533  0.030401  1
  O  O19  1  0.667154  0.750471  0.343926  1
  O  O20  1  0.296960  0.492865  0.454482  1
  O  O21  1  0.284527  0.190876  0.346842  1
  O  O22  1  0.925604  0.936320  0.309262  1
  O  O23  1  0.703040  0.507135  0.545518  1
  O  O24  1  0.503445  0.897578  0.858793  1
  O  O25  1  0.092061  0.207533  0.530401  1
  O  O26  1  0.200706  0.462933  0.066630  1
  O  O27  1  0.574396  0.436320  0.809262  1
  O  O28  1  0.700706  0.037067  0.433370  1
  O  O29  1  0.832846  0.250471  0.843926  1
  O  O30  1  0.203040  0.992865  0.954482  1
  O  O31  1  0.799294  0.537067  0.933370  1
  O  O32  1  0.496555  0.102422  0.141207  1
  O  O33  1  0.592061  0.292467  0.969599  1
  O  O34  1  0.003445  0.602422  0.641207  1
  O  O35  1  0.167154  0.749529  0.156074  1
  O  O36  1  0.215473  0.690876  0.846842  1
  O  O37  1  0.299294  0.962933  0.566630  1
  O  O38  1  0.996555  0.397578  0.358793  1
  O  O39  1  0.074396  0.063680  0.690738  1
  O  O40  1  0.907939  0.792467  0.469599  1
  O  O41  1  0.796960  0.007135  0.045518  1
  O  O42  1  0.332846  0.249529  0.656074  1
  O  O43  1  0.715473  0.809124  0.653158  1
