# generated using pymatgen
data_Sr7Zr(Si2O7)3
_symmetry_space_group_name_H-M   'P 1'
_cell_length_a   8.50544470
_cell_length_b   8.51594847
_cell_length_c   8.52263774
_cell_angle_alpha   106.05985577
_cell_angle_beta   106.16054313
_cell_angle_gamma   106.02148609
_symmetry_Int_Tables_number   1
_chemical_formula_structural   Sr7Zr(Si2O7)3
_chemical_formula_sum   'Sr7 Zr1 Si6 O21'
_cell_volume   526.46358294
_cell_formula_units_Z   1
loop_
 _symmetry_equiv_pos_site_id
 _symmetry_equiv_pos_as_xyz
  1  'x, y, z'
loop_
 _atom_site_type_symbol
 _atom_site_label
 _atom_site_symmetry_multiplicity
 _atom_site_fract_x
 _atom_site_fract_y
 _atom_site_fract_z
 _atom_site_occupancy
  Sr  Sr0  1  0.628647  0.151722  0.750665  1
  Sr  Sr1  1  0.851197  0.248987  0.372442  1
  Sr  Sr2  1  0.500000  0.500000  0.500000  1
  Sr  Sr3  1  0.371353  0.848278  0.249335  1
  Sr  Sr4  1  0.148803  0.751013  0.627558  1
  Sr  Sr5  1  0.249543  0.372854  0.849566  1
  Sr  Sr6  1  0.750457  0.627146  0.150434  1
  Zr  Zr7  1  0.000000  0.000000  0.000000  1
  Si  Si8  1  0.926802  0.541937  0.816849  1
  Si  Si9  1  0.540441  0.815732  0.927276  1
  Si  Si10  1  0.183645  0.072826  0.458577  1
  Si  Si11  1  0.459559  0.184268  0.072724  1
  Si  Si12  1  0.816355  0.927174  0.541423  1
  Si  Si13  1  0.073198  0.458063  0.183151  1
  O  O14  1  0.745108  0.714325  0.455355  1
  O  O15  1  0.012126  0.457961  0.681171  1
  O  O16  1  0.982990  0.242239  0.124925  1
  O  O17  1  0.125628  0.983895  0.242796  1
  O  O18  1  0.713615  0.456401  0.745864  1
  O  O19  1  0.458955  0.681895  0.015545  1
  O  O20  1  0.286385  0.543599  0.254136  1
  O  O21  1  0.451169  0.741228  0.714391  1
  O  O22  1  0.319180  0.986597  0.541929  1
  O  O23  1  0.017010  0.757761  0.875075  1
  O  O24  1  0.680820  0.013403  0.458071  1
  O  O25  1  0.254892  0.285675  0.544645  1
  O  O26  1  0.874372  0.016105  0.757204  1
  O  O27  1  0.756822  0.873264  0.014415  1
  O  O28  1  0.000000  0.500000  0.000000  1
  O  O29  1  0.541045  0.318105  0.984455  1
  O  O30  1  0.000000  0.000000  0.500000  1
  O  O31  1  0.987874  0.542039  0.318829  1
  O  O32  1  0.548831  0.258772  0.285609  1
  O  O33  1  0.500000  0.000000  0.000000  1
  O  O34  1  0.243178  0.126736  0.985585  1
