# generated using pymatgen
data_DyPS4
_symmetry_space_group_name_H-M   'P 1'
_cell_length_a   10.80162123
_cell_length_b   10.80162124
_cell_length_c   12.22752170
_cell_angle_alpha   116.21195052
_cell_angle_beta   116.21195054
_cell_angle_gamma   90.00000001
_symmetry_Int_Tables_number   1
_chemical_formula_structural   DyPS4
_chemical_formula_sum   'Dy8 P8 S32'
_cell_volume   1114.07708707
_cell_formula_units_Z   8
loop_
 _symmetry_equiv_pos_site_id
 _symmetry_equiv_pos_as_xyz
  1  'x, y, z'
loop_
 _atom_site_type_symbol
 _atom_site_label
 _atom_site_symmetry_multiplicity
 _atom_site_fract_x
 _atom_site_fract_y
 _atom_site_fract_z
 _atom_site_occupancy
  P  P0  1  0.288096  0.250000  0.500000  1
  P  P1  1  0.788096  0.250000  0.500000  1
  P  P2  1  0.750000  0.788096  0.000000  1
  P  P3  1  0.250000  0.711904  0.000000  1
  P  P4  1  0.711904  0.750000  0.500000  1
  P  P5  1  0.211904  0.750000  0.500000  1
  P  P6  1  0.250000  0.211904  0.000000  1
  P  P7  1  0.750000  0.288096  0.000000  1
  S  S8  1  0.084578  0.611272  0.994438  1
  S  S9  1  0.909860  0.883166  0.994438  1
  S  S10  1  0.611272  0.909860  0.494438  1
  S  S11  1  0.883166  0.084578  0.494438  1
  S  S12  1  0.415422  0.616834  0.005562  1
  S  S13  1  0.590140  0.888728  0.005562  1
  S  S14  1  0.888728  0.415422  0.505562  1
  S  S15  1  0.616834  0.590140  0.505562  1
  S  S16  1  0.343559  0.404336  0.179951  1
  S  S17  1  0.275615  0.343559  0.679951  1
  S  S18  1  0.404336  0.836392  0.679951  1
  S  S19  1  0.663608  0.095664  0.820049  1
  S  S20  1  0.156441  0.224385  0.820049  1
  S  S21  1  0.224385  0.663608  0.320049  1
  S  S22  1  0.095664  0.156441  0.320049  1
  S  S23  1  0.836392  0.275615  0.179951  1
  S  S24  1  0.656441  0.595664  0.820049  1
  S  S25  1  0.724385  0.656441  0.320049  1
  S  S26  1  0.595664  0.163608  0.320049  1
  S  S27  1  0.336392  0.904336  0.179951  1
  S  S28  1  0.843559  0.775615  0.179951  1
  S  S29  1  0.775615  0.336392  0.679951  1
  S  S30  1  0.904336  0.843559  0.679951  1
  S  S31  1  0.163608  0.724385  0.820049  1
  S  S32  1  0.090140  0.116834  0.005562  1
  S  S33  1  0.388728  0.090140  0.505562  1
  S  S34  1  0.116834  0.915422  0.505562  1
  S  S35  1  0.584578  0.383166  0.994438  1
  S  S36  1  0.409860  0.111272  0.994438  1
  S  S37  1  0.111272  0.584578  0.494438  1
  S  S38  1  0.383166  0.409860  0.494438  1
  S  S39  1  0.915422  0.388728  0.005562  1
  Dy  Dy40  1  0.875000  0.125000  0.750000  1
  Dy  Dy41  1  0.125000  0.875000  0.250000  1
  Dy  Dy42  1  0.625000  0.375000  0.250000  1
  Dy  Dy43  1  0.375000  0.625000  0.750000  1
  Dy  Dy44  1  0.625000  0.875000  0.250000  1
  Dy  Dy45  1  0.875000  0.625000  0.750000  1
  Dy  Dy46  1  0.375000  0.125000  0.750000  1
  Dy  Dy47  1  0.125000  0.375000  0.250000  1
