# generated using pymatgen
data_K2Si4O9
_symmetry_space_group_name_H-M   'P 1'
_cell_length_a   5.00261180
_cell_length_b   8.51876940
_cell_length_c   12.32657843
_cell_angle_alpha   70.83840907
_cell_angle_beta   89.59124543
_cell_angle_gamma   89.00948398
_symmetry_Int_Tables_number   1
_chemical_formula_structural   K2Si4O9
_chemical_formula_sum   'K4 Si8 O18'
_cell_volume   496.13192611
_cell_formula_units_Z   2
loop_
 _symmetry_equiv_pos_site_id
 _symmetry_equiv_pos_as_xyz
  1  'x, y, z'
loop_
 _atom_site_type_symbol
 _atom_site_label
 _atom_site_symmetry_multiplicity
 _atom_site_fract_x
 _atom_site_fract_y
 _atom_site_fract_z
 _atom_site_occupancy
  K  K0  1  0.743940  0.588501  0.348956  1
  K  K1  1  0.256060  0.411499  0.651044  1
  K  K2  1  0.236459  0.935114  0.138633  1
  K  K3  1  0.763541  0.064886  0.861367  1
  Si  Si4  1  0.716922  0.182203  0.552312  1
  Si  Si5  1  0.207304  0.441209  0.145666  1
  Si  Si6  1  0.212729  0.197602  0.398788  1
  Si  Si7  1  0.283078  0.817797  0.447688  1
  Si  Si8  1  0.787271  0.802398  0.601212  1
  Si  Si9  1  0.792696  0.558791  0.854334  1
  Si  Si10  1  0.708172  0.668220  0.063596  1
  Si  Si11  1  0.291828  0.331780  0.936404  1
  O  O12  1  0.716481  0.654521  0.719999  1
  O  O13  1  0.905146  0.226414  0.434232  1
  O  O14  1  0.397867  0.601643  0.095549  1
  O  O15  1  0.283519  0.345479  0.280001  1
  O  O16  1  0.406681  0.212584  0.500491  1
  O  O17  1  0.094854  0.773586  0.565768  1
  O  O18  1  0.593319  0.787416  0.499509  1
  O  O19  1  0.756496  0.689834  0.925446  1
  O  O20  1  0.602133  0.398357  0.904451  1
  O  O21  1  0.243504  0.310166  0.074554  1
  O  O22  1  0.897669  0.507208  0.140228  1
  O  O23  1  0.247711  0.019823  0.376821  1
  O  O24  1  0.102331  0.492792  0.859772  1
  O  O25  1  0.768121  0.292782  0.630411  1
  O  O26  1  0.752289  0.980177  0.623179  1
  O  O27  1  0.231879  0.707218  0.369589  1
  O  O28  1  0.247867  0.166187  0.908402  1
  O  O29  1  0.752133  0.833813  0.091598  1
