# generated using pymatgen
data_Tl2BiP2S7
_symmetry_space_group_name_H-M   'P 1'
_cell_length_a   6.81641648
_cell_length_b   12.27033651
_cell_length_c   17.05788921
_cell_angle_alpha   79.41376040
_cell_angle_beta   78.47381983
_cell_angle_gamma   73.87763304
_symmetry_Int_Tables_number   1
_chemical_formula_structural   Tl2BiP2S7
_chemical_formula_sum   'Tl8 Bi4 P8 S28'
_cell_volume   1330.44594669
_cell_formula_units_Z   4
loop_
 _symmetry_equiv_pos_site_id
 _symmetry_equiv_pos_as_xyz
  1  'x, y, z'
loop_
 _atom_site_type_symbol
 _atom_site_label
 _atom_site_symmetry_multiplicity
 _atom_site_fract_x
 _atom_site_fract_y
 _atom_site_fract_z
 _atom_site_occupancy
  Tl  Tl0  1  0.536630  0.868406  0.118165  1
  Tl  Tl1  1  0.476882  0.368511  0.618133  1
  Tl  Tl2  1  0.463370  0.131594  0.881835  1
  Tl  Tl3  1  0.826910  0.825478  0.526958  1
  Tl  Tl4  1  0.523118  0.631489  0.381867  1
  Tl  Tl5  1  0.173090  0.174522  0.473042  1
  Tl  Tl6  1  0.179262  0.674464  0.973032  1
  Tl  Tl7  1  0.820738  0.325536  0.026968  1
  Bi  Bi8  1  0.886955  0.080066  0.246537  1
  Bi  Bi9  1  0.113045  0.919934  0.753463  1
  Bi  Bi10  1  0.213648  0.419868  0.253409  1
  Bi  Bi11  1  0.786352  0.580132  0.746591  1
  P  P12  1  0.069616  0.709662  0.192360  1
  P  P13  1  0.971727  0.790242  0.307557  1
  P  P14  1  0.334100  0.692420  0.638327  1
  P  P15  1  0.930384  0.290338  0.807640  1
  P  P16  1  0.665900  0.307580  0.361673  1
  P  P17  1  0.028273  0.209758  0.692443  1
  P  P18  1  0.335191  0.192357  0.138307  1
  P  P19  1  0.664809  0.807643  0.861693  1
  S  S20  1  0.140657  0.612507  0.606909  1
  S  S21  1  0.360065  0.887540  0.893131  1
  S  S22  1  0.257503  0.865929  0.597479  1
  S  S23  1  0.883849  0.602554  0.198018  1
  S  S24  1  0.116151  0.397446  0.801982  1
  S  S25  1  0.628996  0.616124  0.588433  1
  S  S26  1  0.045953  0.839737  0.101834  1
  S  S27  1  0.954047  0.160263  0.898166  1
  S  S28  1  0.639935  0.112460  0.106869  1
  S  S29  1  0.237611  0.172942  0.262390  1
  S  S30  1  0.315504  0.102680  0.698076  1
  S  S31  1  0.371004  0.383876  0.411567  1
  S  S32  1  0.833537  0.883951  0.911574  1
  S  S33  1  0.859343  0.387493  0.393091  1
  S  S34  1  0.166463  0.116049  0.088426  1
  S  S35  1  0.684496  0.897320  0.301924  1
  S  S36  1  0.012375  0.339805  0.601897  1
  S  S37  1  0.327004  0.672958  0.762409  1
  S  S38  1  0.672996  0.327042  0.237591  1
  S  S39  1  0.720888  0.634125  0.902558  1
  S  S40  1  0.367374  0.612150  0.196410  1
  S  S41  1  0.279112  0.365875  0.097442  1
  S  S42  1  0.824006  0.112201  0.696514  1
  S  S43  1  0.742497  0.134071  0.402521  1
  S  S44  1  0.762389  0.827058  0.737610  1
  S  S45  1  0.632626  0.387850  0.803590  1
  S  S46  1  0.175994  0.887799  0.303486  1
  S  S47  1  0.987625  0.660195  0.398103  1
