# generated using pymatgen
data_BaTbMn2O6
_symmetry_space_group_name_H-M   'P 1'
_cell_length_a   5.57078987
_cell_length_b   5.57078897
_cell_length_c   7.80647154
_cell_angle_alpha   90.00000000
_cell_angle_beta   90.00000000
_cell_angle_gamma   89.09698225
_symmetry_Int_Tables_number   1
_chemical_formula_structural   BaTbMn2O6
_chemical_formula_sum   'Ba2 Tb2 Mn4 O12'
_cell_volume   242.23356642
_cell_formula_units_Z   2
loop_
 _symmetry_equiv_pos_site_id
 _symmetry_equiv_pos_as_xyz
  1  'x, y, z'
loop_
 _atom_site_type_symbol
 _atom_site_label
 _atom_site_symmetry_multiplicity
 _atom_site_fract_x
 _atom_site_fract_y
 _atom_site_fract_z
 _atom_site_occupancy
  Tb  Tb0  1  0.234511  0.234511  0.500000  1
  Tb  Tb1  1  0.765489  0.765489  0.500000  1
  Ba  Ba2  1  0.245778  0.245778  0.000000  1
  Ba  Ba3  1  0.754222  0.754222  0.000000  1
  Mn  Mn4  1  0.748485  0.251515  0.258255  1
  Mn  Mn5  1  0.251515  0.748485  0.258255  1
  Mn  Mn6  1  0.251515  0.748485  0.741745  1
  Mn  Mn7  1  0.748485  0.251515  0.741745  1
  O  O8  1  0.500000  0.000000  0.286557  1
  O  O9  1  0.271356  0.728644  0.000000  1
  O  O10  1  0.190550  0.809450  0.500000  1
  O  O11  1  0.500000  0.500000  0.312689  1
  O  O12  1  0.809450  0.190550  0.500000  1
  O  O13  1  0.000000  0.500000  0.286557  1
  O  O14  1  0.500000  0.500000  0.687311  1
  O  O15  1  0.000000  0.000000  0.760696  1
  O  O16  1  0.500000  0.000000  0.713443  1
  O  O17  1  0.728644  0.271356  0.000000  1
  O  O18  1  0.000000  0.000000  0.239304  1
  O  O19  1  0.000000  0.500000  0.713443  1
