# generated using pymatgen
data_As3H9RhC3(ClO)3
_symmetry_space_group_name_H-M   'P 1'
_cell_length_a   9.12663014
_cell_length_b   9.19188864
_cell_length_c   15.99415548
_cell_angle_alpha   99.00608540
_cell_angle_beta   90.00000000
_cell_angle_gamma   90.00000000
_symmetry_Int_Tables_number   1
_chemical_formula_structural   As3H9RhC3(ClO)3
_chemical_formula_sum   'As12 H36 Rh4 C12 Cl12 O12'
_cell_volume   1325.22352799
_cell_formula_units_Z   4
loop_
 _symmetry_equiv_pos_site_id
 _symmetry_equiv_pos_as_xyz
  1  'x, y, z'
loop_
 _atom_site_type_symbol
 _atom_site_label
 _atom_site_symmetry_multiplicity
 _atom_site_fract_x
 _atom_site_fract_y
 _atom_site_fract_z
 _atom_site_occupancy
  As  As0  1  0.640336  0.654828  0.421818  1
  As  As1  1  0.717997  0.353545  0.475255  1
  As  As2  1  0.282003  0.646455  0.524745  1
  As  As3  1  0.782003  0.853545  0.975255  1
  As  As4  1  0.140336  0.845172  0.078182  1
  As  As5  1  0.859664  0.154828  0.921818  1
  As  As6  1  0.583457  0.681554  0.614880  1
  As  As7  1  0.217997  0.146455  0.024745  1
  As  As8  1  0.416543  0.318446  0.385120  1
  As  As9  1  0.083457  0.818446  0.885120  1
  As  As10  1  0.916543  0.181554  0.114880  1
  As  As11  1  0.359664  0.345172  0.578182  1
  H  H12  1  0.780517  0.261778  0.248677  1
  H  H13  1  0.786428  0.392027  0.878360  1
  H  H14  1  0.286428  0.107973  0.621640  1
  H  H15  1  0.213572  0.607973  0.121640  1
  H  H16  1  0.727021  0.743677  0.290612  1
  H  H17  1  0.715099  0.906320  0.683861  1
  H  H18  1  0.387123  0.347786  0.001382  1
  H  H19  1  0.215099  0.593680  0.816139  1
  H  H20  1  0.100211  0.811789  0.609587  1
  H  H21  1  0.445755  0.130022  0.256646  1
  H  H22  1  0.899789  0.188211  0.390413  1
  H  H23  1  0.784901  0.406320  0.183861  1
  H  H24  1  0.272979  0.256323  0.709388  1
  H  H25  1  0.612877  0.652214  0.998618  1
  H  H26  1  0.513049  0.811373  0.975426  1
  H  H27  1  0.132841  0.235614  0.628572  1
  H  H28  1  0.284901  0.093680  0.316139  1
  H  H29  1  0.367159  0.735614  0.128572  1
  H  H30  1  0.719483  0.761778  0.748677  1
  H  H31  1  0.772979  0.243677  0.790612  1
  H  H32  1  0.986951  0.311373  0.475426  1
  H  H33  1  0.945755  0.369978  0.243354  1
  H  H34  1  0.054245  0.630022  0.756646  1
  H  H35  1  0.112877  0.847786  0.501382  1
  H  H36  1  0.227021  0.756323  0.209388  1
  H  H37  1  0.713572  0.892027  0.378360  1
  H  H38  1  0.887123  0.152214  0.498618  1
  H  H39  1  0.399789  0.311789  0.109587  1
  H  H40  1  0.632841  0.264386  0.871428  1
  H  H41  1  0.486951  0.188627  0.024574  1
  H  H42  1  0.219483  0.738222  0.751323  1
  H  H43  1  0.013049  0.688627  0.524574  1
  H  H44  1  0.600211  0.688211  0.890413  1
  H  H45  1  0.867159  0.764386  0.371428  1
  H  H46  1  0.554245  0.869978  0.743354  1
  H  H47  1  0.280517  0.238222  0.251323  1
  Rh  Rh48  1  0.394688  0.578026  0.390384  1
  Rh  Rh49  1  0.105312  0.078026  0.890384  1
  Rh  Rh50  1  0.894688  0.921974  0.109616  1
  Rh  Rh51  1  0.605312  0.421974  0.609616  1
  C  C52  1  0.249106  0.221130  0.642151  1
  C  C53  1  0.848434  0.322149  0.209364  1
  C  C54  1  0.605201  0.736667  0.957508  1
  C  C55  1  0.348434  0.177851  0.290636  1
  C  C56  1  0.894799  0.236667  0.457508  1
  C  C57  1  0.250894  0.721130  0.142151  1
  C  C58  1  0.394799  0.263333  0.042492  1
  C  C59  1  0.749106  0.278870  0.857849  1
  C  C60  1  0.105201  0.763333  0.542492  1
  C  C61  1  0.651566  0.822149  0.709364  1
  C  C62  1  0.750894  0.778870  0.357849  1
  C  C63  1  0.151566  0.677851  0.790636  1
  Cl  Cl64  1  0.490963  0.516415  0.248547  1
  Cl  Cl65  1  0.509037  0.483585  0.751453  1
  Cl  Cl66  1  0.855160  0.483664  0.649711  1
  Cl  Cl67  1  0.144840  0.516336  0.350289  1
  Cl  Cl68  1  0.864338  0.663209  0.115375  1
  Cl  Cl69  1  0.635662  0.163209  0.615375  1
  Cl  Cl70  1  0.364338  0.836791  0.384625  1
  Cl  Cl71  1  0.355160  0.016336  0.850289  1
  Cl  Cl72  1  0.135662  0.336791  0.884625  1
  Cl  Cl73  1  0.009037  0.016415  0.748547  1
  Cl  Cl74  1  0.990963  0.983585  0.251453  1
  Cl  Cl75  1  0.644840  0.983664  0.149711  1
  O  O76  1  0.102224  0.248727  0.105547  1
  O  O77  1  0.229017  0.494378  0.578007  1
  O  O78  1  0.602224  0.251273  0.394453  1
  O  O79  1  0.829208  0.253219  0.027868  1
  O  O80  1  0.170792  0.746781  0.972132  1
  O  O81  1  0.329208  0.246781  0.472132  1
  O  O82  1  0.770983  0.505622  0.421993  1
  O  O83  1  0.397776  0.748727  0.605547  1
  O  O84  1  0.897776  0.751273  0.894453  1
  O  O85  1  0.270983  0.994378  0.078007  1
  O  O86  1  0.670792  0.753219  0.527868  1
  O  O87  1  0.729017  0.005622  0.921993  1
