# generated using pymatgen
data_MgAl2O4
_symmetry_space_group_name_H-M   'P 1'
_cell_length_a   5.77624110
_cell_length_b   5.77018175
_cell_length_c   40.44812453
_cell_angle_alpha   60.04023156
_cell_angle_beta   60.07244542
_cell_angle_gamma   60.02976588
_symmetry_Int_Tables_number   1
_chemical_formula_structural   MgAl2O4
_chemical_formula_sum   'Mg14 Al28 O56'
_cell_volume   954.30060172
_cell_formula_units_Z   14
loop_
 _symmetry_equiv_pos_site_id
 _symmetry_equiv_pos_as_xyz
  1  'x, y, z'
loop_
 _atom_site_type_symbol
 _atom_site_label
 _atom_site_symmetry_multiplicity
 _atom_site_fract_x
 _atom_site_fract_y
 _atom_site_fract_z
 _atom_site_occupancy
  Al  Al0  1  0.134982  0.119347  0.160901  1
  Al  Al1  1  0.498540  0.497769  0.071850  1
  Al  Al2  1  0.506463  0.501109  0.141616  1
  Al  Al3  1  0.498487  0.000721  0.071860  1
  Al  Al4  1  0.002920  0.497555  0.071707  1
  Al  Al5  1  0.502070  0.503763  0.214820  1
  Al  Al6  1  0.496469  0.499987  0.286188  1
  Al  Al7  1  0.502000  0.990365  0.214802  1
  Al  Al8  1  0.499124  0.499475  0.357353  1
  Al  Al9  1  0.000421  0.500062  0.499929  1
  Al  Al10  1  0.499627  0.500304  0.428567  1
  Al  Al11  1  0.499105  0.999915  0.357357  1
  Al  Al12  1  -0.001598  0.499545  0.357502  1
  Al  Al13  1  0.500083  0.500075  0.499912  1
  Al  Al14  1  0.500727  0.500725  0.571116  1
  Al  Al15  1  0.500076  0.000506  0.499914  1
  Al  Al16  1  0.500390  0.000899  0.642626  1
  Al  Al17  1  0.001341  0.500259  0.785445  1
  Al  Al18  1  0.500385  0.500393  0.642626  1
  Al  Al19  1  0.500992  0.500969  0.713870  1
  Al  Al20  1  0.000906  0.500382  0.642627  1
  Al  Al21  1  0.500253  0.500241  0.785449  1
  Al  Al22  1  0.005588  0.498165  0.928298  1
  Al  Al23  1  0.501932  0.501844  0.856340  1
  Al  Al24  1  0.498106  0.005478  0.928317  1
  Al  Al25  1  0.500261  0.001314  0.785446  1
  Al  Al26  1  0.498147  0.498265  0.928307  1
  Al  Al27  1  0.878344  0.878130  0.980756  1
  Mg  Mg28  1  0.118753  0.118646  0.020572  1
  Mg  Mg29  1  0.496996  0.495976  0.001575  1
  Mg  Mg30  1  0.996276  0.502826  0.214001  1
  Mg  Mg31  1  0.131979  0.127821  0.301775  1
  Mg  Mg32  1  0.125246  0.125587  0.446237  1
  Mg  Mg33  1  0.874809  0.877533  0.124291  1
  Mg  Mg34  1  0.862357  0.876808  0.269168  1
  Mg  Mg35  1  0.125538  0.125984  0.588936  1
  Mg  Mg36  1  0.875255  0.875187  0.410625  1
  Mg  Mg37  1  0.125449  0.125908  0.731817  1
  Mg  Mg38  1  0.124951  0.125439  0.874890  1
  Mg  Mg39  1  0.876039  0.875543  0.553268  1
  Mg  Mg40  1  0.876045  0.875565  0.696119  1
  Mg  Mg41  1  0.874431  0.873957  0.839664  1
  O  O42  1  0.251153  0.249521  0.041714  1
  O  O43  1  0.254262  0.252146  0.105912  1
  O  O44  1  0.251148  0.707316  0.041711  1
  O  O45  1  0.707945  0.249824  0.041765  1
  O  O46  1  0.298216  0.736033  0.104234  1
  O  O47  1  0.279674  0.253231  0.175967  1
  O  O48  1  0.289779  0.260366  0.241341  1
  O  O49  1  0.279666  0.735252  0.175967  1
  O  O50  1  0.739653  0.298897  0.103647  1
  O  O51  1  0.749669  0.749882  0.035781  1
  O  O52  1  0.744155  0.257694  0.177202  1
  O  O53  1  0.739645  0.735880  0.103646  1
  O  O54  1  0.279201  0.743654  0.247628  1
  O  O55  1  0.259197  0.263916  0.323829  1
  O  O56  1  0.264184  0.262903  0.387153  1
  O  O57  1  0.259184  0.709890  0.323845  1
  O  O58  1  0.714932  0.288592  0.249885  1
  O  O59  1  0.720296  0.749322  0.183001  1
  O  O60  1  0.711024  0.263163  0.323221  1
  O  O61  1  0.714764  0.747405  0.249913  1
  O  O62  1  0.262184  0.262333  0.466679  1
  O  O63  1  0.289625  0.735183  0.391445  1
  O  O64  1  0.262156  0.708840  0.466682  1
  O  O65  1  0.734516  0.289910  0.391491  1
  O  O66  1  0.733439  0.735054  0.328055  1
  O  O67  1  0.263271  0.263227  0.530046  1
  O  O68  1  0.708641  0.262420  0.466655  1
  O  O69  1  0.734520  0.735239  0.391506  1
  O  O70  1  0.290462  0.735252  0.534150  1
  O  O71  1  0.262609  0.262591  0.609412  1
  O  O72  1  0.263348  0.263356  0.672855  1
  O  O73  1  0.735316  0.290243  0.534160  1
  O  O74  1  0.262614  0.708971  0.609411  1
  O  O75  1  0.735701  0.735738  0.470408  1
  O  O76  1  0.708789  0.262682  0.609415  1
  O  O77  1  0.735305  0.735319  0.534160  1
  O  O78  1  0.290658  0.735467  0.676921  1
  O  O79  1  0.262835  0.262808  0.752211  1
  O  O80  1  0.263170  0.263167  0.815777  1
  O  O81  1  0.262851  0.708868  0.752208  1
  O  O82  1  0.735537  0.290458  0.676928  1
  O  O83  1  0.736090  0.736056  0.613124  1
  O  O84  1  0.708686  0.262902  0.752214  1
  O  O85  1  0.735534  0.735539  0.676929  1
  O  O86  1  0.265300  0.265285  0.894484  1
  O  O87  1  0.289889  0.736045  0.819709  1
  O  O88  1  0.736142  0.289673  0.819716  1
  O  O89  1  0.735969  0.735921  0.756026  1
  O  O90  1  0.261727  0.261518  0.959318  1
  O  O91  1  0.265310  0.708067  0.894480  1
  O  O92  1  0.707866  0.265372  0.894490  1
  O  O93  1  0.736172  0.736155  0.819712  1
  O  O94  1  0.265250  0.753872  0.960993  1
  O  O95  1  0.754257  0.265215  0.960940  1
  O  O96  1  0.731982  0.732113  0.900549  1
  O  O97  1  0.754271  0.753908  0.960940  1
