# generated using pymatgen
data_Ho2Au5F21
_symmetry_space_group_name_H-M   'P 1'
_cell_length_a   8.07586809
_cell_length_b   9.14852683
_cell_length_c   12.08798718
_cell_angle_alpha   89.21968687
_cell_angle_beta   88.99817643
_cell_angle_gamma   88.97688817
_symmetry_Int_Tables_number   1
_chemical_formula_structural   Ho2Au5F21
_chemical_formula_sum   'Ho4 Au10 F42'
_cell_volume   892.73027325
_cell_formula_units_Z   2
loop_
 _symmetry_equiv_pos_site_id
 _symmetry_equiv_pos_as_xyz
  1  'x, y, z'
loop_
 _atom_site_type_symbol
 _atom_site_label
 _atom_site_symmetry_multiplicity
 _atom_site_fract_x
 _atom_site_fract_y
 _atom_site_fract_z
 _atom_site_occupancy
  Au  Au0  1  0.173728  0.277346  0.594487  1
  Au  Au1  1  0.826272  0.722654  0.405513  1
  Ho  Ho2  1  0.670987  0.316833  0.496309  1
  Ho  Ho3  1  0.329013  0.683168  0.503691  1
  Au  Au4  1  0.559481  0.508646  0.790954  1
  Au  Au5  1  0.440519  0.491354  0.209046  1
  Au  Au6  1  0.834975  0.776607  0.093561  1
  Au  Au7  1  0.165025  0.223393  0.906439  1
  Au  Au8  1  0.440369  0.014980  0.295158  1
  Au  Au9  1  0.559631  0.985020  0.704842  1
  Au  Au10  1  0.018558  0.250210  0.245616  1
  Au  Au11  1  0.981442  0.749790  0.754384  1
  Ho  Ho12  1  0.664803  0.182706  0.000881  1
  Ho  Ho13  1  0.335197  0.817294  0.999119  1
  F  F14  1  0.686559  0.406215  0.674048  1
  F  F15  1  0.313441  0.593785  0.325952  1
  F  F16  1  0.857624  0.259410  0.122673  1
  F  F17  1  0.142376  0.740590  0.877327  1
  F  F18  1  0.701762  0.400483  0.896107  1
  F  F19  1  0.298238  0.599517  0.103893  1
  F  F20  1  0.144744  0.414323  0.836213  1
  F  F21  1  0.855256  0.585677  0.163787  1
  F  F22  1  0.664534  0.100816  0.819019  1
  F  F23  1  0.335466  0.899184  0.180981  1
  F  F24  1  0.500000  0.000000  0.000000  1
  F  F25  1  0.525883  0.130791  0.417540  1
  F  F26  1  0.474117  0.869209  0.582460  1
  F  F27  1  0.931639  0.278750  0.576610  1
  F  F28  1  0.068361  0.721250  0.423390  1
  F  F29  1  0.500000  0.500000  0.500000  1
  F  F30  1  0.184805  0.243275  0.359711  1
  F  F31  1  0.815195  0.756725  0.640289  1
  F  F32  1  0.844160  0.226260  0.361924  1
  F  F33  1  0.155840  0.773740  0.638076  1
  F  F34  1  0.827494  0.514545  0.458209  1
  F  F35  1  0.172506  0.485455  0.541791  1
  F  F36  1  0.699662  0.092537  0.597551  1
  F  F37  1  0.300338  0.907463  0.402449  1
  F  F38  1  0.167624  0.080550  0.655034  1
  F  F39  1  0.832376  0.919450  0.344966  1
  F  F40  1  0.583720  0.735223  0.386766  1
  F  F41  1  0.416280  0.264777  0.613234  1
  F  F42  1  0.589069  0.386831  0.311078  1
  F  F43  1  0.410931  0.613169  0.688922  1
  F  F44  1  0.449487  0.613130  0.913850  1
  F  F45  1  0.550513  0.386870  0.086150  1
  F  F46  1  0.177390  0.021285  0.970163  1
  F  F47  1  0.822610  0.978715  0.029837  1
  F  F48  1  0.416847  0.879637  0.811646  1
  F  F49  1  0.583153  0.120363  0.188354  1
  F  F50  1  0.924186  0.198973  0.900992  1
  F  F51  1  0.075814  0.801027  0.099008  1
  F  F52  1  0.407127  0.254409  0.909338  1
  F  F53  1  0.592873  0.745591  0.090662  1
  F  F54  1  0.802464  0.730824  0.862725  1
  F  F55  1  0.197536  0.269176  0.137275  1
