# generated using pymatgen
data_TlGaBr4
_symmetry_space_group_name_H-M   'P 1'
_cell_length_a   11.61654914
_cell_length_b   12.74494316
_cell_length_c   13.10693077
_cell_angle_alpha   109.17917321
_cell_angle_beta   90.00000000
_cell_angle_gamma   90.00000000
_symmetry_Int_Tables_number   1
_chemical_formula_structural   TlGaBr4
_chemical_formula_sum   'Tl8 Ga8 Br32'
_cell_volume   1832.80430549
_cell_formula_units_Z   8
loop_
 _symmetry_equiv_pos_site_id
 _symmetry_equiv_pos_as_xyz
  1  'x, y, z'
loop_
 _atom_site_type_symbol
 _atom_site_label
 _atom_site_symmetry_multiplicity
 _atom_site_fract_x
 _atom_site_fract_y
 _atom_site_fract_z
 _atom_site_occupancy
  Tl  Tl0  1  0.138617  0.297662  0.378816  1
  Tl  Tl1  1  0.361383  0.297662  0.878816  1
  Tl  Tl2  1  0.840392  0.204482  0.019000  1
  Tl  Tl3  1  0.159608  0.795518  0.981000  1
  Tl  Tl4  1  0.340392  0.795518  0.481000  1
  Tl  Tl5  1  0.638617  0.702338  0.121184  1
  Tl  Tl6  1  0.659608  0.204482  0.519000  1
  Tl  Tl7  1  0.861383  0.702338  0.621184  1
  Ga  Ga8  1  0.638179  0.517685  0.788513  1
  Ga  Ga9  1  0.361821  0.482315  0.211487  1
  Ga  Ga10  1  0.420831  0.997648  0.279127  1
  Ga  Ga11  1  0.579169  0.002352  0.720873  1
  Ga  Ga12  1  0.861821  0.517685  0.288513  1
  Ga  Ga13  1  0.138179  0.482315  0.711487  1
  Ga  Ga14  1  0.079169  0.997648  0.779127  1
  Ga  Ga15  1  0.920831  0.002352  0.220873  1
  Br  Br16  1  0.243897  0.975653  0.358097  1
  Br  Br17  1  0.743897  0.024347  0.141903  1
  Br  Br18  1  0.924275  0.097707  0.409403  1
  Br  Br19  1  0.125917  0.499843  0.896197  1
  Br  Br20  1  0.214983  0.353394  0.128579  1
  Br  Br21  1  0.954130  0.810722  0.182559  1
  Br  Br22  1  0.285017  0.353394  0.628579  1
  Br  Br23  1  0.325568  0.661681  0.200927  1
  Br  Br24  1  0.966733  0.418001  0.612792  1
  Br  Br25  1  0.575725  0.097707  0.909403  1
  Br  Br26  1  0.674432  0.338319  0.799073  1
  Br  Br27  1  0.825568  0.338319  0.299073  1
  Br  Br28  1  0.545870  0.810722  0.682559  1
  Br  Br29  1  0.533267  0.418001  0.112792  1
  Br  Br30  1  0.424275  0.902293  0.090597  1
  Br  Br31  1  0.714983  0.646606  0.371421  1
  Br  Br32  1  0.931495  0.918567  0.858411  1
  Br  Br33  1  0.075725  0.902293  0.590597  1
  Br  Br34  1  0.568505  0.918567  0.358411  1
  Br  Br35  1  0.256103  0.975653  0.858097  1
  Br  Br36  1  0.045870  0.189278  0.817441  1
  Br  Br37  1  0.756103  0.024347  0.641903  1
  Br  Br38  1  0.033267  0.581999  0.387208  1
  Br  Br39  1  0.466733  0.581999  0.887208  1
  Br  Br40  1  0.785017  0.646606  0.871421  1
  Br  Br41  1  0.625917  0.500157  0.603803  1
  Br  Br42  1  0.374083  0.499843  0.396197  1
  Br  Br43  1  0.174432  0.661681  0.700927  1
  Br  Br44  1  0.874083  0.500157  0.103803  1
  Br  Br45  1  0.454130  0.189278  0.317441  1
  Br  Br46  1  0.431495  0.081433  0.641589  1
  Br  Br47  1  0.068505  0.081433  0.141589  1
