# generated using pymatgen
data_Ho4CdRh
_symmetry_space_group_name_H-M   'P 1'
_cell_length_a   9.57531864
_cell_length_b   9.57531855
_cell_length_c   9.57531870
_cell_angle_alpha   60.00000295
_cell_angle_beta   60.00000324
_cell_angle_gamma   60.00000185
_symmetry_Int_Tables_number   1
_chemical_formula_structural   Ho4CdRh
_chemical_formula_sum   'Ho16 Cd4 Rh4'
_cell_volume   620.79002823
_cell_formula_units_Z   4
loop_
 _symmetry_equiv_pos_site_id
 _symmetry_equiv_pos_as_xyz
  1  'x, y, z'
loop_
 _atom_site_type_symbol
 _atom_site_label
 _atom_site_symmetry_multiplicity
 _atom_site_fract_x
 _atom_site_fract_y
 _atom_site_fract_z
 _atom_site_occupancy
  Ho  Ho0  1  0.436159  0.063841  0.436159  1
  Ho  Ho1  1  0.063841  0.436159  0.063841  1
  Ho  Ho2  1  0.189377  0.810623  0.189377  1
  Ho  Ho3  1  0.049189  0.650270  0.650270  1
  Ho  Ho4  1  0.810623  0.189377  0.189377  1
  Ho  Ho5  1  0.650270  0.650270  0.650270  1
  Ho  Ho6  1  0.650270  0.650270  0.049189  1
  Ho  Ho7  1  0.810623  0.810623  0.189377  1
  Ho  Ho8  1  0.650270  0.049189  0.650270  1
  Ho  Ho9  1  0.189377  0.810623  0.810623  1
  Ho  Ho10  1  0.189377  0.189377  0.810623  1
  Ho  Ho11  1  0.063841  0.063841  0.436159  1
  Ho  Ho12  1  0.063841  0.436159  0.436159  1
  Ho  Ho13  1  0.436159  0.063841  0.063841  1
  Ho  Ho14  1  0.436159  0.436159  0.063841  1
  Ho  Ho15  1  0.810623  0.189377  0.810623  1
  Cd  Cd16  1  0.419061  0.742817  0.419061  1
  Cd  Cd17  1  0.419061  0.419061  0.742817  1
  Cd  Cd18  1  0.419061  0.419061  0.419061  1
  Cd  Cd19  1  0.742817  0.419061  0.419061  1
  Rh  Rh20  1  0.857462  0.427613  0.857462  1
  Rh  Rh21  1  0.427613  0.857462  0.857462  1
  Rh  Rh22  1  0.857462  0.857462  0.427613  1
  Rh  Rh23  1  0.857462  0.857462  0.857462  1
