# generated using pymatgen
data_Rb2ZnN12
_symmetry_space_group_name_H-M   'P 1'
_cell_length_a   6.67586450
_cell_length_b   7.34832790
_cell_length_c   21.16425111
_cell_angle_alpha   90.00000000
_cell_angle_beta   90.00000000
_cell_angle_gamma   90.00000000
_symmetry_Int_Tables_number   1
_chemical_formula_structural   Rb2ZnN12
_chemical_formula_sum   'Rb8 Zn4 N48'
_cell_volume   1038.24284355
_cell_formula_units_Z   4
loop_
 _symmetry_equiv_pos_site_id
 _symmetry_equiv_pos_as_xyz
  1  'x, y, z'
loop_
 _atom_site_type_symbol
 _atom_site_label
 _atom_site_symmetry_multiplicity
 _atom_site_fract_x
 _atom_site_fract_y
 _atom_site_fract_z
 _atom_site_occupancy
  Rb  Rb0  1  0.679718  0.380221  0.513615  1
  Rb  Rb1  1  0.679718  0.880221  0.986385  1
  Rb  Rb2  1  0.307875  0.122123  0.195678  1
  Rb  Rb3  1  0.307875  0.622123  0.304322  1
  Rb  Rb4  1  0.320282  0.380221  0.013615  1
  Rb  Rb5  1  0.692125  0.622123  0.804322  1
  Rb  Rb6  1  0.320282  0.880221  0.486385  1
  Rb  Rb7  1  0.692125  0.122123  0.695678  1
  Zn  Zn8  1  0.061995  0.621886  0.630454  1
  Zn  Zn9  1  0.061995  0.121886  0.869546  1
  Zn  Zn10  1  0.938005  0.621886  0.130454  1
  Zn  Zn11  1  0.938005  0.121886  0.369546  1
  N  N12  1  0.270304  0.994834  0.053512  1
  N  N13  1  0.172481  0.263951  0.607976  1
  N  N14  1  0.029972  0.283692  0.793709  1
  N  N15  1  0.815435  0.840931  0.228398  1
  N  N16  1  0.331863  0.398559  0.749481  1
  N  N17  1  0.815435  0.340931  0.271602  1
  N  N18  1  0.833117  0.866154  0.553968  1
  N  N19  1  0.668137  0.398559  0.249481  1
  N  N20  1  0.363593  0.152995  0.896733  1
  N  N21  1  0.508561  0.618163  0.634322  1
  N  N22  1  0.687813  0.676838  0.405999  1
  N  N23  1  0.172481  0.763951  0.892024  1
  N  N24  1  0.508561  0.118163  0.865678  1
  N  N25  1  0.729696  0.494834  0.946488  1
  N  N26  1  0.029972  0.783692  0.706291  1
  N  N27  1  0.024993  0.349266  0.622433  1
  N  N28  1  0.491439  0.118163  0.365678  1
  N  N29  1  0.312187  0.676838  0.905999  1
  N  N30  1  0.184565  0.840931  0.728398  1
  N  N31  1  0.312187  0.176838  0.594001  1
  N  N32  1  0.166883  0.366154  0.446032  1
  N  N33  1  0.331863  0.898559  0.750519  1
  N  N34  1  0.270304  0.494834  0.446488  1
  N  N35  1  0.655006  0.583449  0.662598  1
  N  N36  1  0.491439  0.618163  0.134322  1
  N  N37  1  0.970028  0.283692  0.293709  1
  N  N38  1  0.363593  0.652995  0.603267  1
  N  N39  1  0.937806  0.733638  0.551686  1
  N  N40  1  0.975007  0.349266  0.122433  1
  N  N41  1  0.937806  0.233638  0.948314  1
  N  N42  1  0.344994  0.583449  0.162598  1
  N  N43  1  0.668137  0.898559  0.250519  1
  N  N44  1  0.655006  0.083449  0.837402  1
  N  N45  1  0.062193  0.233638  0.448314  1
  N  N46  1  0.975007  0.849266  0.377567  1
  N  N47  1  0.833117  0.366154  0.946032  1
  N  N48  1  0.729696  0.994834  0.553512  1
  N  N49  1  0.344994  0.083449  0.337402  1
  N  N50  1  0.636407  0.152995  0.396733  1
  N  N51  1  0.166883  0.866154  0.053968  1
  N  N52  1  0.970028  0.783692  0.206291  1
  N  N53  1  0.827519  0.763951  0.392024  1
  N  N54  1  0.062193  0.733638  0.051686  1
  N  N55  1  0.687813  0.176838  0.094001  1
  N  N56  1  0.827519  0.263951  0.107976  1
  N  N57  1  0.024993  0.849266  0.877567  1
  N  N58  1  0.184565  0.340931  0.771602  1
  N  N59  1  0.636407  0.652995  0.103267  1
