# generated using pymatgen
data_Ba7Al4Ge9
_symmetry_space_group_name_H-M   'P 1'
_cell_length_a   6.80165406
_cell_length_b   6.80154953
_cell_length_c   13.73183016
_cell_angle_alpha   101.81729512
_cell_angle_beta   101.81856869
_cell_angle_gamma   99.96055936
_symmetry_Int_Tables_number   1
_chemical_formula_structural   Ba7Al4Ge9
_chemical_formula_sum   'Ba7 Al4 Ge9'
_cell_volume   593.10303458
_cell_formula_units_Z   1
loop_
 _symmetry_equiv_pos_site_id
 _symmetry_equiv_pos_as_xyz
  1  'x, y, z'
loop_
 _atom_site_type_symbol
 _atom_site_label
 _atom_site_symmetry_multiplicity
 _atom_site_fract_x
 _atom_site_fract_y
 _atom_site_fract_z
 _atom_site_occupancy
  Ba  Ba0  1  0.627924  0.627897  -0.000003  1
  Ba  Ba1  1  0.169581  0.618944  0.206009  1
  Ba  Ba2  1  0.044178  0.544186  0.499995  1
  Ba  Ba3  1  0.618949  0.169553  0.206018  1
  Ba  Ba4  1  0.963569  0.412950  0.793995  1
  Ba  Ba5  1  0.544197  0.044192  0.499999  1
  Ba  Ba6  1  0.412933  0.963585  0.793988  1
  Al  Al7  1  0.587247  0.587242  0.598815  1
  Al  Al8  1  0.988308  0.988347  0.401152  1
  Al  Al9  1  0.058978  0.058970  0.120831  1
  Al  Al10  1  0.938400  0.938399  0.879189  1
  Ge  Ge11  1  0.700240  0.700249  0.289370  1
  Ge  Ge12  1  0.100984  0.100958  0.594233  1
  Ge  Ge13  1  0.826946  0.211821  -0.000003  1
  Ge  Ge14  1  0.193903  0.193887  0.311080  1
  Ge  Ge15  1  0.882830  0.882827  0.688917  1
  Ge  Ge16  1  0.211820  0.826940  0.000022  1
  Ge  Ge17  1  0.238684  0.238718  0.999990  1
  Ge  Ge18  1  0.410876  0.410899  0.710627  1
  Ge  Ge19  1  0.506755  0.506736  0.405776  1
