# generated using pymatgen
data_Li3Fe2(PO4)3
_symmetry_space_group_name_H-M   'P 1'
_cell_length_a   8.50317050
_cell_length_b   8.75609334
_cell_length_c   12.09302795
_cell_angle_alpha   90.00000000
_cell_angle_beta   89.48003917
_cell_angle_gamma   90.00000000
_symmetry_Int_Tables_number   1
_chemical_formula_structural   Li3Fe2(PO4)3
_chemical_formula_sum   'Li12 Fe8 P12 O48'
_cell_volume   900.34393338
_cell_formula_units_Z   4
loop_
 _symmetry_equiv_pos_site_id
 _symmetry_equiv_pos_as_xyz
  1  'x, y, z'
loop_
 _atom_site_type_symbol
 _atom_site_label
 _atom_site_symmetry_multiplicity
 _atom_site_fract_x
 _atom_site_fract_y
 _atom_site_fract_z
 _atom_site_occupancy
  Li  Li0  1  0.064942  0.510418  0.655733  1
  Li  Li1  1  0.935058  0.489581  0.344266  1
  Li  Li2  1  0.918692  0.915215  0.690944  1
  Li  Li3  1  0.817733  0.219376  0.178331  1
  Li  Li4  1  0.682267  0.719375  0.321668  1
  Li  Li5  1  0.581309  0.415215  0.809056  1
  Li  Li6  1  0.564943  0.989582  0.155733  1
  Li  Li7  1  0.435058  0.010418  0.844266  1
  Li  Li8  1  0.418692  0.584785  0.190943  1
  Li  Li9  1  0.081308  0.084786  0.309057  1
  Li  Li10  1  0.182267  0.780624  0.821668  1
  Li  Li11  1  0.317733  0.280624  0.678331  1
  O  O12  1  0.186624  0.177452  0.563603  1
  O  O13  1  0.873028  0.006896  0.247009  1
  O  O14  1  0.877642  0.796196  0.830733  1
  O  O15  1  0.903313  0.637768  0.583210  1
  O  O16  1  0.938217  0.421387  0.186391  1
  O  O17  1  0.942917  0.332830  0.598400  1
  O  O18  1  0.946240  0.109680  0.897424  1
  O  O19  1  0.948081  0.127408  0.443345  1
  O  O20  1  0.051919  0.872592  0.556655  1
  O  O21  1  0.053759  0.890320  0.102576  1
  O  O22  1  0.057083  0.667169  0.401600  1
  O  O23  1  0.061783  0.578614  0.813608  1
  O  O24  1  0.096687  0.362231  0.416790  1
  O  O25  1  0.122358  0.203804  0.169267  1
  O  O26  1  0.126973  0.993103  0.752992  1
  O  O27  1  0.139017  0.416250  0.029482  1
  O  O28  1  0.171758  0.268658  0.812257  1
  O  O29  1  0.860983  0.583751  0.970519  1
  O  O30  1  0.226688  0.471493  0.225154  1
  O  O31  1  0.235399  0.047288  0.937521  1
  O  O32  1  0.264601  0.547289  0.562479  1
  O  O33  1  0.273312  0.971494  0.274846  1
  O  O34  1  0.313376  0.677453  0.936397  1
  O  O35  1  0.328242  0.768657  0.687743  1
  O  O36  1  0.360983  0.916249  0.470518  1
  O  O37  1  0.377642  0.703804  0.330733  1
  O  O38  1  0.373027  0.493103  0.747008  1
  O  O39  1  0.403313  0.862232  0.083210  1
  O  O40  1  0.438217  0.078613  0.686391  1
  O  O41  1  0.442917  0.167170  0.098400  1
  O  O42  1  0.446241  0.390321  0.397424  1
  O  O43  1  0.448081  0.372592  0.943344  1
  O  O44  1  0.551918  0.627408  0.056655  1
  O  O45  1  0.553759  0.609680  0.602576  1
  O  O46  1  0.557083  0.832831  0.901600  1
  O  O47  1  0.561783  0.921386  0.313608  1
  O  O48  1  0.596687  0.137769  0.916790  1
  O  O49  1  0.626973  0.506896  0.252991  1
  O  O50  1  0.622359  0.296195  0.669267  1
  O  O51  1  0.639017  0.083751  0.529482  1
  O  O52  1  0.828242  0.731343  0.187742  1
  O  O53  1  0.686624  0.322548  0.063603  1
  O  O54  1  0.726688  0.028507  0.725154  1
  O  O55  1  0.735399  0.452712  0.437520  1
  O  O56  1  0.764601  0.952711  0.062480  1
  O  O57  1  0.773312  0.528507  0.774846  1
  O  O58  1  0.813377  0.822548  0.436397  1
  O  O59  1  0.671757  0.231343  0.312257  1
  P  P60  1  0.387538  0.880287  0.348330  1
  P  P61  1  0.385567  0.609279  0.648442  1
  P  P62  1  0.459644  0.749273  0.991559  1
  P  P63  1  0.540356  0.250726  0.008442  1
  P  P64  1  0.614432  0.390721  0.351558  1
  P  P65  1  0.612461  0.119713  0.651670  1
  P  P66  1  0.885568  0.890721  0.148442  1
  P  P67  1  0.887538  0.619713  0.848330  1
  P  P68  1  0.040356  0.249273  0.508442  1
  P  P69  1  0.112462  0.380287  0.151670  1
  P  P70  1  0.114433  0.109279  0.851558  1
  P  P71  1  0.959644  0.750726  0.491559  1
  Fe  Fe72  1  0.757881  0.974981  0.896502  1
  Fe  Fe73  1  0.756216  0.537127  0.106264  1
  Fe  Fe74  1  0.743784  0.037126  0.393736  1
  Fe  Fe75  1  0.742119  0.474981  0.603499  1
  Fe  Fe76  1  0.257881  0.525019  0.396502  1
  Fe  Fe77  1  0.256216  0.962873  0.606264  1
  Fe  Fe78  1  0.243784  0.462873  0.893736  1
  Fe  Fe79  1  0.242119  0.025019  0.103498  1
