# generated using pymatgen
data_Ba6Na2As2Ru2O17
_symmetry_space_group_name_H-M   'P 1'
_cell_length_a   5.94111449
_cell_length_b   5.94111441
_cell_length_c   30.13460893
_cell_angle_alpha   90.00000000
_cell_angle_beta   90.00000000
_cell_angle_gamma   120.00000037
_symmetry_Int_Tables_number   1
_chemical_formula_structural   Ba6Na2As2Ru2O17
_chemical_formula_sum   'Ba12 Na4 As4 Ru4 O34'
_cell_volume   921.15354466
_cell_formula_units_Z   2
loop_
 _symmetry_equiv_pos_site_id
 _symmetry_equiv_pos_as_xyz
  1  'x, y, z'
loop_
 _atom_site_type_symbol
 _atom_site_label
 _atom_site_symmetry_multiplicity
 _atom_site_fract_x
 _atom_site_fract_y
 _atom_site_fract_z
 _atom_site_occupancy
  Ba  Ba0  1  0.333333  0.666667  0.592330  1
  Ba  Ba1  1  0.666667  0.333333  0.407670  1
  Ba  Ba2  1  0.666667  0.333333  0.680604  1
  Ba  Ba3  1  0.000000  0.000000  0.000000  1
  Ba  Ba4  1  0.666667  0.333333  0.819396  1
  Ba  Ba5  1  0.666667  0.333333  0.092330  1
  Ba  Ba6  1  0.333333  0.666667  0.907670  1
  Ba  Ba7  1  0.000000  0.000000  0.250000  1
  Ba  Ba8  1  0.333333  0.666667  0.319396  1
  Ba  Ba9  1  0.333333  0.666667  0.180604  1
  Ba  Ba10  1  0.000000  0.000000  0.750000  1
  Ba  Ba11  1  0.000000  0.000000  0.500000  1
  Na  Na12  1  0.000000  0.000000  0.376379  1
  Na  Na13  1  0.000000  0.000000  0.876379  1
  Na  Na14  1  0.000000  0.000000  0.123621  1
  Na  Na15  1  0.000000  0.000000  0.623621  1
  As  As16  1  0.333333  0.666667  0.051712  1
  As  As17  1  0.666667  0.333333  0.948288  1
  As  As18  1  0.666667  0.333333  0.551712  1
  As  As19  1  0.333333  0.666667  0.448288  1
  Ru  Ru20  1  0.333333  0.666667  0.703702  1
  Ru  Ru21  1  0.666667  0.333333  0.296298  1
  Ru  Ru22  1  0.333333  0.666667  0.796298  1
  Ru  Ru23  1  0.666667  0.333333  0.203702  1
  O  O24  1  0.353773  0.176886  0.169987  1
  O  O25  1  0.028019  0.514009  0.750000  1
  O  O26  1  0.646639  0.823320  0.427446  1
  O  O27  1  0.333333  0.666667  0.995013  1
  O  O28  1  0.646227  0.823114  0.830013  1
  O  O29  1  0.176886  0.823114  0.830013  1
  O  O30  1  0.485991  0.514009  0.750000  1
  O  O31  1  0.666667  0.333333  0.004987  1
  O  O32  1  0.176680  0.823320  0.427446  1
  O  O33  1  0.646639  0.823320  0.072554  1
  O  O34  1  0.176886  0.353773  0.830013  1
  O  O35  1  0.514009  0.028019  0.250000  1
  O  O36  1  0.176680  0.353361  0.427446  1
  O  O37  1  0.514009  0.485991  0.250000  1
  O  O38  1  0.823320  0.646639  0.927446  1
  O  O39  1  0.971981  0.485991  0.250000  1
  O  O40  1  0.823320  0.176680  0.927446  1
  O  O41  1  0.353361  0.176680  0.572554  1
  O  O42  1  0.176680  0.823320  0.072554  1
  O  O43  1  0.353361  0.176680  0.927446  1
  O  O44  1  0.823320  0.176680  0.572554  1
  O  O45  1  0.823320  0.646639  0.572554  1
  O  O46  1  0.823114  0.646227  0.169987  1
  O  O47  1  0.823114  0.646227  0.330013  1
  O  O48  1  0.176886  0.353773  0.669987  1
  O  O49  1  0.823114  0.176886  0.169987  1
  O  O50  1  0.485991  0.971981  0.750000  1
  O  O51  1  0.176886  0.823114  0.669987  1
  O  O52  1  0.646227  0.823114  0.669987  1
  O  O53  1  0.666667  0.333333  0.495013  1
  O  O54  1  0.823114  0.176886  0.330013  1
  O  O55  1  0.333333  0.666667  0.504987  1
  O  O56  1  0.353773  0.176886  0.330013  1
  O  O57  1  0.176680  0.353361  0.072554  1
