# generated using pymatgen
data_Pb3SeO5
_symmetry_space_group_name_H-M   'P 1'
_cell_length_a   5.89842089
_cell_length_b   7.73976627
_cell_length_c   7.73976586
_cell_angle_alpha   91.75824120
_cell_angle_beta   90.00000000
_cell_angle_gamma   90.00000000
_symmetry_Int_Tables_number   1
_chemical_formula_structural   Pb3SeO5
_chemical_formula_sum   'Pb6 Se2 O10'
_cell_volume   353.17252325
_cell_formula_units_Z   2
loop_
 _symmetry_equiv_pos_site_id
 _symmetry_equiv_pos_as_xyz
  1  'x, y, z'
loop_
 _atom_site_type_symbol
 _atom_site_label
 _atom_site_symmetry_multiplicity
 _atom_site_fract_x
 _atom_site_fract_y
 _atom_site_fract_z
 _atom_site_occupancy
  Pb  Pb0  1  0.184469  0.886367  0.113633  1
  Pb  Pb1  1  0.684469  0.113633  0.886367  1
  Pb  Pb2  1  0.187747  0.355720  0.140740  1
  Pb  Pb3  1  0.687747  0.644280  0.859260  1
  Pb  Pb4  1  0.187747  0.859260  0.644280  1
  Pb  Pb5  1  0.687747  0.140740  0.355720  1
  Se  Se6  1  0.141576  0.371010  0.628990  1
  Se  Se7  1  0.641576  0.628990  0.371010  1
  O  O8  1  0.951279  0.131004  0.136281  1
  O  O9  1  0.451279  0.868996  0.863719  1
  O  O10  1  0.951279  0.863719  0.868996  1
  O  O11  1  0.451279  0.136281  0.131004  1
  O  O12  1  0.230987  0.224063  0.775937  1
  O  O13  1  0.730987  0.775937  0.224063  1
  O  O14  1  0.283958  0.558714  0.697481  1
  O  O15  1  0.783958  0.441286  0.302519  1
  O  O16  1  0.283958  0.302519  0.441286  1
  O  O17  1  0.783958  0.697481  0.558714  1
