# generated using pymatgen
data_KTiBr3
_symmetry_space_group_name_H-M   'P 1'
_cell_length_a   13.39981610
_cell_length_b   13.39981657
_cell_length_c   5.92891070
_cell_angle_alpha   90.00000000
_cell_angle_beta   90.00000000
_cell_angle_gamma   119.99999886
_symmetry_Int_Tables_number   1
_chemical_formula_structural   KTiBr3
_chemical_formula_sum   'K6 Ti6 Br18'
_cell_volume   921.94122980
_cell_formula_units_Z   6
loop_
 _symmetry_equiv_pos_site_id
 _symmetry_equiv_pos_as_xyz
  1  'x, y, z'
loop_
 _atom_site_type_symbol
 _atom_site_label
 _atom_site_symmetry_multiplicity
 _atom_site_fract_x
 _atom_site_fract_y
 _atom_site_fract_z
 _atom_site_occupancy
  K  K0  1  0.356728  0.999092  0.521713  1
  K  K1  1  0.642364  0.643272  0.521713  1
  K  K2  1  0.999092  0.642364  0.021713  1
  K  K3  1  0.000908  0.357636  0.521713  1
  K  K4  1  0.643272  0.000908  0.021713  1
  K  K5  1  0.357636  0.356728  0.021713  1
  Ti  Ti6  1  0.333333  0.666667  0.802233  1
  Ti  Ti7  1  0.333333  0.666667  0.241134  1
  Ti  Ti8  1  0.666667  0.333333  0.302233  1
  Ti  Ti9  1  0.000000  0.000000  0.017242  1
  Ti  Ti10  1  0.000000  0.000000  0.517242  1
  Ti  Ti11  1  0.666667  0.333333  0.741134  1
  Br  Br12  1  0.332105  0.838050  0.020787  1
  Br  Br13  1  0.667895  0.161950  0.520787  1
  Br  Br14  1  0.504284  0.171932  0.022401  1
  Br  Br15  1  0.495716  0.828068  0.522401  1
  Br  Br16  1  0.191350  0.096264  0.767429  1
  Br  Br17  1  0.828068  0.332353  0.022401  1
  Br  Br18  1  0.494055  0.332105  0.520787  1
  Br  Br19  1  0.505945  0.667895  0.020787  1
  Br  Br20  1  0.096264  0.904914  0.267429  1
  Br  Br21  1  0.171932  0.667647  0.522401  1
  Br  Br22  1  0.808650  0.903736  0.267429  1
  Br  Br23  1  0.161950  0.494055  0.020787  1
  Br  Br24  1  0.095086  0.191350  0.267429  1
  Br  Br25  1  0.903736  0.095086  0.767429  1
  Br  Br26  1  0.838050  0.505945  0.520787  1
  Br  Br27  1  0.904914  0.808650  0.767429  1
  Br  Br28  1  0.667647  0.495716  0.022401  1
  Br  Br29  1  0.332353  0.504284  0.522401  1
