# generated using pymatgen
data_TlHCO2
_symmetry_space_group_name_H-M   'P 1'
_cell_length_a   6.07108559
_cell_length_b   7.09639161
_cell_length_c   8.04721505
_cell_angle_alpha   90.00000000
_cell_angle_beta   90.00000000
_cell_angle_gamma   90.00000000
_symmetry_Int_Tables_number   1
_chemical_formula_structural   TlHCO2
_chemical_formula_sum   'Tl4 H4 C4 O8'
_cell_volume   346.69656335
_cell_formula_units_Z   4
loop_
 _symmetry_equiv_pos_site_id
 _symmetry_equiv_pos_as_xyz
  1  'x, y, z'
loop_
 _atom_site_type_symbol
 _atom_site_label
 _atom_site_symmetry_multiplicity
 _atom_site_fract_x
 _atom_site_fract_y
 _atom_site_fract_z
 _atom_site_occupancy
  Tl  Tl0  1  0.781258  0.250000  0.500000  1
  Tl  Tl1  1  0.218742  0.750000  0.500000  1
  Tl  Tl2  1  0.718742  0.250000  0.000000  1
  Tl  Tl3  1  0.281258  0.750000  0.000000  1
  H  H4  1  0.750000  0.817982  0.250000  1
  H  H5  1  0.250000  0.182018  0.750000  1
  H  H6  1  0.750000  0.682018  0.750000  1
  H  H7  1  0.250000  0.317982  0.250000  1
  C  C8  1  0.250000  0.161007  0.250000  1
  C  C9  1  0.750000  0.838993  0.750000  1
  C  C10  1  0.250000  0.338993  0.750000  1
  C  C11  1  0.750000  0.661007  0.250000  1
  O  O12  1  0.910696  0.578501  0.320417  1
  O  O13  1  0.410696  0.421499  0.820417  1
  O  O14  1  0.410696  0.078501  0.179583  1
  O  O15  1  0.589304  0.921499  0.820417  1
  O  O16  1  0.089304  0.078501  0.320417  1
  O  O17  1  0.089304  0.421499  0.679583  1
  O  O18  1  0.589304  0.578501  0.179583  1
  O  O19  1  0.910696  0.921499  0.679583  1
