# generated using pymatgen
data_Nb5Sb4
_symmetry_space_group_name_H-M   'P 1'
_cell_length_a   3.39353042
_cell_length_b   7.57290732
_cell_length_c   7.57290765
_cell_angle_alpha   87.12244666
_cell_angle_beta   77.05255109
_cell_angle_gamma   77.05254947
_symmetry_Int_Tables_number   1
_chemical_formula_structural   Nb5Sb4
_chemical_formula_sum   'Nb5 Sb4'
_cell_volume   184.84531651
_cell_formula_units_Z   1
loop_
 _symmetry_equiv_pos_site_id
 _symmetry_equiv_pos_as_xyz
  1  'x, y, z'
loop_
 _atom_site_type_symbol
 _atom_site_label
 _atom_site_symmetry_multiplicity
 _atom_site_fract_x
 _atom_site_fract_y
 _atom_site_fract_z
 _atom_site_occupancy
  Nb  Nb0  1  0.953811  0.390542  0.701837  1
  Nb  Nb1  1  0.344353  0.701837  0.609458  1
  Nb  Nb2  1  0.000000  0.000000  0.000000  1
  Nb  Nb3  1  0.046189  0.609458  0.298163  1
  Nb  Nb4  1  0.655647  0.298163  0.390542  1
  Sb  Sb5  1  0.635320  0.042480  0.686881  1
  Sb  Sb6  1  0.677799  0.686881  0.957520  1
  Sb  Sb7  1  0.364680  0.957520  0.313119  1
  Sb  Sb8  1  0.322201  0.313119  0.042480  1
