# generated using pymatgen
data_Cu5Sn4
_symmetry_space_group_name_H-M   'P 1'
_cell_length_a   7.41045770
_cell_length_b   7.41285819
_cell_length_c   10.23812775
_cell_angle_alpha   89.43944376
_cell_angle_beta   90.00000000
_cell_angle_gamma   119.98928844
_symmetry_Int_Tables_number   1
_chemical_formula_structural   Cu5Sn4
_chemical_formula_sum   'Cu15 Sn12'
_cell_volume   487.08085418
_cell_formula_units_Z   3
loop_
 _symmetry_equiv_pos_site_id
 _symmetry_equiv_pos_as_xyz
  1  'x, y, z'
loop_
 _atom_site_type_symbol
 _atom_site_label
 _atom_site_symmetry_multiplicity
 _atom_site_fract_x
 _atom_site_fract_y
 _atom_site_fract_z
 _atom_site_occupancy
  Cu  Cu0  1  0.618771  0.318589  0.125691  1
  Cu  Cu1  1  0.316505  0.670578  0.125733  1
  Cu  Cu2  1  0.012181  0.018995  0.125207  1
  Cu  Cu3  1  0.993835  0.018587  0.376688  1
  Cu  Cu4  1  0.295038  0.663336  0.623479  1
  Cu  Cu5  1  0.975248  0.981413  0.623312  1
  Cu  Cu6  1  0.645926  0.329422  0.874267  1
  Cu  Cu7  1  0.316652  0.653335  0.376946  1
  Cu  Cu8  1  0.993186  0.981005  0.874793  1
  Cu  Cu9  1  0.972919  0.657167  0.748556  1
  Cu  Cu10  1  0.663317  0.346665  0.623054  1
  Cu  Cu11  1  0.300182  0.681411  0.874309  1
  Cu  Cu12  1  0.631701  0.336664  0.376521  1
  Cu  Cu13  1  0.315752  0.342833  0.251444  1
  Cu  Cu14  1  0.319047  0.000000  0.000000  1
  Sn  Sn15  1  0.621455  0.669875  0.750200  1
  Sn  Sn16  1  0.951581  0.330125  0.249800  1
  Sn  Sn17  1  0.975266  0.662938  0.479356  1
  Sn  Sn18  1  0.956055  0.640825  0.019121  1
  Sn  Sn19  1  0.318444  0.981558  0.269582  1
  Sn  Sn20  1  0.649260  0.000000  0.500000  1
  Sn  Sn21  1  0.673812  0.699646  0.247682  1
  Sn  Sn22  1  0.312328  0.337062  0.520644  1
  Sn  Sn23  1  0.974166  0.300354  0.752318  1
  Sn  Sn24  1  0.677258  0.000000  0.000000  1
  Sn  Sn25  1  0.315231  0.359175  0.980879  1
  Sn  Sn26  1  0.336886  0.018442  0.730418  1
