# generated using pymatgen
data_SnH46C18(Br2N)2
_symmetry_space_group_name_H-M   'P 1'
_cell_length_a   10.79830114
_cell_length_b   10.89188958
_cell_length_c   13.19676708
_cell_angle_alpha   93.37251924
_cell_angle_beta   90.00000000
_cell_angle_gamma   90.00000000
_symmetry_Int_Tables_number   1
_chemical_formula_structural   SnH46C18(Br2N)2
_chemical_formula_sum   'Sn2 H92 C36 Br8 N4'
_cell_volume   1549.43526001
_cell_formula_units_Z   2
loop_
 _symmetry_equiv_pos_site_id
 _symmetry_equiv_pos_as_xyz
  1  'x, y, z'
loop_
 _atom_site_type_symbol
 _atom_site_label
 _atom_site_symmetry_multiplicity
 _atom_site_fract_x
 _atom_site_fract_y
 _atom_site_fract_z
 _atom_site_occupancy
  Sn  Sn0  1  0.000000  0.000000  0.000000  1
  Sn  Sn1  1  0.500000  0.500000  0.500000  1
  H  H2  1  0.442941  0.140843  0.637099  1
  H  H3  1  0.435184  0.108355  0.080153  1
  H  H4  1  0.050710  0.228747  0.696207  1
  H  H5  1  0.553945  0.017076  0.404647  1
  H  H6  1  0.147176  0.520656  0.935161  1
  H  H7  1  0.053945  0.482924  0.095353  1
  H  H8  1  0.018709  0.755138  0.629564  1
  H  H9  1  0.124595  0.381091  0.298741  1
  H  H10  1  0.647176  0.979344  0.564839  1
  H  H11  1  0.931049  0.981138  0.194319  1
  H  H12  1  0.635351  0.137423  0.704579  1
  H  H13  1  0.550710  0.271253  0.803793  1
  H  H14  1  0.477178  0.831601  0.698475  1
  H  H15  1  0.323186  0.139502  0.351386  1
  H  H16  1  0.472799  0.921821  0.099400  1
  H  H17  1  0.935184  0.391645  0.419847  1
  H  H18  1  0.651777  0.815750  0.821038  1
  H  H19  1  0.518709  0.744862  0.870436  1
  H  H20  1  0.679802  0.032210  0.796264  1
  H  H21  1  0.481291  0.255138  0.129564  1
  H  H22  1  0.598134  0.519137  0.314440  1
  H  H23  1  0.946055  0.517076  0.904647  1
  H  H24  1  0.977178  0.668399  0.801525  1
  H  H25  1  0.440619  0.283209  0.903286  1
  H  H26  1  0.059381  0.783209  0.403286  1
  H  H27  1  0.756726  0.905405  0.262556  1
  H  H28  1  0.568951  0.481138  0.694319  1
  H  H29  1  0.027201  0.421821  0.599400  1
  H  H30  1  0.389136  0.266384  0.775986  1
  H  H31  1  0.348223  0.184250  0.178962  1
  H  H32  1  0.746302  0.557168  0.821945  1
  H  H33  1  0.767177  0.927405  0.396154  1
  H  H34  1  0.864649  0.637423  0.204579  1
  H  H35  1  0.057059  0.640843  0.137099  1
  H  H36  1  0.513655  0.376039  0.318175  1
  H  H37  1  0.215252  0.019274  0.363425  1
  H  H38  1  0.732823  0.427405  0.896154  1
  H  H39  1  0.243274  0.094594  0.737444  1
  H  H40  1  0.449290  0.728747  0.196207  1
  H  H41  1  0.151777  0.684250  0.678962  1
  H  H42  1  0.823186  0.360498  0.148614  1
  H  H43  1  0.013655  0.123961  0.181825  1
  H  H44  1  0.940619  0.216791  0.596714  1
  H  H45  1  0.132149  0.570104  0.366941  1
  H  H46  1  0.901866  0.019137  0.814440  1
  H  H47  1  0.522822  0.168399  0.301525  1
  H  H48  1  0.431049  0.518862  0.305681  1
  H  H49  1  0.064816  0.608355  0.580153  1
  H  H50  1  0.253698  0.442832  0.178055  1
  H  H51  1  0.284748  0.519274  0.863425  1
  H  H52  1  0.559381  0.716791  0.096714  1
  H  H53  1  0.267177  0.572595  0.103846  1
  H  H54  1  0.784748  0.980726  0.636575  1
  H  H55  1  0.610864  0.733616  0.224014  1
  H  H56  1  0.632149  0.929896  0.133059  1
  H  H57  1  0.068951  0.018862  0.805681  1
  H  H58  1  0.715252  0.480726  0.136575  1
  H  H59  1  0.110864  0.766384  0.275986  1
  H  H60  1  0.232823  0.072595  0.603846  1
  H  H61  1  0.820198  0.532210  0.296264  1
  H  H62  1  0.486345  0.623961  0.681825  1
  H  H63  1  0.624595  0.118909  0.201259  1
  H  H64  1  0.098134  0.980863  0.185560  1
  H  H65  1  0.135351  0.362577  0.795421  1
  H  H66  1  0.949290  0.771253  0.303793  1
  H  H67  1  0.401866  0.480863  0.685560  1
  H  H68  1  0.527201  0.078179  0.900600  1
  H  H69  1  0.176814  0.639502  0.851386  1
  H  H70  1  0.986345  0.876039  0.818175  1
  H  H71  1  0.676814  0.860498  0.648614  1
  H  H72  1  0.848223  0.315750  0.321038  1
  H  H73  1  0.867851  0.429896  0.633059  1
  H  H74  1  0.852824  0.479344  0.064839  1
  H  H75  1  0.753698  0.057168  0.321945  1
  H  H76  1  0.320198  0.967790  0.203736  1
  H  H77  1  0.367851  0.070104  0.866941  1
  H  H78  1  0.981291  0.244862  0.370436  1
  H  H79  1  0.972799  0.578179  0.400600  1
  H  H80  1  0.375405  0.881091  0.798741  1
  H  H81  1  0.557059  0.859157  0.362901  1
  H  H82  1  0.875405  0.618909  0.701259  1
  H  H83  1  0.942941  0.359157  0.862901  1
  H  H84  1  0.564816  0.891645  0.919847  1
  H  H85  1  0.022822  0.331601  0.198475  1
  H  H86  1  0.364649  0.862577  0.295421  1
  H  H87  1  0.743274  0.405405  0.762556  1
  H  H88  1  0.179802  0.467790  0.703736  1
  H  H89  1  0.889136  0.233616  0.724014  1
  H  H90  1  0.352824  0.020656  0.435161  1
  H  H91  1  0.446055  0.982924  0.595353  1
  H  H92  1  0.256726  0.594595  0.237444  1
  H  H93  1  0.246302  0.942832  0.678055  1
  C  C94  1  0.223025  0.538063  0.171537  1
  C  C95  1  0.869945  0.541173  0.224514  1
  C  C96  1  0.630055  0.041173  0.724514  1
  C  C97  1  0.130055  0.458827  0.775486  1
  C  C98  1  0.987684  0.975056  0.837137  1
  C  C99  1  0.276975  0.038063  0.671536  1
  C  C100  1  0.369945  0.958827  0.275486  1
  C  C101  1  0.776975  0.461937  0.828464  1
  C  C102  1  0.959528  0.399804  0.657637  1
  C  C103  1  0.040472  0.600196  0.342363  1
  C  C104  1  0.942298  0.333098  0.349654  1
  C  C105  1  0.723025  0.961937  0.328464  1
  C  C106  1  0.971359  0.615368  0.728237  1
  C  C107  1  0.012316  0.024944  0.162863  1
  C  C108  1  0.459528  0.100196  0.842363  1
  C  C109  1  0.685327  0.959471  0.639016  1
  C  C110  1  0.471359  0.884632  0.771763  1
  C  C111  1  0.487684  0.524944  0.662863  1
  C  C112  1  0.583992  0.951892  0.342977  1
  C  C113  1  0.960655  0.262371  0.671358  1
  C  C114  1  0.083992  0.548108  0.157023  1
  C  C115  1  0.442298  0.166902  0.150346  1
  C  C116  1  0.916008  0.451892  0.842977  1
  C  C117  1  0.460655  0.237629  0.828642  1
  C  C118  1  0.416008  0.048108  0.657023  1
  C  C119  1  0.314673  0.040529  0.360984  1
  C  C120  1  0.814673  0.459471  0.139016  1
  C  C121  1  0.057702  0.666902  0.650346  1
  C  C122  1  0.039345  0.737629  0.328642  1
  C  C123  1  0.540472  0.899804  0.157637  1
  C  C124  1  0.028641  0.384632  0.271763  1
  C  C125  1  0.557702  0.833098  0.849654  1
  C  C126  1  0.185327  0.540529  0.860984  1
  C  C127  1  0.512316  0.475056  0.337137  1
  C  C128  1  0.528641  0.115368  0.228237  1
  C  C129  1  0.539345  0.762371  0.171358  1
  Br  Br130  1  0.774394  0.132788  0.006610  1
  Br  Br131  1  0.865915  0.779596  0.018029  1
  Br  Br132  1  0.365915  0.720404  0.481971  1
  Br  Br133  1  0.274394  0.367212  0.493390  1
  Br  Br134  1  0.725606  0.632788  0.506610  1
  Br  Br135  1  0.134085  0.220404  0.981971  1
  Br  Br136  1  0.225606  0.867212  0.993390  1
  Br  Br137  1  0.634085  0.279596  0.518029  1
  N  N138  1  0.994103  0.481569  0.751407  1
  N  N139  1  0.505897  0.981569  0.251407  1
  N  N140  1  0.494103  0.018431  0.748593  1
  N  N141  1  0.005897  0.518431  0.248593  1
