# generated using pymatgen
data_Yb(IO3)3
_symmetry_space_group_name_H-M   'P 1'
_cell_length_a   6.11836150
_cell_length_b   8.91783306
_cell_length_c   15.04184994
_cell_angle_alpha   97.30100902
_cell_angle_beta   90.00000000
_cell_angle_gamma   90.00000000
_symmetry_Int_Tables_number   1
_chemical_formula_structural   Yb(IO3)3
_chemical_formula_sum   'Yb4 I12 O36'
_cell_volume   814.06709516
_cell_formula_units_Z   4
loop_
 _symmetry_equiv_pos_site_id
 _symmetry_equiv_pos_as_xyz
  1  'x, y, z'
loop_
 _atom_site_type_symbol
 _atom_site_label
 _atom_site_symmetry_multiplicity
 _atom_site_fract_x
 _atom_site_fract_y
 _atom_site_fract_z
 _atom_site_occupancy
  Yb  Yb0  1  0.726899  0.538784  0.893611  1
  Yb  Yb1  1  0.773101  0.038784  0.393611  1
  Yb  Yb2  1  0.226899  0.961216  0.606389  1
  Yb  Yb3  1  0.273101  0.461216  0.106389  1
  I  I4  1  0.641945  0.163167  0.023452  1
  I  I5  1  0.358055  0.836832  0.976548  1
  I  I6  1  0.692158  0.209825  0.649390  1
  I  I7  1  0.307842  0.790175  0.350610  1
  I  I8  1  0.094264  0.113372  0.195956  1
  I  I9  1  0.858055  0.663168  0.523452  1
  I  I10  1  0.594264  0.386628  0.304044  1
  I  I11  1  0.141945  0.336832  0.476548  1
  I  I12  1  0.807842  0.709825  0.149390  1
  I  I13  1  0.192158  0.290175  0.850610  1
  I  I14  1  0.405736  0.613372  0.695956  1
  I  I15  1  0.905736  0.886628  0.804044  1
  O  O16  1  0.904640  0.051560  0.891128  1
  O  O17  1  0.995460  0.736455  0.870190  1
  O  O18  1  0.049958  0.634457  0.200381  1
  O  O19  1  0.079083  0.583624  0.443661  1
  O  O20  1  0.682291  0.583219  0.737990  1
  O  O21  1  0.605509  0.567052  0.175398  1
  O  O22  1  0.030397  0.728424  0.620619  1
  O  O23  1  0.969603  0.271576  0.379381  1
  O  O24  1  0.628374  0.344885  0.977760  1
  O  O25  1  0.920917  0.416376  0.556339  1
  O  O26  1  0.420917  0.083624  0.943661  1
  O  O27  1  0.317709  0.416781  0.262010  1
  O  O28  1  0.950042  0.365543  0.799619  1
  O  O29  1  0.530397  0.771576  0.879381  1
  O  O30  1  0.129124  0.367916  0.965668  1
  O  O31  1  0.404640  0.448440  0.608872  1
  O  O32  1  0.595360  0.551560  0.391128  1
  O  O33  1  0.105509  0.932948  0.324602  1
  O  O34  1  0.495460  0.763545  0.629810  1
  O  O35  1  0.870876  0.632084  0.034332  1
  O  O36  1  0.817709  0.083219  0.237990  1
  O  O37  1  0.871626  0.844885  0.477760  1
  O  O38  1  0.579083  0.916376  0.056339  1
  O  O39  1  0.095360  0.948440  0.108872  1
  O  O40  1  0.004540  0.263545  0.129810  1
  O  O41  1  0.894491  0.067052  0.675398  1
  O  O42  1  0.450042  0.134457  0.700381  1
  O  O43  1  0.504540  0.236455  0.370190  1
  O  O44  1  0.394491  0.432948  0.824602  1
  O  O45  1  0.469603  0.228424  0.120619  1
  O  O46  1  0.549958  0.865543  0.299619  1
  O  O47  1  0.629124  0.132084  0.534332  1
  O  O48  1  0.370876  0.867916  0.465668  1
  O  O49  1  0.371626  0.655115  0.022240  1
  O  O50  1  0.128374  0.155115  0.522240  1
  O  O51  1  0.182291  0.916781  0.762010  1
