# generated using pymatgen
data_Nd2Fe14B
_symmetry_space_group_name_H-M   'P 1'
_cell_length_a   8.75552769
_cell_length_b   8.75525919
_cell_length_c   12.10111914
_cell_angle_alpha   90.02972850
_cell_angle_beta   90.02618801
_cell_angle_gamma   90.00093407
_symmetry_Int_Tables_number   1
_chemical_formula_structural   Nd2Fe14B
_chemical_formula_sum   'Nd8 Fe56 B4'
_cell_volume   927.63423050
_cell_formula_units_Z   4
loop_
 _symmetry_equiv_pos_site_id
 _symmetry_equiv_pos_as_xyz
  1  'x, y, z'
loop_
 _atom_site_type_symbol
 _atom_site_label
 _atom_site_symmetry_multiplicity
 _atom_site_fract_x
 _atom_site_fract_y
 _atom_site_fract_z
 _atom_site_occupancy
  Nd  Nd0  1  0.142764  0.142728  0.000562  1
  Nd  Nd1  1  0.857623  0.857616  0.000092  1
  Nd  Nd2  1  0.642693  0.357357  0.500035  1
  Nd  Nd3  1  0.357426  0.642765  0.500014  1
  Nd  Nd4  1  0.730977  0.268684  0.000133  1
  Nd  Nd5  1  0.268713  0.730967  0.000169  1
  Nd  Nd6  1  0.231735  0.231755  0.501671  1
  Nd  Nd7  1  0.768602  0.768524  0.498792  1
  Fe  Fe8  1  0.000125  0.499454  0.000039  1
  Fe  Fe9  1  0.499487  0.000134  0.000073  1
  Fe  Fe10  1  0.000184  0.500130  0.500123  1
  Fe  Fe11  1  0.500127  0.000190  0.500114  1
  Fe  Fe12  1  0.724366  0.067447  0.372148  1
  Fe  Fe13  1  0.067504  0.724355  0.372145  1
  Fe  Fe14  1  0.275940  0.931957  0.628169  1
  Fe  Fe15  1  0.931891  0.275904  0.628193  1
  Fe  Fe16  1  0.724641  0.066735  0.627118  1
  Fe  Fe17  1  0.066780  0.724677  0.627135  1
  Fe  Fe18  1  0.275505  0.933836  0.372941  1
  Fe  Fe19  1  0.933807  0.275463  0.372916  1
  Fe  Fe20  1  0.224957  0.431934  0.873129  1
  Fe  Fe21  1  0.431960  0.224951  0.873108  1
  Fe  Fe22  1  0.774956  0.567350  0.126801  1
  Fe  Fe23  1  0.567342  0.774992  0.126832  1
  Fe  Fe24  1  0.225715  0.432176  0.128712  1
  Fe  Fe25  1  0.432235  0.225680  0.128722  1
  Fe  Fe26  1  0.774659  0.568449  0.871328  1
  Fe  Fe27  1  0.568458  0.774675  0.871307  1
  Fe  Fe28  1  0.464057  0.140144  0.325395  1
  Fe  Fe29  1  0.140157  0.464023  0.325388  1
  Fe  Fe30  1  0.536911  0.859642  0.674938  1
  Fe  Fe31  1  0.859645  0.536912  0.674962  1
  Fe  Fe32  1  0.463108  0.138393  0.676278  1
  Fe  Fe33  1  0.138382  0.463117  0.676297  1
  Fe  Fe34  1  0.536416  0.860942  0.324055  1
  Fe  Fe35  1  0.860927  0.536392  0.324054  1
  Fe  Fe36  1  0.961805  0.360134  0.823263  1
  Fe  Fe37  1  0.360166  0.961812  0.823232  1
  Fe  Fe38  1  0.037557  0.639809  0.176946  1
  Fe  Fe39  1  0.639866  0.037539  0.176967  1
  Fe  Fe40  1  0.963986  0.358924  0.176847  1
  Fe  Fe41  1  0.359041  0.963972  0.176884  1
  Fe  Fe42  1  0.036419  0.640566  0.823267  1
  Fe  Fe43  1  0.640547  0.036434  0.823233  1
  Fe  Fe44  1  0.182816  0.182773  0.255666  1
  Fe  Fe45  1  0.181079  0.181083  0.746452  1
  Fe  Fe46  1  0.816820  0.816787  0.253458  1
  Fe  Fe47  1  0.819688  0.819685  0.744514  1
  Fe  Fe48  1  0.681498  0.316727  0.754022  1
  Fe  Fe49  1  0.316756  0.681536  0.754013  1
  Fe  Fe50  1  0.682581  0.317085  0.246195  1
  Fe  Fe51  1  0.317129  0.682576  0.246196  1
  Fe  Fe52  1  0.403433  0.403431  0.297196  1
  Fe  Fe53  1  0.596367  0.596350  0.703272  1
  Fe  Fe54  1  0.401450  0.401438  0.704903  1
  Fe  Fe55  1  0.598045  0.598064  0.295182  1
  Fe  Fe56  1  0.902142  0.098305  0.795770  1
  Fe  Fe57  1  0.097595  0.901766  0.204679  1
  Fe  Fe58  1  0.098312  0.902157  0.795762  1
  Fe  Fe59  1  0.901960  0.097488  0.204662  1
  Fe  Fe60  1  0.000533  0.000509  0.384756  1
  Fe  Fe61  1  0.000114  0.000104  0.615346  1
  Fe  Fe62  1  0.499262  0.499251  0.884894  1
  Fe  Fe63  1  0.500964  0.500964  0.115318  1
  B  B64  1  0.377264  0.377244  0.000140  1
  B  B65  1  0.624042  0.624070  0.999858  1
  B  B66  1  0.877360  0.123637  0.499949  1
  B  B67  1  0.123629  0.877329  0.499966  1
