# generated using pymatgen
data_LiMn6PO12
_symmetry_space_group_name_H-M   'P 1'
_cell_length_a   9.53275307
_cell_length_b   9.53275285
_cell_length_c   11.65993369
_cell_angle_alpha   65.87162818
_cell_angle_beta   65.87162883
_cell_angle_gamma   89.99999606
_symmetry_Int_Tables_number   1
_chemical_formula_structural   LiMn6PO12
_chemical_formula_sum   'Li4 Mn24 P4 O48'
_cell_volume   864.57496966
_cell_formula_units_Z   4
loop_
 _symmetry_equiv_pos_site_id
 _symmetry_equiv_pos_as_xyz
  1  'x, y, z'
loop_
 _atom_site_type_symbol
 _atom_site_label
 _atom_site_symmetry_multiplicity
 _atom_site_fract_x
 _atom_site_fract_y
 _atom_site_fract_z
 _atom_site_occupancy
  Li  Li0  1  0.125000  0.375000  0.250000  1
  Li  Li1  1  0.375000  0.125000  0.750000  1
  Li  Li2  1  0.625000  0.875000  0.250000  1
  Li  Li3  1  0.875000  0.625000  0.750000  1
  Mn  Mn4  1  0.000000  0.000000  0.000000  1
  Mn  Mn5  1  0.500000  0.000000  0.000000  1
  Mn  Mn6  1  0.858451  0.108451  0.250000  1
  Mn  Mn7  1  0.225096  0.250000  0.000000  1
  Mn  Mn8  1  0.000000  0.000000  0.500000  1
  Mn  Mn9  1  0.725096  0.250000  0.000000  1
  Mn  Mn10  1  0.500000  0.000000  0.500000  1
  Mn  Mn11  1  0.358451  0.141549  0.250000  1
  Mn  Mn12  1  0.750000  0.225096  0.500000  1
  Mn  Mn13  1  0.000000  0.500000  0.000000  1
  Mn  Mn14  1  0.500000  0.500000  0.000000  1
  Mn  Mn15  1  0.250000  0.274904  0.500000  1
  Mn  Mn16  1  0.608451  0.358451  0.750000  1
  Mn  Mn17  1  0.891549  0.608451  0.250000  1
  Mn  Mn18  1  0.000000  0.500000  0.500000  1
  Mn  Mn19  1  0.274904  0.750000  1.000000  1
  Mn  Mn20  1  0.500000  0.500000  0.500000  1
  Mn  Mn21  1  0.774904  0.750000  1.000000  1
  Mn  Mn22  1  0.108451  0.391549  0.750000  1
  Mn  Mn23  1  0.391549  0.641549  0.250000  1
  Mn  Mn24  1  0.750000  0.725096  0.500000  1
  Mn  Mn25  1  0.250000  0.774904  0.500000  1
  Mn  Mn26  1  0.641549  0.858451  0.750000  1
  Mn  Mn27  1  0.141549  0.891549  0.750000  1
  O  O28  1  0.070266  0.006428  0.157163  1
  O  O29  1  0.816206  0.088658  0.102919  1
  O  O30  1  0.523553  0.091270  0.111721  1
  O  O31  1  0.591270  0.023553  0.611721  1
  O  O32  1  0.908730  0.135274  0.388279  1
  O  O33  1  0.023553  0.297009  0.111721  1
  O  O34  1  0.316206  0.308423  0.102919  1
  O  O35  1  0.191577  0.183794  0.397081  1
  O  O36  1  0.308423  0.080876  0.602919  1
  O  O37  1  0.663592  0.227429  0.342838  1
  O  O38  1  0.836408  0.070266  0.657162  1
  O  O39  1  0.570266  0.336408  0.157163  1
  O  O40  1  0.772571  0.506428  0.157163  1
  O  O41  1  0.727429  0.163592  0.842838  1
  O  O42  1  0.006428  0.272571  0.657162  1
  O  O43  1  0.493572  0.429734  0.342838  1
  O  O44  1  0.588658  0.316206  0.602919  1
  O  O45  1  0.911342  0.419125  0.397081  1
  O  O46  1  0.419125  0.191577  0.897081  1
  O  O47  1  0.080876  0.588658  0.102919  1
  O  O48  1  0.364726  0.591270  0.111721  1
  O  O49  1  0.135274  0.202991  0.888279  1
  O  O50  1  0.202991  0.476447  0.388279  1
  O  O51  1  0.297009  0.364726  0.611721  1
  O  O52  1  0.797009  0.523553  0.611721  1
  O  O53  1  0.702991  0.635274  0.388279  1
  O  O54  1  0.864726  0.797009  0.111721  1
  O  O55  1  0.635274  0.408730  0.888279  1
  O  O56  1  0.580875  0.808423  0.102919  1
  O  O57  1  0.919125  0.411342  0.897081  1
  O  O58  1  0.088658  0.580875  0.602919  1
  O  O59  1  0.411342  0.683794  0.397081  1
  O  O60  1  0.506428  0.570266  0.657162  1
  O  O61  1  0.993572  0.727429  0.342838  1
  O  O62  1  0.272571  0.836408  0.157163  1
  O  O63  1  0.227429  0.493572  0.842838  1
  O  O64  1  0.429734  0.663592  0.842838  1
  O  O65  1  0.163592  0.929734  0.342838  1
  O  O66  1  0.336408  0.772571  0.657162  1
  O  O67  1  0.808423  0.816206  0.602919  1
  O  O68  1  0.691577  0.919125  0.397081  1
  O  O69  1  0.683794  0.691577  0.897081  1
  O  O70  1  0.976447  0.702991  0.888279  1
  O  O71  1  0.091270  0.864726  0.611721  1
  O  O72  1  0.408730  0.976447  0.388279  1
  O  O73  1  0.476447  0.908730  0.888279  1
  O  O74  1  0.183794  0.911342  0.897081  1
  O  O75  1  0.929734  0.993572  0.842838  1
  P  P76  1  0.625000  0.375000  0.250000  1
  P  P77  1  0.875000  0.125000  0.750000  1
  P  P78  1  0.125000  0.875000  0.250000  1
  P  P79  1  0.375000  0.625000  0.750000  1
