# generated using pymatgen
data_Cr2(PO4)3
_symmetry_space_group_name_H-M   'P 1'
_cell_length_a   8.43345692
_cell_length_b   8.57279858
_cell_length_c   11.86597236
_cell_angle_alpha   90.00000000
_cell_angle_beta   89.11378643
_cell_angle_gamma   90.00000000
_symmetry_Int_Tables_number   1
_chemical_formula_structural   Cr2(PO4)3
_chemical_formula_sum   'Cr8 P12 O48'
_cell_volume   857.78733768
_cell_formula_units_Z   4
loop_
 _symmetry_equiv_pos_site_id
 _symmetry_equiv_pos_as_xyz
  1  'x, y, z'
loop_
 _atom_site_type_symbol
 _atom_site_label
 _atom_site_symmetry_multiplicity
 _atom_site_fract_x
 _atom_site_fract_y
 _atom_site_fract_z
 _atom_site_occupancy
  Cr  Cr0  1  0.253353  0.033337  0.880771  1
  Cr  Cr1  1  0.246343  0.969551  0.381242  1
  Cr  Cr2  1  0.746647  0.966663  0.119229  1
  Cr  Cr3  1  0.753657  0.030449  0.618758  1
  Cr  Cr4  1  0.746343  0.530449  0.881242  1
  Cr  Cr5  1  0.253657  0.469551  0.118758  1
  Cr  Cr6  1  0.246647  0.533337  0.619229  1
  Cr  Cr7  1  0.753353  0.466663  0.380771  1
  P  P8  1  0.389993  0.887686  0.643736  1
  P  P9  1  0.110007  0.387686  0.856264  1
  P  P10  1  0.032978  0.252064  0.508022  1
  P  P11  1  0.467022  0.752064  0.991978  1
  P  P12  1  0.896244  0.882300  0.854256  1
  P  P13  1  0.532978  0.247936  0.008022  1
  P  P14  1  0.889993  0.612314  0.143736  1
  P  P15  1  0.610007  0.112314  0.356264  1
  P  P16  1  0.103756  0.117700  0.145744  1
  P  P17  1  0.603756  0.382300  0.645744  1
  P  P18  1  0.967022  0.747936  0.491978  1
  P  P19  1  0.396244  0.617700  0.354256  1
  O  O20  1  0.071291  0.923541  0.828844  1
  O  O21  1  0.593232  0.374109  0.926781  1
  O  O22  1  0.420891  0.314643  0.100897  1
  O  O23  1  0.353797  0.008607  0.737357  1
  O  O24  1  0.672227  0.167622  0.065898  1
  O  O25  1  0.146203  0.508607  0.762643  1
  O  O26  1  0.378435  0.793601  0.331002  1
  O  O27  1  0.793101  0.980067  0.773177  1
  O  O28  1  0.350949  0.575626  0.475512  1
  O  O29  1  0.649051  0.424374  0.524488  1
  O  O30  1  0.850949  0.924374  0.975512  1
  O  O31  1  0.832028  0.774417  0.179431  1
  O  O32  1  0.906768  0.874109  0.573219  1
  O  O33  1  0.093232  0.125891  0.426781  1
  O  O34  1  0.853797  0.491393  0.237357  1
  O  O35  1  0.149051  0.075626  0.024488  1
  O  O36  1  0.071634  0.614503  0.122564  1
  O  O37  1  0.327773  0.832378  0.934102  1
  O  O38  1  0.878435  0.706399  0.831002  1
  O  O39  1  0.827773  0.667622  0.434102  1
  O  O40  1  0.920891  0.185357  0.600897  1
  O  O41  1  0.167972  0.225583  0.820569  1
  O  O42  1  0.706899  0.480067  0.726823  1
  O  O43  1  0.646203  0.991393  0.262643  1
  O  O44  1  0.172227  0.332378  0.565898  1
  O  O45  1  0.557624  0.871067  0.065045  1
  O  O46  1  0.406768  0.625891  0.073219  1
  O  O47  1  0.579109  0.685357  0.899103  1
  O  O48  1  0.802065  0.561771  0.037773  1
  O  O49  1  0.206899  0.019933  0.226823  1
  O  O50  1  0.302065  0.938229  0.537773  1
  O  O51  1  0.571291  0.576459  0.328844  1
  O  O52  1  0.697935  0.061771  0.462227  1
  O  O53  1  0.428709  0.423541  0.671156  1
  O  O54  1  0.057624  0.628933  0.565045  1
  O  O55  1  0.942376  0.371067  0.434955  1
  O  O56  1  0.928366  0.385497  0.877436  1
  O  O57  1  0.621565  0.206399  0.668998  1
  O  O58  1  0.667972  0.274417  0.320569  1
  O  O59  1  0.121565  0.293601  0.168998  1
  O  O60  1  0.079109  0.814643  0.399103  1
  O  O61  1  0.293101  0.519933  0.273177  1
  O  O62  1  0.928709  0.076459  0.171156  1
  O  O63  1  0.571634  0.885497  0.622564  1
  O  O64  1  0.428366  0.114503  0.377436  1
  O  O65  1  0.197935  0.438229  0.962227  1
  O  O66  1  0.332028  0.725583  0.679431  1
  O  O67  1  0.442376  0.128933  0.934955  1
