# generated using pymatgen
data_FeP2HO7
_symmetry_space_group_name_H-M   'P 1'
_cell_length_a   4.96486167
_cell_length_b   8.21907896
_cell_length_c   12.92191339
_cell_angle_alpha   90.00000000
_cell_angle_beta   90.00000000
_cell_angle_gamma   98.44441741
_symmetry_Int_Tables_number   1
_chemical_formula_structural   FeP2HO7
_chemical_formula_sum   'Fe4 P8 H4 O28'
_cell_volume   521.58265994
_cell_formula_units_Z   4
loop_
 _symmetry_equiv_pos_site_id
 _symmetry_equiv_pos_as_xyz
  1  'x, y, z'
loop_
 _atom_site_type_symbol
 _atom_site_label
 _atom_site_symmetry_multiplicity
 _atom_site_fract_x
 _atom_site_fract_y
 _atom_site_fract_z
 _atom_site_occupancy
  Fe  Fe0  1  0.902691  0.992791  0.624684  1
  Fe  Fe1  1  0.402691  0.492791  0.875316  1
  Fe  Fe2  1  0.597309  0.507209  0.124684  1
  Fe  Fe3  1  0.097309  0.007209  0.375316  1
  P  P4  1  0.971119  0.746391  0.826624  1
  P  P5  1  0.343414  0.750672  0.540299  1
  P  P6  1  0.156586  0.749328  0.040299  1
  P  P7  1  0.528881  0.753609  0.326624  1
  P  P8  1  0.471119  0.246391  0.673376  1
  P  P9  1  0.028881  0.253609  0.173376  1
  P  P10  1  0.656586  0.249328  0.459701  1
  P  P11  1  0.843414  0.250672  0.959701  1
  H  H12  1  0.665794  0.101823  0.826097  1
  H  H13  1  0.334206  0.898177  0.173903  1
  H  H14  1  0.834206  0.398177  0.326097  1
  H  H15  1  0.165794  0.601823  0.673903  1
  O  O16  1  0.871837  0.396466  0.202090  1
  O  O17  1  0.822980  0.105029  0.478697  1
  O  O18  1  0.825714  0.810493  0.351736  1
  O  O19  1  0.883291  0.170299  0.070059  1
  O  O20  1  0.327796  0.896829  0.095522  1
  O  O21  1  0.115283  0.305553  0.908679  1
  O  O22  1  0.884717  0.694447  0.091321  1
  O  O23  1  0.128163  0.603534  0.797910  1
  O  O24  1  0.383291  0.670299  0.429941  1
  O  O25  1  0.672204  0.103171  0.904478  1
  O  O26  1  0.177020  0.894971  0.521303  1
  O  O27  1  0.615283  0.805553  0.591321  1
  O  O28  1  0.827796  0.396829  0.404478  1
  O  O29  1  0.519741  0.382422  0.753636  1
  O  O30  1  0.677020  0.394971  0.978697  1
  O  O31  1  0.019741  0.882422  0.746364  1
  O  O32  1  0.371837  0.896466  0.297910  1
  O  O33  1  0.384717  0.194447  0.408679  1
  O  O34  1  0.980259  0.117578  0.253636  1
  O  O35  1  0.322980  0.605029  0.021303  1
  O  O36  1  0.480259  0.617578  0.246364  1
  O  O37  1  0.116709  0.829701  0.929941  1
  O  O38  1  0.174286  0.189507  0.648264  1
  O  O39  1  0.674286  0.689507  0.851736  1
  O  O40  1  0.325714  0.310493  0.148264  1
  O  O41  1  0.628163  0.103534  0.702090  1
  O  O42  1  0.616709  0.329701  0.570059  1
  O  O43  1  0.172204  0.603171  0.595522  1
