# generated using pymatgen
data_La4B4Br5
_symmetry_space_group_name_H-M   'P 1'
_cell_length_a   4.32460425
_cell_length_b   9.47466433
_cell_length_c   17.73775483
_cell_angle_alpha   89.95924451
_cell_angle_beta   82.99800503
_cell_angle_gamma   76.80773630
_symmetry_Int_Tables_number   1
_chemical_formula_structural   La4B4Br5
_chemical_formula_sum   'La8 B8 Br10'
_cell_volume   702.05582305
_cell_formula_units_Z   2
loop_
 _symmetry_equiv_pos_site_id
 _symmetry_equiv_pos_as_xyz
  1  'x, y, z'
loop_
 _atom_site_type_symbol
 _atom_site_label
 _atom_site_symmetry_multiplicity
 _atom_site_fract_x
 _atom_site_fract_y
 _atom_site_fract_z
 _atom_site_occupancy
  La  La0  1  0.336660  0.053766  0.272914  1
  La  La1  1  0.663340  0.946234  0.727086  1
  La  La2  1  0.623022  0.382613  0.371344  1
  La  La3  1  0.376978  0.617387  0.628656  1
  La  La4  1  0.116332  0.568995  0.198341  1
  La  La5  1  0.883668  0.431005  0.801659  1
  La  La6  1  0.840560  0.228871  0.090009  1
  La  La7  1  0.159440  0.771129  0.909991  1
  Br  Br8  1  0.773149  0.054341  0.399361  1
  Br  Br9  1  0.226851  0.945659  0.600639  1
  Br  Br10  1  0.957044  0.917243  0.168669  1
  Br  Br11  1  0.042956  0.082757  0.831331  1
  Br  Br12  1  0.670413  0.586163  0.073011  1
  Br  Br13  1  0.329587  0.413837  0.926989  1
  Br  Br14  1  0.495051  0.698719  0.311180  1
  Br  Br15  1  0.504949  0.301281  0.688820  1
  Br  Br16  1  0.000000  0.500000  0.500000  1
  Br  Br17  1  0.500000  0.000000  0.000000  1
  B  B18  1  0.545261  0.308993  0.230318  1
  B  B19  1  0.084571  0.691007  0.769682  1
  B  B20  1  0.454739  0.691007  0.769682  1
  B  B21  1  0.915429  0.308993  0.230318  1
  B  B22  1  0.271894  0.279495  0.176716  1
  B  B23  1  0.728106  0.720505  0.823284  1
  B  B24  1  0.188115  0.339223  0.284547  1
  B  B25  1  0.811885  0.660777  0.715453  1
