# generated using pymatgen
data_NbS2
_symmetry_space_group_name_H-M   'P 1'
_cell_length_a   3.36117833
_cell_length_b   3.36034908
_cell_length_c   39.32896871
_cell_angle_alpha   90.00000000
_cell_angle_beta   90.00000000
_cell_angle_gamma   120.00816347
_symmetry_Int_Tables_number   1
_chemical_formula_structural   NbS2
_chemical_formula_sum   'Nb4 S8'
_cell_volume   384.66565256
_cell_formula_units_Z   4
loop_
 _symmetry_equiv_pos_site_id
 _symmetry_equiv_pos_as_xyz
  1  'x, y, z'
loop_
 _atom_site_type_symbol
 _atom_site_label
 _atom_site_symmetry_multiplicity
 _atom_site_fract_x
 _atom_site_fract_y
 _atom_site_fract_z
 _atom_site_occupancy
  Nb  Nb0  1  0.758256  0.516512  0.501933  1
  Nb  Nb1  1  0.241744  0.483488  0.001933  1
  Nb  Nb2  1  0.092794  0.185588  0.331558  1
  Nb  Nb3  1  0.907206  0.814412  0.831558  1
  S  S4  1  0.426591  0.853182  0.371354  1
  S  S5  1  0.573409  0.146818  0.871354  1
  S  S6  1  0.425851  0.851702  0.291717  1
  S  S7  1  0.091542  0.183084  0.462144  1
  S  S8  1  0.091729  0.183459  0.541793  1
  S  S9  1  0.574149  0.148298  0.791717  1
  S  S10  1  0.908458  0.816916  0.962144  1
  S  S11  1  0.908271  0.816541  0.041793  1
