# generated using pymatgen
data_Cu8GeS6
_symmetry_space_group_name_H-M   'P 1'
_cell_length_a   6.96708567
_cell_length_b   7.03711402
_cell_length_c   9.81899490
_cell_angle_alpha   90.00000000
_cell_angle_beta   90.00000000
_cell_angle_gamma   90.00000000
_symmetry_Int_Tables_number   1
_chemical_formula_structural   Cu8GeS6
_chemical_formula_sum   'Cu16 Ge2 S12'
_cell_volume   481.40741252
_cell_formula_units_Z   2
loop_
 _symmetry_equiv_pos_site_id
 _symmetry_equiv_pos_as_xyz
  1  'x, y, z'
loop_
 _atom_site_type_symbol
 _atom_site_label
 _atom_site_symmetry_multiplicity
 _atom_site_fract_x
 _atom_site_fract_y
 _atom_site_fract_z
 _atom_site_occupancy
  S  S0  1  0.277285  0.500000  0.493636  1
  S  S1  1  0.722715  0.000000  0.993636  1
  S  S2  1  0.242532  0.762180  0.112900  1
  S  S3  1  0.757468  0.737820  0.612900  1
  S  S4  1  0.757468  0.262180  0.612900  1
  S  S5  1  0.242532  0.237820  0.112900  1
  S  S6  1  0.990217  0.000000  0.337882  1
  S  S7  1  0.009783  0.500000  0.837882  1
  S  S8  1  0.495080  0.000000  0.355740  1
  S  S9  1  0.504920  0.500000  0.855740  1
  S  S10  1  0.217700  0.000000  0.757694  1
  S  S11  1  0.782300  0.500000  0.257694  1
  Cu  Cu12  1  0.300960  0.000000  0.538742  1
  Cu  Cu13  1  0.699040  0.500000  0.038742  1
  Cu  Cu14  1  0.480789  0.797943  0.743113  1
  Cu  Cu15  1  0.519211  0.702057  0.243113  1
  Cu  Cu16  1  0.519211  0.297943  0.243113  1
  Cu  Cu17  1  0.480789  0.202057  0.743113  1
  Cu  Cu18  1  0.881593  0.792766  0.141779  1
  Cu  Cu19  1  0.118407  0.707234  0.641779  1
  Cu  Cu20  1  0.118407  0.292766  0.641779  1
  Cu  Cu21  1  0.881593  0.207234  0.141779  1
  Cu  Cu22  1  0.834202  0.767725  0.863495  1
  Cu  Cu23  1  0.165798  0.732275  0.363495  1
  Cu  Cu24  1  0.165798  0.267725  0.363495  1
  Cu  Cu25  1  0.834202  0.232275  0.863495  1
  Cu  Cu26  1  0.390487  0.000000  0.971881  1
  Cu  Cu27  1  0.609513  0.500000  0.471881  1
  Ge  Ge28  1  0.248744  0.500000  0.989850  1
  Ge  Ge29  1  0.751256  0.000000  0.489850  1
