# generated using pymatgen
data_SrCu2Te2(ClO3)2
_symmetry_space_group_name_H-M   'P 1'
_cell_length_a   7.30303773
_cell_length_b   7.37437872
_cell_length_c   8.38358528
_cell_angle_alpha   90.00000000
_cell_angle_beta   96.73247792
_cell_angle_gamma   90.00000000
_symmetry_Int_Tables_number   1
_chemical_formula_structural   SrCu2Te2(ClO3)2
_chemical_formula_sum   'Sr2 Cu4 Te4 Cl4 O12'
_cell_volume   448.38766346
_cell_formula_units_Z   2
loop_
 _symmetry_equiv_pos_site_id
 _symmetry_equiv_pos_as_xyz
  1  'x, y, z'
loop_
 _atom_site_type_symbol
 _atom_site_label
 _atom_site_symmetry_multiplicity
 _atom_site_fract_x
 _atom_site_fract_y
 _atom_site_fract_z
 _atom_site_occupancy
  Sr  Sr0  1  0.625655  0.046273  0.559872  1
  Sr  Sr1  1  0.374345  0.546273  0.440128  1
  Cu  Cu2  1  0.819277  0.056295  0.084957  1
  Cu  Cu3  1  0.860579  0.538284  0.586777  1
  Cu  Cu4  1  0.180723  0.556295  0.915043  1
  Cu  Cu5  1  0.139421  0.038284  0.413223  1
  Te  Te6  1  0.631307  0.404181  0.884784  1
  Te  Te7  1  0.851498  0.678921  0.267177  1
  Te  Te8  1  0.368693  0.904181  0.115216  1
  Te  Te9  1  0.148502  0.178921  0.732823  1
  Cl  Cl10  1  0.399482  0.796105  0.731607  1
  Cl  Cl11  1  0.047450  0.271792  0.116322  1
  Cl  Cl12  1  0.952550  0.771792  0.883678  1
  Cl  Cl13  1  0.600518  0.296105  0.268393  1
  O  O14  1  0.037804  0.598371  0.435271  1
  O  O15  1  0.702131  0.706403  0.442218  1
  O  O16  1  0.961991  0.917021  0.256922  1
  O  O17  1  0.962196  0.098371  0.564729  1
  O  O18  1  0.640878  0.421322  0.657945  1
  O  O19  1  0.691559  0.153308  0.884976  1
  O  O20  1  0.370711  0.369335  0.875976  1
  O  O21  1  0.038009  0.417021  0.743078  1
  O  O22  1  0.308441  0.653308  0.115024  1
  O  O23  1  0.359122  0.921323  0.342055  1
  O  O24  1  0.629289  0.869335  0.124024  1
  O  O25  1  0.297869  0.206403  0.557782  1
