# generated using pymatgen
data_Ce2Si2O7
_symmetry_space_group_name_H-M   'P 1'
_cell_length_a   7.31379661
_cell_length_b   10.16157793
_cell_length_c   23.52592391
_cell_angle_alpha   90.00000000
_cell_angle_beta   90.00000000
_cell_angle_gamma   90.00000000
_symmetry_Int_Tables_number   1
_chemical_formula_structural   Ce2Si2O7
_chemical_formula_sum   'Ce24 Si24 O84'
_cell_volume   1748.43994167
_cell_formula_units_Z   12
loop_
 _symmetry_equiv_pos_site_id
 _symmetry_equiv_pos_as_xyz
  1  'x, y, z'
loop_
 _atom_site_type_symbol
 _atom_site_label
 _atom_site_symmetry_multiplicity
 _atom_site_fract_x
 _atom_site_fract_y
 _atom_site_fract_z
 _atom_site_occupancy
  Ce  Ce0  1  0.585517  0.635732  0.835980  1
  Ce  Ce1  1  0.120243  0.505264  0.923804  1
  Ce  Ce2  1  0.857360  0.736254  0.686505  1
  Ce  Ce3  1  0.414483  0.135732  0.164020  1
  Ce  Ce4  1  0.642673  0.763398  0.182686  1
  Ce  Ce5  1  0.142640  0.236254  0.313495  1
  Ce  Ce6  1  0.887324  0.856938  0.339522  1
  Ce  Ce7  1  0.642673  0.263398  0.317314  1
  Ce  Ce8  1  0.120243  0.005264  0.576196  1
  Ce  Ce9  1  0.142640  0.736254  0.186505  1
  Ce  Ce10  1  0.357327  0.263398  0.817314  1
  Ce  Ce11  1  0.374805  0.506044  0.077717  1
  Ce  Ce12  1  0.414483  0.635732  0.335980  1
  Ce  Ce13  1  0.879757  0.505264  0.423804  1
  Ce  Ce14  1  0.112676  0.856938  0.839522  1
  Ce  Ce15  1  0.857360  0.236254  0.813495  1
  Ce  Ce16  1  0.374805  0.006044  0.422283  1
  Ce  Ce17  1  0.625195  0.506044  0.577717  1
  Ce  Ce18  1  0.357327  0.763398  0.682686  1
  Ce  Ce19  1  0.625195  0.006044  0.922283  1
  Ce  Ce20  1  0.887324  0.356938  0.160478  1
  Ce  Ce21  1  0.112676  0.356938  0.660478  1
  Ce  Ce22  1  0.879757  0.005264  0.076196  1
  Ce  Ce23  1  0.585517  0.135732  0.664020  1
  Si  Si24  1  0.848953  0.241582  0.532713  1
  Si  Si25  1  0.112954  0.126276  0.915673  1
  Si  Si26  1  0.419508  0.243497  0.536323  1
  Si  Si27  1  0.151047  0.741582  0.467287  1
  Si  Si28  1  0.573673  0.434291  0.720799  1
  Si  Si29  1  0.151047  0.241582  0.032713  1
  Si  Si30  1  0.073092  0.558130  0.776863  1
  Si  Si31  1  0.383327  0.880667  0.078878  1
  Si  Si32  1  0.383327  0.380667  0.421122  1
  Si  Si33  1  0.848953  0.741582  0.967287  1
  Si  Si34  1  0.580492  0.243497  0.036323  1
  Si  Si35  1  0.426327  0.934291  0.279201  1
  Si  Si36  1  0.887046  0.126276  0.415673  1
  Si  Si37  1  0.426327  0.434291  0.220799  1
  Si  Si38  1  0.573673  0.934291  0.779201  1
  Si  Si39  1  0.887046  0.626276  0.084327  1
  Si  Si40  1  0.112954  0.626276  0.584327  1
  Si  Si41  1  0.616673  0.380667  0.921122  1
  Si  Si42  1  0.926908  0.058130  0.223137  1
  Si  Si43  1  0.580492  0.743497  0.463677  1
  Si  Si44  1  0.419508  0.743497  0.963677  1
  Si  Si45  1  0.926908  0.558130  0.276863  1
  Si  Si46  1  0.073092  0.058130  0.723137  1
  Si  Si47  1  0.616673  0.880667  0.578878  1
  O  O48  1  0.637126  0.401466  0.786961  1
  O  O49  1  0.051934  0.396239  0.775305  1
  O  O50  1  0.022588  0.720836  0.412240  1
  O  O51  1  0.581859  0.869514  0.508556  1
  O  O52  1  0.701356  0.878875  0.831276  1
  O  O53  1  0.305338  0.560005  0.604047  1
  O  O54  1  0.378371  0.732365  0.108502  1
  O  O55  1  0.298644  0.378875  0.168724  1
  O  O56  1  0.441279  0.596625  0.217961  1
  O  O57  1  0.558721  0.596625  0.717961  1
  O  O58  1  0.061634  0.046886  0.388379  1
  O  O59  1  0.220240  0.600713  0.825700  1
  O  O60  1  0.694662  0.560005  0.104047  1
  O  O61  1  0.798604  0.460673  0.902167  1
  O  O62  1  0.061634  0.546886  0.111621  1
  O  O63  1  0.134587  0.601649  0.711958  1
  O  O64  1  0.106410  0.275853  0.887536  1
  O  O65  1  0.614975  0.344481  0.217642  1
  O  O66  1  0.948066  0.896239  0.224695  1
  O  O67  1  0.977412  0.720836  0.912240  1
  O  O68  1  0.159986  0.889507  0.490980  1
  O  O69  1  0.581859  0.369514  0.991444  1
  O  O70  1  0.437531  0.952431  0.607656  1
  O  O71  1  0.201396  0.460673  0.402167  1
  O  O72  1  0.798604  0.960673  0.597833  1
  O  O73  1  0.884977  0.146269  0.713572  1
  O  O74  1  0.694662  0.060005  0.395953  1
  O  O75  1  0.378371  0.232365  0.391498  1
  O  O76  1  0.362874  0.901466  0.213039  1
  O  O77  1  0.682246  0.120160  0.008254  1
  O  O78  1  0.317754  0.120160  0.508254  1
  O  O79  1  0.418141  0.369514  0.491444  1
  O  O80  1  0.022588  0.220836  0.087760  1
  O  O81  1  0.865413  0.101649  0.288042  1
  O  O82  1  0.977412  0.220836  0.587760  1
  O  O83  1  0.682246  0.620160  0.491746  1
  O  O84  1  0.640472  0.288023  0.099308  1
  O  O85  1  0.201396  0.960673  0.097833  1
  O  O86  1  0.362874  0.401466  0.286961  1
  O  O87  1  0.840014  0.389507  0.509020  1
  O  O88  1  0.087619  0.631945  0.514648  1
  O  O89  1  0.912381  0.631945  0.014648  1
  O  O90  1  0.562469  0.452431  0.392344  1
  O  O91  1  0.865413  0.601649  0.211958  1
  O  O92  1  0.701356  0.378875  0.668724  1
  O  O93  1  0.893590  0.775853  0.112464  1
  O  O94  1  0.640472  0.788023  0.400692  1
  O  O95  1  0.363626  0.705514  0.447926  1
  O  O96  1  0.938366  0.046886  0.888379  1
  O  O97  1  0.317754  0.620160  0.991746  1
  O  O98  1  0.884977  0.646269  0.786428  1
  O  O99  1  0.779760  0.100713  0.174300  1
  O  O100  1  0.115023  0.146269  0.213572  1
  O  O101  1  0.938366  0.546886  0.611621  1
  O  O102  1  0.220240  0.100713  0.674300  1
  O  O103  1  0.305338  0.060005  0.895953  1
  O  O104  1  0.948066  0.396239  0.275305  1
  O  O105  1  0.106410  0.775853  0.612464  1
  O  O106  1  0.893590  0.275853  0.387536  1
  O  O107  1  0.385025  0.344481  0.717642  1
  O  O108  1  0.637126  0.901466  0.713039  1
  O  O109  1  0.614975  0.844481  0.282358  1
  O  O110  1  0.363626  0.205514  0.052074  1
  O  O111  1  0.298644  0.878875  0.331276  1
  O  O112  1  0.385025  0.844481  0.782358  1
  O  O113  1  0.621629  0.732365  0.608502  1
  O  O114  1  0.359528  0.788023  0.900692  1
  O  O115  1  0.051934  0.896239  0.724695  1
  O  O116  1  0.437531  0.452431  0.892344  1
  O  O117  1  0.134587  0.101649  0.788042  1
  O  O118  1  0.558721  0.096625  0.782039  1
  O  O119  1  0.418141  0.869514  0.008556  1
  O  O120  1  0.779760  0.600713  0.325700  1
  O  O121  1  0.562469  0.952431  0.107656  1
  O  O122  1  0.159986  0.389507  0.009020  1
  O  O123  1  0.359528  0.288023  0.599308  1
  O  O124  1  0.441279  0.096625  0.282039  1
  O  O125  1  0.636374  0.705514  0.947926  1
  O  O126  1  0.636374  0.205514  0.552074  1
  O  O127  1  0.087619  0.131945  0.985352  1
  O  O128  1  0.912381  0.131945  0.485353  1
  O  O129  1  0.621629  0.232365  0.891498  1
  O  O130  1  0.840014  0.889507  0.990980  1
  O  O131  1  0.115023  0.646269  0.286428  1
