# generated using pymatgen
data_Pr(IO3)3
_symmetry_space_group_name_H-M   'P 1'
_cell_length_a   6.05625443
_cell_length_b   8.97432635
_cell_length_c   15.60691224
_cell_angle_alpha   96.67492742
_cell_angle_beta   90.00000000
_cell_angle_gamma   90.00000000
_symmetry_Int_Tables_number   1
_chemical_formula_structural   Pr(IO3)3
_chemical_formula_sum   'Pr4 I12 O36'
_cell_volume   842.49846604
_cell_formula_units_Z   4
loop_
 _symmetry_equiv_pos_site_id
 _symmetry_equiv_pos_as_xyz
  1  'x, y, z'
loop_
 _atom_site_type_symbol
 _atom_site_label
 _atom_site_symmetry_multiplicity
 _atom_site_fract_x
 _atom_site_fract_y
 _atom_site_fract_z
 _atom_site_occupancy
  Pr  Pr0  1  0.732024  0.460726  0.599876  1
  Pr  Pr1  1  0.232024  0.039274  0.900124  1
  Pr  Pr2  1  0.767976  0.960726  0.099876  1
  Pr  Pr3  1  0.267976  0.539274  0.400124  1
  I  I4  1  0.864425  0.337097  0.977098  1
  I  I5  1  0.686913  0.781807  0.850772  1
  I  I6  1  0.089699  0.885810  0.302182  1
  I  I7  1  0.410301  0.385810  0.802182  1
  I  I8  1  0.135575  0.662903  0.022902  1
  I  I9  1  0.813087  0.281807  0.350772  1
  I  I10  1  0.589699  0.614190  0.197818  1
  I  I11  1  0.635575  0.837097  0.477098  1
  I  I12  1  0.364425  0.162903  0.522902  1
  I  I13  1  0.910301  0.114190  0.697818  1
  I  I14  1  0.186913  0.718193  0.649228  1
  I  I15  1  0.313087  0.218193  0.149228  1
  O  O16  1  0.586881  0.448801  0.116932  1
  O  O17  1  0.393425  0.575731  0.670727  1
  O  O18  1  0.590541  0.866738  0.957545  1
  O  O19  1  0.317135  0.588601  0.245183  1
  O  O20  1  0.817135  0.911399  0.254817  1
  O  O21  1  0.682865  0.411399  0.754817  1
  O  O22  1  0.412932  0.912181  0.553301  1
  O  O23  1  0.909459  0.366738  0.457545  1
  O  O24  1  0.090541  0.633262  0.542455  1
  O  O25  1  0.409459  0.133262  0.042455  1
  O  O26  1  0.106575  0.075731  0.170727  1
  O  O27  1  0.048946  0.359388  0.296104  1
  O  O28  1  0.451054  0.859388  0.796104  1
  O  O29  1  0.587068  0.087819  0.446699  1
  O  O30  1  0.032944  0.283685  0.880415  1
  O  O31  1  0.087068  0.412181  0.053301  1
  O  O32  1  0.893425  0.924269  0.829273  1
  O  O33  1  0.098540  0.855836  0.991261  1
  O  O34  1  0.548946  0.140612  0.203896  1
  O  O35  1  0.951054  0.640612  0.703896  1
  O  O36  1  0.606575  0.424269  0.329273  1
  O  O37  1  0.467056  0.783685  0.380415  1
  O  O38  1  0.901460  0.144164  0.008739  1
  O  O39  1  0.498991  0.761020  0.131304  1
  O  O40  1  0.967056  0.716315  0.119585  1
  O  O41  1  0.913119  0.948801  0.616932  1
  O  O42  1  0.912932  0.587819  0.946699  1
  O  O43  1  0.998991  0.738980  0.368696  1
  O  O44  1  0.532944  0.216315  0.619585  1
  O  O45  1  0.501009  0.238980  0.868695  1
  O  O46  1  0.598540  0.644164  0.508739  1
  O  O47  1  0.182865  0.088601  0.745183  1
  O  O48  1  0.086881  0.051199  0.383068  1
  O  O49  1  0.001009  0.261020  0.631305  1
  O  O50  1  0.401460  0.355836  0.491261  1
  O  O51  1  0.413119  0.551199  0.883068  1
