# generated using pymatgen
data_CsUP3O11
_symmetry_space_group_name_H-M   'P 1'
_cell_length_a   7.12839784
_cell_length_b   11.13989942
_cell_length_c   13.53738312
_cell_angle_alpha   90.00000000
_cell_angle_beta   104.23525200
_cell_angle_gamma   90.00000000
_symmetry_Int_Tables_number   1
_chemical_formula_structural   CsUP3O11
_chemical_formula_sum   'Cs4 U4 P12 O44'
_cell_volume   1041.98999897
_cell_formula_units_Z   4
loop_
 _symmetry_equiv_pos_site_id
 _symmetry_equiv_pos_as_xyz
  1  'x, y, z'
loop_
 _atom_site_type_symbol
 _atom_site_label
 _atom_site_symmetry_multiplicity
 _atom_site_fract_x
 _atom_site_fract_y
 _atom_site_fract_z
 _atom_site_occupancy
  Cs  Cs0  1  0.775207  0.494745  0.110840  1
  Cs  Cs1  1  0.724793  0.994745  0.389160  1
  Cs  Cs2  1  0.224793  0.505255  0.889160  1
  Cs  Cs3  1  0.275207  0.005255  0.610840  1
  U  U4  1  0.170824  0.731063  0.326723  1
  U  U5  1  0.329176  0.231063  0.173277  1
  U  U6  1  0.670824  0.768937  0.826723  1
  U  U7  1  0.829176  0.268937  0.673277  1
  P  P8  1  0.397643  0.799598  0.113705  1
  P  P9  1  0.602357  0.200402  0.886295  1
  P  P10  1  0.211228  0.128127  0.891554  1
  P  P11  1  0.897643  0.700402  0.613705  1
  P  P12  1  0.788772  0.871873  0.108446  1
  P  P13  1  0.711228  0.371873  0.391554  1
  P  P14  1  0.288772  0.628127  0.608446  1
  P  P15  1  0.804798  0.138866  0.095435  1
  P  P16  1  0.102357  0.299598  0.386295  1
  P  P17  1  0.195202  0.861134  0.904565  1
  P  P18  1  0.304798  0.361134  0.595435  1
  P  P19  1  0.695202  0.638866  0.404565  1
  O  O20  1  0.438187  0.680515  0.074122  1
  O  O21  1  0.519218  0.718267  0.382462  1
  O  O22  1  0.418528  0.713665  0.679546  1
  O  O23  1  0.235662  0.383056  0.475003  1
  O  O24  1  0.764338  0.616944  0.524997  1
  O  O25  1  0.809513  0.688250  0.703291  1
  O  O26  1  0.735662  0.116944  0.975003  1
  O  O27  1  0.909542  0.384214  0.355488  1
  O  O28  1  0.624582  0.505256  0.365410  1
  O  O29  1  0.264338  0.883056  0.024997  1
  O  O30  1  0.332139  0.378346  0.116410  1
  O  O31  1  0.938187  0.819485  0.574122  1
  O  O32  1  0.480782  0.281733  0.617538  1
  O  O33  1  0.409542  0.115786  0.855488  1
  O  O34  1  0.581472  0.286335  0.320454  1
  O  O35  1  0.019218  0.781733  0.882462  1
  O  O36  1  0.918528  0.786335  0.179546  1
  O  O37  1  0.061813  0.180515  0.425878  1
  O  O38  1  0.251996  0.151903  0.003790  1
  O  O39  1  0.309513  0.811750  0.203291  1
  O  O40  1  0.590458  0.884214  0.144512  1
  O  O41  1  0.561813  0.319485  0.925878  1
  O  O42  1  0.666804  0.914874  0.769242  1
  O  O43  1  0.667861  0.621654  0.883590  1
  O  O44  1  0.833196  0.414874  0.730758  1
  O  O45  1  0.139986  0.322293  0.639175  1
  O  O46  1  0.360014  0.822293  0.860825  1
  O  O47  1  0.124582  0.994744  0.865410  1
  O  O48  1  0.748004  0.848097  0.996210  1
  O  O49  1  0.639986  0.177707  0.139175  1
  O  O50  1  0.690487  0.188250  0.796709  1
  O  O51  1  0.333196  0.085126  0.230758  1
  O  O52  1  0.860014  0.677707  0.360825  1
  O  O53  1  0.167861  0.878346  0.383590  1
  O  O54  1  0.832139  0.121654  0.616410  1
  O  O55  1  0.166804  0.585126  0.269242  1
  O  O56  1  0.875418  0.005256  0.134590  1
  O  O57  1  0.081472  0.213665  0.820454  1
  O  O58  1  0.248004  0.651903  0.496210  1
  O  O59  1  0.980782  0.218267  0.117538  1
  O  O60  1  0.751996  0.348097  0.503790  1
  O  O61  1  0.090458  0.615786  0.644512  1
  O  O62  1  0.375418  0.494744  0.634590  1
  O  O63  1  0.190487  0.311750  0.296709  1
