# generated using pymatgen
data_EuTl(MoO4)2
_symmetry_space_group_name_H-M   'P 1'
_cell_length_a   6.35885544
_cell_length_b   6.35885544
_cell_length_c   9.63035789
_cell_angle_alpha   90.00000000
_cell_angle_beta   90.00000000
_cell_angle_gamma   90.00000000
_symmetry_Int_Tables_number   1
_chemical_formula_structural   EuTl(MoO4)2
_chemical_formula_sum   'Eu2 Tl2 Mo4 O16'
_cell_volume   389.40393064
_cell_formula_units_Z   2
loop_
 _symmetry_equiv_pos_site_id
 _symmetry_equiv_pos_as_xyz
  1  'x, y, z'
loop_
 _atom_site_type_symbol
 _atom_site_label
 _atom_site_symmetry_multiplicity
 _atom_site_fract_x
 _atom_site_fract_y
 _atom_site_fract_z
 _atom_site_occupancy
  Tl  Tl0  1  0.250000  0.250000  0.250000  1
  Tl  Tl1  1  0.750000  0.750000  0.750000  1
  Eu  Eu2  1  0.250000  0.250000  0.750000  1
  Eu  Eu3  1  0.750000  0.750000  0.250000  1
  Mo  Mo4  1  0.250000  0.750000  0.000000  1
  Mo  Mo5  1  0.750000  0.250000  0.000000  1
  Mo  Mo6  1  0.250000  0.750000  0.500000  1
  Mo  Mo7  1  0.750000  0.250000  0.500000  1
  O  O8  1  0.139562  0.551502  0.888248  1
  O  O9  1  0.948498  0.139562  0.888248  1
  O  O10  1  0.551502  0.360438  0.888248  1
  O  O11  1  0.139562  0.948498  0.611752  1
  O  O12  1  0.360438  0.551502  0.611752  1
  O  O13  1  0.360438  0.948498  0.888248  1
  O  O14  1  0.551502  0.139562  0.611752  1
  O  O15  1  0.948498  0.360438  0.611752  1
  O  O16  1  0.860438  0.448498  0.111752  1
  O  O17  1  0.051502  0.860438  0.111752  1
  O  O18  1  0.448498  0.639562  0.111752  1
  O  O19  1  0.860438  0.051502  0.388248  1
  O  O20  1  0.639562  0.448498  0.388248  1
  O  O21  1  0.639562  0.051502  0.111752  1
  O  O22  1  0.448498  0.860438  0.388248  1
  O  O23  1  0.051502  0.639562  0.388248  1
