# generated using pymatgen
data_CdAs2S18N12(OF2)6
_symmetry_space_group_name_H-M   'P 1'
_cell_length_a   9.35721480
_cell_length_b   10.56385742
_cell_length_c   11.41968953
_cell_angle_alpha   65.44478904
_cell_angle_beta   81.13970480
_cell_angle_gamma   87.09189432
_symmetry_Int_Tables_number   1
_chemical_formula_structural   CdAs2S18N12(OF2)6
_chemical_formula_sum   'Cd1 As2 S18 N12 O6 F12'
_cell_volume   1014.36514897
_cell_formula_units_Z   1
loop_
 _symmetry_equiv_pos_site_id
 _symmetry_equiv_pos_as_xyz
  1  'x, y, z'
loop_
 _atom_site_type_symbol
 _atom_site_label
 _atom_site_symmetry_multiplicity
 _atom_site_fract_x
 _atom_site_fract_y
 _atom_site_fract_z
 _atom_site_occupancy
  Cd  Cd0  1  0.000000  0.000000  0.000000  1
  As  As1  1  0.719089  0.697795  0.644932  1
  As  As2  1  0.280911  0.302205  0.355068  1
  S  S3  1  0.900470  0.686660  0.971701  1
  S  S4  1  0.652107  0.333657  0.607670  1
  S  S5  1  0.832552  0.117026  0.615211  1
  S  S6  1  0.763728  0.113616  0.316245  1
  S  S7  1  0.892159  0.568306  0.243087  1
  S  S8  1  0.662156  0.262772  0.085212  1
  S  S9  1  0.107841  0.431694  0.756913  1
  S  S10  1  0.167448  0.882974  0.384789  1
  S  S11  1  0.677295  0.974825  0.233563  1
  S  S12  1  0.325180  0.359318  0.908280  1
  S  S13  1  0.674820  0.640682  0.091720  1
  S  S14  1  0.270234  0.901948  0.182922  1
  S  S15  1  0.099530  0.313340  0.028299  1
  S  S16  1  0.729766  0.098052  0.817078  1
  S  S17  1  0.347893  0.666343  0.392330  1
  S  S18  1  0.337844  0.737228  0.914788  1
  S  S19  1  0.322705  0.025175  0.766437  1
  S  S20  1  0.236272  0.886384  0.683755  1
  N  N21  1  0.726618  0.593327  0.231800  1
  N  N22  1  0.769909  0.268226  0.535965  1
  N  N23  1  0.273382  0.406673  0.768200  1
  N  N24  1  0.394218  0.891990  0.874438  1
  N  N25  1  0.750153  0.259461  0.193346  1
  N  N26  1  0.975393  0.598992  0.100571  1
  N  N27  1  0.617645  0.222092  0.755960  1
  N  N28  1  0.382355  0.777908  0.244040  1
  N  N29  1  0.249847  0.740539  0.806654  1
  N  N30  1  0.024607  0.401008  0.899429  1
  N  N31  1  0.230091  0.731774  0.464035  1
  N  N32  1  0.605782  0.108010  0.125562  1
  O  O33  1  0.927024  0.840630  0.926997  1
  O  O34  1  0.849553  0.151645  0.860380  1
  O  O35  1  0.192758  0.074453  0.830197  1
  O  O36  1  0.072976  0.159370  0.073003  1
  O  O37  1  0.807242  0.925547  0.169803  1
  O  O38  1  0.150447  0.848355  0.139620  1
  F  F39  1  0.449071  0.373449  0.354424  1
  F  F40  1  0.656165  0.690370  0.803867  1
  F  F41  1  0.343835  0.309630  0.196133  1
  F  F42  1  0.113648  0.231054  0.353175  1
  F  F43  1  0.886352  0.768946  0.646825  1
  F  F44  1  0.350797  0.131480  0.425630  1
  F  F45  1  0.788267  0.526973  0.715875  1
  F  F46  1  0.211733  0.473027  0.284125  1
  F  F47  1  0.649203  0.868520  0.574370  1
  F  F48  1  0.550929  0.626551  0.645576  1
  F  F49  1  0.781487  0.705666  0.487060  1
  F  F50  1  0.218513  0.294334  0.512940  1
