# generated using pymatgen
data_RbSnS4
_symmetry_space_group_name_H-M   'P 1'
_cell_length_a   10.06065269
_cell_length_b   10.12569586
_cell_length_c   14.75990694
_cell_angle_alpha   90.00000000
_cell_angle_beta   106.27543272
_cell_angle_gamma   90.00000000
_symmetry_Int_Tables_number   1
_chemical_formula_structural   RbSnS4
_chemical_formula_sum   'Rb8 Sn8 S32'
_cell_volume   1443.35182262
_cell_formula_units_Z   8
loop_
 _symmetry_equiv_pos_site_id
 _symmetry_equiv_pos_as_xyz
  1  'x, y, z'
loop_
 _atom_site_type_symbol
 _atom_site_label
 _atom_site_symmetry_multiplicity
 _atom_site_fract_x
 _atom_site_fract_y
 _atom_site_fract_z
 _atom_site_occupancy
  Sn  Sn0  1  0.024882  0.174940  0.014122  1
  Sn  Sn1  1  0.475118  0.674940  0.485878  1
  Sn  Sn2  1  0.975118  0.825060  0.985878  1
  Sn  Sn3  1  0.524882  0.325060  0.514122  1
  Sn  Sn4  1  0.592927  0.999888  0.405644  1
  Sn  Sn5  1  0.907073  0.499888  0.094356  1
  Sn  Sn6  1  0.407073  0.000112  0.594356  1
  Sn  Sn7  1  0.092927  0.500112  0.905644  1
  Rb  Rb8  1  0.346538  0.366046  0.203671  1
  Rb  Rb9  1  0.153462  0.866046  0.296329  1
  Rb  Rb10  1  0.653462  0.633954  0.796329  1
  Rb  Rb11  1  0.846538  0.133954  0.703671  1
  Rb  Rb12  1  0.028937  0.275285  0.407459  1
  Rb  Rb13  1  0.471063  0.775285  0.092541  1
  Rb  Rb14  1  0.971063  0.724715  0.592541  1
  Rb  Rb15  1  0.528937  0.224715  0.907459  1
  S  S16  1  0.210161  0.274960  0.960569  1
  S  S17  1  0.289839  0.774960  0.539431  1
  S  S18  1  0.789839  0.725040  0.039431  1
  S  S19  1  0.710161  0.225040  0.460569  1
  S  S20  1  0.838469  0.037266  0.920060  1
  S  S21  1  0.661531  0.537266  0.579940  1
  S  S22  1  0.161531  0.962734  0.079940  1
  S  S23  1  0.338469  0.462734  0.420060  1
  S  S24  1  0.634572  0.897430  0.572583  1
  S  S25  1  0.865428  0.397430  0.927417  1
  S  S26  1  0.365428  0.102570  0.427417  1
  S  S27  1  0.134572  0.602570  0.072583  1
  S  S28  1  0.513647  0.066148  0.224821  1
  S  S29  1  0.986353  0.566148  0.275179  1
  S  S30  1  0.486353  0.933852  0.775179  1
  S  S31  1  0.013647  0.433852  0.724821  1
  S  S32  1  0.009049  0.271464  0.161900  1
  S  S33  1  0.490951  0.771464  0.338100  1
  S  S34  1  0.990951  0.728536  0.838100  1
  S  S35  1  0.509049  0.228536  0.661900  1
  S  S36  1  0.686602  0.140827  0.196348  1
  S  S37  1  0.813398  0.640827  0.303652  1
  S  S38  1  0.313398  0.859173  0.803652  1
  S  S39  1  0.186602  0.359173  0.696348  1
  S  S40  1  0.690704  0.343339  0.225586  1
  S  S41  1  0.809296  0.843339  0.274414  1
  S  S42  1  0.309296  0.656661  0.774414  1
  S  S43  1  0.190704  0.156661  0.725586  1
  S  S44  1  0.654014  0.441027  0.099410  1
  S  S45  1  0.845986  0.941027  0.400590  1
  S  S46  1  0.345986  0.558973  0.900590  1
  S  S47  1  0.154014  0.058973  0.599410  1
