# generated using pymatgen
data_YB7Mo3
_symmetry_space_group_name_H-M   'P 1'
_cell_length_a   3.10899685
_cell_length_b   11.03549756
_cell_length_c   12.91506936
_cell_angle_alpha   90.00000000
_cell_angle_beta   90.00000000
_cell_angle_gamma   90.00000000
_symmetry_Int_Tables_number   1
_chemical_formula_structural   YB7Mo3
_chemical_formula_sum   'Y4 B28 Mo12'
_cell_volume   443.10733987
_cell_formula_units_Z   4
loop_
 _symmetry_equiv_pos_site_id
 _symmetry_equiv_pos_as_xyz
  1  'x, y, z'
loop_
 _atom_site_type_symbol
 _atom_site_label
 _atom_site_symmetry_multiplicity
 _atom_site_fract_x
 _atom_site_fract_y
 _atom_site_fract_z
 _atom_site_occupancy
  Y  Y0  1  0.250000  0.051448  0.691867  1
  Y  Y1  1  0.250000  0.551448  0.808133  1
  Y  Y2  1  0.750000  0.448585  0.191851  1
  Y  Y3  1  0.750000  0.948585  0.308149  1
  B  B4  1  0.750000  0.230523  0.081772  1
  B  B5  1  0.250000  0.932165  0.884231  1
  B  B6  1  0.250000  0.489530  0.362710  1
  B  B7  1  0.250000  0.989530  0.137290  1
  B  B8  1  0.250000  0.769486  0.918227  1
  B  B9  1  0.250000  0.432165  0.615769  1
  B  B10  1  0.250000  0.462566  0.017973  1
  B  B11  1  0.750000  0.037415  0.517939  1
  B  B12  1  0.750000  0.249671  0.326451  1
  B  B13  1  0.250000  0.962566  0.482027  1
  B  B14  1  0.750000  0.166177  0.833057  1
  B  B15  1  0.250000  0.333814  0.333037  1
  B  B16  1  0.250000  0.313267  0.066440  1
  B  B17  1  0.750000  0.749671  0.173549  1
  B  B18  1  0.750000  0.186733  0.566428  1
  B  B19  1  0.750000  0.686733  0.933572  1
  B  B20  1  0.250000  0.813267  0.433560  1
  B  B21  1  0.750000  0.067824  0.115772  1
  B  B22  1  0.750000  0.537415  0.982061  1
  B  B23  1  0.250000  0.750305  0.673541  1
  B  B24  1  0.750000  0.010468  0.862705  1
  B  B25  1  0.750000  0.730523  0.418228  1
  B  B26  1  0.750000  0.510468  0.637295  1
  B  B27  1  0.250000  0.269486  0.581773  1
  B  B28  1  0.250000  0.250305  0.826459  1
  B  B29  1  0.750000  0.666177  0.666943  1
  B  B30  1  0.750000  0.567824  0.384228  1
  B  B31  1  0.250000  0.833814  0.166963  1
  Mo  Mo32  1  0.750000  0.315262  0.701757  1
  Mo  Mo33  1  0.750000  0.381893  0.473251  1
  Mo  Mo34  1  0.750000  0.340485  0.936095  1
  Mo  Mo35  1  0.250000  0.618112  0.526737  1
  Mo  Mo36  1  0.250000  0.159558  0.436132  1
  Mo  Mo37  1  0.250000  0.684716  0.298241  1
  Mo  Mo38  1  0.750000  0.840485  0.563905  1
  Mo  Mo39  1  0.750000  0.815262  0.798243  1
  Mo  Mo40  1  0.250000  0.184716  0.201759  1
  Mo  Mo41  1  0.750000  0.881893  0.026749  1
  Mo  Mo42  1  0.250000  0.659558  0.063868  1
  Mo  Mo43  1  0.250000  0.118112  0.973263  1
