# generated using pymatgen
data_Na3Nd(BO3)2
_symmetry_space_group_name_H-M   'P 1'
_cell_length_a   6.67164605
_cell_length_b   8.88159684
_cell_length_c   10.31343522
_cell_angle_alpha   90.00000000
_cell_angle_beta   90.95650689
_cell_angle_gamma   90.00000000
_symmetry_Int_Tables_number   1
_chemical_formula_structural   Na3Nd(BO3)2
_chemical_formula_sum   'Na12 Nd4 B8 O24'
_cell_volume   611.03611125
_cell_formula_units_Z   4
loop_
 _symmetry_equiv_pos_site_id
 _symmetry_equiv_pos_as_xyz
  1  'x, y, z'
loop_
 _atom_site_type_symbol
 _atom_site_label
 _atom_site_symmetry_multiplicity
 _atom_site_fract_x
 _atom_site_fract_y
 _atom_site_fract_z
 _atom_site_occupancy
  Na  Na0  1  0.978662  0.812194  0.397313  1
  Na  Na1  1  0.521338  0.312194  0.102687  1
  Na  Na2  1  0.218293  0.563152  0.606830  1
  Na  Na3  1  0.523253  0.736426  0.342426  1
  Na  Na4  1  0.781707  0.436848  0.393170  1
  Na  Na5  1  0.478662  0.687806  0.897313  1
  Na  Na6  1  0.476747  0.263574  0.657574  1
  Na  Na7  1  0.021338  0.187806  0.602687  1
  Na  Na8  1  0.976747  0.236426  0.157574  1
  Na  Na9  1  0.281707  0.063152  0.893170  1
  Na  Na10  1  0.718293  0.936848  0.106830  1
  Na  Na11  1  0.023253  0.763574  0.842426  1
  Nd  Nd12  1  0.340904  0.114403  0.354108  1
  Nd  Nd13  1  0.840904  0.385597  0.854108  1
  Nd  Nd14  1  0.659096  0.885597  0.645892  1
  Nd  Nd15  1  0.159096  0.614403  0.145892  1
  B  B16  1  0.755262  0.568401  0.625581  1
  B  B17  1  0.778844  0.098823  0.361341  1
  B  B18  1  0.744738  0.068401  0.874419  1
  B  B19  1  0.255262  0.931599  0.125581  1
  B  B20  1  0.278844  0.401177  0.861341  1
  B  B21  1  0.721156  0.598823  0.138659  1
  B  B22  1  0.244738  0.431599  0.374419  1
  B  B23  1  0.221156  0.901177  0.638659  1
  O  O24  1  0.673237  0.211740  0.295329  1
  O  O25  1  0.984142  0.101121  0.369656  1
  O  O26  1  0.696796  0.653075  0.518663  1
  O  O27  1  0.683771  0.919502  0.882975  1
  O  O28  1  0.515858  0.601121  0.130344  1
  O  O29  1  0.484142  0.398879  0.869656  1
  O  O30  1  0.183771  0.580498  0.382975  1
  O  O31  1  0.742365  0.136526  0.751554  1
  O  O32  1  0.242365  0.363474  0.251554  1
  O  O33  1  0.165144  0.518314  0.915327  1
  O  O34  1  0.757635  0.636526  0.748446  1
  O  O35  1  0.816229  0.419502  0.617025  1
  O  O36  1  0.015858  0.898879  0.630344  1
  O  O37  1  0.196796  0.846925  0.018663  1
  O  O38  1  0.257635  0.863474  0.248446  1
  O  O39  1  0.326763  0.788260  0.704671  1
  O  O40  1  0.803204  0.153075  0.981337  1
  O  O41  1  0.316229  0.080498  0.117025  1
  O  O42  1  0.334856  0.018314  0.584673  1
  O  O43  1  0.834856  0.481686  0.084673  1
  O  O44  1  0.826763  0.711740  0.204671  1
  O  O45  1  0.665144  0.981686  0.415327  1
  O  O46  1  0.173237  0.288260  0.795329  1
  O  O47  1  0.303204  0.346925  0.481337  1
