# generated using pymatgen
data_Na3Mn4(TeO6)2
_symmetry_space_group_name_H-M   'P 1'
_cell_length_a   9.35416098
_cell_length_b   9.61633181
_cell_length_c   11.21181009
_cell_angle_alpha   90.00000000
_cell_angle_beta   90.00000000
_cell_angle_gamma   90.00000000
_symmetry_Int_Tables_number   1
_chemical_formula_structural   Na3Mn4(TeO6)2
_chemical_formula_sum   'Na12 Mn16 Te8 O48'
_cell_volume   1008.53276649
_cell_formula_units_Z   4
loop_
 _symmetry_equiv_pos_site_id
 _symmetry_equiv_pos_as_xyz
  1  'x, y, z'
loop_
 _atom_site_type_symbol
 _atom_site_label
 _atom_site_symmetry_multiplicity
 _atom_site_fract_x
 _atom_site_fract_y
 _atom_site_fract_z
 _atom_site_occupancy
  Na  Na0  1  0.082517  0.752125  0.353992  1
  Na  Na1  1  0.582517  0.247875  0.646008  1
  Na  Na2  1  0.250000  0.238000  0.654983  1
  Na  Na3  1  0.417483  0.752125  0.353992  1
  Na  Na4  1  0.750000  0.262000  0.154983  1
  Na  Na5  1  0.917483  0.747875  0.853992  1
  Na  Na6  1  0.417483  0.252125  0.146008  1
  Na  Na7  1  0.082517  0.252125  0.146008  1
  Na  Na8  1  0.250000  0.738000  0.845017  1
  Na  Na9  1  0.582517  0.747875  0.853992  1
  Na  Na10  1  0.750000  0.762000  0.345017  1
  Na  Na11  1  0.917483  0.247875  0.646008  1
  Mn  Mn12  1  0.913315  0.570070  0.612407  1
  Mn  Mn13  1  0.913315  0.070070  0.887593  1
  Mn  Mn14  1  0.083103  0.415968  0.892162  1
  Mn  Mn15  1  0.413315  0.429930  0.387593  1
  Mn  Mn16  1  0.583103  0.084032  0.392162  1
  Mn  Mn17  1  0.586685  0.070070  0.887593  1
  Mn  Mn18  1  0.916897  0.084032  0.392162  1
  Mn  Mn19  1  0.086685  0.429930  0.387593  1
  Mn  Mn20  1  0.583103  0.584032  0.107838  1
  Mn  Mn21  1  0.413315  0.929930  0.112407  1
  Mn  Mn22  1  0.083103  0.915968  0.607838  1
  Mn  Mn23  1  0.916897  0.584032  0.107838  1
  Mn  Mn24  1  0.086685  0.929930  0.112407  1
  Mn  Mn25  1  0.416897  0.915968  0.607838  1
  Mn  Mn26  1  0.586685  0.570070  0.612407  1
  Mn  Mn27  1  0.416897  0.415968  0.892162  1
  Te  Te28  1  0.750000  0.442878  0.384099  1
  Te  Te29  1  0.250000  0.583676  0.103321  1
  Te  Te30  1  0.750000  0.916324  0.603321  1
  Te  Te31  1  0.250000  0.057122  0.884099  1
  Te  Te32  1  0.750000  0.942878  0.115901  1
  Te  Te33  1  0.250000  0.083676  0.396679  1
  Te  Te34  1  0.750000  0.416324  0.896679  1
  Te  Te35  1  0.250000  0.557122  0.615901  1
  O  O36  1  0.093001  0.626075  0.991986  1
  O  O37  1  0.250000  0.897184  0.473075  1
  O  O38  1  0.750000  0.013235  0.283637  1
  O  O39  1  0.096580  0.423810  0.582973  1
  O  O40  1  0.596580  0.076190  0.082973  1
  O  O41  1  0.406999  0.126075  0.508014  1
  O  O42  1  0.903420  0.576190  0.417027  1
  O  O43  1  0.906999  0.373925  0.008014  1
  O  O44  1  0.750000  0.411987  0.557415  1
  O  O45  1  0.750000  0.513235  0.216363  1
  O  O46  1  0.904182  0.473230  0.787988  1
  O  O47  1  0.404182  0.526770  0.212012  1
  O  O48  1  0.250000  0.986765  0.716363  1
  O  O49  1  0.404182  0.026770  0.287988  1
  O  O50  1  0.750000  0.225502  0.833707  1
  O  O51  1  0.593001  0.873925  0.491986  1
  O  O52  1  0.903420  0.076190  0.082973  1
  O  O53  1  0.595818  0.973230  0.712012  1
  O  O54  1  0.250000  0.588013  0.442585  1
  O  O55  1  0.601232  0.305709  0.343916  1
  O  O56  1  0.398768  0.194291  0.843916  1
  O  O57  1  0.406999  0.626075  0.991986  1
  O  O58  1  0.250000  0.397184  0.026925  1
  O  O59  1  0.906999  0.873925  0.491986  1
  O  O60  1  0.095818  0.526770  0.212012  1
  O  O61  1  0.250000  0.274498  0.333707  1
  O  O62  1  0.403420  0.423810  0.582973  1
  O  O63  1  0.398768  0.694291  0.656084  1
  O  O64  1  0.595818  0.473230  0.787988  1
  O  O65  1  0.596580  0.576190  0.417027  1
  O  O66  1  0.095818  0.026770  0.287988  1
  O  O67  1  0.250000  0.486765  0.783637  1
  O  O68  1  0.904182  0.973230  0.712012  1
  O  O69  1  0.096580  0.923810  0.917027  1
  O  O70  1  0.750000  0.725502  0.666293  1
  O  O71  1  0.750000  0.602816  0.973075  1
  O  O72  1  0.898768  0.805709  0.156084  1
  O  O73  1  0.093001  0.126075  0.508014  1
  O  O74  1  0.101232  0.194291  0.843916  1
  O  O75  1  0.403420  0.923810  0.917027  1
  O  O76  1  0.250000  0.774498  0.166293  1
  O  O77  1  0.750000  0.911987  0.942585  1
  O  O78  1  0.250000  0.088013  0.057415  1
  O  O79  1  0.101232  0.694291  0.656084  1
  O  O80  1  0.750000  0.102816  0.526925  1
  O  O81  1  0.898768  0.305709  0.343916  1
  O  O82  1  0.601232  0.805709  0.156084  1
  O  O83  1  0.593001  0.373925  0.008014  1
