# generated using pymatgen
data_KFeP2O7
_symmetry_space_group_name_H-M   'P 1'
_cell_length_a   7.39753749
_cell_length_b   8.26844993
_cell_length_c   9.85222380
_cell_angle_alpha   90.00000000
_cell_angle_beta   90.00000000
_cell_angle_gamma   106.57869961
_symmetry_Int_Tables_number   1
_chemical_formula_structural   KFeP2O7
_chemical_formula_sum   'K4 Fe4 P8 O28'
_cell_volume   577.57097683
_cell_formula_units_Z   4
loop_
 _symmetry_equiv_pos_site_id
 _symmetry_equiv_pos_as_xyz
  1  'x, y, z'
loop_
 _atom_site_type_symbol
 _atom_site_label
 _atom_site_symmetry_multiplicity
 _atom_site_fract_x
 _atom_site_fract_y
 _atom_site_fract_z
 _atom_site_occupancy
  K  K0  1  0.820988  0.947764  0.679836  1
  K  K1  1  0.179012  0.552236  0.179836  1
  K  K2  1  0.179012  0.052236  0.320164  1
  K  K3  1  0.820988  0.447764  0.820164  1
  Fe  Fe4  1  0.763709  0.238401  0.398962  1
  Fe  Fe5  1  0.236291  0.261599  0.898962  1
  Fe  Fe6  1  0.236291  0.761599  0.601038  1
  Fe  Fe7  1  0.763709  0.738401  0.101038  1
  P  P8  1  0.560804  0.809402  0.363999  1
  P  P9  1  0.439196  0.690598  0.863999  1
  P  P10  1  0.439196  0.190598  0.636001  1
  P  P11  1  0.560804  0.309402  0.136001  1
  P  P12  1  0.867267  0.166599  0.096289  1
  P  P13  1  0.132733  0.333401  0.596289  1
  P  P14  1  0.132733  0.833401  0.903711  1
  P  P15  1  0.867267  0.666599  0.403711  1
  O  O16  1  0.661673  0.685003  0.444869  1
  O  O17  1  0.338327  0.814997  0.944869  1
  O  O18  1  0.338327  0.314997  0.555131  1
  O  O19  1  0.661673  0.185003  0.055131  1
  O  O20  1  0.917454  0.747079  0.261884  1
  O  O21  1  0.082546  0.752921  0.761884  1
  O  O22  1  0.082546  0.252921  0.738116  1
  O  O23  1  0.917454  0.247079  0.238116  1
  O  O24  1  0.358748  0.765641  0.418830  1
  O  O25  1  0.641252  0.734359  0.918830  1
  O  O26  1  0.641252  0.234359  0.581170  1
  O  O27  1  0.358748  0.265641  0.081170  1
  O  O28  1  0.857793  0.483158  0.409473  1
  O  O29  1  0.142207  0.016842  0.909473  1
  O  O30  1  0.142207  0.516842  0.590527  1
  O  O31  1  0.857793  0.983158  0.090527  1
  O  O32  1  0.683092  0.986727  0.395658  1
  O  O33  1  0.316908  0.513273  0.895658  1
  O  O34  1  0.316908  0.013273  0.604342  1
  O  O35  1  0.683092  0.486727  0.104342  1
  O  O36  1  0.006644  0.778529  0.504320  1
  O  O37  1  0.993356  0.721471  0.004320  1
  O  O38  1  0.993356  0.221471  0.495680  1
  O  O39  1  0.006644  0.278529  0.995680  1
  O  O40  1  0.548940  0.754566  0.213177  1
  O  O41  1  0.451060  0.745434  0.713177  1
  O  O42  1  0.451060  0.245434  0.786823  1
  O  O43  1  0.548940  0.254566  0.286823  1
