# generated using pymatgen
data_Ba4Ca4Tl3Cu6O19
_symmetry_space_group_name_H-M   'P 1'
_cell_length_a   3.86782788
_cell_length_b   3.86782795
_cell_length_c   34.65246731
_cell_angle_alpha   93.19927692
_cell_angle_beta   93.19927698
_cell_angle_gamma   89.99999817
_symmetry_Int_Tables_number   1
_chemical_formula_structural   Ba4Ca4Tl3Cu6O19
_chemical_formula_sum   'Ba4 Ca4 Tl3 Cu6 O19'
_cell_volume   516.78696538
_cell_formula_units_Z   1
loop_
 _symmetry_equiv_pos_site_id
 _symmetry_equiv_pos_as_xyz
  1  'x, y, z'
loop_
 _atom_site_type_symbol
 _atom_site_label
 _atom_site_symmetry_multiplicity
 _atom_site_fract_x
 _atom_site_fract_y
 _atom_site_fract_z
 _atom_site_occupancy
  Ba  Ba0  1  0.460791  0.460791  0.921583  1
  Ba  Ba1  1  0.539209  0.539209  0.078417  1
  Ba  Ba2  1  0.308093  0.308093  0.616187  1
  Ba  Ba3  1  0.691907  0.691907  0.383813  1
  Ca  Ca4  1  0.640356  0.640356  0.280711  1
  Ca  Ca5  1  0.592583  0.592583  0.185167  1
  Ca  Ca6  1  0.407417  0.407417  0.814833  1
  Ca  Ca7  1  0.359644  0.359644  0.719289  1
  Tl  Tl8  1  0.766571  0.766571  0.533143  1
  Tl  Tl9  1  0.000000  0.000000  0.000000  1
  Tl  Tl10  1  0.233429  0.233429  0.466857  1
  Cu  Cu11  1  0.837250  0.837250  0.674500  1
  Cu  Cu12  1  0.069878  0.069878  0.139757  1
  Cu  Cu13  1  0.162750  0.162750  0.325500  1
  Cu  Cu14  1  0.930122  0.930122  0.860243  1
  Cu  Cu15  1  0.882718  0.882718  0.765436  1
  Cu  Cu16  1  0.117282  0.117282  0.234564  1
  O  O17  1  0.071602  0.571602  0.143204  1
  O  O18  1  0.928398  0.428398  0.856796  1
  O  O19  1  0.571602  0.071602  0.143204  1
  O  O20  1  0.795919  0.795919  0.591838  1
  O  O21  1  0.617519  0.117519  0.235037  1
  O  O22  1  0.836642  0.336643  0.673285  1
  O  O23  1  0.263553  0.263553  0.527106  1
  O  O24  1  0.969622  0.969622  0.939245  1
  O  O25  1  0.163357  0.663358  0.326715  1
  O  O26  1  0.882481  0.382481  0.764963  1
  O  O27  1  0.204081  0.204081  0.408162  1
  O  O28  1  0.336643  0.836642  0.673285  1
  O  O29  1  0.117519  0.617519  0.235037  1
  O  O30  1  0.663358  0.163357  0.326715  1
  O  O31  1  0.428398  0.928398  0.856796  1
  O  O32  1  0.030378  0.030378  0.060755  1
  O  O33  1  0.500000  0.500000  0.000000  1
  O  O34  1  0.736447  0.736447  0.472894  1
  O  O35  1  0.382481  0.882481  0.764963  1
