# generated using pymatgen
data_KWNClF5
_symmetry_space_group_name_H-M   'P 1'
_cell_length_a   7.92240752
_cell_length_b   7.93240868
_cell_length_c   11.61172670
_cell_angle_alpha   99.65072712
_cell_angle_beta   90.00000000
_cell_angle_gamma   90.00000000
_symmetry_Int_Tables_number   1
_chemical_formula_structural   KWNClF5
_chemical_formula_sum   'K4 W4 N4 Cl4 F20'
_cell_volume   719.39766640
_cell_formula_units_Z   4
loop_
 _symmetry_equiv_pos_site_id
 _symmetry_equiv_pos_as_xyz
  1  'x, y, z'
loop_
 _atom_site_type_symbol
 _atom_site_label
 _atom_site_symmetry_multiplicity
 _atom_site_fract_x
 _atom_site_fract_y
 _atom_site_fract_z
 _atom_site_occupancy
  K  K0  1  0.432596  0.762096  0.603114  1
  K  K1  1  0.567404  0.237904  0.396886  1
  K  K2  1  0.067404  0.262096  0.603114  1
  K  K3  1  0.932596  0.737904  0.396886  1
  W  W4  1  0.517255  0.338486  0.735929  1
  W  W5  1  0.982745  0.838486  0.735929  1
  W  W6  1  0.482745  0.661514  0.264071  1
  W  W7  1  0.017255  0.161514  0.264071  1
  N  N8  1  0.889188  0.780647  0.863232  1
  N  N9  1  0.110812  0.219353  0.136767  1
  N  N10  1  0.610812  0.280647  0.863232  1
  N  N11  1  0.389188  0.719353  0.136767  1
  Cl  Cl12  1  0.678690  0.226760  0.982227  1
  Cl  Cl13  1  0.821310  0.726760  0.982227  1
  Cl  Cl14  1  0.178690  0.273240  0.017773  1
  Cl  Cl15  1  0.321310  0.773240  0.017773  1
  F  F16  1  0.953660  0.083529  0.775845  1
  F  F17  1  0.035067  0.607490  0.655289  1
  F  F18  1  0.046340  0.916471  0.224155  1
  F  F19  1  0.964933  0.392510  0.344711  1
  F  F20  1  0.787592  0.145185  0.203546  1
  F  F21  1  0.718389  0.327240  0.637230  1
  F  F22  1  0.546340  0.583529  0.775845  1
  F  F23  1  0.453660  0.416471  0.224155  1
  F  F24  1  0.212408  0.854815  0.796454  1
  F  F25  1  0.535067  0.892510  0.344711  1
  F  F26  1  0.899643  0.097158  0.406846  1
  F  F27  1  0.287592  0.354815  0.796454  1
  F  F28  1  0.600357  0.597158  0.406846  1
  F  F29  1  0.281611  0.672760  0.362770  1
  F  F30  1  0.100357  0.902842  0.593154  1
  F  F31  1  0.399643  0.402842  0.593154  1
  F  F32  1  0.712408  0.645185  0.203546  1
  F  F33  1  0.464933  0.107490  0.655289  1
  F  F34  1  0.218389  0.172760  0.362770  1
  F  F35  1  0.781611  0.827240  0.637230  1
