# generated using pymatgen
data_CrMoF6
_symmetry_space_group_name_H-M   'P 1'
_cell_length_a   5.25900147
_cell_length_b   5.59040235
_cell_length_c   5.26165760
_cell_angle_alpha   61.90362117
_cell_angle_beta   60.00633009
_cell_angle_gamma   90.00494602
_symmetry_Int_Tables_number   1
_chemical_formula_structural   CrMoF6
_chemical_formula_sum   'Cr1 Mo1 F6'
_cell_volume   112.43224712
_cell_formula_units_Z   1
loop_
 _symmetry_equiv_pos_site_id
 _symmetry_equiv_pos_as_xyz
  1  'x, y, z'
loop_
 _atom_site_type_symbol
 _atom_site_label
 _atom_site_symmetry_multiplicity
 _atom_site_fract_x
 _atom_site_fract_y
 _atom_site_fract_z
 _atom_site_occupancy
  F  F0  1  0.238089  0.759090  0.126003  1
  F  F1  1  0.761911  0.240910  0.873997  1
  F  F2  1  0.364302  0.240850  0.520985  1
  F  F3  1  0.635698  0.759150  0.479015  1
  F  F4  1  0.885222  0.759294  0.876687  1
  F  F5  1  0.114778  0.240706  0.123313  1
  Cr  Cr6  1  0.000000  0.000000  0.000000  1
  Mo  Mo7  1  0.500000  0.500000  0.000000  1
