# generated using pymatgen
data_FeAs4F18
_symmetry_space_group_name_H-M   'P 1'
_cell_length_a   7.51873552
_cell_length_b   7.49771088
_cell_length_c   13.17393662
_cell_angle_alpha   90.00000000
_cell_angle_beta   90.00000000
_cell_angle_gamma   91.99632098
_symmetry_Int_Tables_number   1
_chemical_formula_structural   FeAs4F18
_chemical_formula_sum   'Fe2 As8 F36'
_cell_volume   742.20760450
_cell_formula_units_Z   2
loop_
 _symmetry_equiv_pos_site_id
 _symmetry_equiv_pos_as_xyz
  1  'x, y, z'
loop_
 _atom_site_type_symbol
 _atom_site_label
 _atom_site_symmetry_multiplicity
 _atom_site_fract_x
 _atom_site_fract_y
 _atom_site_fract_z
 _atom_site_occupancy
  Fe  Fe0  1  0.000000  0.000000  0.000000  1
  Fe  Fe1  1  0.500000  0.500000  0.500000  1
  As  As2  1  0.483844  0.567984  0.218204  1
  As  As3  1  0.016156  0.932016  0.718204  1
  As  As4  1  0.000000  0.500000  0.500000  1
  As  As5  1  0.500000  0.000000  0.000000  1
  As  As6  1  0.500000  0.000000  0.500000  1
  As  As7  1  0.000000  0.500000  0.000000  1
  As  As8  1  0.983844  0.067984  0.281796  1
  As  As9  1  0.516156  0.432016  0.781796  1
  F  F10  1  0.315475  0.327856  0.743551  1
  F  F11  1  0.184525  0.172144  0.243551  1
  F  F12  1  0.684525  0.672144  0.256449  1
  F  F13  1  0.815475  0.827856  0.756449  1
  F  F14  1  0.942999  0.729537  0.969868  1
  F  F15  1  0.557001  0.770463  0.469868  1
  F  F16  1  0.057001  0.270463  0.030132  1
  F  F17  1  0.442999  0.229537  0.530132  1
  F  F18  1  0.928758  0.433851  0.878787  1
  F  F19  1  0.571242  0.066149  0.378787  1
  F  F20  1  0.071242  0.566149  0.121213  1
  F  F21  1  0.428758  0.933851  0.621213  1
  F  F22  1  0.783272  0.459294  0.045910  1
  F  F23  1  0.716728  0.040706  0.545910  1
  F  F24  1  0.216728  0.540706  0.954090  1
  F  F25  1  0.283272  0.959294  0.454090  1
  F  F26  1  0.649954  0.253890  0.751644  1
  F  F27  1  0.850046  0.246110  0.251644  1
  F  F28  1  0.732165  0.053706  0.969099  1
  F  F29  1  0.767835  0.446294  0.469099  1
  F  F30  1  0.267835  0.946294  0.030901  1
  F  F31  1  0.232165  0.553706  0.530901  1
  F  F32  1  0.559759  0.792429  0.051155  1
  F  F33  1  0.940241  0.707571  0.551155  1
  F  F34  1  0.440241  0.207571  0.948845  1
  F  F35  1  0.059759  0.292429  0.448845  1
  F  F36  1  0.470113  0.900394  0.881338  1
  F  F37  1  0.029887  0.599606  0.381338  1
  F  F38  1  0.529887  0.099606  0.118662  1
  F  F39  1  0.970113  0.400394  0.618662  1
  F  F40  1  0.350046  0.746110  0.248356  1
  F  F41  1  0.149954  0.753890  0.748356  1
  F  F42  1  0.552459  0.536967  0.654988  1
  F  F43  1  0.947541  0.963033  0.154988  1
  F  F44  1  0.052459  0.036967  0.845012  1
  F  F45  1  0.447541  0.463033  0.345012  1
