# generated using pymatgen
data_K2Mo4O13
_symmetry_space_group_name_H-M   'P 1'
_cell_length_a   8.24881089
_cell_length_b   8.53380606
_cell_length_c   10.33278073
_cell_angle_alpha   107.36828005
_cell_angle_beta   103.10107009
_cell_angle_gamma   109.50356263
_symmetry_Int_Tables_number   1
_chemical_formula_structural   K2Mo4O13
_chemical_formula_sum   'K4 Mo8 O26'
_cell_volume   609.79936829
_cell_formula_units_Z   2
loop_
 _symmetry_equiv_pos_site_id
 _symmetry_equiv_pos_as_xyz
  1  'x, y, z'
loop_
 _atom_site_type_symbol
 _atom_site_label
 _atom_site_symmetry_multiplicity
 _atom_site_fract_x
 _atom_site_fract_y
 _atom_site_fract_z
 _atom_site_occupancy
  K  K0  1  0.741223  0.781727  0.430333  1
  K  K1  1  0.258777  0.218273  0.569667  1
  K  K2  1  0.684957  0.235330  0.309432  1
  K  K3  1  0.315043  0.764670  0.690568  1
  Mo  Mo4  1  0.815973  0.506850  0.050941  1
  Mo  Mo5  1  0.184027  0.493150  0.949059  1
  Mo  Mo6  1  0.831297  0.908117  0.062043  1
  Mo  Mo7  1  0.168703  0.091883  0.937957  1
  Mo  Mo8  1  0.779030  0.606209  0.731044  1
  Mo  Mo9  1  0.220970  0.393791  0.268956  1
  Mo  Mo10  1  0.775047  0.203389  0.709858  1
  Mo  Mo11  1  0.224953  0.796611  0.290142  1
  O  O12  1  0.656669  0.940143  0.962022  1
  O  O13  1  0.343331  0.059857  0.037978  1
  O  O14  1  0.951013  0.862792  0.882938  1
  O  O15  1  0.048987  0.137208  0.117062  1
  O  O16  1  0.897497  0.618292  0.611230  1
  O  O17  1  0.102503  0.381708  0.388770  1
  O  O18  1  0.714807  0.635830  0.945875  1
  O  O19  1  0.285193  0.364170  0.054125  1
  O  O20  1  0.717846  0.510081  0.183260  1
  O  O21  1  0.282154  0.489919  0.816740  1
  O  O22  1  0.866498  0.185992  0.570820  1
  O  O23  1  0.133502  0.814008  0.429180  1
  O  O24  1  0.642457  0.346753  0.664322  1
  O  O25  1  0.357543  0.653247  0.335678  1
  O  O26  1  0.023254  0.784675  0.145262  1
  O  O27  1  0.976746  0.215325  0.854738  1
  O  O28  1  0.684495  0.285633  0.909483  1
  O  O29  1  0.315505  0.714368  0.090517  1
  O  O30  1  0.599629  0.986260  0.647210  1
  O  O31  1  0.400371  0.013740  0.352790  1
  O  O32  1  0.591309  0.643795  0.658800  1
  O  O33  1  0.408691  0.356205  0.341200  1
  O  O34  1  0.962681  0.514104  0.864253  1
  O  O35  1  0.037319  0.485896  0.135747  1
  O  O36  1  0.798302  0.944060  0.227790  1
  O  O37  1  0.201698  0.055940  0.772210  1
