# generated using pymatgen
data_K2Cr2HgCl2O7
_symmetry_space_group_name_H-M   'P 1'
_cell_length_a   8.36411003
_cell_length_b   10.64958999
_cell_length_c   12.76380792
_cell_angle_alpha   90.00000000
_cell_angle_beta   92.61416122
_cell_angle_gamma   90.00000000
_symmetry_Int_Tables_number   1
_chemical_formula_structural   K2Cr2HgCl2O7
_chemical_formula_sum   'K8 Cr8 Hg4 Cl8 O28'
_cell_volume   1135.74462839
_cell_formula_units_Z   4
loop_
 _symmetry_equiv_pos_site_id
 _symmetry_equiv_pos_as_xyz
  1  'x, y, z'
loop_
 _atom_site_type_symbol
 _atom_site_label
 _atom_site_symmetry_multiplicity
 _atom_site_fract_x
 _atom_site_fract_y
 _atom_site_fract_z
 _atom_site_occupancy
  K  K0  1  0.751573  0.155142  0.630908  1
  K  K1  1  0.751193  0.828050  0.339086  1
  K  K2  1  0.248807  0.171950  0.660914  1
  K  K3  1  0.248427  0.844858  0.369092  1
  K  K4  1  0.748807  0.328050  0.160914  1
  K  K5  1  0.748427  0.655142  0.869092  1
  K  K6  1  0.251193  0.671950  0.839086  1
  K  K7  1  0.251573  0.344858  0.130908  1
  Cr  Cr8  1  0.044665  0.165705  0.385677  1
  Cr  Cr9  1  0.547390  0.837506  0.610792  1
  Cr  Cr10  1  0.955334  0.834295  0.614323  1
  Cr  Cr11  1  0.544666  0.334295  0.885677  1
  Cr  Cr12  1  0.452610  0.162494  0.389208  1
  Cr  Cr13  1  0.047390  0.662494  0.110792  1
  Cr  Cr14  1  0.952610  0.337506  0.889208  1
  Cr  Cr15  1  0.455334  0.665705  0.114323  1
  Hg  Hg16  1  0.500000  0.500000  0.500000  1
  Hg  Hg17  1  0.000000  0.000000  0.000000  1
  Hg  Hg18  1  0.500000  0.000000  0.000000  1
  Hg  Hg19  1  0.000000  0.500000  0.500000  1
  Cl  Cl20  1  0.296815  0.521643  0.363942  1
  Cl  Cl21  1  0.702523  0.020549  0.135807  1
  Cl  Cl22  1  0.203185  0.021643  0.136058  1
  Cl  Cl23  1  0.797477  0.520549  0.364193  1
  Cl  Cl24  1  0.703185  0.478357  0.636058  1
  Cl  Cl25  1  0.202523  0.479451  0.635807  1
  Cl  Cl26  1  0.796815  0.978357  0.863942  1
  Cl  Cl27  1  0.297477  0.979451  0.864193  1
  O  O28  1  0.524969  0.756251  0.717482  1
  O  O29  1  0.493058  0.753317  0.506433  1
  O  O30  1  0.504009  0.740606  0.006912  1
  O  O31  1  0.995991  0.240606  0.493088  1
  O  O32  1  0.751412  0.884496  0.599285  1
  O  O33  1  0.004009  0.759394  0.506912  1
  O  O34  1  0.475031  0.243749  0.282518  1
  O  O35  1  0.024969  0.743749  0.217482  1
  O  O36  1  0.506942  0.246683  0.493567  1
  O  O37  1  0.556531  0.033695  0.386627  1
  O  O38  1  0.443469  0.966305  0.613373  1
  O  O39  1  0.561380  0.538494  0.129022  1
  O  O40  1  0.519244  0.242403  0.784064  1
  O  O41  1  0.495991  0.259394  0.993088  1
  O  O42  1  0.019244  0.257597  0.284064  1
  O  O43  1  0.993058  0.746683  0.006433  1
  O  O44  1  0.006942  0.253317  0.993567  1
  O  O45  1  0.056531  0.466305  0.886627  1
  O  O46  1  0.251412  0.615504  0.099285  1
  O  O47  1  0.943469  0.533695  0.113373  1
  O  O48  1  0.748588  0.384496  0.900715  1
  O  O49  1  0.438620  0.461506  0.870978  1
  O  O50  1  0.938620  0.038494  0.370978  1
  O  O51  1  0.480756  0.757597  0.215936  1
  O  O52  1  0.980756  0.742403  0.715936  1
  O  O53  1  0.061380  0.961506  0.629022  1
  O  O54  1  0.248588  0.115504  0.400715  1
  O  O55  1  0.975031  0.256251  0.782518  1
