# generated using pymatgen
data_KTiPSe5
_symmetry_space_group_name_H-M   'P 1'
_cell_length_a   6.90934112
_cell_length_b   7.48534585
_cell_length_c   10.11478506
_cell_angle_alpha   111.71685356
_cell_angle_beta   98.27509468
_cell_angle_gamma   89.99999975
_symmetry_Int_Tables_number   1
_chemical_formula_structural   KTiPSe5
_chemical_formula_sum   'K2 Ti2 P2 Se10'
_cell_volume   480.12766091
_cell_formula_units_Z   2
loop_
 _symmetry_equiv_pos_site_id
 _symmetry_equiv_pos_as_xyz
  1  'x, y, z'
loop_
 _atom_site_type_symbol
 _atom_site_label
 _atom_site_symmetry_multiplicity
 _atom_site_fract_x
 _atom_site_fract_y
 _atom_site_fract_z
 _atom_site_occupancy
  K  K0  1  0.766504  0.268747  0.537494  1
  K  K1  1  0.233496  0.731253  0.462506  1
  Ti  Ti2  1  0.000000  0.723157  1.000000  1
  Ti  Ti3  1  1.000000  0.276843  0.000000  1
  P  P4  1  0.211307  0.136093  0.272185  1
  P  P5  1  0.788693  0.863907  0.727815  1
  Se  Se6  1  0.106189  0.916503  0.833007  1
  Se  Se7  1  0.182932  0.441772  0.883543  1
  Se  Se8  1  0.672667  0.154501  0.829672  1
  Se  Se9  1  0.893811  0.083497  0.166993  1
  Se  Se10  1  0.327333  0.845499  0.170328  1
  Se  Se11  1  0.672667  0.675171  0.829672  1
  Se  Se12  1  0.817068  0.558228  0.116457  1
  Se  Se13  1  0.257583  0.253224  0.506447  1
  Se  Se14  1  0.327333  0.324829  0.170328  1
  Se  Se15  1  0.742417  0.746776  0.493553  1
