# generated using pymatgen
data_Zr(MoO4)2
_symmetry_space_group_name_H-M   'P 1'
_cell_length_a   7.08022389
_cell_length_b   7.08022336
_cell_length_c   7.61179242
_cell_angle_alpha   63.86998336
_cell_angle_beta   63.86998552
_cell_angle_gamma   69.54059495
_symmetry_Int_Tables_number   1
_chemical_formula_structural   Zr(MoO4)2
_chemical_formula_sum   'Zr2 Mo4 O16'
_cell_volume   301.78126264
_cell_formula_units_Z   2
loop_
 _symmetry_equiv_pos_site_id
 _symmetry_equiv_pos_as_xyz
  1  'x, y, z'
loop_
 _atom_site_type_symbol
 _atom_site_label
 _atom_site_symmetry_multiplicity
 _atom_site_fract_x
 _atom_site_fract_y
 _atom_site_fract_z
 _atom_site_occupancy
  Zr  Zr0  1  0.020802  0.979198  0.250000  1
  Zr  Zr1  1  0.979198  0.020802  0.750000  1
  Mo  Mo2  1  0.505219  0.063626  0.259164  1
  Mo  Mo3  1  0.936374  0.494781  0.240836  1
  Mo  Mo4  1  0.494781  0.936374  0.740836  1
  Mo  Mo5  1  0.063626  0.505219  0.759164  1
  O  O6  1  0.333252  0.409011  0.667723  1
  O  O7  1  0.347797  0.949582  0.211195  1
  O  O8  1  0.207359  0.977907  0.921908  1
  O  O9  1  0.949582  0.347797  0.711195  1
  O  O10  1  0.683103  0.009415  0.437677  1
  O  O11  1  0.977907  0.207359  0.421908  1
  O  O12  1  0.590989  0.666748  0.832277  1
  O  O13  1  0.990585  0.316897  0.062323  1
  O  O14  1  0.022093  0.792641  0.578092  1
  O  O15  1  0.009415  0.683103  0.937677  1
  O  O16  1  0.652203  0.050418  0.788805  1
  O  O17  1  0.792641  0.022093  0.078092  1
  O  O18  1  0.050418  0.652203  0.288805  1
  O  O19  1  0.409011  0.333252  0.167723  1
  O  O20  1  0.316897  0.990585  0.562323  1
  O  O21  1  0.666748  0.590989  0.332277  1
