# generated using pymatgen
data_TlAu(CN)2
_symmetry_space_group_name_H-M   'P 1'
_cell_length_a   7.16803352
_cell_length_b   9.20928038
_cell_length_c   30.88857475
_cell_angle_alpha   90.00000000
_cell_angle_beta   90.00000000
_cell_angle_gamma   90.00000000
_symmetry_Int_Tables_number   1
_chemical_formula_structural   TlAu(CN)2
_chemical_formula_sum   'Tl16 Au16 C32 N32'
_cell_volume   2039.02989266
_cell_formula_units_Z   16
loop_
 _symmetry_equiv_pos_site_id
 _symmetry_equiv_pos_as_xyz
  1  'x, y, z'
loop_
 _atom_site_type_symbol
 _atom_site_label
 _atom_site_symmetry_multiplicity
 _atom_site_fract_x
 _atom_site_fract_y
 _atom_site_fract_z
 _atom_site_occupancy
  Tl  Tl0  1  0.780553  0.913406  0.717270  1
  Tl  Tl1  1  0.780553  0.413406  0.282730  1
  Tl  Tl2  1  0.776155  0.082598  0.469314  1
  Tl  Tl3  1  0.719447  0.413406  0.782730  1
  Tl  Tl4  1  0.776155  0.582598  0.530686  1
  Tl  Tl5  1  0.276155  0.417402  0.969314  1
  Tl  Tl6  1  0.219447  0.086594  0.282730  1
  Tl  Tl7  1  0.723845  0.582598  0.030686  1
  Tl  Tl8  1  0.280553  0.586594  0.217270  1
  Tl  Tl9  1  0.223845  0.917402  0.530686  1
  Tl  Tl10  1  0.719447  0.913406  0.217270  1
  Tl  Tl11  1  0.723845  0.082598  0.969314  1
  Tl  Tl12  1  0.223845  0.417402  0.469314  1
  Tl  Tl13  1  0.276155  0.917402  0.030686  1
  Tl  Tl14  1  0.280553  0.086594  0.782730  1
  Tl  Tl15  1  0.219447  0.586594  0.717270  1
  Au  Au16  1  0.000000  0.250000  0.631511  1
  Au  Au17  1  0.497866  0.082203  0.376285  1
  Au  Au18  1  0.502134  0.417797  0.376285  1
  Au  Au19  1  0.000000  0.250000  0.121049  1
  Au  Au20  1  0.997866  0.917797  0.123715  1
  Au  Au21  1  0.502134  0.917797  0.623715  1
  Au  Au22  1  0.002134  0.582203  0.123715  1
  Au  Au23  1  0.500000  0.750000  0.868489  1
  Au  Au24  1  0.500000  0.250000  0.131511  1
  Au  Au25  1  0.500000  0.750000  0.378951  1
  Au  Au26  1  0.000000  0.750000  0.878951  1
  Au  Au27  1  0.002134  0.082203  0.876285  1
  Au  Au28  1  0.497866  0.582203  0.623715  1
  Au  Au29  1  0.500000  0.250000  0.621049  1
  Au  Au30  1  0.997866  0.417797  0.876285  1
  Au  Au31  1  0.000000  0.750000  0.368489  1
  C  C32  1  0.714812  0.588160  0.664404  1
  C  C33  1  0.218738  0.086790  0.917059  1
  C  C34  1  0.785188  0.588160  0.164404  1
  C  C35  1  0.000000  0.750000  0.433084  1
  C  C36  1  0.214812  0.911840  0.164404  1
  C  C37  1  0.000000  0.750000  0.814176  1
  C  C38  1  0.500000  0.750000  0.803729  1
  C  C39  1  0.218738  0.586790  0.082941  1
  C  C40  1  0.500000  0.750000  0.443853  1
  C  C41  1  0.000000  0.250000  0.056147  1
  C  C42  1  0.281262  0.586790  0.582941  1
  C  C43  1  0.000000  0.250000  0.696271  1
  C  C44  1  0.500000  0.250000  0.685824  1
  C  C45  1  0.000000  0.750000  0.303729  1
  C  C46  1  0.785188  0.088160  0.835596  1
  C  C47  1  0.285188  0.411840  0.335596  1
  C  C48  1  0.500000  0.250000  0.196271  1
  C  C49  1  0.718738  0.913210  0.582941  1
  C  C50  1  0.714812  0.088160  0.335596  1
  C  C51  1  0.214812  0.411840  0.835596  1
  C  C52  1  0.500000  0.750000  0.314176  1
  C  C53  1  0.718738  0.413210  0.417059  1
  C  C54  1  0.285188  0.911840  0.664404  1
  C  C55  1  0.781262  0.413210  0.917059  1
  C  C56  1  0.781262  0.913210  0.082941  1
  C  C57  1  0.500000  0.750000  0.933084  1
  C  C58  1  0.500000  0.250000  0.066916  1
  C  C59  1  0.281262  0.086790  0.417059  1
  C  C60  1  0.500000  0.250000  0.556147  1
  C  C61  1  0.000000  0.250000  0.185824  1
  C  C62  1  0.000000  0.750000  0.943853  1
  C  C63  1  0.000000  0.250000  0.566916  1
  N  N64  1  0.339679  0.595552  0.057438  1
  N  N65  1  0.500000  0.750000  0.765539  1
  N  N66  1  0.339679  0.095552  0.942562  1
  N  N67  1  0.662350  0.098024  0.810623  1
  N  N68  1  0.337650  0.901976  0.189377  1
  N  N69  1  0.000000  0.750000  0.776038  1
  N  N70  1  0.660321  0.904448  0.057438  1
  N  N71  1  0.000000  0.750000  0.265539  1
  N  N72  1  0.500000  0.750000  0.276038  1
  N  N73  1  0.500000  0.250000  0.723962  1
  N  N74  1  0.839679  0.404448  0.442562  1
  N  N75  1  0.000000  0.250000  0.017976  1
  N  N76  1  0.162350  0.401976  0.310623  1
  N  N77  1  0.000000  0.250000  0.734461  1
  N  N78  1  0.337650  0.401976  0.810623  1
  N  N79  1  0.500000  0.250000  0.234461  1
  N  N80  1  0.000000  0.750000  0.471269  1
  N  N81  1  0.500000  0.750000  0.482024  1
  N  N82  1  0.500000  0.750000  0.971269  1
  N  N83  1  0.000000  0.250000  0.223962  1
  N  N84  1  0.500000  0.250000  0.517976  1
  N  N85  1  0.160321  0.595552  0.557438  1
  N  N86  1  0.160321  0.095552  0.442562  1
  N  N87  1  0.500000  0.250000  0.028731  1
  N  N88  1  0.837650  0.098024  0.310623  1
  N  N89  1  0.000000  0.750000  0.982024  1
  N  N90  1  0.162350  0.901976  0.689377  1
  N  N91  1  0.000000  0.250000  0.528731  1
  N  N92  1  0.662350  0.598024  0.189377  1
  N  N93  1  0.839679  0.904448  0.557438  1
  N  N94  1  0.660321  0.404448  0.942562  1
  N  N95  1  0.837650  0.598024  0.689377  1
