# generated using pymatgen
data_CrFe(BiO3)2
_symmetry_space_group_name_H-M   'P 1'
_cell_length_a   5.65020305
_cell_length_b   5.65020305
_cell_length_c   5.65020303
_cell_angle_alpha   59.49393667
_cell_angle_beta   59.49393664
_cell_angle_gamma   59.49394311
_symmetry_Int_Tables_number   1
_chemical_formula_structural   CrFe(BiO3)2
_chemical_formula_sum   'Cr1 Fe1 Bi2 O6'
_cell_volume   126.08099194
_cell_formula_units_Z   1
loop_
 _symmetry_equiv_pos_site_id
 _symmetry_equiv_pos_as_xyz
  1  'x, y, z'
loop_
 _atom_site_type_symbol
 _atom_site_label
 _atom_site_symmetry_multiplicity
 _atom_site_fract_x
 _atom_site_fract_y
 _atom_site_fract_z
 _atom_site_occupancy
  Cr  Cr0  1  0.225289  0.225289  0.225289  1
  Fe  Fe1  1  0.729538  0.729538  0.729538  1
  Bi  Bi2  1  0.506710  0.506710  0.506710  1
  Bi  Bi3  1  0.003611  0.003611  0.003611  1
  O  O4  1  0.397243  0.549450  0.946687  1
  O  O5  1  0.946687  0.397243  0.549450  1
  O  O6  1  0.899128  0.448580  0.047763  1
  O  O7  1  0.047763  0.899128  0.448580  1
  O  O8  1  0.549450  0.946687  0.397243  1
  O  O9  1  0.448580  0.047763  0.899128  1
