# generated using pymatgen
data_Cs2LaTa6(Br5O)3
_symmetry_space_group_name_H-M   'P 1'
_cell_length_a   9.66052560
_cell_length_b   9.66052593
_cell_length_c   18.71689308
_cell_angle_alpha   90.00000000
_cell_angle_beta   90.00000000
_cell_angle_gamma   119.99999888
_symmetry_Int_Tables_number   1
_chemical_formula_structural   Cs2LaTa6(Br5O)3
_chemical_formula_sum   'Cs4 La2 Ta12 Br30 O6'
_cell_volume   1512.74568256
_cell_formula_units_Z   2
loop_
 _symmetry_equiv_pos_site_id
 _symmetry_equiv_pos_as_xyz
  1  'x, y, z'
loop_
 _atom_site_type_symbol
 _atom_site_label
 _atom_site_symmetry_multiplicity
 _atom_site_fract_x
 _atom_site_fract_y
 _atom_site_fract_z
 _atom_site_occupancy
  Cs  Cs0  1  0.666667  0.333333  0.044832  1
  Cs  Cs1  1  0.333333  0.666667  0.955168  1
  Cs  Cs2  1  0.666667  0.333333  0.455168  1
  Cs  Cs3  1  0.333333  0.666667  0.544832  1
  La  La4  1  0.666667  0.333333  0.750000  1
  La  La5  1  0.333333  0.666667  0.250000  1
  Ta  Ta6  1  0.188296  0.016549  0.811941  1
  Ta  Ta7  1  0.983451  0.171747  0.811941  1
  Ta  Ta8  1  0.811704  0.828253  0.311941  1
  Ta  Ta9  1  0.983451  0.811704  0.688059  1
  Ta  Ta10  1  0.016549  0.188296  0.311941  1
  Ta  Ta11  1  0.171747  0.983451  0.311941  1
  Ta  Ta12  1  0.188296  0.171747  0.688059  1
  Ta  Ta13  1  0.828253  0.811704  0.811941  1
  Ta  Ta14  1  0.016549  0.828253  0.188059  1
  Ta  Ta15  1  0.828253  0.016549  0.688059  1
  Ta  Ta16  1  0.811704  0.983451  0.188059  1
  Ta  Ta17  1  0.171747  0.188296  0.188059  1
  Br  Br18  1  0.531074  0.924871  0.120516  1
  Br  Br19  1  0.393797  0.924871  0.379484  1
  Br  Br20  1  0.202332  0.220851  0.909476  1
  Br  Br21  1  0.468926  0.393797  0.620516  1
  Br  Br22  1  0.787172  0.212828  0.250000  1
  Br  Br23  1  0.075129  0.468926  0.379484  1
  Br  Br24  1  0.531074  0.606203  0.379484  1
  Br  Br25  1  0.202332  0.981481  0.590524  1
  Br  Br26  1  0.018519  0.220851  0.590524  1
  Br  Br27  1  0.981481  0.202332  0.090524  1
  Br  Br28  1  0.220851  0.202332  0.409476  1
  Br  Br29  1  0.468926  0.075129  0.879484  1
  Br  Br30  1  0.797668  0.779149  0.090524  1
  Br  Br31  1  0.425656  0.212828  0.250000  1
  Br  Br32  1  0.574344  0.787172  0.750000  1
  Br  Br33  1  0.606203  0.075129  0.620516  1
  Br  Br34  1  0.787172  0.574344  0.250000  1
  Br  Br35  1  0.779149  0.797668  0.590524  1
  Br  Br36  1  0.075129  0.606203  0.120516  1
  Br  Br37  1  0.212828  0.425656  0.750000  1
  Br  Br38  1  0.924871  0.531074  0.620516  1
  Br  Br39  1  0.018519  0.797668  0.909476  1
  Br  Br40  1  0.220851  0.018519  0.090524  1
  Br  Br41  1  0.606203  0.531074  0.879484  1
  Br  Br42  1  0.393797  0.468926  0.120516  1
  Br  Br43  1  0.981481  0.779149  0.409476  1
  Br  Br44  1  0.797668  0.018519  0.409476  1
  Br  Br45  1  0.212828  0.787172  0.750000  1
  Br  Br46  1  0.924871  0.393797  0.879484  1
  Br  Br47  1  0.779149  0.981481  0.909476  1
  O  O48  1  0.179887  0.359774  0.250000  1
  O  O49  1  0.640226  0.820113  0.250000  1
  O  O50  1  0.179887  0.820113  0.250000  1
  O  O51  1  0.820113  0.179887  0.750000  1
  O  O52  1  0.820113  0.640226  0.750000  1
  O  O53  1  0.359774  0.179887  0.750000  1
