# generated using pymatgen
data_Ca3SiBr2
_symmetry_space_group_name_H-M   'P 1'
_cell_length_a   12.01206048
_cell_length_b   12.01206052
_cell_length_c   12.01206011
_cell_angle_alpha   20.57243167
_cell_angle_beta   20.57243130
_cell_angle_gamma   20.57243139
_symmetry_Int_Tables_number   1
_chemical_formula_structural   Ca3SiBr2
_chemical_formula_sum   'Ca3 Si1 Br2'
_cell_volume   187.32875757
_cell_formula_units_Z   1
loop_
 _symmetry_equiv_pos_site_id
 _symmetry_equiv_pos_as_xyz
  1  'x, y, z'
loop_
 _atom_site_type_symbol
 _atom_site_label
 _atom_site_symmetry_multiplicity
 _atom_site_fract_x
 _atom_site_fract_y
 _atom_site_fract_z
 _atom_site_occupancy
  Ca  Ca0  1  0.119498  0.119498  0.119498  1
  Ca  Ca1  1  0.996304  0.996304  0.996304  1
  Ca  Ca2  1  0.904400  0.904400  0.904400  1
  Si  Si3  1  0.283891  0.283891  0.283891  1
  Br  Br4  1  0.500275  0.500275  0.500275  1
  Br  Br5  1  0.738633  0.738633  0.738633  1
