# generated using pymatgen
data_Na2FeCoF7
_symmetry_space_group_name_H-M   'P 1'
_cell_length_a   7.40563711
_cell_length_b   7.40563634
_cell_length_c   24.89941818
_cell_angle_alpha   81.72226658
_cell_angle_beta   81.72226746
_cell_angle_gamma   60.52527623
_symmetry_Int_Tables_number   1
_chemical_formula_structural   Na2FeCoF7
_chemical_formula_sum   'Na16 Fe8 Co8 F56'
_cell_volume   1172.19639758
_cell_formula_units_Z   8
loop_
 _symmetry_equiv_pos_site_id
 _symmetry_equiv_pos_as_xyz
  1  'x, y, z'
loop_
 _atom_site_type_symbol
 _atom_site_label
 _atom_site_symmetry_multiplicity
 _atom_site_fract_x
 _atom_site_fract_y
 _atom_site_fract_z
 _atom_site_occupancy
  Na  Na0  1  0.217540  0.782460  0.250000  1
  Na  Na1  1  0.122443  0.129065  0.121848  1
  Na  Na2  1  0.789043  0.706434  0.751540  1
  Na  Na3  1  0.293566  0.210957  0.748460  1
  Na  Na4  1  0.210957  0.293566  0.248461  1
  Na  Na5  1  0.500000  0.500000  0.000000  1
  Na  Na6  1  0.782460  0.217540  0.750000  1
  Na  Na7  1  0.000000  0.000000  0.500000  1
  Na  Na8  1  0.129065  0.122443  0.621848  1
  Na  Na9  1  0.500000  0.000000  0.500000  1
  Na  Na10  1  0.706434  0.789043  0.251540  1
  Na  Na11  1  0.500000  0.500000  0.500000  1
  Na  Na12  1  0.877557  0.870935  0.878152  1
  Na  Na13  1  0.870935  0.877557  0.378152  1
  Na  Na14  1  0.000000  0.000000  0.000000  1
  Na  Na15  1  0.000000  0.500000  0.000000  1
  Fe  Fe16  1  0.753342  0.246658  0.250000  1
  Fe  Fe17  1  0.889479  0.364825  0.874693  1
  Fe  Fe18  1  0.635175  0.110521  0.625307  1
  Fe  Fe19  1  0.500000  0.000000  0.000000  1
  Fe  Fe20  1  0.246658  0.753342  0.750000  1
  Fe  Fe21  1  0.000000  0.500000  0.500000  1
  Fe  Fe22  1  0.110521  0.635175  0.125307  1
  Fe  Fe23  1  0.364825  0.889479  0.374693  1
  Co  Co24  1  0.387467  0.866644  0.873796  1
  Co  Co25  1  0.630064  0.613307  0.627571  1
  Co  Co26  1  0.866644  0.387467  0.373796  1
  Co  Co27  1  0.369936  0.386693  0.372429  1
  Co  Co28  1  0.133356  0.612533  0.626204  1
  Co  Co29  1  0.612533  0.133356  0.126204  1
  Co  Co30  1  0.386693  0.369936  0.872429  1
  Co  Co31  1  0.613307  0.630064  0.127571  1
  F  F32  1  0.474873  0.364093  0.290957  1
  F  F33  1  0.025876  0.137304  0.209267  1
  F  F34  1  0.357107  0.691200  0.599278  1
  F  F35  1  0.032237  0.638099  0.204642  1
  F  F36  1  0.663050  0.699533  0.359072  1
  F  F37  1  0.137304  0.025876  0.709267  1
  F  F38  1  0.974124  0.862696  0.790733  1
  F  F39  1  0.635907  0.525127  0.209043  1
  F  F40  1  0.135439  0.582094  0.545743  1
  F  F41  1  0.699533  0.663050  0.859072  1
  F  F42  1  0.923887  0.933500  0.109461  1
  F  F43  1  0.269908  0.699400  0.359038  1
  F  F44  1  0.066500  0.076113  0.390539  1
  F  F45  1  0.536276  0.907080  0.153839  1
  F  F46  1  0.923633  0.536172  0.110306  1
  F  F47  1  0.933500  0.923887  0.609461  1
  F  F48  1  0.131594  0.206154  0.531712  1
  F  F49  1  0.730092  0.300600  0.640962  1
  F  F50  1  0.635182  0.136188  0.206808  1
  F  F51  1  0.417906  0.864561  0.954257  1
  F  F52  1  0.364093  0.474873  0.790957  1
  F  F53  1  0.258493  0.418913  0.453239  1
  F  F54  1  0.364818  0.863812  0.793192  1
  F  F55  1  0.907080  0.536276  0.653839  1
  F  F56  1  0.863812  0.364818  0.293192  1
  F  F57  1  0.864561  0.417906  0.454257  1
  F  F58  1  0.300467  0.336950  0.140928  1
  F  F59  1  0.582094  0.135439  0.045743  1
  F  F60  1  0.862696  0.974124  0.290733  1
  F  F61  1  0.967763  0.361901  0.795358  1
  F  F62  1  0.418913  0.258493  0.953239  1
  F  F63  1  0.638099  0.032237  0.704642  1
  F  F64  1  0.581087  0.741507  0.046761  1
  F  F65  1  0.536172  0.923633  0.610306  1
  F  F66  1  0.699400  0.269908  0.859038  1
  F  F67  1  0.868406  0.793846  0.468288  1
  F  F68  1  0.076113  0.066500  0.890539  1
  F  F69  1  0.136188  0.635182  0.706808  1
  F  F70  1  0.092920  0.463724  0.346161  1
  F  F71  1  0.635780  0.184129  0.545613  1
  F  F72  1  0.525127  0.635907  0.709043  1
  F  F73  1  0.815871  0.364220  0.954387  1
  F  F74  1  0.336950  0.300467  0.640928  1
  F  F75  1  0.463724  0.092920  0.846161  1
  F  F76  1  0.642893  0.308800  0.400722  1
  F  F77  1  0.076367  0.463828  0.889694  1
  F  F78  1  0.741507  0.581087  0.546761  1
  F  F79  1  0.691200  0.357107  0.099278  1
  F  F80  1  0.463828  0.076367  0.389694  1
  F  F81  1  0.206154  0.131594  0.031712  1
  F  F82  1  0.364220  0.815871  0.454387  1
  F  F83  1  0.793846  0.868406  0.968288  1
  F  F84  1  0.300600  0.730092  0.140962  1
  F  F85  1  0.361901  0.967763  0.295358  1
  F  F86  1  0.308800  0.642893  0.900722  1
  F  F87  1  0.184129  0.635780  0.045613  1
