# generated using pymatgen
data_CS4N2(OF)3
_symmetry_space_group_name_H-M   'P 1'
_cell_length_a   8.72729807
_cell_length_b   8.82290454
_cell_length_c   10.98338089
_cell_angle_alpha   90.00000000
_cell_angle_beta   90.00000000
_cell_angle_gamma   90.37999892
_symmetry_Int_Tables_number   1
_chemical_formula_structural   CS4N2(OF)3
_chemical_formula_sum   'C4 S16 N8 O12 F12'
_cell_volume   845.70302178
_cell_formula_units_Z   4
loop_
 _symmetry_equiv_pos_site_id
 _symmetry_equiv_pos_as_xyz
  1  'x, y, z'
loop_
 _atom_site_type_symbol
 _atom_site_label
 _atom_site_symmetry_multiplicity
 _atom_site_fract_x
 _atom_site_fract_y
 _atom_site_fract_z
 _atom_site_occupancy
  C  C0  1  0.438554  0.229372  0.013702  1
  C  C1  1  0.061446  0.270628  0.513702  1
  C  C2  1  0.938554  0.729372  0.486298  1
  C  C3  1  0.561446  0.770628  0.986298  1
  S  S4  1  0.160125  0.228990  0.365829  1
  S  S5  1  0.836824  0.450788  0.901943  1
  S  S6  1  0.336824  0.950788  0.598057  1
  S  S7  1  0.403253  0.838850  0.425013  1
  S  S8  1  0.942417  0.157386  0.871487  1
  S  S9  1  0.057583  0.842614  0.128513  1
  S  S10  1  0.839875  0.771010  0.634171  1
  S  S11  1  0.557583  0.342614  0.371487  1
  S  S12  1  0.663176  0.049212  0.401943  1
  S  S13  1  0.163176  0.549212  0.098057  1
  S  S14  1  0.339875  0.271010  0.865829  1
  S  S15  1  0.660125  0.728990  0.134171  1
  S  S16  1  0.903253  0.338850  0.074987  1
  S  S17  1  0.596747  0.161150  0.574987  1
  S  S18  1  0.096747  0.661150  0.925013  1
  S  S19  1  0.442417  0.657386  0.628513  1
  N  N20  1  0.448742  0.679945  0.485749  1
  N  N21  1  0.051258  0.820055  0.985749  1
  N  N22  1  0.626619  0.192212  0.316804  1
  N  N23  1  0.373381  0.807788  0.683196  1
  N  N24  1  0.948742  0.179945  0.014251  1
  N  N25  1  0.551258  0.320055  0.514251  1
  N  N26  1  0.873381  0.307788  0.816804  1
  N  N27  1  0.126619  0.692212  0.183196  1
  O  O28  1  0.280180  0.123908  0.826728  1
  O  O29  1  0.281430  0.122511  0.403203  1
  O  O30  1  0.718570  0.877489  0.596797  1
  O  O31  1  0.460153  0.336823  0.790646  1
  O  O32  1  0.780180  0.623908  0.673272  1
  O  O33  1  0.219820  0.376092  0.326728  1
  O  O34  1  0.539847  0.663177  0.209354  1
  O  O35  1  0.218570  0.377489  0.903203  1
  O  O36  1  0.039847  0.163177  0.290646  1
  O  O37  1  0.719820  0.876092  0.173272  1
  O  O38  1  0.781430  0.622511  0.096797  1
  O  O39  1  0.960153  0.836823  0.709354  1
  F  F40  1  0.981176  0.859609  0.428906  1
  F  F41  1  0.932733  0.352599  0.494190  1
  F  F42  1  0.067267  0.647401  0.505810  1
  F  F43  1  0.018824  0.140391  0.571094  1
  F  F44  1  0.432733  0.852599  0.005810  1
  F  F45  1  0.567267  0.147401  0.994190  1
  F  F46  1  0.345241  0.150596  0.089889  1
  F  F47  1  0.845241  0.650596  0.410111  1
  F  F48  1  0.518824  0.640391  0.928906  1
  F  F49  1  0.481176  0.359609  0.071094  1
  F  F50  1  0.654759  0.849404  0.910111  1
  F  F51  1  0.154759  0.349404  0.589889  1
