# generated using pymatgen
data_TlSbO3
_symmetry_space_group_name_H-M   'P 1'
_cell_length_a   5.40304114
_cell_length_b   5.40304124
_cell_length_c   16.24378231
_cell_angle_alpha   90.00000000
_cell_angle_beta   90.00000000
_cell_angle_gamma   119.99999939
_symmetry_Int_Tables_number   1
_chemical_formula_structural   TlSbO3
_chemical_formula_sum   'Tl4 Sb4 O12'
_cell_volume   410.67129887
_cell_formula_units_Z   4
loop_
 _symmetry_equiv_pos_site_id
 _symmetry_equiv_pos_as_xyz
  1  'x, y, z'
loop_
 _atom_site_type_symbol
 _atom_site_label
 _atom_site_symmetry_multiplicity
 _atom_site_fract_x
 _atom_site_fract_y
 _atom_site_fract_z
 _atom_site_occupancy
  Tl  Tl0  1  0.666667  0.333333  0.945347  1
  Tl  Tl1  1  0.666667  0.333333  0.554653  1
  Tl  Tl2  1  0.333333  0.666667  0.445347  1
  Tl  Tl3  1  0.333333  0.666667  0.054653  1
  Sb  Sb4  1  0.333333  0.666667  0.250000  1
  Sb  Sb5  1  0.000000  0.000000  0.250000  1
  Sb  Sb6  1  0.666667  0.333333  0.750000  1
  Sb  Sb7  1  0.000000  0.000000  0.750000  1
  O  O8  1  0.336112  0.064147  0.822314  1
  O  O9  1  0.935853  0.271965  0.822314  1
  O  O10  1  0.935853  0.663888  0.677686  1
  O  O11  1  0.663888  0.728035  0.177686  1
  O  O12  1  0.064147  0.336112  0.177686  1
  O  O13  1  0.064147  0.728035  0.322314  1
  O  O14  1  0.336112  0.271965  0.677686  1
  O  O15  1  0.728035  0.064147  0.677686  1
  O  O16  1  0.728035  0.663888  0.822314  1
  O  O17  1  0.271965  0.935853  0.177686  1
  O  O18  1  0.271965  0.336112  0.322314  1
  O  O19  1  0.663888  0.935853  0.322314  1
