# generated using pymatgen
data_Cr2B
_symmetry_space_group_name_H-M   'P 1'
_cell_length_a   4.21822504
_cell_length_b   4.23370610
_cell_length_c   7.59844799
_cell_angle_alpha   82.05176896
_cell_angle_beta   73.88467820
_cell_angle_gamma   60.12087935
_symmetry_Int_Tables_number   1
_chemical_formula_structural   Cr2B
_chemical_formula_sum   'Cr8 B4'
_cell_volume   113.03780655
_cell_formula_units_Z   4
loop_
 _symmetry_equiv_pos_site_id
 _symmetry_equiv_pos_as_xyz
  1  'x, y, z'
loop_
 _atom_site_type_symbol
 _atom_site_label
 _atom_site_symmetry_multiplicity
 _atom_site_fract_x
 _atom_site_fract_y
 _atom_site_fract_z
 _atom_site_occupancy
  Cr  Cr0  1  0.791951  0.250000  0.416098  1
  Cr  Cr1  1  0.208049  0.750000  0.583902  1
  Cr  Cr2  1  0.209462  0.581076  0.250000  1
  Cr  Cr3  1  0.041951  0.750000  0.916098  1
  Cr  Cr4  1  0.790538  0.418924  0.750000  1
  Cr  Cr5  1  0.540538  0.918924  0.250000  1
  Cr  Cr6  1  0.958049  0.250000  0.083902  1
  Cr  Cr7  1  0.459462  0.081076  0.750000  1
  B  B8  1  0.750377  0.750000  0.499246  1
  B  B9  1  0.500377  0.250000  0.999246  1
  B  B10  1  0.499623  0.750000  0.000754  1
  B  B11  1  0.249623  0.250000  0.500754  1
