# generated using pymatgen
data_Cd3N2
_symmetry_space_group_name_H-M   'P 1'
_cell_length_a   9.53210973
_cell_length_b   9.53210897
_cell_length_c   9.53210978
_cell_angle_alpha   109.47122457
_cell_angle_beta   109.47122299
_cell_angle_gamma   109.47121680
_symmetry_Int_Tables_number   1
_chemical_formula_structural   Cd3N2
_chemical_formula_sum   'Cd24 N16'
_cell_volume   666.72257902
_cell_formula_units_Z   8
loop_
 _symmetry_equiv_pos_site_id
 _symmetry_equiv_pos_as_xyz
  1  'x, y, z'
loop_
 _atom_site_type_symbol
 _atom_site_label
 _atom_site_symmetry_multiplicity
 _atom_site_fract_x
 _atom_site_fract_y
 _atom_site_fract_z
 _atom_site_occupancy
  Cd  Cd0  1  0.757080  0.032025  0.479684  1
  Cd  Cd1  1  0.222604  0.274945  0.742920  1
  Cd  Cd2  1  0.742920  0.222604  0.274945  1
  Cd  Cd3  1  0.274945  0.742920  0.222604  1
  Cd  Cd4  1  0.032025  0.479684  0.757080  1
  Cd  Cd5  1  0.052341  0.277396  0.020316  1
  Cd  Cd6  1  0.242920  0.967975  0.520316  1
  Cd  Cd7  1  0.947659  0.722604  0.979684  1
  Cd  Cd8  1  0.225055  0.447659  0.467975  1
  Cd  Cd9  1  0.532025  0.774945  0.552341  1
  Cd  Cd10  1  0.520316  0.242920  0.967975  1
  Cd  Cd11  1  0.725055  0.257080  0.777396  1
  Cd  Cd12  1  0.979684  0.947659  0.722604  1
  Cd  Cd13  1  0.722604  0.979684  0.947659  1
  Cd  Cd14  1  0.467975  0.225055  0.447659  1
  Cd  Cd15  1  0.552341  0.532025  0.774945  1
  Cd  Cd16  1  0.774945  0.552341  0.532025  1
  Cd  Cd17  1  0.777396  0.725055  0.257080  1
  Cd  Cd18  1  0.020316  0.052341  0.277396  1
  Cd  Cd19  1  0.277396  0.020316  0.052341  1
  Cd  Cd20  1  0.447659  0.467975  0.225055  1
  Cd  Cd21  1  0.257080  0.777396  0.725055  1
  Cd  Cd22  1  0.967975  0.520316  0.242920  1
  Cd  Cd23  1  0.479684  0.757080  0.032025  1
  N  N24  1  0.220997  0.970997  0.250000  1
  N  N25  1  0.250000  0.220997  0.970997  1
  N  N26  1  0.779003  0.029003  0.750000  1
  N  N27  1  0.970997  0.250000  0.220997  1
  N  N28  1  0.470997  0.250000  0.720997  1
  N  N29  1  0.250000  0.720997  0.470997  1
  N  N30  1  0.000000  0.000000  0.500000  1
  N  N31  1  0.750000  0.279003  0.529003  1
  N  N32  1  0.279003  0.529003  0.750000  1
  N  N33  1  0.029003  0.750000  0.779003  1
  N  N34  1  0.720997  0.470997  0.250000  1
  N  N35  1  0.529003  0.750000  0.279003  1
  N  N36  1  0.750000  0.779003  0.029003  1
  N  N37  1  0.500000  0.500000  0.500000  1
  N  N38  1  0.500000  0.000000  0.000000  1
  N  N39  1  0.000000  0.500000  0.000000  1
