# generated using pymatgen
data_RbSi2H18C6N
_symmetry_space_group_name_H-M   'P 1'
_cell_length_a   9.12419713
_cell_length_b   10.70640082
_cell_length_c   13.13187553
_cell_angle_alpha   100.15333316
_cell_angle_beta   90.00000000
_cell_angle_gamma   90.00000000
_symmetry_Int_Tables_number   1
_chemical_formula_structural   RbSi2H18C6N
_chemical_formula_sum   'Rb4 Si8 H72 C24 N4'
_cell_volume   1262.72807104
_cell_formula_units_Z   4
loop_
 _symmetry_equiv_pos_site_id
 _symmetry_equiv_pos_as_xyz
  1  'x, y, z'
loop_
 _atom_site_type_symbol
 _atom_site_label
 _atom_site_symmetry_multiplicity
 _atom_site_fract_x
 _atom_site_fract_y
 _atom_site_fract_z
 _atom_site_occupancy
  Rb  Rb0  1  0.055596  0.569927  0.870269  1
  Rb  Rb1  1  0.555596  0.430073  0.629731  1
  Rb  Rb2  1  0.444404  0.569927  0.370269  1
  Rb  Rb3  1  0.944404  0.430073  0.129731  1
  Si  Si4  1  0.745554  0.708504  0.051736  1
  Si  Si5  1  0.945059  0.213613  0.867775  1
  Si  Si6  1  0.445059  0.786387  0.632225  1
  Si  Si7  1  0.554941  0.213613  0.367775  1
  Si  Si8  1  0.254446  0.291496  0.948264  1
  Si  Si9  1  0.245554  0.291496  0.448264  1
  Si  Si10  1  0.054941  0.786387  0.132225  1
  Si  Si11  1  0.754446  0.708504  0.551736  1
  H  H12  1  0.724022  0.213789  0.216167  1
  H  H13  1  0.317405  0.628092  0.723283  1
  H  H14  1  0.817405  0.371908  0.776717  1
  H  H15  1  0.741549  0.890185  0.954338  1
  H  H16  1  0.221099  0.711973  0.522503  1
  H  H17  1  0.275978  0.786211  0.783833  1
  H  H18  1  0.099484  0.041194  0.762617  1
  H  H19  1  0.693545  0.156951  0.520753  1
  H  H20  1  0.935363  0.864863  0.503515  1
  H  H21  1  0.700834  0.945155  0.086534  1
  H  H22  1  0.799166  0.945155  0.586534  1
  H  H23  1  0.400516  0.041194  0.262617  1
  H  H24  1  0.414873  0.008499  0.730080  1
  H  H25  1  0.707033  0.488569  0.943306  1
  H  H26  1  0.682595  0.371908  0.276717  1
  H  H27  1  0.207033  0.511431  0.556694  1
  H  H28  1  0.241549  0.109815  0.545662  1
  H  H29  1  0.278901  0.711973  0.022503  1
  H  H30  1  0.786731  0.607524  0.364033  1
  H  H31  1  0.447221  0.718354  0.808265  1
  H  H32  1  0.193545  0.843049  0.979247  1
  H  H33  1  0.900516  0.958806  0.237383  1
  H  H34  1  0.564637  0.864863  0.003515  1
  H  H35  1  0.513465  0.702634  0.157028  1
  H  H36  1  0.196306  0.867169  0.591405  1
  H  H37  1  0.585127  0.991501  0.269920  1
  H  H38  1  0.446390  0.412275  0.064104  1
  H  H39  1  0.258451  0.109815  0.045662  1
  H  H40  1  0.803694  0.132831  0.408595  1
  H  H41  1  0.806455  0.156951  0.020753  1
  H  H42  1  0.136042  0.420214  0.323194  1
  H  H43  1  0.169123  0.260291  0.260799  1
  H  H44  1  0.303694  0.867169  0.091405  1
  H  H45  1  0.669123  0.739709  0.239201  1
  H  H46  1  0.721099  0.288027  0.977497  1
  H  H47  1  0.013465  0.297366  0.342972  1
  H  H48  1  0.553610  0.587725  0.935896  1
  H  H49  1  0.224022  0.786211  0.283833  1
  H  H50  1  0.286731  0.392476  0.135967  1
  H  H51  1  0.792967  0.488569  0.443306  1
  H  H52  1  0.966188  0.006377  0.122549  1
  H  H53  1  0.946390  0.587725  0.435896  1
  H  H54  1  0.085127  0.008499  0.230080  1
  H  H55  1  0.292967  0.511431  0.056694  1
  H  H56  1  0.052779  0.718354  0.308265  1
  H  H57  1  0.486535  0.297366  0.842972  1
  H  H58  1  0.914873  0.991501  0.769920  1
  H  H59  1  0.636042  0.579786  0.176806  1
  H  H60  1  0.778901  0.288027  0.477497  1
  H  H61  1  0.435363  0.135137  0.996485  1
  H  H62  1  0.306455  0.843049  0.479247  1
  H  H63  1  0.182595  0.628092  0.223283  1
  H  H64  1  0.064637  0.135137  0.496485  1
  H  H65  1  0.775978  0.213789  0.716167  1
  H  H66  1  0.947221  0.281646  0.691735  1
  H  H67  1  0.713269  0.607524  0.864033  1
  H  H68  1  0.330877  0.260291  0.760799  1
  H  H69  1  0.863958  0.579786  0.676806  1
  H  H70  1  0.033812  0.993623  0.877451  1
  H  H71  1  0.299166  0.054845  0.913466  1
  H  H72  1  0.830877  0.739709  0.739201  1
  H  H73  1  0.363958  0.420214  0.823194  1
  H  H74  1  0.599484  0.958806  0.737383  1
  H  H75  1  0.986535  0.702634  0.657028  1
  H  H76  1  0.533812  0.006377  0.622549  1
  H  H77  1  0.213269  0.392476  0.635967  1
  H  H78  1  0.466188  0.993623  0.377451  1
  H  H79  1  0.200834  0.054845  0.413466  1
  H  H80  1  0.053610  0.412275  0.564104  1
  H  H81  1  0.696306  0.132831  0.908595  1
  H  H82  1  0.552779  0.281646  0.191735  1
  H  H83  1  0.758451  0.890185  0.454338  1
  C  C84  1  0.504276  0.955539  0.685520  1
  C  C85  1  0.778018  0.197100  0.951665  1
  C  C86  1  0.870294  0.680086  0.667452  1
  C  C87  1  0.370294  0.319914  0.832548  1
  C  C88  1  0.682565  0.866698  0.021616  1
  C  C89  1  0.864640  0.276515  0.751913  1
  C  C90  1  0.174160  0.413643  0.561370  1
  C  C91  1  0.129706  0.319914  0.332548  1
  C  C92  1  0.495724  0.044461  0.314480  1
  C  C93  1  0.825840  0.586357  0.438630  1
  C  C94  1  0.817435  0.866698  0.521616  1
  C  C95  1  0.629706  0.680086  0.167452  1
  C  C96  1  0.317435  0.133302  0.978384  1
  C  C97  1  0.635360  0.276515  0.251913  1
  C  C98  1  0.721982  0.197100  0.451665  1
  C  C99  1  0.674160  0.586357  0.938630  1
  C  C100  1  0.325840  0.413643  0.061371  1
  C  C101  1  0.004276  0.044461  0.814480  1
  C  C102  1  0.182565  0.133302  0.478384  1
  C  C103  1  0.364640  0.723485  0.748087  1
  C  C104  1  0.221982  0.802900  0.048335  1
  C  C105  1  0.278018  0.802900  0.548335  1
  C  C106  1  0.995724  0.955539  0.185520  1
  C  C107  1  0.135360  0.723485  0.248087  1
  N  N108  1  0.927252  0.687532  0.067917  1
  N  N109  1  0.072748  0.312468  0.932083  1
  N  N110  1  0.572748  0.687532  0.567917  1
  N  N111  1  0.427252  0.312468  0.432083  1
