# generated using pymatgen
data_SiMoP3O11
_symmetry_space_group_name_H-M   'P 1'
_cell_length_a   8.63517330
_cell_length_b   8.63530678
_cell_length_c   14.46370853
_cell_angle_alpha   72.63295238
_cell_angle_beta   72.63211033
_cell_angle_gamma   60.00113176
_symmetry_Int_Tables_number   1
_chemical_formula_structural   SiMoP3O11
_chemical_formula_sum   'Si4 Mo4 P12 O44'
_cell_volume   876.79982074
_cell_formula_units_Z   4
loop_
 _symmetry_equiv_pos_site_id
 _symmetry_equiv_pos_as_xyz
  1  'x, y, z'
loop_
 _atom_site_type_symbol
 _atom_site_label
 _atom_site_symmetry_multiplicity
 _atom_site_fract_x
 _atom_site_fract_y
 _atom_site_fract_z
 _atom_site_occupancy
  Si  Si0  1  0.539241  0.039230  0.382284  1
  Si  Si1  1  0.039239  0.539237  0.882284  1
  Si  Si2  1  0.960761  0.460763  0.117716  1
  Si  Si3  1  0.460759  0.960770  0.617716  1
  Mo  Mo4  1  0.659494  0.159479  0.021545  1
  Mo  Mo5  1  0.840515  0.340512  0.478456  1
  Mo  Mo6  1  0.340506  0.840521  0.978455  1
  Mo  Mo7  1  0.159485  0.659488  0.521544  1
  P  P8  1  0.280531  0.088771  0.142085  1
  P  P9  1  0.488614  0.588769  0.642072  1
  P  P10  1  0.988578  0.780552  0.142077  1
  P  P11  1  0.219449  0.011409  0.357921  1
  P  P12  1  0.511386  0.411231  0.357928  1
  P  P13  1  0.911236  0.719453  0.357910  1
  P  P14  1  0.588748  0.488613  0.142080  1
  P  P15  1  0.780551  0.988591  0.642079  1
  P  P16  1  0.411252  0.511387  0.857920  1
  P  P17  1  0.719469  0.911229  0.857915  1
  P  P18  1  0.011422  0.219448  0.857923  1
  P  P19  1  0.088764  0.280547  0.642090  1
  O  O20  1  0.972957  0.847513  0.618457  1
  O  O21  1  0.539596  0.668877  0.072554  1
  O  O22  1  0.847492  0.972953  0.118470  1
  O  O23  1  0.460404  0.331123  0.927446  1
  O  O24  1  0.142016  0.291865  0.158140  1
  O  O25  1  0.152508  0.027047  0.881530  1
  O  O26  1  0.527055  0.938944  0.881535  1
  O  O27  1  0.027043  0.152487  0.381543  1
  O  O28  1  0.218915  0.039635  0.072555  1
  O  O29  1  0.972114  0.249980  0.750010  1
  O  O30  1  0.708141  0.857977  0.341859  1
  O  O31  1  0.027886  0.750020  0.249990  1
  O  O32  1  0.061058  0.472954  0.618477  1
  O  O33  1  0.347517  0.561069  0.618463  1
  O  O34  1  0.857984  0.708135  0.841860  1
  O  O35  1  0.472945  0.061056  0.118465  1
  O  O36  1  0.408036  0.791841  0.658142  1
  O  O37  1  0.092025  0.357998  0.841843  1
  O  O38  1  0.039621  0.218944  0.572557  1
  O  O39  1  0.960379  0.781056  0.427443  1
  O  O40  1  0.168834  0.718969  0.072528  1
  O  O41  1  0.249963  0.972126  0.250005  1
  O  O42  1  0.641999  0.907989  0.658158  1
  O  O43  1  0.781085  0.960365  0.927445  1
  O  O44  1  0.938942  0.527046  0.381523  1
  O  O45  1  0.718958  0.168854  0.572542  1
  O  O46  1  0.561060  0.347516  0.118462  1
  O  O47  1  0.527893  0.472127  0.749995  1
  O  O48  1  0.208174  0.591955  0.841856  1
  O  O49  1  0.831166  0.281031  0.927472  1
  O  O50  1  0.281042  0.831146  0.427458  1
  O  O51  1  0.750037  0.027874  0.749995  1
  O  O52  1  0.331124  0.460370  0.427461  1
  O  O53  1  0.472107  0.527873  0.250005  1
  O  O54  1  0.500000  0.000000  0.500000  1
  O  O55  1  0.668876  0.539630  0.572539  1
  O  O56  1  0.791826  0.408045  0.158144  1
  O  O57  1  0.291859  0.142023  0.658141  1
  O  O58  1  0.907975  0.642002  0.158157  1
  O  O59  1  0.358001  0.092011  0.341842  1
  O  O60  1  0.591964  0.208159  0.341858  1
  O  O61  1  0.000000  0.500000  0.000000  1
  O  O62  1  0.438940  0.652484  0.881538  1
  O  O63  1  0.652483  0.438931  0.381537  1
