# generated using pymatgen
data_Na2AlB(As2O7)2
_symmetry_space_group_name_H-M   'P 1'
_cell_length_a   4.67997321
_cell_length_b   11.14139647
_cell_length_c   21.11519297
_cell_angle_alpha   90.00000000
_cell_angle_beta   90.00000000
_cell_angle_gamma   90.38941509
_symmetry_Int_Tables_number   1
_chemical_formula_structural   Na2AlB(As2O7)2
_chemical_formula_sum   'Na8 Al4 B4 As16 O56'
_cell_volume   1100.95107530
_cell_formula_units_Z   4
loop_
 _symmetry_equiv_pos_site_id
 _symmetry_equiv_pos_as_xyz
  1  'x, y, z'
loop_
 _atom_site_type_symbol
 _atom_site_label
 _atom_site_symmetry_multiplicity
 _atom_site_fract_x
 _atom_site_fract_y
 _atom_site_fract_z
 _atom_site_occupancy
  Na  Na0  1  0.781147  0.584371  0.974827  1
  Na  Na1  1  0.218853  0.915629  0.474827  1
  Na  Na2  1  0.781147  0.084371  0.525173  1
  Na  Na3  1  0.222259  0.475040  0.290332  1
  Na  Na4  1  0.777741  0.524960  0.709668  1
  Na  Na5  1  0.218853  0.415629  0.025173  1
  Na  Na6  1  0.777741  0.024960  0.790332  1
  Na  Na7  1  0.222259  0.975040  0.209668  1
  Al  Al8  1  0.224397  0.274487  0.177348  1
  Al  Al9  1  0.224397  0.774487  0.322652  1
  Al  Al10  1  0.775603  0.725513  0.822652  1
  Al  Al11  1  0.775603  0.225513  0.677348  1
  B  B12  1  0.201497  0.637336  0.606051  1
  B  B13  1  0.798503  0.362664  0.393949  1
  B  B14  1  0.201497  0.137336  0.893949  1
  B  B15  1  0.798503  0.862664  0.106051  1
  As  As16  1  0.741336  0.465703  0.145563  1
  As  As17  1  0.258664  0.034297  0.645563  1
  As  As18  1  0.258664  0.534297  0.854437  1
  As  As19  1  0.273064  0.784301  0.721168  1
  As  As20  1  0.262919  0.375018  0.606961  1
  As  As21  1  0.741336  0.965703  0.354437  1
  As  As22  1  0.737081  0.624982  0.393039  1
  As  As23  1  0.737081  0.124982  0.106961  1
  As  As24  1  0.273064  0.284301  0.778832  1
  As  As25  1  0.262919  0.875018  0.893039  1
  As  As26  1  0.726936  0.215699  0.278832  1
  As  As27  1  0.726936  0.715699  0.221168  1
  As  As28  1  0.702264  0.708260  0.535526  1
  As  As29  1  0.297736  0.791740  0.035526  1
  As  As30  1  0.297736  0.291740  0.464474  1
  As  As31  1  0.702264  0.208260  0.964474  1
  O  O32  1  0.902416  0.288364  0.340171  1
  O  O33  1  0.990294  0.234725  0.104498  1
  O  O34  1  0.985058  0.168383  0.227735  1
  O  O35  1  0.023525  0.096501  0.699434  1
  O  O36  1  0.889954  0.027698  0.417834  1
  O  O37  1  0.398399  0.389070  0.528789  1
  O  O38  1  0.546523  0.698209  0.747800  1
  O  O39  1  0.014942  0.831617  0.772265  1
  O  O40  1  0.355612  0.650142  0.017274  1
  O  O41  1  0.563326  0.582009  0.192974  1
  O  O42  1  0.902416  0.788364  0.159829  1
  O  O43  1  0.515671  0.641202  0.598050  1
  O  O44  1  0.990294  0.734725  0.395502  1
  O  O45  1  0.097584  0.711636  0.659829  1
  O  O46  1  0.110046  0.472302  0.917834  1
  O  O47  1  0.601601  0.610930  0.471211  1
  O  O48  1  0.454146  0.135755  0.157130  1
  O  O49  1  0.545854  0.864245  0.842870  1
  O  O50  1  0.453477  0.301791  0.252200  1
  O  O51  1  0.889954  0.527698  0.082166  1
  O  O52  1  0.014942  0.331617  0.727735  1
  O  O53  1  0.546523  0.198209  0.752200  1
  O  O54  1  0.892962  0.987442  0.123080  1
  O  O55  1  0.546335  0.624439  0.872334  1
  O  O56  1  0.097584  0.211636  0.840171  1
  O  O57  1  0.976475  0.903499  0.300566  1
  O  O58  1  0.436674  0.917991  0.692974  1
  O  O59  1  0.976475  0.403499  0.199434  1
  O  O60  1  0.453477  0.801791  0.247800  1
  O  O61  1  0.644388  0.349858  0.982726  1
  O  O62  1  0.107038  0.512558  0.623080  1
  O  O63  1  0.545854  0.364245  0.657130  1
  O  O64  1  0.453665  0.875561  0.372334  1
  O  O65  1  0.644388  0.849858  0.517274  1
  O  O66  1  0.454146  0.635755  0.342870  1
  O  O67  1  0.110046  0.972302  0.582166  1
  O  O68  1  0.355612  0.150142  0.482726  1
  O  O69  1  0.484329  0.358798  0.401950  1
  O  O70  1  0.436674  0.417991  0.807026  1
  O  O71  1  0.938000  0.322828  0.452830  1
  O  O72  1  0.484329  0.858798  0.098050  1
  O  O73  1  0.453665  0.375561  0.127666  1
  O  O74  1  0.515671  0.141202  0.901950  1
  O  O75  1  0.009706  0.765275  0.895502  1
  O  O76  1  0.563326  0.082009  0.307026  1
  O  O77  1  0.398399  0.889070  0.971211  1
  O  O78  1  0.938000  0.822828  0.047170  1
  O  O79  1  0.062000  0.677172  0.547170  1
  O  O80  1  0.601601  0.110930  0.028789  1
  O  O81  1  0.546335  0.124439  0.627666  1
  O  O82  1  0.892962  0.487442  0.376920  1
  O  O83  1  0.107038  0.012558  0.876920  1
  O  O84  1  0.985058  0.668383  0.272265  1
  O  O85  1  0.023525  0.596501  0.800566  1
  O  O86  1  0.062000  0.177172  0.952830  1
  O  O87  1  0.009706  0.265275  0.604498  1
