# generated using pymatgen
data_Sm2Ta2Cl2O7
_symmetry_space_group_name_H-M   'P 1'
_cell_length_a   3.93706272
_cell_length_b   6.92091134
_cell_length_c   7.97804230
_cell_angle_alpha   113.16965651
_cell_angle_beta   104.28363592
_cell_angle_gamma   89.99952144
_symmetry_Int_Tables_number   1
_chemical_formula_structural   Sm2Ta2Cl2O7
_chemical_formula_sum   'Sm2 Ta2 Cl2 O7'
_cell_volume   192.52156700
_cell_formula_units_Z   1
loop_
 _symmetry_equiv_pos_site_id
 _symmetry_equiv_pos_as_xyz
  1  'x, y, z'
loop_
 _atom_site_type_symbol
 _atom_site_label
 _atom_site_symmetry_multiplicity
 _atom_site_fract_x
 _atom_site_fract_y
 _atom_site_fract_z
 _atom_site_occupancy
  Sm  Sm0  1  0.306662  0.836817  0.613351  1
  Sm  Sm1  1  0.693338  0.163183  0.386649  1
  Ta  Ta2  1  0.965009  0.199701  0.930121  1
  Ta  Ta3  1  0.034991  0.800299  0.069879  1
  Cl  Cl4  1  0.680073  0.565660  0.360138  1
  Cl  Cl5  1  0.319927  0.434340  0.639862  1
  O  O6  1  0.453222  0.160064  0.906531  1
  O  O7  1  0.546778  0.839936  0.093469  1
  O  O8  1  0.917887  0.845623  0.835759  1
  O  O9  1  0.000000  0.500000  0.000000  1
  O  O10  1  0.823657  0.066944  0.647385  1
  O  O11  1  0.082113  0.154377  0.164241  1
  O  O12  1  0.176343  0.933056  0.352615  1
