# generated using pymatgen
data_Te6As4C3(NF8)3
_symmetry_space_group_name_H-M   'P 1'
_cell_length_a   8.98842717
_cell_length_b   8.98842666
_cell_length_c   19.68882388
_cell_angle_alpha   94.45991556
_cell_angle_beta   102.27725788
_cell_angle_gamma   111.33868838
_symmetry_Int_Tables_number   1
_chemical_formula_structural   Te6As4C3(NF8)3
_chemical_formula_sum   'Te12 As8 C6 N6 F48'
_cell_volume   1426.57451717
_cell_formula_units_Z   2
loop_
 _symmetry_equiv_pos_site_id
 _symmetry_equiv_pos_as_xyz
  1  'x, y, z'
loop_
 _atom_site_type_symbol
 _atom_site_label
 _atom_site_symmetry_multiplicity
 _atom_site_fract_x
 _atom_site_fract_y
 _atom_site_fract_z
 _atom_site_occupancy
  Te  Te0  1  0.677409  0.309660  0.671117  1
  Te  Te1  1  0.521263  0.519379  0.350483  1
  Te  Te2  1  0.316719  0.152929  0.784588  1
  Te  Te3  1  0.631658  0.467869  0.784588  1
  Te  Te4  1  0.831104  0.829220  0.350483  1
  Te  Te5  1  0.683281  0.847071  0.215412  1
  Te  Te6  1  0.368342  0.532131  0.215412  1
  Te  Te7  1  0.638543  0.006291  0.328883  1
  Te  Te8  1  0.322591  0.690340  0.328883  1
  Te  Te9  1  0.168896  0.170780  0.649517  1
  Te  Te10  1  0.361457  0.993709  0.671117  1
  Te  Te11  1  0.478737  0.480621  0.649517  1
  As  As12  1  0.680858  0.863155  0.544014  1
  As  As13  1  0.802001  0.998977  0.800978  1
  As  As14  1  0.197999  0.001023  0.199022  1
  As  As15  1  0.833671  0.409462  0.243133  1
  As  As16  1  0.319142  0.136845  0.455986  1
  As  As17  1  0.166329  0.590538  0.756867  1
  As  As18  1  0.000000  0.500000  0.500000  1
  As  As19  1  0.500000  0.500000  0.000000  1
  C  C20  1  0.962264  0.048366  0.010630  1
  C  C21  1  0.486344  0.026207  0.968323  1
  C  C22  1  0.057884  0.518021  0.031677  1
  C  C23  1  0.513656  0.973793  0.031677  1
  C  C24  1  0.037736  0.951634  0.989370  1
  C  C25  1  0.942116  0.481979  0.968323  1
  N  N26  1  0.102132  0.869357  0.971490  1
  N  N27  1  0.463195  0.071030  0.914646  1
  N  N28  1  0.156384  0.548549  0.085354  1
  N  N29  1  0.536805  0.928970  0.085354  1
  N  N30  1  0.897868  0.130643  0.028510  1
  N  N31  1  0.843616  0.451451  0.914646  1
  F  F32  1  0.399906  0.344270  0.495590  1
  F  F33  1  0.490344  0.177410  0.418577  1
  F  F34  1  0.965183  0.473660  0.187553  1
  F  F35  1  0.035700  0.673055  0.708756  1
  F  F36  1  0.868502  0.575285  0.443787  1
  F  F37  1  0.674252  0.674252  1.000000  1
  F  F38  1  0.631190  0.402713  0.033903  1
  F  F39  1  0.948966  0.600078  0.302648  1
  F  F40  1  0.894344  0.305012  0.447181  1
  F  F41  1  0.600094  0.655730  0.504410  1
  F  F42  1  0.307911  0.876285  0.184196  1
  F  F43  1  0.105656  0.694988  0.552819  1
  F  F44  1  0.848680  0.904317  0.504410  1
  F  F45  1  0.131498  0.424715  0.556213  1
  F  F46  1  0.093026  0.124877  0.217904  1
  F  F47  1  0.298901  0.500882  0.799783  1
  F  F48  1  0.019146  0.865994  0.135614  1
  F  F49  1  0.203824  0.177259  0.381082  1
  F  F50  1  0.964300  0.326945  0.291244  1
  F  F51  1  0.151320  0.095683  0.495590  1
  F  F52  1  0.701099  0.499118  0.200217  1
  F  F53  1  0.269621  0.116469  0.135614  1
  F  F54  1  0.796176  0.822742  0.618918  1
  F  F55  1  0.713893  0.222370  0.187553  1
  F  F56  1  0.730379  0.883531  0.864386  1
  F  F57  1  0.509656  0.822590  0.581423  1
  F  F58  1  0.692089  0.123715  0.815804  1
  F  F59  1  0.509376  0.579431  0.088807  1
  F  F60  1  0.867124  0.114394  0.734805  1
  F  F61  1  0.379588  0.132318  0.265195  1
  F  F62  1  0.051034  0.399922  0.697352  1
  F  F63  1  0.565491  0.900432  0.465923  1
  F  F64  1  0.857832  0.447163  0.552819  1
  F  F65  1  0.702571  0.353683  0.302648  1
  F  F66  1  0.434509  0.099568  0.534077  1
  F  F67  1  0.286107  0.777630  0.812447  1
  F  F68  1  0.906974  0.875123  0.782096  1
  F  F69  1  0.241167  0.928233  0.418577  1
  F  F70  1  0.132876  0.885606  0.265195  1
  F  F71  1  0.490624  0.420569  0.911193  1
  F  F72  1  0.325748  0.325748  0.000000  1
  F  F73  1  0.034817  0.526340  0.812447  1
  F  F74  1  0.620412  0.867682  0.734805  1
  F  F75  1  0.980854  0.134006  0.864386  1
  F  F76  1  0.142168  0.552837  0.447181  1
  F  F77  1  0.368810  0.597287  0.966097  1
  F  F78  1  0.758833  0.071767  0.581423  1
  F  F79  1  0.297429  0.646317  0.697352  1
