# generated using pymatgen
data_Sr3Pr10Al12Si18(N2O)18
_symmetry_space_group_name_H-M   'P 1'
_cell_length_a   11.70973344
_cell_length_b   11.70921527
_cell_length_c   11.72822920
_cell_angle_alpha   109.51065466
_cell_angle_beta   109.49995011
_cell_angle_gamma   109.43413772
_symmetry_Int_Tables_number   1
_chemical_formula_structural   Sr3Pr10Al12Si18(N2O)18
_chemical_formula_sum   'Sr3 Pr10 Al12 Si18 N36 O18'
_cell_volume   1237.42386073
_cell_formula_units_Z   1
loop_
 _symmetry_equiv_pos_site_id
 _symmetry_equiv_pos_as_xyz
  1  'x, y, z'
loop_
 _atom_site_type_symbol
 _atom_site_label
 _atom_site_symmetry_multiplicity
 _atom_site_fract_x
 _atom_site_fract_y
 _atom_site_fract_z
 _atom_site_occupancy
  Al  Al0  1  0.000000  0.246784  0.837516  1
  Al  Al1  1  1.000000  0.837959  0.245788  1
  Al  Al2  1  0.246851  0.000812  0.838176  1
  Al  Al3  1  0.162368  0.408697  0.162822  1
  Al  Al4  1  0.162852  0.163222  0.410050  1
  Al  Al5  1  0.245954  0.836859  -0.000420  1
  Al  Al6  1  0.591282  0.753914  0.753516  1
  Al  Al7  1  0.753149  0.753960  0.591325  1
  Al  Al8  1  0.754046  0.590905  0.753626  1
  Al  Al9  1  0.408718  0.162632  0.162235  1
  Al  Al10  1  0.837148  0.000370  0.247199  1
  Al  Al11  1  0.837632  0.246329  0.000454  1
  N  N12  1  0.150051  0.000192  0.672754  1
  N  N13  1  0.153891  0.842798  0.842794  1
  N  N14  1  0.145654  0.449979  0.451395  1
  N  N15  1  0.302669  0.854554  0.302650  1
  N  N16  1  0.302621  0.304508  0.854298  1
  N  N17  1  0.149439  0.672256  -0.000362  1
  N  N18  1  0.305731  0.155416  1.000244  1
  N  N19  1  0.522213  0.849557  0.850098  1
  N  N20  1  0.552101  0.003286  0.699454  1
  N  N21  1  0.156735  0.311224  0.999710  1
  N  N22  1  0.156532  0.001129  0.309256  1
  N  N23  1  0.328918  0.327531  0.479755  1
  N  N24  1  0.323617  0.469856  0.325776  1
  N  N25  1  0.697379  0.001887  0.551677  1
  N  N26  1  0.694269  0.849685  0.694512  1
  N  N27  1  0.691120  0.690642  0.846242  1
  N  N28  1  0.450745  0.144253  0.446597  1
  N  N29  1  0.447899  0.451185  0.147353  1
  N  N30  1  0.477787  0.327344  0.327884  1
  N  N31  1  0.308880  -0.000479  0.155121  1
  N  N32  1  0.549255  0.693509  0.995852  1
  N  N33  1  0.846109  0.688907  0.688903  1
  N  N34  1  0.850561  0.522817  0.850199  1
  N  N35  1  0.849949  0.850141  0.522704  1
  N  N36  1  0.697331  0.551885  0.999981  1
  N  N37  1  0.843265  0.154489  0.842975  1
  N  N38  1  0.843468  0.844597  0.152723  1
  N  N39  1  0.000000  0.550329  0.695685  1
  N  N40  1  1.000000  0.696609  0.551485  1
  N  N41  1  0.671082  0.998613  0.150837  1
  N  N42  1  0.676383  0.146238  0.002159  1
  N  N43  1  0.854346  0.304325  0.305741  1
  N  N44  1  0.000000  0.673176  0.149824  1
  N  N45  1  1.000000  0.149563  0.673013  1
  N  N46  1  1.000000  0.158008  0.312593  1
  N  N47  1  0.000000  0.310088  0.157945  1
  O  O48  1  1.000000  0.389721  0.811003  1
  O  O49  1  0.000000  0.814124  0.390323  1
  O  O50  1  0.390796  1.000094  0.814119  1
  O  O51  1  0.248186  0.499003  0.750133  1
  O  O52  1  0.240706  0.751150  0.506108  1
  O  O53  1  0.183994  0.574365  0.183269  1
  O  O54  1  0.185626  0.187529  0.577455  1
  O  O55  1  0.422186  0.609958  0.610537  1
  O  O56  1  0.388977  0.811086  -0.001676  1
  O  O57  1  0.506701  0.752794  0.240636  1
  O  O58  1  0.493299  0.246093  0.733934  1
  O  O59  1  0.611023  0.422109  0.609347  1
  O  O60  1  0.609204  0.609298  0.423323  1
  O  O61  1  0.814374  0.001903  0.391829  1
  O  O62  1  0.577814  0.187771  0.188351  1
  O  O63  1  0.751814  0.250817  0.501947  1
  O  O64  1  0.759294  0.510444  0.265402  1
  O  O65  1  0.816006  0.390371  0.999275  1
  Pr  Pr66  1  0.000000  0.577248  0.325325  1
  Pr  Pr67  1  0.251780  0.677457  0.676135  1
  Pr  Pr68  1  0.426160  0.420793  0.750469  1
  Pr  Pr69  1  0.324260  0.995501  0.573796  1
  Pr  Pr70  1  0.325702  0.576554  0.001483  1
  Pr  Pr71  1  0.674298  0.250853  0.675781  1
  Pr  Pr72  1  0.675740  0.671241  0.249536  1
  Pr  Pr73  1  0.748220  0.425678  0.424355  1
  Pr  Pr74  1  0.573840  0.994634  0.324310  1
  Pr  Pr75  1  1.000000  0.324270  0.576227  1
  Si  Si76  1  0.000000  0.700029  0.699884  1
  Si  Si77  1  1.000000  0.538461  0.839397  1
  Si  Si78  1  0.000000  0.839755  0.538810  1
  Si  Si79  1  1.000000  0.300847  0.301184  1
  Si  Si80  1  0.160215  0.160609  0.699454  1
  Si  Si81  1  0.160671  0.698581  0.160773  1
  Si  Si82  1  0.540414  0.001255  0.842037  1
  Si  Si83  1  0.300978  0.460728  0.462175  1
  Si  Si84  1  0.699632  0.000179  0.700049  1
  Si  Si85  1  0.300368  0.300548  1.000418  1
  Si  Si86  1  0.299412  0.999324  0.298458  1
  Si  Si87  1  0.459586  0.460841  0.301623  1
  Si  Si88  1  0.461718  0.300175  0.461199  1
  Si  Si89  1  0.538282  0.838457  0.999481  1
  Si  Si90  1  0.839785  0.000393  0.539239  1
  Si  Si91  1  0.700588  0.699912  0.999046  1
  Si  Si92  1  0.699022  0.159749  0.161197  1
  Si  Si93  1  0.839329  0.537910  0.000102  1
  Sr  Sr94  1  1.000000  0.000082  1.000931  1
  Sr  Sr95  1  0.425012  0.744736  0.424649  1
  Sr  Sr96  1  0.574988  0.319724  -0.000363  1
