# generated using pymatgen
data_KC4N3
_symmetry_space_group_name_H-M   'P 1'
_cell_length_a   3.99677911
_cell_length_b   8.76989287
_cell_length_c   9.14067769
_cell_angle_alpha   74.83520282
_cell_angle_beta   84.41973446
_cell_angle_gamma   88.79913746
_symmetry_Int_Tables_number   1
_chemical_formula_structural   KC4N3
_chemical_formula_sum   'K2 C8 N6'
_cell_volume   307.76711804
_cell_formula_units_Z   2
loop_
 _symmetry_equiv_pos_site_id
 _symmetry_equiv_pos_as_xyz
  1  'x, y, z'
loop_
 _atom_site_type_symbol
 _atom_site_label
 _atom_site_symmetry_multiplicity
 _atom_site_fract_x
 _atom_site_fract_y
 _atom_site_fract_z
 _atom_site_occupancy
  K  K0  1  0.781542  0.171894  0.799048  1
  K  K1  1  0.218458  0.828106  0.200952  1
  C  C2  1  0.553878  0.736570  0.575357  1
  C  C3  1  0.446122  0.263430  0.424643  1
  C  C4  1  0.600916  0.306586  0.274888  1
  C  C5  1  0.686119  0.465712  0.207757  1
  C  C6  1  0.327703  0.810247  0.802634  1
  C  C7  1  0.399084  0.693414  0.725112  1
  C  C8  1  0.672297  0.189753  0.197366  1
  C  C9  1  0.313881  0.534288  0.792243  1
  N  N10  1  0.683216  0.771941  0.450061  1
  N  N11  1  0.752592  0.600258  0.156910  1
  N  N12  1  0.316784  0.228059  0.549939  1
  N  N13  1  0.729270  0.088534  0.135824  1
  N  N14  1  0.247408  0.399742  0.843090  1
  N  N15  1  0.270730  0.911466  0.864176  1
