# generated using pymatgen
data_Th(TeO3)2
_symmetry_space_group_name_H-M   'P 1'
_cell_length_a   7.26396466
_cell_length_b   7.63922130
_cell_length_c   11.41725126
_cell_angle_alpha   90.00000000
_cell_angle_beta   90.00000000
_cell_angle_gamma   107.45425742
_symmetry_Int_Tables_number   1
_chemical_formula_structural   Th(TeO3)2
_chemical_formula_sum   'Th4 Te8 O24'
_cell_volume   604.38411772
_cell_formula_units_Z   4
loop_
 _symmetry_equiv_pos_site_id
 _symmetry_equiv_pos_as_xyz
  1  'x, y, z'
loop_
 _atom_site_type_symbol
 _atom_site_label
 _atom_site_symmetry_multiplicity
 _atom_site_fract_x
 _atom_site_fract_y
 _atom_site_fract_z
 _atom_site_occupancy
  Th  Th0  1  0.743207  0.996167  0.908702  1
  Th  Th1  1  0.756793  0.503833  0.408702  1
  Th  Th2  1  0.256793  0.003833  0.091298  1
  Th  Th3  1  0.243207  0.496167  0.591298  1
  Te  Te4  1  0.766421  0.574966  0.721923  1
  Te  Te5  1  0.733579  0.925034  0.221923  1
  Te  Te6  1  0.233579  0.425034  0.278077  1
  Te  Te7  1  0.266421  0.074966  0.778077  1
  Te  Te8  1  0.725229  0.451619  0.078325  1
  Te  Te9  1  0.774771  0.048381  0.578325  1
  Te  Te10  1  0.274771  0.548381  0.921675  1
  Te  Te11  1  0.225229  0.951619  0.421675  1
  O  O12  1  0.864897  0.829939  0.750121  1
  O  O13  1  0.635103  0.670061  0.250121  1
  O  O14  1  0.135103  0.170061  0.249879  1
  O  O15  1  0.364897  0.329939  0.749879  1
  O  O16  1  0.593102  0.591830  0.597586  1
  O  O17  1  0.906898  0.908170  0.097586  1
  O  O18  1  0.406898  0.408170  0.402414  1
  O  O19  1  0.093102  0.091830  0.902414  1
  O  O20  1  0.933268  0.546539  0.597902  1
  O  O21  1  0.566732  0.953461  0.097902  1
  O  O22  1  0.066732  0.453461  0.402098  1
  O  O23  1  0.433268  0.046539  0.902098  1
  O  O24  1  0.818866  0.290973  0.983194  1
  O  O25  1  0.681134  0.209027  0.483194  1
  O  O26  1  0.181134  0.709027  0.016806  1
  O  O27  1  0.318866  0.790973  0.516806  1
  O  O28  1  0.458912  0.313443  0.098263  1
  O  O29  1  0.041088  0.186557  0.598263  1
  O  O30  1  0.541088  0.686557  0.901737  1
  O  O31  1  0.958912  0.813443  0.401737  1
  O  O32  1  0.812933  0.385906  0.223614  1
  O  O33  1  0.687067  0.114094  0.723614  1
  O  O34  1  0.187067  0.614094  0.776386  1
  O  O35  1  0.312933  0.885906  0.276386  1
