# generated using pymatgen
data_MgAl2O4
_symmetry_space_group_name_H-M   'P 1'
_cell_length_a   5.76037688
_cell_length_b   5.76037757
_cell_length_c   23.12964274
_cell_angle_alpha   60.12596966
_cell_angle_beta   60.12596566
_cell_angle_gamma   59.99999916
_symmetry_Int_Tables_number   1
_chemical_formula_structural   MgAl2O4
_chemical_formula_sum   'Mg8 Al16 O32'
_cell_volume   543.72593816
_cell_formula_units_Z   8
loop_
 _symmetry_equiv_pos_site_id
 _symmetry_equiv_pos_as_xyz
  1  'x, y, z'
loop_
 _atom_site_type_symbol
 _atom_site_label
 _atom_site_symmetry_multiplicity
 _atom_site_fract_x
 _atom_site_fract_y
 _atom_site_fract_z
 _atom_site_occupancy
  Al  Al0  1  0.010874  0.495853  0.124355  1
  Al  Al1  1  0.495853  0.010874  0.124355  1
  Al  Al2  1  0.495853  0.495853  0.124355  1
  Al  Al3  1  0.010115  0.496410  0.374266  1
  Al  Al4  1  0.496410  0.010115  0.374266  1
  Al  Al5  1  0.005264  0.496935  0.625216  1
  Al  Al6  1  0.496410  0.496410  0.374266  1
  Al  Al7  1  0.496935  0.005264  0.625216  1
  Al  Al8  1  0.880316  0.880316  0.214763  1
  Al  Al9  1  0.496935  0.496935  0.625216  1
  Al  Al10  1  0.006602  0.498802  0.873949  1
  Al  Al11  1  0.498802  0.006602  0.873949  1
  Al  Al12  1  0.881231  0.881231  0.464077  1
  Al  Al13  1  0.502149  0.502149  0.748388  1
  Al  Al14  1  0.498802  0.498802  0.873949  1
  Al  Al15  1  0.876698  0.876698  0.967476  1
  Mg  Mg16  1  0.121613  0.121613  0.033790  1
  Mg  Mg17  1  0.121164  0.121164  0.284127  1
  Mg  Mg18  1  0.498633  0.498633  0.251025  1
  Mg  Mg19  1  0.121505  0.121505  0.533871  1
  Mg  Mg20  1  0.123979  0.123979  0.782015  1
  Mg  Mg21  1  0.497443  0.497443  0.501917  1
  Mg  Mg22  1  0.877926  0.877926  0.716556  1
  Mg  Mg23  1  0.498457  0.498457  0.001158  1
  O  O24  1  0.253406  0.253406  0.070192  1
  O  O25  1  0.253406  0.712420  0.070192  1
  O  O26  1  0.260083  0.260083  0.179938  1
  O  O27  1  0.712420  0.253406  0.070192  1
  O  O28  1  0.252957  0.252957  0.320623  1
  O  O29  1  0.270600  0.751499  0.181600  1
  O  O30  1  0.751499  0.270600  0.181600  1
  O  O31  1  0.252957  0.711593  0.320623  1
  O  O32  1  0.259889  0.259889  0.430084  1
  O  O33  1  0.744853  0.744853  0.066360  1
  O  O34  1  0.711593  0.252957  0.320623  1
  O  O35  1  0.751499  0.751499  0.181600  1
  O  O36  1  0.249677  0.249677  0.572300  1
  O  O37  1  0.272037  0.750992  0.431495  1
  O  O38  1  0.750992  0.272037  0.431495  1
  O  O39  1  0.746619  0.746619  0.315035  1
  O  O40  1  0.249677  0.711444  0.572300  1
  O  O41  1  0.259889  0.259889  0.680083  1
  O  O42  1  0.711444  0.249677  0.572300  1
  O  O43  1  0.750992  0.750992  0.431495  1
  O  O44  1  0.265536  0.265536  0.815223  1
  O  O45  1  0.296047  0.734668  0.683654  1
  O  O46  1  0.734668  0.296047  0.683654  1
  O  O47  1  0.749867  0.749867  0.562600  1
  O  O48  1  0.262830  0.262830  0.927878  1
  O  O49  1  0.265536  0.708036  0.815223  1
  O  O50  1  0.734668  0.734668  0.683654  1
  O  O51  1  0.708036  0.265536  0.815223  1
  O  O52  1  0.263892  0.754723  0.931666  1
  O  O53  1  0.754723  0.263892  0.931666  1
  O  O54  1  0.733015  0.733015  0.825239  1
  O  O55  1  0.754723  0.754723  0.931666  1
