# generated using pymatgen
data_Rb4CuSi2O7
_symmetry_space_group_name_H-M   'P 1'
_cell_length_a   6.38369124
_cell_length_b   7.17551907
_cell_length_c   7.25038456
_cell_angle_alpha   114.28975727
_cell_angle_beta   100.46781768
_cell_angle_gamma   107.78776121
_symmetry_Int_Tables_number   1
_chemical_formula_structural   Rb4CuSi2O7
_chemical_formula_sum   'Rb4 Cu1 Si2 O7'
_cell_volume   269.56340597
_cell_formula_units_Z   1
loop_
 _symmetry_equiv_pos_site_id
 _symmetry_equiv_pos_as_xyz
  1  'x, y, z'
loop_
 _atom_site_type_symbol
 _atom_site_label
 _atom_site_symmetry_multiplicity
 _atom_site_fract_x
 _atom_site_fract_y
 _atom_site_fract_z
 _atom_site_occupancy
  Rb  Rb0  1  0.321334  0.078863  0.720027  1
  Rb  Rb1  1  0.678666  0.921137  0.279973  1
  Rb  Rb2  1  0.930180  0.457625  0.221516  1
  Rb  Rb3  1  0.069820  0.542375  0.778484  1
  Cu  Cu4  1  0.500000  0.500000  0.500000  1
  Si  Si5  1  0.216585  0.080255  0.223657  1
  Si  Si6  1  0.783415  0.919745  0.776343  1
  O  O7  1  0.471645  0.240757  0.229629  1
  O  O8  1  0.815075  0.729943  0.566304  1
  O  O9  1  0.184925  0.270057  0.433696  1
  O  O10  1  0.793714  0.141137  0.763461  1
  O  O11  1  0.206286  0.858863  0.236539  1
  O  O12  1  0.528355  0.759243  0.770371  1
  O  O13  1  0.000000  0.000000  0.000000  1
