# generated using pymatgen
data_CaCO3
_symmetry_space_group_name_H-M   'P 1'
_cell_length_a   7.28334989
_cell_length_b   7.28334989
_cell_length_c   25.56781900
_cell_angle_alpha   90.00000000
_cell_angle_beta   90.00000000
_cell_angle_gamma   119.99999902
_symmetry_Int_Tables_number   1
_chemical_formula_structural   CaCO3
_chemical_formula_sum   'Ca18 C18 O54'
_cell_volume   1174.59099522
_cell_formula_units_Z   18
loop_
 _symmetry_equiv_pos_site_id
 _symmetry_equiv_pos_as_xyz
  1  'x, y, z'
loop_
 _atom_site_type_symbol
 _atom_site_label
 _atom_site_symmetry_multiplicity
 _atom_site_fract_x
 _atom_site_fract_y
 _atom_site_fract_z
 _atom_site_occupancy
  Ca  Ca0  1  0.387236  0.693618  0.583333  1
  Ca  Ca1  1  0.009404  0.018808  0.916667  1
  Ca  Ca2  1  0.306382  0.693618  0.250000  1
  Ca  Ca3  1  0.662025  0.324050  0.916667  1
  Ca  Ca4  1  0.306382  0.612764  0.916667  1
  Ca  Ca5  1  0.018809  0.009405  0.083333  1
  Ca  Ca6  1  0.981191  0.990595  0.583333  1
  Ca  Ca7  1  0.009404  0.990595  0.250000  1
  Ca  Ca8  1  0.693618  0.387236  0.416667  1
  Ca  Ca9  1  0.990596  0.009405  0.750000  1
  Ca  Ca10  1  0.337975  0.662026  0.750000  1
  Ca  Ca11  1  0.337975  0.675950  0.416667  1
  Ca  Ca12  1  0.675949  0.337974  0.583333  1
  Ca  Ca13  1  0.990596  0.981192  0.416667  1
  Ca  Ca14  1  0.662025  0.337974  0.250000  1
  Ca  Ca15  1  0.612764  0.306382  0.083333  1
  Ca  Ca16  1  0.324051  0.662026  0.083333  1
  Ca  Ca17  1  0.693618  0.306382  0.750000  1
  C  C18  1  0.950243  0.627805  0.161538  1
  C  C19  1  0.000000  0.690912  0.833333  1
  C  C20  1  0.000000  0.309088  0.333333  1
  C  C21  1  0.677562  0.049757  0.494872  1
  C  C22  1  0.690912  0.000000  0.166667  1
  C  C23  1  0.627805  0.950243  0.838462  1
  C  C24  1  0.322438  0.372195  0.171795  1
  C  C25  1  0.372195  0.049757  0.338462  1
  C  C26  1  0.372195  0.322438  0.828205  1
  C  C27  1  0.309088  0.309088  0.500000  1
  C  C28  1  0.309088  0.000000  0.666667  1
  C  C29  1  0.677562  0.627805  0.671795  1
  C  C30  1  0.950243  0.322438  0.005128  1
  C  C31  1  0.627805  0.677562  0.328205  1
  C  C32  1  0.322438  0.950243  0.994872  1
  C  C33  1  0.049757  0.677562  0.505128  1
  C  C34  1  0.049757  0.372195  0.661538  1
  C  C35  1  0.690912  0.690912  0.000000  1
  O  O36  1  0.318442  0.279430  0.128147  1
  O  O37  1  0.772510  0.322686  0.003235  1
  O  O38  1  0.000000  0.130748  0.333333  1
  O  O39  1  0.869252  0.000000  0.166667  1
  O  O40  1  0.608761  0.008813  0.211211  1
  O  O41  1  0.677315  0.227491  0.496765  1
  O  O42  1  0.279430  0.960988  0.294814  1
  O  O43  1  0.326195  0.292098  0.216855  1
  O  O44  1  0.599948  0.608761  0.044544  1
  O  O45  1  0.550176  0.227491  0.336569  1
  O  O46  1  0.400052  0.008813  0.622123  1
  O  O47  1  0.227490  0.677314  0.503235  1
  O  O48  1  0.550176  0.322686  0.830098  1
  O  O49  1  0.772510  0.449825  0.163431  1
  O  O50  1  0.677315  0.449825  0.669902  1
  O  O51  1  0.449824  0.677314  0.330098  1
  O  O52  1  0.318442  0.039012  0.038519  1
  O  O53  1  0.681558  0.720570  0.628147  1
  O  O54  1  0.400052  0.391239  0.544544  1
  O  O55  1  0.707902  0.034097  0.883521  1
  O  O56  1  0.965903  0.292098  0.616479  1
  O  O57  1  0.326195  0.034097  0.949812  1
  O  O58  1  0.991187  0.599948  0.877877  1
  O  O59  1  0.869252  0.869252  0.000000  1
  O  O60  1  0.720570  0.681558  0.371853  1
  O  O61  1  0.130748  0.130748  0.500000  1
  O  O62  1  0.960988  0.279430  0.705186  1
  O  O63  1  0.322685  0.772509  0.996765  1
  O  O64  1  0.391239  0.400052  0.455456  1
  O  O65  1  0.391239  0.991187  0.711211  1
  O  O66  1  0.000000  0.869252  0.833333  1
  O  O67  1  0.039012  0.318442  0.961481  1
  O  O68  1  0.008813  0.400052  0.377877  1
  O  O69  1  0.608761  0.599948  0.955456  1
  O  O70  1  0.227490  0.550175  0.663431  1
  O  O71  1  0.034097  0.326195  0.050188  1
  O  O72  1  0.673805  0.707902  0.716855  1
  O  O73  1  0.991187  0.391239  0.288789  1
  O  O74  1  0.008813  0.608761  0.788789  1
  O  O75  1  0.039012  0.720570  0.205186  1
  O  O76  1  0.965903  0.673805  0.550188  1
  O  O77  1  0.292098  0.326195  0.783145  1
  O  O78  1  0.707902  0.673805  0.283145  1
  O  O79  1  0.681558  0.960988  0.538519  1
  O  O80  1  0.720570  0.039012  0.794814  1
  O  O81  1  0.130748  0.000000  0.666667  1
  O  O82  1  0.673805  0.965903  0.449812  1
  O  O83  1  0.449824  0.772509  0.836569  1
  O  O84  1  0.292098  0.965903  0.383521  1
  O  O85  1  0.279430  0.318442  0.871853  1
  O  O86  1  0.599948  0.991187  0.122123  1
  O  O87  1  0.034097  0.707902  0.116479  1
  O  O88  1  0.960988  0.681558  0.461481  1
  O  O89  1  0.322685  0.550175  0.169902  1
