# generated using pymatgen
data_Cs4CuSi2O7
_symmetry_space_group_name_H-M   'P 1'
_cell_length_a   6.60378807
_cell_length_b   7.54547273
_cell_length_c   7.61738741
_cell_angle_alpha   106.39019001
_cell_angle_beta   110.54448443
_cell_angle_gamma   109.25786203
_symmetry_Int_Tables_number   1
_chemical_formula_structural   Cs4CuSi2O7
_chemical_formula_sum   'Cs4 Si2 Cu1 O7'
_cell_volume   299.62004934
_cell_formula_units_Z   1
loop_
 _symmetry_equiv_pos_site_id
 _symmetry_equiv_pos_as_xyz
  1  'x, y, z'
loop_
 _atom_site_type_symbol
 _atom_site_label
 _atom_site_symmetry_multiplicity
 _atom_site_fract_x
 _atom_site_fract_y
 _atom_site_fract_z
 _atom_site_occupancy
  Cs  Cs0  1  0.287932  0.764152  0.226231  1
  Cs  Cs1  1  0.712068  0.235848  0.773769  1
  Cs  Cs2  1  0.604451  0.369874  0.274507  1
  Cs  Cs3  1  0.395549  0.630126  0.725493  1
  Si  Si4  1  0.991274  0.864465  0.778309  1
  Si  Si5  1  0.008726  0.135535  0.221691  1
  Cu  Cu6  1  0.000000  0.000000  0.500000  1
  O  O7  1  0.769528  0.991033  0.237446  1
  O  O8  1  0.963000  0.639820  0.766059  1
  O  O9  1  0.230472  0.008967  0.762554  1
  O  O10  1  0.237714  0.153160  0.423815  1
  O  O11  1  0.762286  0.846840  0.576185  1
  O  O12  1  0.037000  0.360180  0.233941  1
  O  O13  1  0.000000  0.000000  0.000000  1
