# generated using pymatgen
data_Li4TbF8
_symmetry_space_group_name_H-M   'P 1'
_cell_length_a   5.83209598
_cell_length_b   10.07472167
_cell_length_c   9.91203334
_cell_angle_alpha   90.00000000
_cell_angle_beta   90.00000000
_cell_angle_gamma   90.00000000
_symmetry_Int_Tables_number   1
_chemical_formula_structural   Li4TbF8
_chemical_formula_sum   'Li16 Tb4 F32'
_cell_volume   582.39880301
_cell_formula_units_Z   4
loop_
 _symmetry_equiv_pos_site_id
 _symmetry_equiv_pos_as_xyz
  1  'x, y, z'
loop_
 _atom_site_type_symbol
 _atom_site_label
 _atom_site_symmetry_multiplicity
 _atom_site_fract_x
 _atom_site_fract_y
 _atom_site_fract_z
 _atom_site_occupancy
  Li  Li0  1  0.116671  0.368446  0.060941  1
  Li  Li1  1  0.616671  0.131554  0.939059  1
  Li  Li2  1  0.383329  0.868446  0.439059  1
  Li  Li3  1  0.883329  0.631554  0.560941  1
  Li  Li4  1  0.883329  0.631554  0.939059  1
  Li  Li5  1  0.383329  0.868446  0.060941  1
  Li  Li6  1  0.616671  0.131554  0.560941  1
  Li  Li7  1  0.116671  0.368446  0.439059  1
  Li  Li8  1  0.628223  0.398052  0.078553  1
  Li  Li9  1  0.128223  0.101948  0.921447  1
  Li  Li10  1  0.871777  0.898052  0.421447  1
  Li  Li11  1  0.371777  0.601948  0.578553  1
  Li  Li12  1  0.371777  0.601948  0.921447  1
  Li  Li13  1  0.871777  0.898052  0.078553  1
  Li  Li14  1  0.128223  0.101948  0.578553  1
  Li  Li15  1  0.628223  0.398052  0.421447  1
  Tb  Tb16  1  0.365818  0.135292  0.250000  1
  Tb  Tb17  1  0.865818  0.364708  0.750000  1
  Tb  Tb18  1  0.134182  0.635292  0.250000  1
  Tb  Tb19  1  0.634182  0.864708  0.750000  1
  F  F20  1  0.140455  0.012529  0.110805  1
  F  F21  1  0.640455  0.487471  0.889195  1
  F  F22  1  0.359545  0.512529  0.389195  1
  F  F23  1  0.859545  0.987471  0.610805  1
  F  F24  1  0.859545  0.987471  0.889195  1
  F  F25  1  0.359545  0.512529  0.110805  1
  F  F26  1  0.640455  0.487471  0.610805  1
  F  F27  1  0.140455  0.012529  0.389195  1
  F  F28  1  0.611787  0.018541  0.115281  1
  F  F29  1  0.111787  0.481459  0.884719  1
  F  F30  1  0.888213  0.518541  0.384719  1
  F  F31  1  0.388213  0.981459  0.615281  1
  F  F32  1  0.388213  0.981459  0.884719  1
  F  F33  1  0.888213  0.518541  0.115281  1
  F  F34  1  0.111787  0.481459  0.615281  1
  F  F35  1  0.611787  0.018541  0.384719  1
  F  F36  1  0.366318  0.233382  0.468582  1
  F  F37  1  0.866318  0.266618  0.531418  1
  F  F38  1  0.133682  0.733382  0.031418  1
  F  F39  1  0.633682  0.766618  0.968582  1
  F  F40  1  0.633682  0.766618  0.531418  1
  F  F41  1  0.133682  0.733382  0.468582  1
  F  F42  1  0.866318  0.266618  0.968582  1
  F  F43  1  0.366318  0.233382  0.031418  1
  F  F44  1  0.110467  0.301349  0.250000  1
  F  F45  1  0.610467  0.198651  0.750000  1
  F  F46  1  0.389533  0.801349  0.250000  1
  F  F47  1  0.889533  0.698651  0.750000  1
  F  F48  1  0.624324  0.301270  0.250000  1
  F  F49  1  0.124324  0.198730  0.750000  1
  F  F50  1  0.875676  0.801270  0.250000  1
  F  F51  1  0.375676  0.698730  0.750000  1
