# generated using pymatgen
data_KSmP2S7
_symmetry_space_group_name_H-M   'P 1'
_cell_length_a   9.08872543
_cell_length_b   9.84734746
_cell_length_c   12.52435482
_cell_angle_alpha   90.00000000
_cell_angle_beta   90.00000000
_cell_angle_gamma   90.30959743
_symmetry_Int_Tables_number   1
_chemical_formula_structural   KSmP2S7
_chemical_formula_sum   'K4 Sm4 P8 S28'
_cell_volume   1120.91135462
_cell_formula_units_Z   4
loop_
 _symmetry_equiv_pos_site_id
 _symmetry_equiv_pos_as_xyz
  1  'x, y, z'
loop_
 _atom_site_type_symbol
 _atom_site_label
 _atom_site_symmetry_multiplicity
 _atom_site_fract_x
 _atom_site_fract_y
 _atom_site_fract_z
 _atom_site_occupancy
  K  K0  1  0.868600  0.393890  0.192421  1
  K  K1  1  0.368600  0.393890  0.307579  1
  K  K2  1  0.631400  0.606110  0.692421  1
  K  K3  1  0.131400  0.606110  0.807579  1
  Sm  Sm4  1  0.393173  0.142049  0.642304  1
  Sm  Sm5  1  0.106827  0.857951  0.142304  1
  Sm  Sm6  1  0.606827  0.857951  0.357696  1
  Sm  Sm7  1  0.893173  0.142049  0.857696  1
  P  P8  1  0.022587  0.274437  0.603863  1
  P  P9  1  0.803352  0.816823  0.964479  1
  P  P10  1  0.977413  0.725563  0.396137  1
  P  P11  1  0.696648  0.183177  0.464479  1
  P  P12  1  0.522587  0.274437  0.896137  1
  P  P13  1  0.303352  0.816823  0.535521  1
  P  P14  1  0.477413  0.725563  0.103863  1
  P  P15  1  0.196648  0.183177  0.035521  1
  S  S16  1  0.789294  0.633981  0.443234  1
  S  S17  1  0.323181  0.985729  0.442699  1
  S  S18  1  0.431959  0.668482  0.474836  1
  S  S19  1  0.425255  0.908136  0.171191  1
  S  S20  1  0.647790  0.146944  0.308332  1
  S  S21  1  0.578991  0.752598  0.950106  1
  S  S22  1  0.574745  0.091864  0.828809  1
  S  S23  1  0.074745  0.091864  0.671191  1
  S  S24  1  0.610736  0.630450  0.209347  1
  S  S25  1  0.210706  0.366019  0.556766  1
  S  S26  1  0.889264  0.369550  0.709347  1
  S  S27  1  0.389264  0.369550  0.790653  1
  S  S28  1  0.710706  0.366019  0.943234  1
  S  S29  1  0.568041  0.331518  0.525164  1
  S  S30  1  0.289294  0.633981  0.056766  1
  S  S31  1  0.921009  0.247402  0.450106  1
  S  S32  1  0.676819  0.014271  0.557301  1
  S  S33  1  0.110736  0.630450  0.290653  1
  S  S34  1  0.068041  0.331518  0.974836  1
  S  S35  1  0.078991  0.752598  0.549894  1
  S  S36  1  0.852210  0.853056  0.808332  1
  S  S37  1  0.823181  0.985729  0.057301  1
  S  S38  1  0.147790  0.146944  0.191668  1
  S  S39  1  0.176819  0.014271  0.942699  1
  S  S40  1  0.421009  0.247402  0.049894  1
  S  S41  1  0.925255  0.908136  0.328809  1
  S  S42  1  0.352210  0.853056  0.691668  1
  S  S43  1  0.931959  0.668482  0.025164  1
