# generated using pymatgen
data_KVOF4
_symmetry_space_group_name_H-M   'P 1'
_cell_length_a   5.63582987
_cell_length_b   5.68323291
_cell_length_c   13.99731631
_cell_angle_alpha   90.00000000
_cell_angle_beta   90.00000000
_cell_angle_gamma   95.79308305
_symmetry_Int_Tables_number   1
_chemical_formula_structural   KVOF4
_chemical_formula_sum   'K4 V4 O4 F16'
_cell_volume   446.04064867
_cell_formula_units_Z   4
loop_
 _symmetry_equiv_pos_site_id
 _symmetry_equiv_pos_as_xyz
  1  'x, y, z'
loop_
 _atom_site_type_symbol
 _atom_site_label
 _atom_site_symmetry_multiplicity
 _atom_site_fract_x
 _atom_site_fract_y
 _atom_site_fract_z
 _atom_site_occupancy
  K  K0  1  0.545666  0.730540  0.122906  1
  K  K1  1  0.045666  0.730540  0.377094  1
  K  K2  1  0.454334  0.269460  0.877094  1
  K  K3  1  0.954334  0.269460  0.622906  1
  V  V4  1  0.555675  0.215962  0.353889  1
  V  V5  1  0.055675  0.215962  0.146111  1
  V  V6  1  0.444325  0.784038  0.646111  1
  V  V7  1  0.944325  0.784038  0.853889  1
  O  O8  1  0.335100  0.298532  0.413832  1
  O  O9  1  0.664900  0.701468  0.586168  1
  O  O10  1  0.835100  0.298532  0.086168  1
  O  O11  1  0.164900  0.701468  0.913832  1
  F  F12  1  0.436900  0.091627  0.607948  1
  F  F13  1  0.689496  0.703797  0.934612  1
  F  F14  1  0.603872  0.914122  0.755033  1
  F  F15  1  0.153484  0.480422  0.216889  1
  F  F16  1  0.346516  0.519578  0.716889  1
  F  F17  1  0.936900  0.091627  0.892052  1
  F  F18  1  0.103872  0.914122  0.744967  1
  F  F19  1  0.653484  0.480422  0.283111  1
  F  F20  1  0.063100  0.908373  0.107948  1
  F  F21  1  0.189496  0.703797  0.565388  1
  F  F22  1  0.896128  0.085878  0.255033  1
  F  F23  1  0.310504  0.296203  0.065388  1
  F  F24  1  0.810504  0.296203  0.434612  1
  F  F25  1  0.396128  0.085878  0.244967  1
  F  F26  1  0.846516  0.519578  0.783111  1
  F  F27  1  0.563100  0.908373  0.392052  1
