# generated using pymatgen
data_SiO2
_symmetry_space_group_name_H-M   'P 1'
_cell_length_a   11.00515130
_cell_length_b   11.00515172
_cell_length_c   11.00515151
_cell_angle_alpha   114.35565487
_cell_angle_beta   114.35565609
_cell_angle_gamma   114.35565893
_symmetry_Int_Tables_number   1
_chemical_formula_structural   SiO2
_chemical_formula_sum   'Si12 O24'
_cell_volume   787.97771806
_cell_formula_units_Z   12
loop_
 _symmetry_equiv_pos_site_id
 _symmetry_equiv_pos_as_xyz
  1  'x, y, z'
loop_
 _atom_site_type_symbol
 _atom_site_label
 _atom_site_symmetry_multiplicity
 _atom_site_fract_x
 _atom_site_fract_y
 _atom_site_fract_z
 _atom_site_occupancy
  Si  Si0  1  0.971699  0.138740  0.542860  1
  Si  Si1  1  0.138740  0.542860  0.971699  1
  Si  Si2  1  0.861260  0.457140  0.028301  1
  Si  Si3  1  0.957140  0.361260  0.528301  1
  Si  Si4  1  0.528301  0.957140  0.361260  1
  Si  Si5  1  0.361260  0.528301  0.957140  1
  Si  Si6  1  0.638740  0.471699  0.042860  1
  Si  Si7  1  0.471699  0.042860  0.638740  1
  Si  Si8  1  0.542860  0.971699  0.138740  1
  Si  Si9  1  0.457140  0.028301  0.861260  1
  Si  Si10  1  0.042860  0.638740  0.471699  1
  Si  Si11  1  0.028301  0.861260  0.457140  1
  O  O12  1  0.000000  0.000000  0.500000  1
  O  O13  1  0.750000  0.179875  0.320125  1
  O  O14  1  0.000000  0.500000  0.500000  1
  O  O15  1  0.179875  0.320125  0.750000  1
  O  O16  1  0.479309  0.020691  0.250000  1
  O  O17  1  0.966786  0.533214  0.250000  1
  O  O18  1  0.533214  0.250000  0.966786  1
  O  O19  1  0.750000  0.033214  0.466786  1
  O  O20  1  0.033214  0.466786  0.750000  1
  O  O21  1  0.250000  0.820125  0.679875  1
  O  O22  1  0.520691  0.979309  0.750000  1
  O  O23  1  0.020691  0.250000  0.479309  1
  O  O24  1  0.979309  0.750000  0.520691  1
  O  O25  1  0.320125  0.750000  0.179875  1
  O  O26  1  0.466786  0.750000  0.033214  1
  O  O27  1  0.500000  0.000000  0.500000  1
  O  O28  1  0.000000  0.500000  0.000000  1
  O  O29  1  0.500000  0.000000  0.000000  1
  O  O30  1  0.250000  0.966786  0.533214  1
  O  O31  1  0.250000  0.479309  0.020691  1
  O  O32  1  0.820125  0.679875  0.250000  1
  O  O33  1  0.679875  0.250000  0.820125  1
  O  O34  1  0.750000  0.520691  0.979309  1
  O  O35  1  0.500000  0.500000  0.000000  1
