# generated using pymatgen
data_H2O
_symmetry_space_group_name_H-M   'P 1'
_cell_length_a   3.96751249
_cell_length_b   8.12138675
_cell_length_c   8.32015926
_cell_angle_alpha   90.00229527
_cell_angle_beta   90.05835834
_cell_angle_gamma   90.01231274
_symmetry_Int_Tables_number   1
_chemical_formula_structural   H2O
_chemical_formula_sum   'H24 O12'
_cell_volume   268.08955805
_cell_formula_units_Z   12
loop_
 _symmetry_equiv_pos_site_id
 _symmetry_equiv_pos_as_xyz
  1  'x, y, z'
loop_
 _atom_site_type_symbol
 _atom_site_label
 _atom_site_symmetry_multiplicity
 _atom_site_fract_x
 _atom_site_fract_y
 _atom_site_fract_z
 _atom_site_occupancy
  H  H0  1  0.272578  0.076240  0.846779  1
  H  H1  1  0.638171  0.547401  0.406314  1
  H  H2  1  0.510172  0.660906  0.912995  1
  H  H3  1  0.190304  0.219621  0.727548  1
  H  H4  1  0.461901  0.224274  0.215648  1
  H  H5  1  0.896715  0.088475  0.466053  1
  H  H6  1  0.788196  0.724296  0.784671  1
  H  H7  1  0.112654  0.452833  0.905945  1
  H  H8  1  0.351589  0.588902  0.534314  1
  H  H9  1  0.740439  0.161047  0.087402  1
  H  H10  1  0.008603  0.839021  0.587300  1
  H  H11  1  0.609528  0.046744  0.593680  1
  H  H12  1  0.059466  0.720079  0.271939  1
  H  H13  1  0.772991  0.423391  0.652573  1
  H  H14  1  0.399118  0.411286  0.034214  1
  H  H15  1  0.559038  0.780165  0.227957  1
  H  H16  1  0.240843  0.339024  0.413206  1
  H  H17  1  0.852085  0.911663  0.966154  1
  H  H18  1  0.477209  0.923562  0.347168  1
  H  H19  1  0.690996  0.279691  0.771408  1
  H  H20  1  0.962181  0.275968  0.284809  1
  H  H21  1  0.139265  0.953463  0.093996  1
  H  H22  1  0.287827  0.776023  0.715556  1
  H  H23  1  0.977042  0.576507  0.152977  1
  O  O24  1  0.750311  0.998019  0.507007  1
  O  O25  1  0.252922  0.501707  0.992810  1
  O  O26  1  0.998273  0.002195  0.007215  1
  O  O27  1  0.879486  0.638220  0.245206  1
  O  O28  1  0.142523  0.239450  0.360639  1
  O  O29  1  0.871111  0.361319  0.744603  1
  O  O30  1  0.642277  0.260623  0.139885  1
  O  O31  1  0.498142  0.498578  0.493166  1
  O  O32  1  0.107354  0.739518  0.639789  1
  O  O33  1  0.370159  0.137761  0.754379  1
  O  O34  1  0.608017  0.760607  0.860510  1
  O  O35  1  0.379115  0.861823  0.254885  1
