# generated using pymatgen
data_K3Ta2Ag3Se8
_symmetry_space_group_name_H-M   'P 1'
_cell_length_a   6.17409208
_cell_length_b   13.23575439
_cell_length_c   14.38124497
_cell_angle_alpha   64.48062022
_cell_angle_beta   77.58341154
_cell_angle_gamma   76.51465361
_symmetry_Int_Tables_number   1
_chemical_formula_structural   K3Ta2Ag3Se8
_chemical_formula_sum   'K6 Ta4 Ag6 Se16'
_cell_volume   1022.49830938
_cell_formula_units_Z   2
loop_
 _symmetry_equiv_pos_site_id
 _symmetry_equiv_pos_as_xyz
  1  'x, y, z'
loop_
 _atom_site_type_symbol
 _atom_site_label
 _atom_site_symmetry_multiplicity
 _atom_site_fract_x
 _atom_site_fract_y
 _atom_site_fract_z
 _atom_site_occupancy
  K  K0  1  0.618301  0.715870  0.892585  1
  K  K1  1  0.381699  0.284130  0.107415  1
  K  K2  1  0.772909  0.215701  0.392675  1
  K  K3  1  0.000000  0.000000  0.000000  1
  K  K4  1  0.227091  0.784299  0.607325  1
  K  K5  1  0.000000  0.500000  0.500000  1
  Ta  Ta6  1  0.433362  0.525428  0.218707  1
  Ta  Ta7  1  0.822708  0.025365  0.718570  1
  Ta  Ta8  1  0.177292  0.974635  0.281430  1
  Ta  Ta9  1  0.566638  0.474572  0.781293  1
  Ag  Ag10  1  0.307699  0.750037  0.250023  1
  Ag  Ag11  1  0.323005  0.033139  0.709073  1
  Ag  Ag12  1  0.692301  0.249963  0.749977  1
  Ag  Ag13  1  0.934751  0.533109  0.209117  1
  Ag  Ag14  1  0.065249  0.466891  0.790883  1
  Ag  Ag15  1  0.676995  0.966861  0.290927  1
  Se  Se16  1  0.303931  0.031131  0.397120  1
  Se  Se17  1  0.482223  0.942084  0.151370  1
  Se  Se18  1  0.997840  0.805689  0.390127  1
  Se  Se19  1  0.517777  0.057916  0.848630  1
  Se  Se20  1  0.806210  0.305679  0.890018  1
  Se  Se21  1  0.764170  0.635982  0.682180  1
  Se  Se22  1  0.267763  0.531164  0.896972  1
  Se  Se23  1  0.575687  0.558117  0.348671  1
  Se  Se24  1  0.424313  0.441883  0.651329  1
  Se  Se25  1  0.732237  0.468836  0.103028  1
  Se  Se26  1  0.082340  0.863932  0.817698  1
  Se  Se27  1  0.002160  0.194311  0.609873  1
  Se  Se28  1  0.696069  0.968869  0.602880  1
  Se  Se29  1  0.193790  0.694321  0.109982  1
  Se  Se30  1  0.235830  0.364018  0.317820  1
  Se  Se31  1  0.917660  0.136068  0.182302  1
