# generated using pymatgen
data_SiSe2
_symmetry_space_group_name_H-M   'P 1'
_cell_length_a   7.04222609
_cell_length_b   6.25596847
_cell_length_c   7.20085384
_cell_angle_alpha   115.74653566
_cell_angle_beta   119.27392371
_cell_angle_gamma   90.00000240
_symmetry_Int_Tables_number   1
_chemical_formula_structural   SiSe2
_chemical_formula_sum   'Si2 Se4'
_cell_volume   239.97256814
_cell_formula_units_Z   2
loop_
 _symmetry_equiv_pos_site_id
 _symmetry_equiv_pos_as_xyz
  1  'x, y, z'
loop_
 _atom_site_type_symbol
 _atom_site_label
 _atom_site_symmetry_multiplicity
 _atom_site_fract_x
 _atom_site_fract_y
 _atom_site_fract_z
 _atom_site_occupancy
  Si  Si0  1  0.000000  0.000000  0.000000  1
  Si  Si1  1  0.500000  0.000000  0.000000  1
  Se  Se2  1  0.136760  0.369948  0.273520  1
  Se  Se3  1  0.363240  0.096428  0.726480  1
  Se  Se4  1  0.863240  0.630052  0.726480  1
  Se  Se5  1  0.636760  0.903572  0.273520  1
