# generated using pymatgen
data_Nd23Cd4Rh7
_symmetry_space_group_name_H-M   'P 1'
_cell_length_a   10.02300261
_cell_length_b   10.02300216
_cell_length_c   22.62376903
_cell_angle_alpha   90.00000000
_cell_angle_beta   90.00000000
_cell_angle_gamma   120.00000144
_symmetry_Int_Tables_number   1
_chemical_formula_structural   Nd23Cd4Rh7
_chemical_formula_sum   'Nd46 Cd8 Rh14'
_cell_volume   1968.29981340
_cell_formula_units_Z   2
loop_
 _symmetry_equiv_pos_site_id
 _symmetry_equiv_pos_as_xyz
  1  'x, y, z'
loop_
 _atom_site_type_symbol
 _atom_site_label
 _atom_site_symmetry_multiplicity
 _atom_site_fract_x
 _atom_site_fract_y
 _atom_site_fract_z
 _atom_site_occupancy
  Nd  Nd0  1  0.253686  0.126843  0.635513  1
  Nd  Nd1  1  0.458567  0.917134  0.856335  1
  Nd  Nd2  1  0.746314  0.873157  0.135513  1
  Nd  Nd3  1  0.792359  0.207641  0.947159  1
  Nd  Nd4  1  0.082866  0.541433  0.856335  1
  Nd  Nd5  1  0.460070  0.920139  0.585390  1
  Nd  Nd6  1  0.539930  0.079861  0.085390  1
  Nd  Nd7  1  0.873157  0.126843  0.635513  1
  Nd  Nd8  1  0.798378  0.201622  0.782857  1
  Nd  Nd9  1  0.415281  0.207641  0.947159  1
  Nd  Nd10  1  0.458567  0.541433  0.856335  1
  Nd  Nd11  1  0.585049  0.792524  0.721094  1
  Nd  Nd12  1  0.541433  0.082866  0.356335  1
  Nd  Nd13  1  0.920139  0.460070  0.085390  1
  Nd  Nd14  1  0.790678  0.581357  0.489506  1
  Nd  Nd15  1  0.792524  0.585049  0.221094  1
  Nd  Nd16  1  0.790678  0.209322  0.489506  1
  Nd  Nd17  1  0.917134  0.458567  0.356335  1
  Nd  Nd18  1  0.207641  0.415281  0.447159  1
  Nd  Nd19  1  0.403244  0.201622  0.782857  1
  Nd  Nd20  1  0.414951  0.207476  0.221094  1
  Nd  Nd21  1  0.541433  0.458567  0.356335  1
  Nd  Nd22  1  0.666667  0.333333  0.645188  1
  Nd  Nd23  1  0.000000  0.000000  0.495114  1
  Nd  Nd24  1  0.798378  0.596756  0.782857  1
  Nd  Nd25  1  0.207641  0.792359  0.447159  1
  Nd  Nd26  1  0.792359  0.584719  0.947159  1
  Nd  Nd27  1  0.126843  0.253686  0.135513  1
  Nd  Nd28  1  0.873157  0.746314  0.635513  1
  Nd  Nd29  1  0.079861  0.539930  0.585390  1
  Nd  Nd30  1  0.209322  0.790678  0.989506  1
  Nd  Nd31  1  0.596756  0.798378  0.282857  1
  Nd  Nd32  1  0.584719  0.792359  0.447159  1
  Nd  Nd33  1  0.207476  0.414951  0.721094  1
  Nd  Nd34  1  0.539930  0.460070  0.085390  1
  Nd  Nd35  1  0.207476  0.792524  0.721094  1
  Nd  Nd36  1  0.418643  0.209322  0.489506  1
  Nd  Nd37  1  0.460070  0.539930  0.585390  1
  Nd  Nd38  1  0.209322  0.418643  0.989506  1
  Nd  Nd39  1  0.000000  0.000000  0.995114  1
  Nd  Nd40  1  0.581357  0.790678  0.989506  1
  Nd  Nd41  1  0.201622  0.798378  0.282857  1
  Nd  Nd42  1  0.201622  0.403244  0.282857  1
  Nd  Nd43  1  0.792524  0.207476  0.221094  1
  Nd  Nd44  1  0.126843  0.873157  0.135513  1
  Nd  Nd45  1  0.333333  0.666667  0.145188  1
  Cd  Cd46  1  0.215123  0.107562  0.362919  1
  Cd  Cd47  1  0.784877  0.892438  0.862919  1
  Cd  Cd48  1  0.107562  0.892438  0.862919  1
  Cd  Cd49  1  0.107562  0.215123  0.862919  1
  Cd  Cd50  1  0.892438  0.107562  0.362919  1
  Cd  Cd51  1  0.892438  0.784877  0.362919  1
  Cd  Cd52  1  0.000000  0.000000  0.249031  1
  Cd  Cd53  1  0.000000  0.000000  0.749031  1
  Rh  Rh54  1  0.521678  0.043356  0.710982  1
  Rh  Rh55  1  0.285161  0.142581  0.062667  1
  Rh  Rh56  1  0.857419  0.142581  0.062667  1
  Rh  Rh57  1  0.142581  0.285161  0.562667  1
  Rh  Rh58  1  0.043356  0.521678  0.210982  1
  Rh  Rh59  1  0.478322  0.956644  0.210982  1
  Rh  Rh60  1  0.857419  0.714839  0.062667  1
  Rh  Rh61  1  0.333333  0.666667  0.363083  1
  Rh  Rh62  1  0.142581  0.857419  0.562667  1
  Rh  Rh63  1  0.478322  0.521678  0.210982  1
  Rh  Rh64  1  0.521678  0.478322  0.710982  1
  Rh  Rh65  1  0.714839  0.857419  0.562667  1
  Rh  Rh66  1  0.956644  0.478322  0.710982  1
  Rh  Rh67  1  0.666667  0.333333  0.863083  1
