# generated using pymatgen
data_RbMnF4
_symmetry_space_group_name_H-M   'P 1'
_cell_length_a   6.17260756
_cell_length_b   7.95909291
_cell_length_c   7.98494931
_cell_angle_alpha   90.00000000
_cell_angle_beta   90.94855310
_cell_angle_gamma   90.00000000
_symmetry_Int_Tables_number   1
_chemical_formula_structural   RbMnF4
_chemical_formula_sum   'Rb4 Mn4 F16'
_cell_volume   392.23368313
_cell_formula_units_Z   4
loop_
 _symmetry_equiv_pos_site_id
 _symmetry_equiv_pos_as_xyz
  1  'x, y, z'
loop_
 _atom_site_type_symbol
 _atom_site_label
 _atom_site_symmetry_multiplicity
 _atom_site_fract_x
 _atom_site_fract_y
 _atom_site_fract_z
 _atom_site_occupancy
  F  F0  1  0.715569  0.064699  0.954217  1
  F  F1  1  0.714778  0.049591  0.552347  1
  F  F2  1  0.285222  0.549591  0.947653  1
  F  F3  1  0.285222  0.950409  0.447653  1
  F  F4  1  0.904109  0.769817  0.997653  1
  F  F5  1  0.095891  0.269817  0.502347  1
  F  F6  1  0.095891  0.230183  0.002347  1
  F  F7  1  0.904109  0.730183  0.497653  1
  F  F8  1  0.079282  0.985799  0.732795  1
  F  F9  1  0.920718  0.485799  0.767205  1
  F  F10  1  0.920718  0.014201  0.267205  1
  F  F11  1  0.079282  0.514201  0.232795  1
  F  F12  1  0.715569  0.435301  0.454217  1
  F  F13  1  0.284431  0.564699  0.545783  1
  F  F14  1  0.284431  0.935301  0.045783  1
  F  F15  1  0.714778  0.450409  0.052347  1
  Mn  Mn16  1  0.000000  0.000000  0.000000  1
  Mn  Mn17  1  0.000000  0.000000  0.500000  1
  Mn  Mn18  1  0.000000  0.500000  0.000000  1
  Mn  Mn19  1  0.000000  0.500000  0.500000  1
  Rb  Rb20  1  0.511553  0.704070  0.253724  1
  Rb  Rb21  1  0.488447  0.204070  0.246276  1
  Rb  Rb22  1  0.488447  0.295930  0.746276  1
  Rb  Rb23  1  0.511553  0.795930  0.753724  1
