# generated using pymatgen
data_CuSb2(XeF5)4
_symmetry_space_group_name_H-M   'P 1'
_cell_length_a   8.49281872
_cell_length_b   9.07008231
_cell_length_c   9.07008269
_cell_angle_alpha   77.33852100
_cell_angle_beta   62.08393181
_cell_angle_gamma   62.08393116
_symmetry_Int_Tables_number   1
_chemical_formula_structural   CuSb2(XeF5)4
_chemical_formula_sum   'Cu1 Sb2 Xe4 F20'
_cell_volume   545.53111184
_cell_formula_units_Z   1
loop_
 _symmetry_equiv_pos_site_id
 _symmetry_equiv_pos_as_xyz
  1  'x, y, z'
loop_
 _atom_site_type_symbol
 _atom_site_label
 _atom_site_symmetry_multiplicity
 _atom_site_fract_x
 _atom_site_fract_y
 _atom_site_fract_z
 _atom_site_occupancy
  Cu  Cu0  1  0.500000  0.000000  0.000000  1
  Sb  Sb1  1  0.750000  0.500000  0.500000  1
  Sb  Sb2  1  0.000000  0.000000  0.000000  1
  Xe  Xe3  1  0.905673  0.884278  0.580971  1
  Xe  Xe4  1  0.210049  0.419029  0.884278  1
  Xe  Xe5  1  0.370922  0.115722  0.419029  1
  Xe  Xe6  1  0.513356  0.580971  0.115722  1
  F  F7  1  0.654075  0.865894  0.800035  1
  F  F8  1  0.614600  0.523254  0.738554  1
  F  F9  1  0.961160  0.618912  0.890875  1
  F  F10  1  0.646846  0.738554  0.476746  1
  F  F11  1  0.078945  0.773811  0.076436  1
  F  F12  1  0.862146  0.261446  0.523254  1
  F  F13  1  0.419928  0.109125  0.618912  1
  F  F14  1  0.470948  0.381088  0.109125  1
  F  F15  1  0.977198  0.500000  0.500000  1
  F  F16  1  0.929192  0.226189  0.923564  1
  F  F17  1  0.522802  0.500000  0.500000  1
  F  F18  1  0.545891  0.800035  0.134106  1
  F  F19  1  0.770806  1.000000  1.000000  1
  F  F20  1  0.480031  0.199965  0.865894  1
  F  F21  1  0.147245  0.923564  0.773811  1
  F  F22  1  0.147965  0.890875  0.381088  1
  F  F23  1  0.320004  0.134106  0.199965  1
  F  F24  1  0.876409  0.476746  0.261446  1
  F  F25  1  0.844619  0.076436  0.226189  1
  F  F26  1  0.229194  0.000000  0.000000  1
