# generated using pymatgen
data_SrMo2(AsO6)2
_symmetry_space_group_name_H-M   'P 1'
_cell_length_a   6.68398523
_cell_length_b   7.04030198
_cell_length_c   10.68631101
_cell_angle_alpha   90.00000000
_cell_angle_beta   91.39615000
_cell_angle_gamma   90.00000000
_symmetry_Int_Tables_number   1
_chemical_formula_structural   SrMo2(AsO6)2
_chemical_formula_sum   'Sr2 Mo4 As4 O24'
_cell_volume   502.71938313
_cell_formula_units_Z   2
loop_
 _symmetry_equiv_pos_site_id
 _symmetry_equiv_pos_as_xyz
  1  'x, y, z'
loop_
 _atom_site_type_symbol
 _atom_site_label
 _atom_site_symmetry_multiplicity
 _atom_site_fract_x
 _atom_site_fract_y
 _atom_site_fract_z
 _atom_site_occupancy
  Sr  Sr0  1  0.500000  0.000000  0.500000  1
  Sr  Sr1  1  0.500000  0.500000  0.000000  1
  Mo  Mo2  1  0.249012  0.046808  0.835703  1
  Mo  Mo3  1  0.750988  0.546808  0.664297  1
  Mo  Mo4  1  0.750988  0.953192  0.164297  1
  Mo  Mo5  1  0.249012  0.453192  0.335703  1
  As  As6  1  0.257193  0.042200  0.155242  1
  As  As7  1  0.742807  0.542200  0.344758  1
  As  As8  1  0.742807  0.957800  0.844758  1
  As  As9  1  0.257193  0.457800  0.655242  1
  O  O10  1  0.276628  0.185461  0.026615  1
  O  O11  1  0.723372  0.685461  0.473385  1
  O  O12  1  0.723372  0.814539  0.973385  1
  O  O13  1  0.276628  0.314540  0.526615  1
  O  O14  1  0.451971  0.880607  0.159973  1
  O  O15  1  0.548029  0.380607  0.340027  1
  O  O16  1  0.548029  0.119393  0.840027  1
  O  O17  1  0.451971  0.619393  0.659973  1
  O  O18  1  0.039541  0.909780  0.140513  1
  O  O19  1  0.960459  0.409780  0.359487  1
  O  O20  1  0.960459  0.090220  0.859487  1
  O  O21  1  0.039541  0.590220  0.640513  1
  O  O22  1  0.257933  0.147575  0.300292  1
  O  O23  1  0.742067  0.647575  0.199708  1
  O  O24  1  0.742067  0.852425  0.699708  1
  O  O25  1  0.257933  0.352425  0.800292  1
  O  O26  1  0.285585  0.823055  0.903225  1
  O  O27  1  0.714415  0.323055  0.596775  1
  O  O28  1  0.714415  0.176945  0.096775  1
  O  O29  1  0.285585  0.676945  0.403225  1
  O  O30  1  0.244498  0.993316  0.676774  1
  O  O31  1  0.755502  0.493316  0.823226  1
  O  O32  1  0.755502  0.006684  0.323226  1
  O  O33  1  0.244498  0.506684  0.176774  1
