# generated using pymatgen
data_La3MoO7
_symmetry_space_group_name_H-M   'P 1'
_cell_length_a   7.73158705
_cell_length_b   7.77972592
_cell_length_c   11.15552289
_cell_angle_alpha   90.00000000
_cell_angle_beta   90.00000000
_cell_angle_gamma   90.00000000
_symmetry_Int_Tables_number   1
_chemical_formula_structural   La3MoO7
_chemical_formula_sum   'La12 Mo4 O28'
_cell_volume   671.00055394
_cell_formula_units_Z   4
loop_
 _symmetry_equiv_pos_site_id
 _symmetry_equiv_pos_as_xyz
  1  'x, y, z'
loop_
 _atom_site_type_symbol
 _atom_site_label
 _atom_site_symmetry_multiplicity
 _atom_site_fract_x
 _atom_site_fract_y
 _atom_site_fract_z
 _atom_site_occupancy
  O  O0  1  0.512755  0.240695  0.119347  1
  O  O1  1  0.012755  0.259305  0.880653  1
  O  O2  1  0.487245  0.740695  0.380653  1
  O  O3  1  0.987245  0.759305  0.619347  1
  O  O4  1  0.533589  0.253266  0.382601  1
  O  O5  1  0.033589  0.246734  0.617399  1
  O  O6  1  0.466411  0.753266  0.117399  1
  O  O7  1  0.966411  0.746734  0.882601  1
  O  O8  1  0.310183  0.970550  0.867740  1
  O  O9  1  0.810183  0.529450  0.132260  1
  O  O10  1  0.689817  0.470550  0.632260  1
  O  O11  1  0.189817  0.029450  0.367740  1
  O  O12  1  0.685501  0.031161  0.875592  1
  O  O13  1  0.185501  0.468839  0.124408  1
  O  O14  1  0.314499  0.531161  0.624408  1
  O  O15  1  0.814499  0.968839  0.375592  1
  O  O16  1  0.556053  0.747110  0.757870  1
  O  O17  1  0.056053  0.752890  0.242130  1
  O  O18  1  0.443947  0.247110  0.742130  1
  O  O19  1  0.943947  0.252890  0.257870  1
  O  O20  1  0.791678  0.970395  0.131853  1
  O  O21  1  0.291678  0.529605  0.868147  1
  O  O22  1  0.208322  0.470395  0.368147  1
  O  O23  1  0.708322  0.029605  0.631853  1
  O  O24  1  0.143480  0.040854  0.107860  1
  O  O25  1  0.643480  0.459146  0.892140  1
  O  O26  1  0.856520  0.540854  0.392140  1
  O  O27  1  0.356520  0.959146  0.607860  1
  Mo  Mo28  1  0.499512  0.997713  0.749187  1
  Mo  Mo29  1  0.999512  0.502287  0.250813  1
  Mo  Mo30  1  0.500488  0.497713  0.750813  1
  Mo  Mo31  1  0.000488  0.002287  0.249187  1
  La  La32  1  0.792329  0.248347  0.027271  1
  La  La33  1  0.292329  0.251653  0.972729  1
  La  La34  1  0.207671  0.748347  0.472729  1
  La  La35  1  0.707671  0.751653  0.527271  1
  La  La36  1  0.529310  0.992485  0.254224  1
  La  La37  1  0.029310  0.507515  0.745776  1
  La  La38  1  0.470690  0.492485  0.245776  1
  La  La39  1  0.970690  0.007515  0.754224  1
  La  La40  1  0.698729  0.748040  0.981134  1
  La  La41  1  0.198729  0.751960  0.018866  1
  La  La42  1  0.301271  0.248040  0.518866  1
  La  La43  1  0.801271  0.251960  0.481134  1
