# generated using pymatgen
data_CrBiO3
_symmetry_space_group_name_H-M   'P 1'
_cell_length_a   5.58713588
_cell_length_b   5.58713603
_cell_length_c   5.58713635
_cell_angle_alpha   60.14529329
_cell_angle_beta   60.14529238
_cell_angle_gamma   60.14529034
_symmetry_Int_Tables_number   1
_chemical_formula_structural   CrBiO3
_chemical_formula_sum   'Cr2 Bi2 O6'
_cell_volume   123.73133875
_cell_formula_units_Z   2
loop_
 _symmetry_equiv_pos_site_id
 _symmetry_equiv_pos_as_xyz
  1  'x, y, z'
loop_
 _atom_site_type_symbol
 _atom_site_label
 _atom_site_symmetry_multiplicity
 _atom_site_fract_x
 _atom_site_fract_y
 _atom_site_fract_z
 _atom_site_occupancy
  Cr  Cr0  1  0.228639  0.228639  0.228639  1
  Cr  Cr1  1  0.728639  0.728639  0.728639  1
  Bi  Bi2  1  0.503314  0.503314  0.503314  1
  Bi  Bi3  1  0.003314  0.003314  0.003314  1
  O  O4  1  0.402554  0.549948  0.948545  1
  O  O5  1  0.049948  0.902554  0.448545  1
  O  O6  1  0.902554  0.448545  0.049948  1
  O  O7  1  0.448545  0.049948  0.902554  1
  O  O8  1  0.948545  0.402554  0.549948  1
  O  O9  1  0.549948  0.948545  0.402554  1
