# generated using pymatgen
data_Tl2S7N8
_symmetry_space_group_name_H-M   'P 1'
_cell_length_a   9.65174912
_cell_length_b   11.72308689
_cell_length_c   12.18492966
_cell_angle_alpha   90.00000000
_cell_angle_beta   90.00000000
_cell_angle_gamma   90.00000000
_symmetry_Int_Tables_number   1
_chemical_formula_structural   Tl2S7N8
_chemical_formula_sum   'Tl8 S28 N32'
_cell_volume   1378.70399835
_cell_formula_units_Z   4
loop_
 _symmetry_equiv_pos_site_id
 _symmetry_equiv_pos_as_xyz
  1  'x, y, z'
loop_
 _atom_site_type_symbol
 _atom_site_label
 _atom_site_symmetry_multiplicity
 _atom_site_fract_x
 _atom_site_fract_y
 _atom_site_fract_z
 _atom_site_occupancy
  N  N0  1  0.750000  0.187448  0.046691  1
  N  N1  1  0.250000  0.812552  0.953309  1
  N  N2  1  0.750000  0.687448  0.453309  1
  N  N3  1  0.250000  0.312552  0.546691  1
  N  N4  1  0.750000  0.981761  0.158146  1
  N  N5  1  0.250000  0.018239  0.841854  1
  N  N6  1  0.750000  0.481761  0.341854  1
  N  N7  1  0.250000  0.518239  0.658146  1
  N  N8  1  0.750000  0.183170  0.274147  1
  N  N9  1  0.250000  0.816830  0.725853  1
  N  N10  1  0.750000  0.683170  0.225853  1
  N  N11  1  0.250000  0.316830  0.774147  1
  N  N12  1  0.750000  0.596396  0.926220  1
  N  N13  1  0.250000  0.403604  0.073780  1
  N  N14  1  0.750000  0.096396  0.573780  1
  N  N15  1  0.250000  0.903604  0.426220  1
  N  N16  1  0.616790  0.407921  0.855490  1
  N  N17  1  0.116790  0.592079  0.144510  1
  N  N18  1  0.883210  0.907921  0.644510  1
  N  N19  1  0.383210  0.092079  0.355490  1
  N  N20  1  0.383210  0.592079  0.144510  1
  N  N21  1  0.883210  0.407921  0.855490  1
  N  N22  1  0.116790  0.092079  0.355490  1
  N  N23  1  0.616790  0.907921  0.644510  1
  N  N24  1  0.616333  0.600636  0.731583  1
  N  N25  1  0.116333  0.399364  0.268417  1
  N  N26  1  0.883667  0.100636  0.768417  1
  N  N27  1  0.383667  0.899364  0.231583  1
  N  N28  1  0.383667  0.399364  0.268417  1
  N  N29  1  0.883667  0.600636  0.731583  1
  N  N30  1  0.116333  0.899364  0.231583  1
  N  N31  1  0.616333  0.100636  0.768417  1
  S  S32  1  0.750000  0.044088  0.277122  1
  S  S33  1  0.250000  0.955912  0.722878  1
  S  S34  1  0.750000  0.544088  0.222878  1
  S  S35  1  0.250000  0.455912  0.777122  1
  S  S36  1  0.750000  0.047868  0.040350  1
  S  S37  1  0.250000  0.952132  0.959650  1
  S  S38  1  0.750000  0.547868  0.459650  1
  S  S39  1  0.250000  0.452132  0.540350  1
  S  S40  1  0.750000  0.260473  0.161731  1
  S  S41  1  0.250000  0.739527  0.838269  1
  S  S42  1  0.750000  0.760473  0.338269  1
  S  S43  1  0.250000  0.239527  0.661731  1
  S  S44  1  0.750000  0.653953  0.802311  1
  S  S45  1  0.250000  0.346047  0.197689  1
  S  S46  1  0.750000  0.153953  0.697689  1
  S  S47  1  0.250000  0.846047  0.302311  1
  S  S48  1  0.750000  0.455521  0.930706  1
  S  S49  1  0.250000  0.544479  0.069294  1
  S  S50  1  0.750000  0.955521  0.569294  1
  S  S51  1  0.250000  0.044479  0.430706  1
  S  S52  1  0.607708  0.462188  0.732938  1
  S  S53  1  0.107708  0.537812  0.267062  1
  S  S54  1  0.892292  0.962188  0.767062  1
  S  S55  1  0.392292  0.037812  0.232938  1
  S  S56  1  0.392292  0.537812  0.267062  1
  S  S57  1  0.892292  0.462188  0.732938  1
  S  S58  1  0.107708  0.037812  0.232938  1
  S  S59  1  0.607708  0.962188  0.767062  1
  Tl  Tl60  1  0.467623  0.223430  0.933303  1
  Tl  Tl61  1  0.967623  0.776570  0.066697  1
  Tl  Tl62  1  0.032377  0.723430  0.566697  1
  Tl  Tl63  1  0.532377  0.276570  0.433303  1
  Tl  Tl64  1  0.532377  0.776570  0.066697  1
  Tl  Tl65  1  0.032377  0.223430  0.933303  1
  Tl  Tl66  1  0.967623  0.276570  0.433303  1
  Tl  Tl67  1  0.467623  0.723430  0.566697  1
