# generated using pymatgen
data_SiO2
_symmetry_space_group_name_H-M   'P 1'
_cell_length_a   12.64648867
_cell_length_b   12.64648867
_cell_length_c   12.64648867
_cell_angle_alpha   90.00000000
_cell_angle_beta   90.00000000
_cell_angle_gamma   90.00000000
_symmetry_Int_Tables_number   1
_chemical_formula_structural   SiO2
_chemical_formula_sum   'Si48 O96'
_cell_volume   2022.59941744
_cell_formula_units_Z   48
loop_
 _symmetry_equiv_pos_site_id
 _symmetry_equiv_pos_as_xyz
  1  'x, y, z'
loop_
 _atom_site_type_symbol
 _atom_site_label
 _atom_site_symmetry_multiplicity
 _atom_site_fract_x
 _atom_site_fract_y
 _atom_site_fract_z
 _atom_site_occupancy
  Si  Si0  1  0.939252  0.764362  0.404444  1
  Si  Si1  1  0.939252  0.095556  0.735638  1
  Si  Si2  1  0.404444  0.735638  0.560748  1
  Si  Si3  1  0.939252  0.404444  0.764362  1
  Si  Si4  1  0.764362  0.939252  0.404444  1
  Si  Si5  1  0.735638  0.404444  0.560748  1
  Si  Si6  1  0.404444  0.764362  0.939252  1
  Si  Si7  1  0.060748  0.235638  0.595556  1
  Si  Si8  1  0.095556  0.764362  0.560748  1
  Si  Si9  1  0.439252  0.595556  0.264362  1
  Si  Si10  1  0.235638  0.060748  0.595556  1
  Si  Si11  1  0.095556  0.735638  0.939252  1
  Si  Si12  1  0.404444  0.939252  0.764362  1
  Si  Si13  1  0.735638  0.560748  0.404444  1
  Si  Si14  1  0.264362  0.904444  0.060748  1
  Si  Si15  1  0.595556  0.264362  0.439252  1
  Si  Si16  1  0.735638  0.095556  0.939252  1
  Si  Si17  1  0.560748  0.735638  0.404444  1
  Si  Si18  1  0.764362  0.560748  0.095556  1
  Si  Si19  1  0.264362  0.595556  0.439252  1
  Si  Si20  1  0.060748  0.595556  0.235638  1
  Si  Si21  1  0.439252  0.264362  0.595556  1
  Si  Si22  1  0.764362  0.404444  0.939252  1
  Si  Si23  1  0.439252  0.235638  0.904444  1
  Si  Si24  1  0.095556  0.939252  0.735638  1
  Si  Si25  1  0.560748  0.764362  0.095556  1
  Si  Si26  1  0.904444  0.439252  0.235638  1
  Si  Si27  1  0.235638  0.595556  0.060748  1
  Si  Si28  1  0.060748  0.904444  0.264362  1
  Si  Si29  1  0.560748  0.095556  0.764362  1
  Si  Si30  1  0.595556  0.439252  0.264362  1
  Si  Si31  1  0.404444  0.560748  0.735638  1
  Si  Si32  1  0.904444  0.264362  0.060748  1
  Si  Si33  1  0.264362  0.060748  0.904444  1
  Si  Si34  1  0.595556  0.060748  0.235638  1
  Si  Si35  1  0.235638  0.439252  0.904444  1
  Si  Si36  1  0.560748  0.404444  0.735638  1
  Si  Si37  1  0.904444  0.235638  0.439252  1
  Si  Si38  1  0.764362  0.095556  0.560748  1
  Si  Si39  1  0.264362  0.439252  0.595556  1
  Si  Si40  1  0.735638  0.939252  0.095556  1
  Si  Si41  1  0.095556  0.560748  0.764362  1
  Si  Si42  1  0.595556  0.235638  0.060748  1
  Si  Si43  1  0.439252  0.904444  0.235638  1
  Si  Si44  1  0.235638  0.904444  0.439252  1
  Si  Si45  1  0.939252  0.735638  0.095556  1
  Si  Si46  1  0.060748  0.264362  0.904444  1
  Si  Si47  1  0.904444  0.060748  0.264362  1
  O  O48  1  0.832622  0.332622  0.500000  1
  O  O49  1  0.815568  0.099326  0.684432  1
  O  O50  1  0.028259  0.471741  0.262652  1
  O  O51  1  0.133025  0.633026  0.000000  1
  O  O52  1  0.099326  0.815568  0.684432  1
  O  O53  1  0.737348  0.528259  0.971741  1
  O  O54  1  0.815568  0.684432  0.099326  1
  O  O55  1  0.366974  0.500000  0.633026  1
  O  O56  1  0.528259  0.528259  0.762652  1
  O  O57  1  0.000000  0.366974  0.866974  1
  O  O58  1  0.528259  0.737348  0.971741  1
  O  O59  1  0.366974  0.866974  0.000000  1
  O  O60  1  0.262652  0.028259  0.471741  1
  O  O61  1  0.028259  0.237348  0.028259  1
  O  O62  1  0.599326  0.315568  0.315568  1
  O  O63  1  0.471741  0.471741  0.237348  1
  O  O64  1  0.900674  0.315568  0.184432  1
  O  O65  1  0.737348  0.971741  0.528259  1
  O  O66  1  0.500000  0.866974  0.133025  1
  O  O67  1  0.400674  0.815568  0.815568  1
  O  O68  1  0.832622  0.000000  0.167378  1
  O  O69  1  0.184432  0.599326  0.184432  1
  O  O70  1  0.400674  0.684432  0.684432  1
  O  O71  1  0.315568  0.900674  0.184432  1
  O  O72  1  0.000000  0.832622  0.167378  1
  O  O73  1  0.815568  0.815568  0.400674  1
  O  O74  1  0.500000  0.366974  0.633026  1
  O  O75  1  0.184432  0.315568  0.900674  1
  O  O76  1  0.684432  0.400674  0.684432  1
  O  O77  1  0.500000  0.667378  0.167378  1
  O  O78  1  0.366974  0.000000  0.866974  1
  O  O79  1  0.332622  0.500000  0.832622  1
  O  O80  1  0.167378  0.500000  0.667378  1
  O  O81  1  0.633026  0.366974  0.500000  1
  O  O82  1  0.500000  0.832622  0.332622  1
  O  O83  1  0.237348  0.471741  0.471741  1
  O  O84  1  0.528259  0.762652  0.528259  1
  O  O85  1  0.315568  0.599326  0.315568  1
  O  O86  1  0.167378  0.000000  0.832622  1
  O  O87  1  0.471741  0.237348  0.471741  1
  O  O88  1  0.184432  0.900674  0.315568  1
  O  O89  1  0.471741  0.028259  0.262652  1
  O  O90  1  0.633026  0.500000  0.366974  1
  O  O91  1  0.262652  0.471741  0.028259  1
  O  O92  1  0.667378  0.167378  0.500000  1
  O  O93  1  0.832622  0.167378  0.000000  1
  O  O94  1  0.500000  0.633026  0.366974  1
  O  O95  1  0.332622  0.000000  0.667378  1
  O  O96  1  0.815568  0.400674  0.815568  1
  O  O97  1  0.237348  0.028259  0.028259  1
  O  O98  1  0.667378  0.332622  0.000000  1
  O  O99  1  0.762652  0.528259  0.528259  1
  O  O100  1  0.133025  0.866974  0.500000  1
  O  O101  1  0.684432  0.815568  0.099326  1
  O  O102  1  0.667378  0.500000  0.167378  1
  O  O103  1  0.000000  0.667378  0.332622  1
  O  O104  1  0.971741  0.528259  0.737348  1
  O  O105  1  0.332622  0.667378  0.000000  1
  O  O106  1  0.900674  0.184432  0.315568  1
  O  O107  1  0.133025  0.000000  0.633026  1
  O  O108  1  0.500000  0.167378  0.667378  1
  O  O109  1  0.028259  0.262652  0.471741  1
  O  O110  1  0.028259  0.028259  0.237348  1
  O  O111  1  0.684432  0.099326  0.815568  1
  O  O112  1  0.099326  0.684432  0.815568  1
  O  O113  1  0.500000  0.332622  0.832622  1
  O  O114  1  0.684432  0.684432  0.400674  1
  O  O115  1  0.500000  0.133025  0.866974  1
  O  O116  1  0.000000  0.133025  0.633026  1
  O  O117  1  0.866974  0.500000  0.133025  1
  O  O118  1  0.000000  0.332622  0.667378  1
  O  O119  1  0.599326  0.184432  0.184432  1
  O  O120  1  0.633026  0.133025  0.000000  1
  O  O121  1  0.167378  0.667378  0.500000  1
  O  O122  1  0.866974  0.133025  0.500000  1
  O  O123  1  0.762652  0.971741  0.971741  1
  O  O124  1  0.000000  0.167378  0.832622  1
  O  O125  1  0.366974  0.633026  0.500000  1
  O  O126  1  0.133025  0.500000  0.866974  1
  O  O127  1  0.315568  0.184432  0.900674  1
  O  O128  1  0.866974  0.000000  0.366974  1
  O  O129  1  0.167378  0.832622  0.000000  1
  O  O130  1  0.633026  0.000000  0.133025  1
  O  O131  1  0.971741  0.971741  0.762652  1
  O  O132  1  0.866974  0.366974  0.000000  1
  O  O133  1  0.471741  0.262652  0.028259  1
  O  O134  1  0.832622  0.500000  0.332622  1
  O  O135  1  0.528259  0.971741  0.737348  1
  O  O136  1  0.971741  0.762652  0.971741  1
  O  O137  1  0.971741  0.737348  0.528259  1
  O  O138  1  0.184432  0.184432  0.599326  1
  O  O139  1  0.000000  0.633026  0.133025  1
  O  O140  1  0.000000  0.866974  0.366974  1
  O  O141  1  0.315568  0.315568  0.599326  1
  O  O142  1  0.332622  0.832622  0.500000  1
  O  O143  1  0.667378  0.000000  0.332622  1
