# generated using pymatgen
data_Cs3Ga2F9
_symmetry_space_group_name_H-M   'P 1'
_cell_length_a   11.11359761
_cell_length_b   11.11359757
_cell_length_c   15.21529944
_cell_angle_alpha   90.00000000
_cell_angle_beta   90.00000000
_cell_angle_gamma   120.00000010
_symmetry_Int_Tables_number   1
_chemical_formula_structural   Cs3Ga2F9
_chemical_formula_sum   'Cs18 Ga12 F54'
_cell_volume   1627.49802340
_cell_formula_units_Z   6
loop_
 _symmetry_equiv_pos_site_id
 _symmetry_equiv_pos_as_xyz
  1  'x, y, z'
loop_
 _atom_site_type_symbol
 _atom_site_label
 _atom_site_symmetry_multiplicity
 _atom_site_fract_x
 _atom_site_fract_y
 _atom_site_fract_z
 _atom_site_occupancy
  Cs  Cs0  1  0.680267  0.680267  0.182001  1
  Cs  Cs1  1  0.655395  0.655395  0.499478  1
  Cs  Cs2  1  1.000000  0.680267  0.682001  1
  Cs  Cs3  1  0.319733  0.000000  0.182001  1
  Cs  Cs4  1  1.000000  0.662831  0.352024  1
  Cs  Cs5  1  0.319733  0.319733  0.682001  1
  Cs  Cs6  1  0.344605  0.000000  0.499478  1
  Cs  Cs7  1  0.655395  0.000000  0.999478  1
  Cs  Cs8  1  0.000000  0.344605  0.499478  1
  Cs  Cs9  1  0.662831  0.000000  0.352024  1
  Cs  Cs10  1  0.337169  0.000000  0.852024  1
  Cs  Cs11  1  0.662831  0.662831  0.852024  1
  Cs  Cs12  1  0.680267  0.000000  0.682001  1
  Cs  Cs13  1  0.000000  0.319733  0.182001  1
  Cs  Cs14  1  0.000000  0.337169  0.852024  1
  Cs  Cs15  1  0.344605  0.344605  0.999478  1
  Cs  Cs16  1  0.337169  0.337169  0.352024  1
  Cs  Cs17  1  1.000000  0.655395  0.999478  1
  Ga  Ga18  1  0.000000  0.000000  0.406980  1
  Ga  Ga19  1  0.666667  0.333333  0.274084  1
  Ga  Ga20  1  0.000000  0.000000  0.906980  1
  Ga  Ga21  1  0.333333  0.666667  0.274084  1
  Ga  Ga22  1  0.333333  0.666667  0.584120  1
  Ga  Ga23  1  0.333333  0.666667  0.084120  1
  Ga  Ga24  1  0.666667  0.333333  0.584120  1
  Ga  Ga25  1  0.666667  0.333333  0.774084  1
  Ga  Ga26  1  0.333333  0.666667  0.774084  1
  Ga  Ga27  1  0.000000  0.000000  0.096949  1
  Ga  Ga28  1  0.666667  0.333333  0.084120  1
  Ga  Ga29  1  0.000000  0.000000  0.596949  1
  F  F30  1  0.186251  0.517455  0.330650  1
  F  F31  1  0.201106  0.663616  0.179455  1
  F  F32  1  0.516430  0.329619  0.527938  1
  F  F33  1  0.186811  0.670381  0.527938  1
  F  F34  1  0.851166  0.851166  0.351856  1
  F  F35  1  0.798894  0.336384  0.679455  1
  F  F36  1  0.148733  0.148733  0.152310  1
  F  F37  1  0.798894  0.462510  0.179455  1
  F  F38  1  0.482545  0.668796  0.330650  1
  F  F39  1  0.000000  0.851166  0.851856  1
  F  F40  1  0.813749  0.331204  0.330650  1
  F  F41  1  0.331204  0.517455  0.830650  1
  F  F42  1  0.663616  0.201106  0.179455  1
  F  F43  1  0.663616  0.462510  0.679455  1
  F  F44  1  0.517455  0.331204  0.830650  1
  F  F45  1  0.851166  0.000000  0.851856  1
  F  F46  1  0.186251  0.668796  0.830650  1
  F  F47  1  0.329619  0.813189  0.027938  1
  F  F48  1  0.462510  0.798894  0.179455  1
  F  F49  1  0.537490  0.201106  0.679455  1
  F  F50  1  1.000000  0.148733  0.652310  1
  F  F51  1  0.336384  0.798894  0.679455  1
  F  F52  1  1.000000  0.148834  0.351856  1
  F  F53  1  0.851267  0.851267  0.652310  1
  F  F54  1  0.537490  0.336384  0.179455  1
  F  F55  1  0.130849  0.130849  0.501765  1
  F  F56  1  0.668796  0.482545  0.330650  1
  F  F57  1  0.329619  0.516430  0.527938  1
  F  F58  1  0.851267  0.000000  0.152310  1
  F  F59  1  0.483570  0.813189  0.527938  1
  F  F60  1  0.670381  0.483570  0.027938  1
  F  F61  1  0.000000  0.869151  0.501765  1
  F  F62  1  0.148733  0.000000  0.652310  1
  F  F63  1  0.331204  0.813749  0.330650  1
  F  F64  1  0.186811  0.516430  0.027938  1
  F  F65  1  0.000000  0.851267  0.152310  1
  F  F66  1  0.483570  0.670381  0.027938  1
  F  F67  1  0.869151  0.000000  0.501765  1
  F  F68  1  0.148834  0.148834  0.851856  1
  F  F69  1  0.462510  0.663616  0.679455  1
  F  F70  1  0.869151  0.869151  0.001765  1
  F  F71  1  0.517455  0.186251  0.330650  1
  F  F72  1  0.670381  0.186811  0.527938  1
  F  F73  1  0.516430  0.186811  0.027938  1
  F  F74  1  0.336384  0.537490  0.179455  1
  F  F75  1  0.482545  0.813749  0.830650  1
  F  F76  1  1.000000  0.130849  0.001765  1
  F  F77  1  0.201106  0.537490  0.679455  1
  F  F78  1  0.813189  0.483570  0.527938  1
  F  F79  1  0.130849  0.000000  0.001765  1
  F  F80  1  0.668796  0.186251  0.830650  1
  F  F81  1  0.148834  0.000000  0.351856  1
  F  F82  1  0.813749  0.482545  0.830650  1
  F  F83  1  0.813189  0.329619  0.027938  1
