# generated using pymatgen
data_DyNiSn2
_symmetry_space_group_name_H-M   'P 1'
_cell_length_a   4.44121298
_cell_length_b   14.64726590
_cell_length_c   16.15591953
_cell_angle_alpha   90.00000000
_cell_angle_beta   90.00000000
_cell_angle_gamma   90.00000000
_symmetry_Int_Tables_number   1
_chemical_formula_structural   DyNiSn2
_chemical_formula_sum   'Dy12 Ni12 Sn24'
_cell_volume   1050.96885816
_cell_formula_units_Z   12
loop_
 _symmetry_equiv_pos_site_id
 _symmetry_equiv_pos_as_xyz
  1  'x, y, z'
loop_
 _atom_site_type_symbol
 _atom_site_label
 _atom_site_symmetry_multiplicity
 _atom_site_fract_x
 _atom_site_fract_y
 _atom_site_fract_z
 _atom_site_occupancy
  Dy  Dy0  1  0.750000  0.472512  0.150685  1
  Dy  Dy1  1  0.250000  0.527488  0.849315  1
  Dy  Dy2  1  0.750000  0.770842  0.624809  1
  Dy  Dy3  1  0.750000  0.894341  0.854091  1
  Dy  Dy4  1  0.750000  0.729158  0.124809  1
  Dy  Dy5  1  0.750000  0.605659  0.354091  1
  Dy  Dy6  1  0.250000  0.229158  0.375191  1
  Dy  Dy7  1  0.250000  0.105659  0.145909  1
  Dy  Dy8  1  0.750000  0.027488  0.650685  1
  Dy  Dy9  1  0.250000  0.394341  0.645909  1
  Dy  Dy10  1  0.250000  0.270842  0.875191  1
  Dy  Dy11  1  0.250000  0.972512  0.349315  1
  Ni  Ni12  1  0.250000  0.752654  0.804328  1
  Ni  Ni13  1  0.750000  0.956590  0.200795  1
  Ni  Ni14  1  0.750000  0.252654  0.695672  1
  Ni  Ni15  1  0.750000  0.393704  0.948652  1
  Ni  Ni16  1  0.750000  0.247346  0.195672  1
  Ni  Ni17  1  0.250000  0.043410  0.799205  1
  Ni  Ni18  1  0.750000  0.543410  0.700795  1
  Ni  Ni19  1  0.250000  0.456590  0.299205  1
  Ni  Ni20  1  0.250000  0.893704  0.551348  1
  Ni  Ni21  1  0.250000  0.606296  0.051348  1
  Ni  Ni22  1  0.250000  0.747346  0.304328  1
  Ni  Ni23  1  0.750000  0.106296  0.448652  1
  Sn  Sn24  1  0.250000  0.324576  0.185430  1
  Sn  Sn25  1  0.250000  0.449983  0.456316  1
  Sn  Sn26  1  0.250000  0.422000  0.021115  1
  Sn  Sn27  1  0.250000  0.078000  0.521115  1
  Sn  Sn28  1  0.750000  0.578000  0.978885  1
  Sn  Sn29  1  0.750000  0.106253  0.286781  1
  Sn  Sn30  1  0.250000  0.738569  0.466604  1
  Sn  Sn31  1  0.750000  0.371554  0.326094  1
  Sn  Sn32  1  0.750000  0.261431  0.533396  1
  Sn  Sn33  1  0.250000  0.606253  0.213219  1
  Sn  Sn34  1  0.750000  0.949983  0.043684  1
  Sn  Sn35  1  0.750000  0.238569  0.033396  1
  Sn  Sn36  1  0.250000  0.050017  0.956316  1
  Sn  Sn37  1  0.750000  0.393747  0.786781  1
  Sn  Sn38  1  0.750000  0.128446  0.826094  1
  Sn  Sn39  1  0.750000  0.824576  0.314570  1
  Sn  Sn40  1  0.250000  0.761431  0.966604  1
  Sn  Sn41  1  0.250000  0.871554  0.173906  1
  Sn  Sn42  1  0.250000  0.893747  0.713219  1
  Sn  Sn43  1  0.750000  0.675424  0.814570  1
  Sn  Sn44  1  0.250000  0.628446  0.673906  1
  Sn  Sn45  1  0.250000  0.175424  0.685430  1
  Sn  Sn46  1  0.750000  0.922000  0.478885  1
  Sn  Sn47  1  0.750000  0.550017  0.543684  1
