# generated using pymatgen
data_KAu(NO3)4
_symmetry_space_group_name_H-M   'P 1'
_cell_length_a   7.34531164
_cell_length_b   8.66038452
_cell_length_c   9.54895192
_cell_angle_alpha   110.62172329
_cell_angle_beta   90.00000000
_cell_angle_gamma   90.00000000
_symmetry_Int_Tables_number   1
_chemical_formula_structural   KAu(NO3)4
_chemical_formula_sum   'K2 Au2 N8 O24'
_cell_volume   568.51856729
_cell_formula_units_Z   2
loop_
 _symmetry_equiv_pos_site_id
 _symmetry_equiv_pos_as_xyz
  1  'x, y, z'
loop_
 _atom_site_type_symbol
 _atom_site_label
 _atom_site_symmetry_multiplicity
 _atom_site_fract_x
 _atom_site_fract_y
 _atom_site_fract_z
 _atom_site_occupancy
  K  K0  1  0.500000  0.500000  0.000000  1
  K  K1  1  0.000000  0.000000  0.500000  1
  Au  Au2  1  0.000000  0.000000  0.000000  1
  Au  Au3  1  0.500000  0.500000  0.500000  1
  N  N4  1  0.755819  0.141515  0.838498  1
  N  N5  1  0.607628  0.162414  0.328964  1
  N  N6  1  0.107628  0.337586  0.171036  1
  N  N7  1  0.392372  0.837586  0.671036  1
  N  N8  1  0.744181  0.641515  0.338498  1
  N  N9  1  0.255819  0.358485  0.661502  1
  N  N10  1  0.244181  0.858485  0.161502  1
  N  N11  1  0.892372  0.662414  0.828964  1
  O  O12  1  0.015976  0.679453  0.749176  1
  O  O13  1  0.196347  0.340554  0.775543  1
  O  O14  1  0.703745  0.213069  0.968163  1
  O  O15  1  0.649108  0.288688  0.458695  1
  O  O16  1  0.704156  0.039201  0.306722  1
  O  O17  1  0.484024  0.179453  0.249176  1
  O  O18  1  0.295844  0.960799  0.693278  1
  O  O19  1  0.303653  0.840554  0.275543  1
  O  O20  1  0.850892  0.788688  0.958695  1
  O  O21  1  0.515976  0.820547  0.750824  1
  O  O22  1  0.149108  0.211312  0.041305  1
  O  O23  1  0.984024  0.320547  0.250824  1
  O  O24  1  0.393929  0.469546  0.687305  1
  O  O25  1  0.203745  0.286931  0.531837  1
  O  O26  1  0.893929  0.030454  0.812695  1
  O  O27  1  0.106071  0.969546  0.187305  1
  O  O28  1  0.696347  0.159446  0.724457  1
  O  O29  1  0.350892  0.711312  0.541305  1
  O  O30  1  0.803653  0.659446  0.224457  1
  O  O31  1  0.296255  0.786931  0.031837  1
  O  O32  1  0.204156  0.460799  0.193278  1
  O  O33  1  0.606071  0.530454  0.312695  1
  O  O34  1  0.795844  0.539201  0.806722  1
  O  O35  1  0.796255  0.713069  0.468163  1
