# generated using pymatgen
data_HoMn2O5
_symmetry_space_group_name_H-M   'P 1'
_cell_length_a   5.78208137
_cell_length_b   7.32388038
_cell_length_c   8.55609985
_cell_angle_alpha   90.00000000
_cell_angle_beta   90.00000000
_cell_angle_gamma   90.00000000
_symmetry_Int_Tables_number   1
_chemical_formula_structural   HoMn2O5
_chemical_formula_sum   'Ho4 Mn8 O20'
_cell_volume   362.32749019
_cell_formula_units_Z   4
loop_
 _symmetry_equiv_pos_site_id
 _symmetry_equiv_pos_as_xyz
  1  'x, y, z'
loop_
 _atom_site_type_symbol
 _atom_site_label
 _atom_site_symmetry_multiplicity
 _atom_site_fract_x
 _atom_site_fract_y
 _atom_site_fract_z
 _atom_site_occupancy
  Ho  Ho0  1  0.000000  0.137893  0.170526  1
  Ho  Ho1  1  0.000000  0.862107  0.829474  1
  Ho  Ho2  1  0.000000  0.637893  0.329474  1
  Ho  Ho3  1  0.000000  0.362107  0.670526  1
  Mn  Mn4  1  0.253296  0.000000  0.500000  1
  Mn  Mn5  1  0.746704  0.500000  0.000000  1
  Mn  Mn6  1  0.746704  0.000000  0.500000  1
  Mn  Mn7  1  0.253296  0.500000  0.000000  1
  Mn  Mn8  1  0.500000  0.411953  0.348497  1
  Mn  Mn9  1  0.500000  0.588047  0.651503  1
  Mn  Mn10  1  0.500000  0.911953  0.151503  1
  Mn  Mn11  1  0.500000  0.088047  0.848497  1
  O  O12  1  0.269179  0.000000  0.000000  1
  O  O13  1  0.730821  0.500000  0.500000  1
  O  O14  1  0.730821  0.000000  0.000000  1
  O  O15  1  0.269179  0.500000  0.500000  1
  O  O16  1  0.000000  0.164613  0.442488  1
  O  O17  1  0.000000  0.835387  0.557512  1
  O  O18  1  0.000000  0.664613  0.057512  1
  O  O19  1  0.000000  0.335387  0.942488  1
  O  O20  1  0.500000  0.151530  0.431150  1
  O  O21  1  0.500000  0.848470  0.568850  1
  O  O22  1  0.500000  0.651530  0.068850  1
  O  O23  1  0.500000  0.348470  0.931150  1
  O  O24  1  0.239314  0.393259  0.207278  1
  O  O25  1  0.239314  0.606741  0.792722  1
  O  O26  1  0.760686  0.893259  0.292722  1
  O  O27  1  0.760686  0.106741  0.707278  1
  O  O28  1  0.760686  0.606741  0.792722  1
  O  O29  1  0.760686  0.393259  0.207278  1
  O  O30  1  0.239314  0.106741  0.707278  1
  O  O31  1  0.239314  0.893259  0.292722  1
