# generated using pymatgen
data_Bi2MoO6
_symmetry_space_group_name_H-M   'P 1'
_cell_length_a   5.46401846
_cell_length_b   5.44660315
_cell_length_c   8.87768007
_cell_angle_alpha   107.86397485
_cell_angle_beta   90.00000000
_cell_angle_gamma   90.00000000
_symmetry_Int_Tables_number   1
_chemical_formula_structural   Bi2MoO6
_chemical_formula_sum   'Bi4 Mo2 O12'
_cell_volume   251.46489367
_cell_formula_units_Z   2
loop_
 _symmetry_equiv_pos_site_id
 _symmetry_equiv_pos_as_xyz
  1  'x, y, z'
loop_
 _atom_site_type_symbol
 _atom_site_label
 _atom_site_symmetry_multiplicity
 _atom_site_fract_x
 _atom_site_fract_y
 _atom_site_fract_z
 _atom_site_occupancy
  Bi  Bi0  1  0.524655  0.173382  0.346763  1
  Bi  Bi1  1  0.475345  0.826618  0.653237  1
  Bi  Bi2  1  0.024655  0.326618  0.653237  1
  Bi  Bi3  1  0.975345  0.673382  0.346763  1
  Mo  Mo4  1  0.000000  0.000000  0.000000  1
  Mo  Mo5  1  0.500000  0.500000  0.000000  1
  O  O6  1  0.080876  0.890281  0.780561  1
  O  O7  1  0.580876  0.609719  0.219439  1
  O  O8  1  0.250000  0.498864  0.497728  1
  O  O9  1  0.250000  0.270243  0.040486  1
  O  O10  1  0.750000  0.501136  0.502272  1
  O  O11  1  0.750000  0.229757  0.959514  1
  O  O12  1  0.419124  0.390281  0.780561  1
  O  O13  1  0.750000  0.729757  0.959514  1
  O  O14  1  0.250000  0.770243  0.040486  1
  O  O15  1  0.919124  0.109719  0.219439  1
  O  O16  1  0.750000  0.001136  0.502272  1
  O  O17  1  0.250000  0.998864  0.497728  1
