# generated using pymatgen
data_BaCeI4
_symmetry_space_group_name_H-M   'P 1'
_cell_length_a   7.51540548
_cell_length_b   9.02884322
_cell_length_c   9.26209332
_cell_angle_alpha   113.88352513
_cell_angle_beta   107.68481894
_cell_angle_gamma   101.91861054
_symmetry_Int_Tables_number   1
_chemical_formula_structural   BaCeI4
_chemical_formula_sum   'Ba2 Ce2 I8'
_cell_volume   506.83076836
_cell_formula_units_Z   2
loop_
 _symmetry_equiv_pos_site_id
 _symmetry_equiv_pos_as_xyz
  1  'x, y, z'
loop_
 _atom_site_type_symbol
 _atom_site_label
 _atom_site_symmetry_multiplicity
 _atom_site_fract_x
 _atom_site_fract_y
 _atom_site_fract_z
 _atom_site_occupancy
  Ba  Ba0  1  0.884736  0.634792  0.268810  1
  Ba  Ba1  1  0.115264  0.365208  0.731190  1
  Ce  Ce2  1  0.250032  0.999670  0.999218  1
  Ce  Ce3  1  0.749968  0.000330  0.000782  1
  I  I4  1  0.513231  0.231074  0.873472  1
  I  I5  1  0.486769  0.768926  0.126528  1
  I  I6  1  0.139836  0.357701  0.126644  1
  I  I7  1  0.703831  0.288249  0.345078  1
  I  I8  1  0.857881  0.942577  0.654667  1
  I  I9  1  0.142119  0.057423  0.345333  1
  I  I10  1  0.296169  0.711751  0.654922  1
  I  I11  1  0.860164  0.642299  0.873356  1
