# generated using pymatgen
data_Ba16Bi16O45
_symmetry_space_group_name_H-M   'P 1'
_cell_length_a   4.38581860
_cell_length_b   8.95474726
_cell_length_c   35.84885609
_cell_angle_alpha   89.99999779
_cell_angle_beta   90.00000000
_cell_angle_gamma   90.00000000
_symmetry_Int_Tables_number   1
_chemical_formula_structural   Ba16Bi16O45
_chemical_formula_sum   'Ba16 Bi16 O45'
_cell_volume   1407.92428492
_cell_formula_units_Z   1
loop_
 _symmetry_equiv_pos_site_id
 _symmetry_equiv_pos_as_xyz
  1  'x, y, z'
loop_
 _atom_site_type_symbol
 _atom_site_label
 _atom_site_symmetry_multiplicity
 _atom_site_fract_x
 _atom_site_fract_y
 _atom_site_fract_z
 _atom_site_occupancy
  Ba  Ba0  1  0.000000  0.010299  0.995955  1
  Ba  Ba1  1  0.000000  0.017350  0.126482  1
  Ba  Ba2  1  0.000000  0.489701  0.995955  1
  Ba  Ba3  1  0.000000  0.982354  0.248625  1
  Ba  Ba4  1  0.000000  0.482650  0.126482  1
  Ba  Ba5  1  0.000000  0.987215  0.379031  1
  Ba  Ba6  1  0.000000  0.517646  0.248625  1
  Ba  Ba7  1  0.000000  0.512785  0.379031  1
  Ba  Ba8  1  0.000000  0.011409  0.500537  1
  Ba  Ba9  1  0.000000  0.488591  0.500537  1
  Ba  Ba10  1  0.000000  0.987629  0.752733  1
  Ba  Ba11  1  0.000000  0.512371  0.752733  1
  Ba  Ba12  1  0.000000  0.499253  0.874362  1
  Ba  Ba13  1  0.000000  1.000748  0.874362  1
  Ba  Ba14  1  0.000000  0.514051  0.622135  1
  Ba  Ba15  1  0.000000  0.985949  0.622135  1
  Bi  Bi16  1  0.500000  0.250000  0.062098  1
  Bi  Bi17  1  0.500000  0.250000  0.188443  1
  Bi  Bi18  1  0.500000  0.750000  0.062174  1
  Bi  Bi19  1  0.500000  0.250000  0.437302  1
  Bi  Bi20  1  0.500000  0.250000  0.312774  1
  Bi  Bi21  1  0.500000  0.750000  0.186508  1
  Bi  Bi22  1  0.500000  0.250000  0.687534  1
  Bi  Bi23  1  0.500000  0.250000  0.563074  1
  Bi  Bi24  1  0.500000  0.750000  0.438599  1
  Bi  Bi25  1  0.500000  0.250000  0.812109  1
  Bi  Bi26  1  0.500000  0.750000  0.312901  1
  Bi  Bi27  1  0.500000  0.750000  0.687498  1
  Bi  Bi28  1  0.500000  0.750000  0.561826  1
  Bi  Bi29  1  0.500000  0.250000  0.936667  1
  Bi  Bi30  1  0.500000  0.750000  0.813043  1
  Bi  Bi31  1  0.500000  0.750000  0.937479  1
  O  O32  1  0.000000  0.250000  0.063426  1
  O  O33  1  0.000000  0.250000  0.183935  1
  O  O34  1  0.000000  0.750000  0.190826  1
  O  O35  1  0.000000  0.750000  0.311387  1
  O  O36  1  0.000000  0.250000  0.438007  1
  O  O37  1  0.000000  0.750000  0.432473  1
  O  O38  1  0.000000  0.250000  0.561364  1
  O  O39  1  0.000000  0.750000  0.567549  1
  O  O40  1  0.000000  0.750000  0.687558  1
  O  O41  1  0.000000  0.250000  0.812879  1
  O  O42  1  0.000000  0.250000  0.940730  1
  O  O43  1  0.000000  0.750000  0.809071  1
  O  O44  1  0.000000  0.750000  0.938441  1
  O  O45  1  0.500000  0.001376  0.063101  1
  O  O46  1  0.500000  0.250000  0.999739  1
  O  O47  1  0.500000  0.250000  0.249361  1
  O  O48  1  0.500000  0.000000  0.187401  1
  O  O49  1  0.500000  1.000219  0.437779  1
  O  O50  1  0.500000  0.250000  0.124782  1
  O  O51  1  0.500000  0.250000  0.375126  1
  O  O52  1  0.500000  0.250000  0.500053  1
  O  O53  1  0.500000  0.498624  0.063101  1
  O  O54  1  0.500000  0.750000  0.999816  1
  O  O55  1  0.500000  0.750000  0.250010  1
  O  O56  1  0.500000  0.998528  0.311684  1
  O  O57  1  0.500000  0.998234  0.687709  1
  O  O58  1  0.500000  0.250000  0.624747  1
  O  O59  1  0.500000  0.250000  0.875470  1
  O  O60  1  0.500000  0.500000  0.187401  1
  O  O61  1  0.500000  0.750000  0.125537  1
  O  O62  1  0.500000  0.750000  0.500204  1
  O  O63  1  0.500000  1.000284  0.562117  1
  O  O64  1  0.500000  0.999001  0.813054  1
  O  O65  1  0.500000  0.250000  0.750490  1
  O  O66  1  0.500000  0.501472  0.311684  1
  O  O67  1  0.500000  0.499781  0.437779  1
  O  O68  1  0.500000  0.501766  0.687710  1
  O  O69  1  0.500000  0.750000  0.375044  1
  O  O70  1  0.500000  0.750000  0.625219  1
  O  O71  1  0.500000  0.499716  0.562117  1
  O  O72  1  0.500000  0.500999  0.813054  1
  O  O73  1  0.500000  0.750000  0.749972  1
  O  O74  1  0.500000  0.750000  0.874408  1
  O  O75  1  0.500000  0.001515  0.937217  1
  O  O76  1  0.500000  0.498485  0.937217  1
