# generated using pymatgen
data_Ba2Fe2Se2OF2
_symmetry_space_group_name_H-M   'P 1'
_cell_length_a   4.26583721
_cell_length_b   4.26571545
_cell_length_c   10.41925564
_cell_angle_alpha   101.80953067
_cell_angle_beta   101.80954818
_cell_angle_gamma   90.00067587
_symmetry_Int_Tables_number   1
_chemical_formula_structural   Ba2Fe2Se2OF2
_chemical_formula_sum   'Ba2 Fe2 Se2 O1 F2'
_cell_volume   181.48248743
_cell_formula_units_Z   1
loop_
 _symmetry_equiv_pos_site_id
 _symmetry_equiv_pos_as_xyz
  1  'x, y, z'
loop_
 _atom_site_type_symbol
 _atom_site_label
 _atom_site_symmetry_multiplicity
 _atom_site_fract_x
 _atom_site_fract_y
 _atom_site_fract_z
 _atom_site_occupancy
  Ba  Ba0  1  0.329730  0.329730  0.659487  1
  Ba  Ba1  1  0.670270  0.670270  0.340513  1
  Fe  Fe2  1  0.000000  0.500000  0.000000  1
  Fe  Fe3  1  0.500000  0.000000  0.000000  1
  Se  Se4  1  0.909331  0.909336  0.819111  1
  Se  Se5  1  0.090669  0.090665  0.180889  1
  O  O6  1  0.500000  0.500000  0.000000  1
  F  F7  1  0.250001  0.750008  0.500012  1
  F  F8  1  0.749999  0.249992  0.499988  1
