# generated using pymatgen
data_Yb11InSb9
_symmetry_space_group_name_H-M   'P 1'
_cell_length_a   11.87104623
_cell_length_b   12.03995423
_cell_length_c   12.03995460
_cell_angle_alpha   62.50800657
_cell_angle_beta   60.46299770
_cell_angle_gamma   60.46299901
_symmetry_Int_Tables_number   1
_chemical_formula_structural   Yb11InSb9
_chemical_formula_sum   'Yb22 In2 Sb18'
_cell_volume   1247.11695299
_cell_formula_units_Z   2
loop_
 _symmetry_equiv_pos_site_id
 _symmetry_equiv_pos_as_xyz
  1  'x, y, z'
loop_
 _atom_site_type_symbol
 _atom_site_label
 _atom_site_symmetry_multiplicity
 _atom_site_fract_x
 _atom_site_fract_y
 _atom_site_fract_z
 _atom_site_occupancy
  Yb  Yb0  1  0.911497  0.436933  0.880365  1
  Yb  Yb1  1  0.665440  0.673858  0.324589  1
  Yb  Yb2  1  0.771204  0.880365  0.436933  1
  Yb  Yb3  1  0.326206  0.673794  0.673794  1
  Yb  Yb4  1  0.053141  0.683431  0.576178  1
  Yb  Yb5  1  0.443552  0.930315  0.812049  1
  Yb  Yb6  1  0.744913  0.068751  0.613292  1
  Yb  Yb7  1  0.271205  0.936933  0.380365  1
  Yb  Yb8  1  0.573044  0.613292  0.068751  1
  Yb  Yb9  1  0.314084  0.430315  0.312049  1
  Yb  Yb10  1  0.411497  0.380365  0.936933  1
  Yb  Yb11  1  0.943552  0.312049  0.430315  1
  Yb  Yb12  1  0.165440  0.824589  0.173858  1
  Yb  Yb13  1  0.687250  0.576178  0.683431  1
  Yb  Yb14  1  0.553141  0.076178  0.183431  1
  Yb  Yb15  1  0.336114  0.324589  0.673858  1
  Yb  Yb16  1  0.826206  0.173794  0.173794  1
  Yb  Yb17  1  0.073044  0.568751  0.113292  1
  Yb  Yb18  1  0.836114  0.173858  0.824589  1
  Yb  Yb19  1  0.187250  0.183431  0.076178  1
  Yb  Yb20  1  0.244913  0.113292  0.568751  1
  Yb  Yb21  1  0.814084  0.812049  0.930315  1
  In  In22  1  0.610161  0.389839  0.389839  1
  In  In23  1  0.110161  0.889839  0.889839  1
  Sb  Sb24  1  0.994578  0.006337  0.359683  1
  Sb  Sb25  1  0.538135  0.107092  0.887537  1
  Sb  Sb26  1  0.467235  0.887537  0.107092  1
  Sb  Sb27  1  0.360010  0.625067  0.387554  1
  Sb  Sb28  1  0.127369  0.125067  0.887554  1
  Sb  Sb29  1  0.627369  0.387554  0.625067  1
  Sb  Sb30  1  0.247737  0.252263  0.252263  1
  Sb  Sb31  1  0.639402  0.359683  0.006337  1
  Sb  Sb32  1  0.537700  0.162337  0.452685  1
  Sb  Sb33  1  0.860010  0.887554  0.125067  1
  Sb  Sb34  1  0.139402  0.506337  0.859683  1
  Sb  Sb35  1  0.038135  0.387537  0.607093  1
  Sb  Sb36  1  0.494578  0.859683  0.506337  1
  Sb  Sb37  1  0.747737  0.752263  0.752263  1
  Sb  Sb38  1  0.967235  0.607093  0.387537  1
  Sb  Sb39  1  0.347278  0.662337  0.952685  1
  Sb  Sb40  1  0.847278  0.452685  0.162337  1
  Sb  Sb41  1  0.037700  0.952685  0.662337  1
