# generated using pymatgen
data_Sc2CI3
_symmetry_space_group_name_H-M   'P 1'
_cell_length_a   11.16695170
_cell_length_b   11.06933159
_cell_length_c   14.23719635
_cell_angle_alpha   88.52966453
_cell_angle_beta   72.43543158
_cell_angle_gamma   60.79485336
_symmetry_Int_Tables_number   1
_chemical_formula_structural   Sc2CI3
_chemical_formula_sum   'Sc16 C8 I24'
_cell_volume   1448.81567591
_cell_formula_units_Z   8
loop_
 _symmetry_equiv_pos_site_id
 _symmetry_equiv_pos_as_xyz
  1  'x, y, z'
loop_
 _atom_site_type_symbol
 _atom_site_label
 _atom_site_symmetry_multiplicity
 _atom_site_fract_x
 _atom_site_fract_y
 _atom_site_fract_z
 _atom_site_occupancy
  I  I0  1  0.420547  0.858580  -0.000366  1
  I  I1  1  0.579453  0.141420  1.000366  1
  I  I2  1  0.285198  0.581245  0.993610  1
  I  I3  1  0.714802  0.418755  0.006390  1
  I  I4  1  0.872746  0.730148  0.993603  1
  I  I5  1  0.127254  0.269852  0.006397  1
  I  I6  1  0.102379  0.636681  0.506509  1
  I  I7  1  0.897621  0.363319  0.493491  1
  I  I8  1  0.229760  0.921871  0.507144  1
  I  I9  1  0.770240  0.078129  0.492856  1
  I  I10  1  0.641958  0.785027  0.498981  1
  I  I11  1  0.358042  0.214973  0.501019  1
  I  I12  1  0.068768  0.196241  0.751139  1
  I  I13  1  0.931232  0.803759  0.248861  1
  I  I14  1  0.197802  0.505071  0.756072  1
  I  I15  1  0.802198  0.494929  0.243928  1
  I  I16  1  0.469154  0.062104  0.749502  1
  I  I17  1  0.530846  0.937896  0.250498  1
  I  I18  1  0.621913  0.348286  0.752445  1
  I  I19  1  0.378087  0.651714  0.247555  1
  I  I20  1  0.935101  0.907555  0.745317  1
  I  I21  1  0.064899  0.092445  0.254683  1
  I  I22  1  0.740182  0.630112  0.738148  1
  I  I23  1  0.259818  0.369888  0.261852  1
  Sc  Sc24  1  0.593408  0.564667  0.601903  1
  Sc  Sc25  1  0.406592  0.435333  0.398097  1
  Sc  Sc26  1  0.355598  0.924831  0.662893  1
  Sc  Sc27  1  0.644402  0.075169  0.337107  1
  Sc  Sc28  1  0.467275  0.663500  0.836772  1
  Sc  Sc29  1  0.532725  0.336500  0.163228  1
  Sc  Sc30  1  0.090116  0.805910  0.892610  1
  Sc  Sc31  1  0.909884  0.194090  0.107390  1
  Sc  Sc32  1  0.841025  0.149069  0.881254  1
  Sc  Sc33  1  0.158975  0.850931  0.118746  1
  Sc  Sc34  1  0.481515  0.304082  0.619611  1
  Sc  Sc35  1  0.518485  0.695918  0.380389  1
  Sc  Sc36  1  0.284093  0.661467  0.604562  1
  Sc  Sc37  1  0.715907  0.338533  0.395438  1
  Sc  Sc38  1  0.194596  0.012993  0.899610  1
  Sc  Sc39  1  0.805404  0.987007  0.100390  1
  C  C40  1  0.287246  0.830267  0.791791  1
  C  C41  1  0.712754  0.169733  0.208209  1
  C  C42  1  0.042021  0.960171  0.029180  1
  C  C43  1  0.957979  0.039829  0.970820  1
  C  C44  1  0.386979  0.718807  0.708111  1
  C  C45  1  0.613021  0.281193  0.291889  1
  C  C46  1  0.497022  0.449129  0.529960  1
  C  C47  1  0.502978  0.550871  0.470040  1
