# generated using pymatgen
data_KNd(PO3)4
_symmetry_space_group_name_H-M   'P 1'
_cell_length_a   7.49426190
_cell_length_b   7.49426204
_cell_length_c   10.74893361
_cell_angle_alpha   100.75178461
_cell_angle_beta   100.75178477
_cell_angle_gamma   115.41194095
_symmetry_Int_Tables_number   1
_chemical_formula_structural   KNd(PO3)4
_chemical_formula_sum   'K2 Nd2 P8 O24'
_cell_volume   510.96884927
_cell_formula_units_Z   2
loop_
 _symmetry_equiv_pos_site_id
 _symmetry_equiv_pos_as_xyz
  1  'x, y, z'
loop_
 _atom_site_type_symbol
 _atom_site_label
 _atom_site_symmetry_multiplicity
 _atom_site_fract_x
 _atom_site_fract_y
 _atom_site_fract_z
 _atom_site_occupancy
  K  K0  1  0.316191  0.183809  0.750000  1
  K  K1  1  0.683809  0.816191  0.250000  1
  Nd  Nd2  1  0.620720  0.879280  0.750000  1
  Nd  Nd3  1  0.379280  0.120720  0.250000  1
  P  P4  1  0.195239  0.740831  0.443486  1
  P  P5  1  0.873186  0.712249  -0.000364  1
  P  P6  1  0.126814  0.287751  1.000364  1
  P  P7  1  0.759169  0.304761  0.056514  1
  P  P8  1  0.804761  0.259169  0.556514  1
  P  P9  1  0.240831  0.695239  0.943486  1
  P  P10  1  0.787751  0.626814  0.500364  1
  P  P11  1  0.212249  0.373186  0.499636  1
  O  O12  1  0.032225  0.282077  0.570047  1
  O  O13  1  0.407718  0.508027  0.613094  1
  O  O14  1  0.967775  0.717923  0.429953  1
  O  O15  1  0.804072  0.810131  0.597098  1
  O  O16  1  0.742895  0.188652  0.669965  1
  O  O17  1  0.991973  0.092282  0.886906  1
  O  O18  1  0.592282  0.491973  0.386906  1
  O  O19  1  0.360188  0.832211  0.083931  1
  O  O20  1  0.008027  0.907718  0.113094  1
  O  O21  1  0.782077  0.532225  0.070047  1
  O  O22  1  0.311348  0.757105  0.830035  1
  O  O23  1  0.689869  0.695928  0.902902  1
  O  O24  1  0.639812  0.167789  0.916069  1
  O  O25  1  0.257105  0.811348  0.330035  1
  O  O26  1  0.310131  0.304072  0.097098  1
  O  O27  1  1.000848  0.645159  0.914375  1
  O  O28  1  0.332211  0.860188  0.583931  1
  O  O29  1  0.217923  0.467775  0.929953  1
  O  O30  1  0.854841  0.499152  0.585625  1
  O  O31  1  0.667789  0.139812  0.416069  1
  O  O32  1  0.688652  0.242895  0.169965  1
  O  O33  1  0.195928  0.189869  0.402902  1
  O  O34  1  -0.000848  0.354841  0.085625  1
  O  O35  1  0.145159  0.500848  0.414375  1
