# generated using pymatgen
data_Co2P2O7
_symmetry_space_group_name_H-M   'P 1'
_cell_length_a   4.54817345
_cell_length_b   5.52139966
_cell_length_c   9.89382886
_cell_angle_alpha   89.99724107
_cell_angle_beta   90.00084892
_cell_angle_gamma   97.78861270
_symmetry_Int_Tables_number   1
_chemical_formula_structural   Co2P2O7
_chemical_formula_sum   'Co4 P4 O14'
_cell_volume   246.16456962
_cell_formula_units_Z   2
loop_
 _symmetry_equiv_pos_site_id
 _symmetry_equiv_pos_as_xyz
  1  'x, y, z'
loop_
 _atom_site_type_symbol
 _atom_site_label
 _atom_site_symmetry_multiplicity
 _atom_site_fract_x
 _atom_site_fract_y
 _atom_site_fract_z
 _atom_site_occupancy
  Co  Co0  1  0.622472  0.909211  0.838503  1
  Co  Co1  1  0.377527  0.090788  0.161496  1
  Co  Co2  1  0.377612  0.590771  0.338517  1
  Co  Co3  1  0.622405  0.409229  0.661484  1
  P  P4  1  0.147379  0.345282  0.890555  1
  P  P5  1  0.852634  0.654706  0.109441  1
  P  P6  1  0.147384  0.845288  0.609451  1
  P  P7  1  0.852600  0.154726  0.390552  1
  O  O8  1  0.710556  0.853396  0.035045  1
  O  O9  1  0.889803  0.736721  0.701723  1
  O  O10  1  0.889797  0.236735  0.798277  1
  O  O11  1  0.289465  0.646607  0.535058  1
  O  O12  1  0.379219  0.026168  0.683610  1
  O  O13  1  0.379219  0.526173  0.816396  1
  O  O14  1  0.110222  0.763254  0.201716  1
  O  O15  1  0.999968  0.000020  0.500015  1
  O  O16  1  0.289471  0.146595  0.964949  1
  O  O17  1  0.620788  0.473826  0.183603  1
  O  O18  1  0.620785  0.973836  0.316388  1
  O  O19  1  0.999998  0.499979  1.000002  1
  O  O20  1  0.710494  0.353414  0.464931  1
  O  O21  1  0.110201  0.263275  0.298288  1
