# generated using pymatgen
data_Ca28Ga11
_symmetry_space_group_name_H-M   'P 1'
_cell_length_a   5.30046662
_cell_length_b   7.47401256
_cell_length_c   30.96725793
_cell_angle_alpha   96.93111944
_cell_angle_beta   94.90947750
_cell_angle_gamma   90.00000351
_symmetry_Int_Tables_number   1
_chemical_formula_structural   Ca28Ga11
_chemical_formula_sum   'Ca28 Ga11'
_cell_volume   1213.29164880
_cell_formula_units_Z   1
loop_
 _symmetry_equiv_pos_site_id
 _symmetry_equiv_pos_as_xyz
  1  'x, y, z'
loop_
 _atom_site_type_symbol
 _atom_site_label
 _atom_site_symmetry_multiplicity
 _atom_site_fract_x
 _atom_site_fract_y
 _atom_site_fract_z
 _atom_site_occupancy
  Ca  Ca0  1  0.817783  0.918460  0.635566  1
  Ca  Ca1  1  0.560004  0.234883  0.120009  1
  Ca  Ca2  1  0.724037  0.253698  0.448073  1
  Ca  Ca3  1  0.637204  0.172746  0.274408  1
  Ca  Ca4  1  0.323933  0.241798  0.647866  1
  Ca  Ca5  1  0.853153  0.566956  0.706306  1
  Ca  Ca6  1  0.543465  0.670486  0.086929  1
  Ca  Ca7  1  1.000000  0.555241  0.000000  1
  Ca  Ca8  1  0.617333  0.594302  0.234665  1
  Ca  Ca9  1  0.917109  0.530224  0.834219  1
  Ca  Ca10  1  0.262192  0.258413  0.524384  1
  Ca  Ca11  1  0.275963  0.805625  0.551927  1
  Ca  Ca12  1  0.903345  0.989621  0.806689  1
  Ca  Ca13  1  0.362796  0.898339  0.725592  1
  Ca  Ca14  1  0.456535  0.583557  0.913071  1
  Ca  Ca15  1  0.676067  0.593932  0.352134  1
  Ca  Ca16  1  0.439996  0.114874  0.879991  1
  Ca  Ca17  1  0.146847  0.860651  0.293695  1
  Ca  Ca18  1  0.096655  0.182932  0.193311  1
  Ca  Ca19  1  0.793980  0.468287  0.587960  1
  Ca  Ca20  1  0.382667  0.359637  0.765335  1
  Ca  Ca21  1  0.500000  0.238900  1.000000  1
  Ca  Ca22  1  0.737808  0.734030  0.475616  1
  Ca  Ca23  1  0.970092  0.929889  0.940184  1
  Ca  Ca24  1  0.082891  0.696005  0.165781  1
  Ca  Ca25  1  0.206020  0.880327  0.412040  1
  Ca  Ca26  1  0.182217  0.282894  0.364434  1
  Ca  Ca27  1  0.029908  0.989706  0.059816  1
  Ga  Ga28  1  0.680182  0.004662  0.360364  1
  Ga  Ga29  1  0.139359  0.448363  0.278718  1
  Ga  Ga30  1  0.772969  0.065024  0.545939  1
  Ga  Ga31  1  0.956496  0.313303  0.912992  1
  Ga  Ga32  1  0.319818  0.644299  0.639636  1
  Ga  Ga33  1  0.860641  0.169644  0.721282  1
  Ga  Ga34  1  0.043504  0.400312  0.087008  1
  Ga  Ga35  1  0.590879  0.931292  0.181757  1
  Ga  Ga36  1  0.409121  0.749535  0.818243  1
  Ga  Ga37  1  0.227031  0.519085  0.454061  1
  Ga  Ga38  1  0.500000  0.832067  0.000000  1
