# generated using pymatgen
data_Mg44Ir7
_symmetry_space_group_name_H-M   'P 1'
_cell_length_a   14.21168470
_cell_length_b   14.21168429
_cell_length_c   14.21168483
_cell_angle_alpha   60.00000109
_cell_angle_beta   60.00000206
_cell_angle_gamma   60.00000040
_symmetry_Int_Tables_number   1
_chemical_formula_structural   Mg44Ir7
_chemical_formula_sum   'Mg88 Ir14'
_cell_volume   2029.65253883
_cell_formula_units_Z   2
loop_
 _symmetry_equiv_pos_site_id
 _symmetry_equiv_pos_as_xyz
  1  'x, y, z'
loop_
 _atom_site_type_symbol
 _atom_site_label
 _atom_site_symmetry_multiplicity
 _atom_site_fract_x
 _atom_site_fract_y
 _atom_site_fract_z
 _atom_site_occupancy
  Mg  Mg0  1  0.480182  0.480182  0.907771  1
  Mg  Mg1  1  0.557449  0.338290  0.765970  1
  Mg  Mg2  1  0.144170  0.144170  0.355830  1
  Mg  Mg3  1  0.215512  0.569071  0.999904  1
  Mg  Mg4  1  0.338290  0.557449  0.338290  1
  Mg  Mg5  1  0.480182  0.131865  0.907771  1
  Mg  Mg6  1  0.338290  0.338290  0.765970  1
  Mg  Mg7  1  0.765970  0.338290  0.338290  1
  Mg  Mg8  1  0.561739  0.561739  0.561739  1
  Mg  Mg9  1  0.719424  0.474911  0.719424  1
  Mg  Mg10  1  0.948107  0.155679  0.948107  1
  Mg  Mg11  1  0.819551  0.819551  0.180449  1
  Mg  Mg12  1  0.910758  0.696414  0.696414  1
  Mg  Mg13  1  0.131865  0.907771  0.480182  1
  Mg  Mg14  1  0.765970  0.557449  0.338290  1
  Mg  Mg15  1  0.334597  0.979572  0.706258  1
  Mg  Mg16  1  0.474911  0.719424  0.719424  1
  Mg  Mg17  1  0.338290  0.765970  0.338290  1
  Mg  Mg18  1  0.907771  0.131865  0.480182  1
  Mg  Mg19  1  0.706258  0.979572  0.979572  1
  Mg  Mg20  1  0.215512  0.215512  0.999904  1
  Mg  Mg21  1  0.314783  0.561739  0.561739  1
  Mg  Mg22  1  0.155679  0.948107  0.948107  1
  Mg  Mg23  1  0.480182  0.907771  0.131865  1
  Mg  Mg24  1  0.819551  0.180449  0.819551  1
  Mg  Mg25  1  0.765970  0.338290  0.557449  1
  Mg  Mg26  1  0.948107  0.948107  0.948107  1
  Mg  Mg27  1  0.561739  0.314783  0.561739  1
  Mg  Mg28  1  0.907771  0.480182  0.131865  1
  Mg  Mg29  1  0.131865  0.480182  0.480182  1
  Mg  Mg30  1  0.338290  0.765970  0.557449  1
  Mg  Mg31  1  0.979572  0.706258  0.979572  1
  Mg  Mg32  1  0.561739  0.561739  0.314783  1
  Mg  Mg33  1  0.706258  0.979572  0.334597  1
  Mg  Mg34  1  0.334597  0.979572  0.979572  1
  Mg  Mg35  1  0.501532  0.832823  0.832823  1
  Mg  Mg36  1  0.215512  0.569071  0.215512  1
  Mg  Mg37  1  0.569071  0.999904  0.215512  1
  Mg  Mg38  1  0.999904  0.215512  0.215512  1
  Mg  Mg39  1  0.696414  0.696414  0.696414  1
  Mg  Mg40  1  0.215512  0.999904  0.569071  1
  Mg  Mg41  1  0.719424  0.719424  0.474911  1
  Mg  Mg42  1  0.180449  0.180449  0.819551  1
  Mg  Mg43  1  0.144170  0.355830  0.355830  1
  Mg  Mg44  1  0.569071  0.215512  0.999904  1
  Mg  Mg45  1  0.180449  0.819551  0.819551  1
  Mg  Mg46  1  0.832823  0.501532  0.832823  1
  Mg  Mg47  1  0.355830  0.144170  0.144170  1
  Mg  Mg48  1  0.696414  0.696414  0.910758  1
  Mg  Mg49  1  0.719424  0.086241  0.719424  1
  Mg  Mg50  1  0.215512  0.215512  0.569071  1
  Mg  Mg51  1  0.480182  0.131865  0.480182  1
  Mg  Mg52  1  0.832823  0.832823  0.832823  1
  Mg  Mg53  1  0.706258  0.334597  0.979572  1
  Mg  Mg54  1  0.979572  0.334597  0.706258  1
  Mg  Mg55  1  0.474911  0.719424  0.086241  1
  Mg  Mg56  1  0.180449  0.819551  0.180449  1
  Mg  Mg57  1  0.979572  0.334597  0.979572  1
  Mg  Mg58  1  0.338290  0.338290  0.557449  1
  Mg  Mg59  1  0.334597  0.706258  0.979572  1
  Mg  Mg60  1  0.979572  0.706258  0.334597  1
  Mg  Mg61  1  0.719424  0.719424  0.086241  1
  Mg  Mg62  1  0.131865  0.480182  0.907771  1
  Mg  Mg63  1  0.355830  0.355830  0.144170  1
  Mg  Mg64  1  0.480182  0.480182  0.131865  1
  Mg  Mg65  1  0.719424  0.474911  0.086241  1
  Mg  Mg66  1  0.086241  0.474911  0.719424  1
  Mg  Mg67  1  0.086241  0.719424  0.474911  1
  Mg  Mg68  1  0.474911  0.086241  0.719424  1
  Mg  Mg69  1  0.832823  0.832823  0.501532  1
  Mg  Mg70  1  0.979572  0.979572  0.334597  1
  Mg  Mg71  1  0.557449  0.765970  0.338290  1
  Mg  Mg72  1  0.979572  0.979572  0.706258  1
  Mg  Mg73  1  0.144170  0.355830  0.144170  1
  Mg  Mg74  1  0.215512  0.999904  0.215512  1
  Mg  Mg75  1  0.999904  0.569071  0.215512  1
  Mg  Mg76  1  0.355830  0.144170  0.355830  1
  Mg  Mg77  1  0.819551  0.180449  0.180449  1
  Mg  Mg78  1  0.948107  0.948107  0.155679  1
  Mg  Mg79  1  0.569071  0.215512  0.215512  1
  Mg  Mg80  1  0.719424  0.086241  0.474911  1
  Mg  Mg81  1  0.907771  0.480182  0.480182  1
  Mg  Mg82  1  0.338290  0.557449  0.765970  1
  Mg  Mg83  1  0.086241  0.719424  0.719424  1
  Mg  Mg84  1  0.557449  0.338290  0.338290  1
  Mg  Mg85  1  0.480182  0.907771  0.480182  1
  Mg  Mg86  1  0.999904  0.215512  0.569071  1
  Mg  Mg87  1  0.696414  0.910758  0.696414  1
  Ir  Ir88  1  0.586327  0.913673  0.586327  1
  Ir  Ir89  1  0.750435  0.083188  0.083188  1
  Ir  Ir90  1  0.348848  0.348848  0.953455  1
  Ir  Ir91  1  0.348848  0.348848  0.348848  1
  Ir  Ir92  1  0.083188  0.083188  0.750435  1
  Ir  Ir93  1  0.083188  0.750435  0.083188  1
  Ir  Ir94  1  0.083188  0.083188  0.083188  1
  Ir  Ir95  1  0.913673  0.586327  0.586327  1
  Ir  Ir96  1  0.913673  0.586327  0.913673  1
  Ir  Ir97  1  0.953455  0.348848  0.348848  1
  Ir  Ir98  1  0.348848  0.953455  0.348848  1
  Ir  Ir99  1  0.586327  0.913673  0.913673  1
  Ir  Ir100  1  0.586327  0.586327  0.913673  1
  Ir  Ir101  1  0.913673  0.913673  0.586327  1
