# generated using pymatgen
data_Nb3P
_symmetry_space_group_name_H-M   'P 1'
_cell_length_a   5.12119392
_cell_length_b   10.20231753
_cell_length_c   10.20231753
_cell_angle_alpha   90.00000000
_cell_angle_beta   90.00000000
_cell_angle_gamma   90.00000000
_symmetry_Int_Tables_number   1
_chemical_formula_structural   Nb3P
_chemical_formula_sum   'Nb24 P8'
_cell_volume   533.05116076
_cell_formula_units_Z   8
loop_
 _symmetry_equiv_pos_site_id
 _symmetry_equiv_pos_as_xyz
  1  'x, y, z'
loop_
 _atom_site_type_symbol
 _atom_site_label
 _atom_site_symmetry_multiplicity
 _atom_site_fract_x
 _atom_site_fract_y
 _atom_site_fract_z
 _atom_site_occupancy
  Nb  Nb0  1  0.726006  0.163783  0.653057  1
  Nb  Nb1  1  0.226006  0.346943  0.663783  1
  Nb  Nb2  1  0.226006  0.153057  0.836217  1
  Nb  Nb3  1  0.726006  0.336217  0.846943  1
  Nb  Nb4  1  0.273994  0.836217  0.346943  1
  Nb  Nb5  1  0.773994  0.653057  0.336217  1
  Nb  Nb6  1  0.773994  0.846943  0.163783  1
  Nb  Nb7  1  0.273994  0.663783  0.153057  1
  Nb  Nb8  1  0.515014  0.104929  0.262790  1
  Nb  Nb9  1  0.015014  0.737210  0.604929  1
  Nb  Nb10  1  0.015014  0.762790  0.895071  1
  Nb  Nb11  1  0.515014  0.395071  0.237210  1
  Nb  Nb12  1  0.484986  0.895071  0.737210  1
  Nb  Nb13  1  0.984986  0.262790  0.395071  1
  Nb  Nb14  1  0.984986  0.237210  0.104929  1
  Nb  Nb15  1  0.484986  0.604929  0.762790  1
  Nb  Nb16  1  0.239979  0.059056  0.536910  1
  Nb  Nb17  1  0.739979  0.463090  0.559056  1
  Nb  Nb18  1  0.739979  0.036910  0.940944  1
  Nb  Nb19  1  0.239979  0.440944  0.963090  1
  Nb  Nb20  1  0.760021  0.940944  0.463090  1
  Nb  Nb21  1  0.260021  0.536910  0.440944  1
  Nb  Nb22  1  0.260021  0.963090  0.059056  1
  Nb  Nb23  1  0.760021  0.559056  0.036910  1
  P  P24  1  0.019409  0.042920  0.274165  1
  P  P25  1  0.519409  0.725835  0.542920  1
  P  P26  1  0.519409  0.774165  0.957080  1
  P  P27  1  0.019409  0.457080  0.225835  1
  P  P28  1  0.980591  0.957080  0.725835  1
  P  P29  1  0.480591  0.274165  0.457080  1
  P  P30  1  0.480591  0.225835  0.042920  1
  P  P31  1  0.980591  0.542920  0.774165  1
