# generated using pymatgen
data_KTi3Si2P6O25
_symmetry_space_group_name_H-M   'P 1'
_cell_length_a   8.40745377
_cell_length_b   8.40745399
_cell_length_c   17.31264707
_cell_angle_alpha   90.00000000
_cell_angle_beta   90.00000000
_cell_angle_gamma   119.99999910
_symmetry_Int_Tables_number   1
_chemical_formula_structural   KTi3Si2P6O25
_chemical_formula_sum   'K2 Ti6 Si4 P12 O50'
_cell_volume   1059.79800699
_cell_formula_units_Z   2
loop_
 _symmetry_equiv_pos_site_id
 _symmetry_equiv_pos_as_xyz
  1  'x, y, z'
loop_
 _atom_site_type_symbol
 _atom_site_label
 _atom_site_symmetry_multiplicity
 _atom_site_fract_x
 _atom_site_fract_y
 _atom_site_fract_z
 _atom_site_occupancy
  K  K0  1  0.333333  0.666667  0.250000  1
  K  K1  1  0.666667  0.333333  0.750000  1
  Ti  Ti2  1  0.333333  0.666667  0.024269  1
  Ti  Ti3  1  0.333333  0.666667  0.475731  1
  Ti  Ti4  1  0.666667  0.333333  0.975731  1
  Ti  Ti5  1  0.666667  0.333333  0.524269  1
  Ti  Ti6  1  0.666667  0.333333  0.250000  1
  Ti  Ti7  1  0.333333  0.666667  0.750000  1
  P  P8  1  0.382638  0.332428  0.109715  1
  P  P9  1  0.667572  0.050209  0.109715  1
  P  P10  1  0.949791  0.617362  0.109715  1
  P  P11  1  0.667572  0.617362  0.390285  1
  P  P12  1  0.949791  0.332428  0.390285  1
  P  P13  1  0.382638  0.050209  0.390285  1
  P  P14  1  0.617362  0.667572  0.890285  1
  P  P15  1  0.332428  0.949791  0.890285  1
  P  P16  1  0.050209  0.382638  0.890285  1
  P  P17  1  0.332428  0.382638  0.609715  1
  P  P18  1  0.050209  0.667572  0.609715  1
  P  P19  1  0.617362  0.949791  0.609715  1
  Si  Si20  1  0.000000  0.000000  0.092309  1
  Si  Si21  1  0.000000  0.000000  0.407691  1
  Si  Si22  1  0.000000  0.000000  0.907691  1
  Si  Si23  1  0.000000  0.000000  0.592309  1
  O  O24  1  0.122043  0.604282  0.093966  1
  O  O25  1  0.395718  0.517761  0.093966  1
  O  O26  1  0.482239  0.877957  0.093966  1
  O  O27  1  0.395718  0.877957  0.406034  1
  O  O28  1  0.482239  0.604282  0.406034  1
  O  O29  1  0.122043  0.517761  0.406034  1
  O  O30  1  0.877957  0.395718  0.906034  1
  O  O31  1  0.604282  0.482239  0.906034  1
  O  O32  1  0.517761  0.122043  0.906034  1
  O  O33  1  0.604282  0.122043  0.593966  1
  O  O34  1  0.517761  0.395718  0.593966  1
  O  O35  1  0.877957  0.482239  0.593966  1
  O  O36  1  0.814927  0.261080  0.458196  1
  O  O37  1  0.738920  0.553848  0.458196  1
  O  O38  1  0.446152  0.185073  0.458196  1
  O  O39  1  0.738920  0.185073  0.041804  1
  O  O40  1  0.446152  0.261080  0.041804  1
  O  O41  1  0.814927  0.553848  0.041804  1
  O  O42  1  0.185073  0.738920  0.541804  1
  O  O43  1  0.261080  0.446152  0.541804  1
  O  O44  1  0.553848  0.814927  0.541804  1
  O  O45  1  0.261080  0.814927  0.958196  1
  O  O46  1  0.553848  0.738920  0.958196  1
  O  O47  1  0.185073  0.446152  0.958196  1
  O  O48  1  0.478342  0.341838  0.185779  1
  O  O49  1  0.658162  0.136504  0.185779  1
  O  O50  1  0.863496  0.521658  0.185779  1
  O  O51  1  0.658162  0.521658  0.314221  1
  O  O52  1  0.863496  0.341838  0.314221  1
  O  O53  1  0.478342  0.136504  0.314221  1
  O  O54  1  0.521658  0.658162  0.814221  1
  O  O55  1  0.341838  0.863496  0.814221  1
  O  O56  1  0.136504  0.478342  0.814221  1
  O  O57  1  0.341838  0.478342  0.685779  1
  O  O58  1  0.136504  0.658162  0.685779  1
  O  O59  1  0.521658  0.863496  0.685779  1
  O  O60  1  0.000000  0.000000  0.000000  1
  O  O61  1  0.000000  0.000000  0.500000  1
  O  O62  1  0.019488  0.829272  0.125619  1
  O  O63  1  0.170728  0.190216  0.125619  1
  O  O64  1  0.809784  0.980512  0.125619  1
  O  O65  1  0.170728  0.980512  0.374381  1
  O  O66  1  0.809784  0.829272  0.374381  1
  O  O67  1  0.019488  0.190216  0.374381  1
  O  O68  1  0.980512  0.170728  0.874381  1
  O  O69  1  0.829272  0.809784  0.874381  1
  O  O70  1  0.190216  0.019488  0.874381  1
  O  O71  1  0.829272  0.019488  0.625619  1
  O  O72  1  0.190216  0.170728  0.625619  1
  O  O73  1  0.980512  0.809784  0.625619  1
