# generated using pymatgen
data_Pr4V5(Si2O11)2
_symmetry_space_group_name_H-M   'P 1'
_cell_length_a   5.71176793
_cell_length_b   7.36029210
_cell_length_c   11.18159120
_cell_angle_alpha   99.65597692
_cell_angle_beta   90.00000000
_cell_angle_gamma   112.83087611
_symmetry_Int_Tables_number   1
_chemical_formula_structural   Pr4V5(Si2O11)2
_chemical_formula_sum   'Pr4 V5 Si4 O22'
_cell_volume   426.01354955
_cell_formula_units_Z   1
loop_
 _symmetry_equiv_pos_site_id
 _symmetry_equiv_pos_as_xyz
  1  'x, y, z'
loop_
 _atom_site_type_symbol
 _atom_site_label
 _atom_site_symmetry_multiplicity
 _atom_site_fract_x
 _atom_site_fract_y
 _atom_site_fract_z
 _atom_site_occupancy
  O  O0  1  0.221414  0.442829  0.868246  1
  O  O1  1  0.778586  0.557172  0.131755  1
  O  O2  1  0.165364  0.859477  0.087537  1
  O  O3  1  0.305887  0.140523  0.912464  1
  O  O4  1  0.834636  0.140523  0.912464  1
  O  O5  1  0.694113  0.859477  0.087537  1
  O  O6  1  0.812775  0.625550  0.900355  1
  O  O7  1  0.187226  0.374450  0.099645  1
  O  O8  1  0.412134  0.824270  0.837779  1
  O  O9  1  0.587866  0.175731  0.162220  1
  O  O10  1  0.964617  0.453214  0.311512  1
  O  O11  1  0.511404  0.546787  0.688489  1
  O  O12  1  0.035383  0.546787  0.688489  1
  O  O13  1  0.349829  0.699657  0.483054  1
  O  O14  1  0.650171  0.300343  0.516946  1
  O  O15  1  0.142825  0.285651  0.476234  1
  O  O16  1  0.857175  0.714349  0.523766  1
  O  O17  1  0.488596  0.453214  0.311512  1
  O  O18  1  0.781800  0.045493  0.630633  1
  O  O19  1  0.263694  0.045493  0.630633  1
  O  O20  1  0.218200  0.954507  0.369366  1
  O  O21  1  0.736306  0.954507  0.369366  1
  Si  Si22  1  0.138546  0.277091  0.957644  1
  Si  Si23  1  0.861454  0.722909  0.042356  1
  Si  Si24  1  0.296545  0.593090  0.770675  1
  Si  Si25  1  0.703455  0.406910  0.229325  1
  V  V26  1  0.500000  0.000000  0.000000  1
  V  V27  1  0.500000  0.499999  0.500000  1
  V  V28  1  0.500000  0.000000  0.500000  1
  V  V29  1  0.000000  0.000000  0.500000  1
  V  V30  1  0.000000  0.499999  0.500000  1
  Pr  Pr31  1  0.926780  0.853560  0.751212  1
  Pr  Pr32  1  0.073220  0.146440  0.248787  1
  Pr  Pr33  1  0.643568  0.287136  0.756631  1
  Pr  Pr34  1  0.356431  0.712863  0.243368  1
