# generated using pymatgen
data_LiC2S2N(O2F3)2
_symmetry_space_group_name_H-M   'P 1'
_cell_length_a   5.52901543
_cell_length_b   9.82532673
_cell_length_c   16.59463094
_cell_angle_alpha   90.00000000
_cell_angle_beta   90.00000000
_cell_angle_gamma   90.00000000
_symmetry_Int_Tables_number   1
_chemical_formula_structural   LiC2S2N(O2F3)2
_chemical_formula_sum   'Li4 C8 S8 N4 O16 F24'
_cell_volume   901.49308850
_cell_formula_units_Z   4
loop_
 _symmetry_equiv_pos_site_id
 _symmetry_equiv_pos_as_xyz
  1  'x, y, z'
loop_
 _atom_site_type_symbol
 _atom_site_label
 _atom_site_symmetry_multiplicity
 _atom_site_fract_x
 _atom_site_fract_y
 _atom_site_fract_z
 _atom_site_occupancy
  Li  Li0  1  0.250000  0.654802  0.750000  1
  Li  Li1  1  0.750000  0.345198  0.250000  1
  Li  Li2  1  0.250000  0.154802  0.750000  1
  Li  Li3  1  0.750000  0.845198  0.250000  1
  C  C4  1  0.749669  0.906334  0.907929  1
  C  C5  1  0.750331  0.906334  0.592071  1
  C  C6  1  0.749669  0.406334  0.592071  1
  C  C7  1  0.250331  0.093666  0.092071  1
  C  C8  1  0.249669  0.093666  0.407929  1
  C  C9  1  0.750331  0.406334  0.907929  1
  C  C10  1  0.249669  0.593666  0.092071  1
  C  C11  1  0.250331  0.593666  0.407929  1
  S  S12  1  0.070276  0.581673  0.312017  1
  S  S13  1  0.429724  0.081673  0.312017  1
  S  S14  1  0.929724  0.918327  0.812017  1
  S  S15  1  0.570276  0.918327  0.687983  1
  S  S16  1  0.570276  0.418327  0.812017  1
  S  S17  1  0.070276  0.081673  0.187983  1
  S  S18  1  0.929724  0.418327  0.687983  1
  S  S19  1  0.429724  0.581673  0.187983  1
  N  N20  1  0.250000  0.013903  0.250000  1
  N  N21  1  0.750000  0.486097  0.750000  1
  N  N22  1  0.250000  0.513903  0.250000  1
  N  N23  1  0.750000  0.986097  0.750000  1
  O  O24  1  0.117848  0.517125  0.670245  1
  O  O25  1  0.882152  0.982875  0.170245  1
  O  O26  1  0.117848  0.017125  0.829755  1
  O  O27  1  0.503065  0.720697  0.204477  1
  O  O28  1  0.882152  0.482875  0.329755  1
  O  O29  1  0.003065  0.779303  0.795523  1
  O  O30  1  0.496935  0.779303  0.704477  1
  O  O31  1  0.382152  0.517125  0.829755  1
  O  O32  1  0.503065  0.220697  0.295523  1
  O  O33  1  0.996935  0.720697  0.295523  1
  O  O34  1  0.996935  0.220697  0.204477  1
  O  O35  1  0.382152  0.017125  0.670245  1
  O  O36  1  0.496935  0.279303  0.795523  1
  O  O37  1  0.617848  0.482875  0.170245  1
  O  O38  1  0.617848  0.982875  0.329755  1
  O  O39  1  0.003065  0.279303  0.704477  1
  F  F40  1  0.671835  0.530669  0.569901  1
  F  F41  1  0.608689  0.854264  0.533595  1
  F  F42  1  0.391311  0.645736  0.033595  1
  F  F43  1  0.171835  0.969331  0.430099  1
  F  F44  1  0.442628  0.176155  0.103339  1
  F  F45  1  0.891311  0.854264  0.966405  1
  F  F46  1  0.608689  0.354264  0.966405  1
  F  F47  1  0.108689  0.145736  0.033595  1
  F  F48  1  0.171835  0.469331  0.069901  1
  F  F49  1  0.057372  0.676155  0.103339  1
  F  F50  1  0.671835  0.030669  0.930099  1
  F  F51  1  0.891311  0.354264  0.533595  1
  F  F52  1  0.328165  0.969331  0.069901  1
  F  F53  1  0.557372  0.323845  0.603339  1
  F  F54  1  0.942628  0.823845  0.603339  1
  F  F55  1  0.057372  0.176155  0.396661  1
  F  F56  1  0.942628  0.323845  0.896661  1
  F  F57  1  0.828165  0.530669  0.930099  1
  F  F58  1  0.828165  0.030669  0.569901  1
  F  F59  1  0.391311  0.145736  0.466405  1
  F  F60  1  0.108689  0.645736  0.466405  1
  F  F61  1  0.442628  0.676155  0.396661  1
  F  F62  1  0.557372  0.823845  0.896661  1
  F  F63  1  0.328165  0.469331  0.430099  1
