# generated using pymatgen
data_LiH4SNO4
_symmetry_space_group_name_H-M   'P 1'
_cell_length_a   9.09003025
_cell_length_b   5.51002198
_cell_length_c   8.65177490
_cell_angle_alpha   90.00000000
_cell_angle_beta   90.00000000
_cell_angle_gamma   90.00000000
_symmetry_Int_Tables_number   1
_chemical_formula_structural   LiH4SNO4
_chemical_formula_sum   'Li4 H16 S4 N4 O16'
_cell_volume   433.33510313
_cell_formula_units_Z   4
loop_
 _symmetry_equiv_pos_site_id
 _symmetry_equiv_pos_as_xyz
  1  'x, y, z'
loop_
 _atom_site_type_symbol
 _atom_site_label
 _atom_site_symmetry_multiplicity
 _atom_site_fract_x
 _atom_site_fract_y
 _atom_site_fract_z
 _atom_site_occupancy
  Li  Li0  1  0.083776  0.107992  0.809354  1
  Li  Li1  1  0.916224  0.607992  0.190646  1
  Li  Li2  1  0.583776  0.607992  0.690646  1
  Li  Li3  1  0.416224  0.107992  0.309354  1
  H  H4  1  0.169704  0.567932  0.598736  1
  H  H5  1  0.830296  0.067932  0.401264  1
  H  H6  1  0.669704  0.067932  0.901264  1
  H  H7  1  0.330296  0.567932  0.098736  1
  H  H8  1  0.212875  0.768807  0.453231  1
  H  H9  1  0.787125  0.268807  0.546769  1
  H  H10  1  0.712875  0.268807  0.046769  1
  H  H11  1  0.287125  0.768807  0.953231  1
  H  H12  1  0.333158  0.553323  0.501411  1
  H  H13  1  0.666842  0.053323  0.498589  1
  H  H14  1  0.833158  0.053323  0.998589  1
  H  H15  1  0.166842  0.553323  0.001411  1
  H  H16  1  0.172771  0.481148  0.410518  1
  H  H17  1  0.827229  0.981148  0.589482  1
  H  H18  1  0.672771  0.981148  0.089482  1
  H  H19  1  0.327229  0.481148  0.910518  1
  S  S20  1  0.422155  0.103812  0.702349  1
  S  S21  1  0.577845  0.603812  0.297651  1
  S  S22  1  0.922155  0.603812  0.797651  1
  S  S23  1  0.077845  0.103812  0.202349  1
  N  N24  1  0.222986  0.593127  0.492880  1
  N  N25  1  0.777014  0.093127  0.507120  1
  N  N26  1  0.722986  0.093127  0.007120  1
  N  N27  1  0.277014  0.593127  0.992880  1
  O  O28  1  0.423573  0.114985  0.531272  1
  O  O29  1  0.576427  0.614985  0.468728  1
  O  O30  1  0.923573  0.614985  0.968728  1
  O  O31  1  0.076427  0.114985  0.031272  1
  O  O32  1  0.547069  0.947620  0.756268  1
  O  O33  1  0.452931  0.447620  0.243732  1
  O  O34  1  0.047069  0.447620  0.743732  1
  O  O35  1  0.952931  0.947620  0.256268  1
  O  O36  1  0.442089  0.354629  0.766314  1
  O  O37  1  0.557911  0.854629  0.233686  1
  O  O38  1  0.942089  0.854629  0.733686  1
  O  O39  1  0.057911  0.354629  0.266314  1
  O  O40  1  0.281517  0.998624  0.758313  1
  O  O41  1  0.718483  0.498624  0.241687  1
  O  O42  1  0.781517  0.498624  0.741687  1
  O  O43  1  0.218483  0.998624  0.258313  1
