# generated using pymatgen
data_K2FeF5
_symmetry_space_group_name_H-M   'P 1'
_cell_length_a   7.55976149
_cell_length_b   13.05865993
_cell_length_c   20.77814287
_cell_angle_alpha   90.00000000
_cell_angle_beta   90.00000000
_cell_angle_gamma   90.00000000
_symmetry_Int_Tables_number   1
_chemical_formula_structural   K2FeF5
_chemical_formula_sum   'K32 Fe16 F80'
_cell_volume   2051.22562894
_cell_formula_units_Z   16
loop_
 _symmetry_equiv_pos_site_id
 _symmetry_equiv_pos_as_xyz
  1  'x, y, z'
loop_
 _atom_site_type_symbol
 _atom_site_label
 _atom_site_symmetry_multiplicity
 _atom_site_fract_x
 _atom_site_fract_y
 _atom_site_fract_z
 _atom_site_occupancy
  K  K0  1  0.677192  0.018973  0.507567  1
  K  K1  1  0.677192  0.481027  0.007567  1
  K  K2  1  0.014711  0.460963  0.336665  1
  K  K3  1  0.651666  0.480769  0.493733  1
  K  K4  1  0.667884  0.213865  0.249847  1
  K  K5  1  0.325663  0.229053  0.415663  1
  K  K6  1  0.814553  0.964774  0.338186  1
  K  K7  1  0.507881  0.767744  0.917520  1
  K  K8  1  0.151666  0.519231  0.506267  1
  K  K9  1  0.166093  0.323549  0.749197  1
  K  K10  1  0.151666  0.980769  0.006267  1
  K  K11  1  0.177192  0.518973  0.992433  1
  K  K12  1  0.825663  0.729053  0.084337  1
  K  K13  1  0.666093  0.823549  0.750803  1
  K  K14  1  0.814553  0.535226  0.838186  1
  K  K15  1  0.314553  0.464774  0.161814  1
  K  K16  1  0.007881  0.267744  0.582480  1
  K  K17  1  0.167884  0.713865  0.250153  1
  K  K18  1  0.507881  0.732256  0.417520  1
  K  K19  1  0.166093  0.176451  0.249197  1
  K  K20  1  0.014711  0.039037  0.836665  1
  K  K21  1  0.177192  0.981027  0.492433  1
  K  K22  1  0.651666  0.019231  0.993733  1
  K  K23  1  0.514711  0.539037  0.663335  1
  K  K24  1  0.325663  0.270947  0.915663  1
  K  K25  1  0.514711  0.960963  0.163335  1
  K  K26  1  0.666093  0.676451  0.250803  1
  K  K27  1  0.667884  0.286135  0.749847  1
  K  K28  1  0.167884  0.786135  0.750153  1
  K  K29  1  0.314553  0.035226  0.661814  1
  K  K30  1  0.007881  0.232256  0.082480  1
  K  K31  1  0.825663  0.770947  0.584337  1
  Fe  Fe32  1  0.493075  0.249821  0.078091  1
  Fe  Fe33  1  0.328730  0.946333  0.327674  1
  Fe  Fe34  1  0.332305  0.751365  0.577219  1
  Fe  Fe35  1  0.500938  0.053180  0.828864  1
  Fe  Fe36  1  0.500938  0.446820  0.328864  1
  Fe  Fe37  1  0.832305  0.248635  0.422781  1
  Fe  Fe38  1  0.000938  0.553180  0.671136  1
  Fe  Fe39  1  0.332305  0.748635  0.077219  1
  Fe  Fe40  1  0.493075  0.250179  0.578091  1
  Fe  Fe41  1  0.828730  0.446333  0.172326  1
  Fe  Fe42  1  0.993075  0.750179  0.921909  1
  Fe  Fe43  1  0.828730  0.053667  0.672326  1
  Fe  Fe44  1  0.832305  0.251365  0.922781  1
  Fe  Fe45  1  0.993075  0.749821  0.421909  1
  Fe  Fe46  1  0.328730  0.553667  0.827674  1
  Fe  Fe47  1  0.000938  0.946820  0.171136  1
  F  F48  1  0.472412  0.550177  0.903875  1
  F  F49  1  0.457105  0.672584  0.797023  1
  F  F50  1  0.990703  0.339367  0.969008  1
  F  F51  1  0.389679  0.373449  0.039075  1
  F  F52  1  0.846609  0.548704  0.597871  1
  F  F53  1  0.171881  0.928434  0.247254  1
  F  F54  1  0.163161  0.654296  0.873984  1
  F  F55  1  0.477951  0.742290  0.652541  1
  F  F56  1  0.834119  0.738998  0.850452  1
  F  F57  1  0.170277  0.751228  0.497106  1
  F  F58  1  0.869415  0.456101  0.722857  1
  F  F59  1  0.690664  0.361105  0.890206  1
  F  F60  1  0.841673  0.836724  0.972200  1
  F  F61  1  0.163161  0.845704  0.373984  1
  F  F62  1  0.957105  0.172584  0.702977  1
  F  F63  1  0.334119  0.261002  0.149548  1
  F  F64  1  0.624845  0.361213  0.613927  1
  F  F65  1  0.876101  0.672418  0.703851  1
  F  F66  1  0.876101  0.827582  0.203851  1
  F  F67  1  0.670277  0.251228  0.002894  1
  F  F68  1  0.941300  0.371465  0.460219  1
  F  F69  1  0.967960  0.543544  0.221355  1
  F  F70  1  0.190664  0.861105  0.609794  1
  F  F71  1  0.889679  0.873449  0.460925  1
  F  F72  1  0.341673  0.336724  0.527800  1
  F  F73  1  0.477951  0.757710  0.152541  1
  F  F74  1  0.170277  0.748772  0.997106  1
  F  F75  1  0.346609  0.451296  0.402129  1
  F  F76  1  0.124845  0.861213  0.886073  1
  F  F77  1  0.490703  0.839367  0.530992  1
  F  F78  1  0.441300  0.628535  0.539781  1
  F  F79  1  0.457105  0.827416  0.297023  1
  F  F80  1  0.674192  0.947413  0.642147  1
  F  F81  1  0.841673  0.663276  0.472200  1
  F  F82  1  0.671881  0.071566  0.752746  1
  F  F83  1  0.346609  0.048704  0.902129  1
  F  F84  1  0.663161  0.154296  0.626016  1
  F  F85  1  0.869415  0.043900  0.222857  1
  F  F86  1  0.376101  0.172418  0.796149  1
  F  F87  1  0.834119  0.761002  0.350452  1
  F  F88  1  0.190664  0.638895  0.109794  1
  F  F89  1  0.655561  0.154335  0.879901  1
  F  F90  1  0.652701  0.947442  0.861565  1
  F  F91  1  0.124845  0.638787  0.386073  1
  F  F92  1  0.472412  0.949823  0.403875  1
  F  F93  1  0.846609  0.951296  0.097871  1
  F  F94  1  0.467960  0.043544  0.278645  1
  F  F95  1  0.967960  0.956456  0.721355  1
  F  F96  1  0.889679  0.626551  0.960925  1
  F  F97  1  0.155561  0.845665  0.120099  1
  F  F98  1  0.655561  0.345665  0.379901  1
  F  F99  1  0.663161  0.345704  0.126016  1
  F  F100  1  0.670277  0.248772  0.502894  1
  F  F101  1  0.369415  0.956101  0.777143  1
  F  F102  1  0.467960  0.456456  0.778645  1
  F  F103  1  0.341673  0.163276  0.027800  1
  F  F104  1  0.334119  0.238998  0.649548  1
  F  F105  1  0.389679  0.126551  0.539075  1
  F  F106  1  0.652701  0.552558  0.361565  1
  F  F107  1  0.972412  0.050177  0.596125  1
  F  F108  1  0.174192  0.447413  0.857853  1
  F  F109  1  0.490703  0.660633  0.030992  1
  F  F110  1  0.171881  0.571566  0.747254  1
  F  F111  1  0.957105  0.327416  0.202977  1
  F  F112  1  0.674192  0.552587  0.142147  1
  F  F113  1  0.990703  0.160633  0.469008  1
  F  F114  1  0.671881  0.428434  0.252746  1
  F  F115  1  0.624845  0.138787  0.113927  1
  F  F116  1  0.977951  0.242290  0.847459  1
  F  F117  1  0.972412  0.449823  0.096125  1
  F  F118  1  0.941300  0.128535  0.960219  1
  F  F119  1  0.376101  0.327582  0.296149  1
  F  F120  1  0.441300  0.871465  0.039781  1
  F  F121  1  0.152701  0.447442  0.638435  1
  F  F122  1  0.690664  0.138895  0.390206  1
  F  F123  1  0.977951  0.257710  0.347459  1
  F  F124  1  0.155561  0.654335  0.620099  1
  F  F125  1  0.369415  0.543899  0.277143  1
  F  F126  1  0.152701  0.052558  0.138435  1
  F  F127  1  0.174192  0.052587  0.357853  1
