# generated using pymatgen
data_K3GaSe3
_symmetry_space_group_name_H-M   'P 1'
_cell_length_a   8.17748362
_cell_length_b   8.59802743
_cell_length_c   13.19288155
_cell_angle_alpha   90.00000000
_cell_angle_beta   90.00000000
_cell_angle_gamma   101.12013050
_symmetry_Int_Tables_number   1
_chemical_formula_structural   K3GaSe3
_chemical_formula_sum   'K12 Ga4 Se12'
_cell_volume   910.17889332
_cell_formula_units_Z   4
loop_
 _symmetry_equiv_pos_site_id
 _symmetry_equiv_pos_as_xyz
  1  'x, y, z'
loop_
 _atom_site_type_symbol
 _atom_site_label
 _atom_site_symmetry_multiplicity
 _atom_site_fract_x
 _atom_site_fract_y
 _atom_site_fract_z
 _atom_site_occupancy
  K  K0  1  0.265126  0.604341  0.090806  1
  K  K1  1  0.234874  0.895659  0.590806  1
  K  K2  1  0.734874  0.395659  0.909194  1
  K  K3  1  0.765126  0.104341  0.409194  1
  K  K4  1  0.285242  0.416686  0.810228  1
  K  K5  1  0.214758  0.083314  0.310228  1
  K  K6  1  0.714758  0.583314  0.189772  1
  K  K7  1  0.785242  0.916686  0.689772  1
  K  K8  1  0.150630  0.525801  0.377121  1
  K  K9  1  0.349370  0.974199  0.877121  1
  K  K10  1  0.849370  0.474199  0.622879  1
  K  K11  1  0.650630  0.025801  0.122879  1
  Ga  Ga12  1  0.098273  0.164835  0.061107  1
  Ga  Ga13  1  0.401727  0.335165  0.561107  1
  Ga  Ga14  1  0.901727  0.835165  0.938893  1
  Ga  Ga15  1  0.598273  0.664835  0.438893  1
  Se  Se16  1  0.465187  0.624685  0.608649  1
  Se  Se17  1  0.034813  0.875315  0.108649  1
  Se  Se18  1  0.534813  0.375315  0.391351  1
  Se  Se19  1  0.965187  0.124685  0.891351  1
  Se  Se20  1  0.461811  0.813015  0.320450  1
  Se  Se21  1  0.038189  0.686985  0.820450  1
  Se  Se22  1  0.538189  0.186985  0.679550  1
  Se  Se23  1  0.961811  0.313015  0.179550  1
  Se  Se24  1  0.893392  0.765131  0.451965  1
  Se  Se25  1  0.606608  0.734869  0.951965  1
  Se  Se26  1  0.106608  0.234869  0.548035  1
  Se  Se27  1  0.393392  0.265131  0.048035  1
