# generated using pymatgen
data_V2HgO6
_symmetry_space_group_name_H-M   'P 1'
_cell_length_a   4.99843361
_cell_length_b   6.11211366
_cell_length_c   14.61127980
_cell_angle_alpha   90.00000000
_cell_angle_beta   90.00000000
_cell_angle_gamma   90.00000000
_symmetry_Int_Tables_number   1
_chemical_formula_structural   V2HgO6
_chemical_formula_sum   'V8 Hg4 O24'
_cell_volume   446.38912656
_cell_formula_units_Z   4
loop_
 _symmetry_equiv_pos_site_id
 _symmetry_equiv_pos_as_xyz
  1  'x, y, z'
loop_
 _atom_site_type_symbol
 _atom_site_label
 _atom_site_symmetry_multiplicity
 _atom_site_fract_x
 _atom_site_fract_y
 _atom_site_fract_z
 _atom_site_occupancy
  V  V0  1  0.032738  0.435584  0.170638  1
  V  V1  1  0.532738  0.064416  0.170638  1
  V  V2  1  0.967262  0.564416  0.829362  1
  V  V3  1  0.467262  0.435584  0.670638  1
  V  V4  1  0.532738  0.564416  0.329362  1
  V  V5  1  0.032738  0.935584  0.329362  1
  V  V6  1  0.967262  0.064416  0.670638  1
  V  V7  1  0.467262  0.935584  0.829362  1
  Hg  Hg8  1  0.500000  0.000000  0.500000  1
  Hg  Hg9  1  0.000000  0.000000  0.000000  1
  Hg  Hg10  1  0.500000  0.500000  0.000000  1
  Hg  Hg11  1  0.000000  0.500000  0.500000  1
  O  O12  1  0.938236  0.620528  0.095604  1
  O  O13  1  0.661985  0.178302  0.609387  1
  O  O14  1  0.438236  0.879472  0.095604  1
  O  O15  1  0.273046  0.595402  0.752422  1
  O  O16  1  0.338015  0.321698  0.109387  1
  O  O17  1  0.338015  0.821698  0.390613  1
  O  O18  1  0.726954  0.904598  0.252422  1
  O  O19  1  0.561764  0.120528  0.904396  1
  O  O20  1  0.161985  0.821698  0.890613  1
  O  O21  1  0.773046  0.904598  0.752422  1
  O  O22  1  0.226954  0.595402  0.252422  1
  O  O23  1  0.661985  0.678302  0.890613  1
  O  O24  1  0.061764  0.379472  0.904396  1
  O  O25  1  0.561764  0.620528  0.595604  1
  O  O26  1  0.226954  0.095402  0.247578  1
  O  O27  1  0.161985  0.321698  0.609387  1
  O  O28  1  0.938236  0.120528  0.404396  1
  O  O29  1  0.838015  0.178302  0.109387  1
  O  O30  1  0.061764  0.879472  0.595604  1
  O  O31  1  0.726954  0.404598  0.247578  1
  O  O32  1  0.438236  0.379472  0.404396  1
  O  O33  1  0.838015  0.678302  0.390613  1
  O  O34  1  0.273046  0.095402  0.747578  1
  O  O35  1  0.773046  0.404598  0.747578  1
