# generated using pymatgen
data_Fe3O4
_symmetry_space_group_name_H-M   'P 1'
_cell_length_a   6.04535576
_cell_length_b   6.09708126
_cell_length_c   8.57602644
_cell_angle_alpha   90.00029190
_cell_angle_beta   90.00000000
_cell_angle_gamma   90.00000000
_symmetry_Int_Tables_number   1
_chemical_formula_structural   Fe3O4
_chemical_formula_sum   'Fe12 O16'
_cell_volume   316.10397572
_cell_formula_units_Z   4
loop_
 _symmetry_equiv_pos_site_id
 _symmetry_equiv_pos_as_xyz
  1  'x, y, z'
loop_
 _atom_site_type_symbol
 _atom_site_label
 _atom_site_symmetry_multiplicity
 _atom_site_fract_x
 _atom_site_fract_y
 _atom_site_fract_z
 _atom_site_occupancy
  Fe  Fe0  1  0.000000  0.249985  0.872794  1
  Fe  Fe1  1  0.000000  0.750015  0.127206  1
  Fe  Fe2  1  0.500000  0.249963  0.622367  1
  Fe  Fe3  1  0.500000  0.750037  0.377633  1
  Fe  Fe4  1  0.000000  0.000000  0.500000  1
  Fe  Fe5  1  0.500000  0.000000  0.000000  1
  Fe  Fe6  1  0.500000  0.500000  0.000000  1
  Fe  Fe7  1  0.000000  0.500000  0.500000  1
  Fe  Fe8  1  0.741794  0.749971  0.753820  1
  Fe  Fe9  1  0.741794  0.250029  0.246180  1
  Fe  Fe10  1  0.258206  0.250029  0.246180  1
  Fe  Fe11  1  0.258206  0.749971  0.753820  1
  O  O12  1  0.000000  0.490530  0.262646  1
  O  O13  1  0.000000  0.509470  0.737354  1
  O  O14  1  0.000000  0.990480  0.737357  1
  O  O15  1  0.000000  0.009520  0.262643  1
  O  O16  1  0.500000  0.490474  0.254179  1
  O  O17  1  0.500000  0.509526  0.745821  1
  O  O18  1  0.500000  0.990405  0.745809  1
  O  O19  1  0.500000  0.009595  0.254191  1
  O  O20  1  0.770096  0.749993  0.507001  1
  O  O21  1  0.770096  0.250007  0.492999  1
  O  O22  1  0.229904  0.250007  0.492999  1
  O  O23  1  0.229904  0.749993  0.507001  1
  O  O24  1  0.747831  0.749999  0.991675  1
  O  O25  1  0.747831  0.250001  0.008325  1
  O  O26  1  0.252169  0.250001  0.008325  1
  O  O27  1  0.252169  0.749999  0.991675  1
