# generated using pymatgen
data_Ga2NiP3H8NO14
_symmetry_space_group_name_H-M   'P 1'
_cell_length_a   8.43279372
_cell_length_b   8.43268816
_cell_length_c   9.02057634
_cell_angle_alpha   75.77831851
_cell_angle_beta   75.77756459
_cell_angle_gamma   74.39006016
_symmetry_Int_Tables_number   1
_chemical_formula_structural   Ga2NiP3H8NO14
_chemical_formula_sum   'Ga4 Ni2 P6 H16 N2 O28'
_cell_volume   587.68607929
_cell_formula_units_Z   2
loop_
 _symmetry_equiv_pos_site_id
 _symmetry_equiv_pos_as_xyz
  1  'x, y, z'
loop_
 _atom_site_type_symbol
 _atom_site_label
 _atom_site_symmetry_multiplicity
 _atom_site_fract_x
 _atom_site_fract_y
 _atom_site_fract_z
 _atom_site_occupancy
  H  H0  1  0.248608  0.635116  0.316641  1
  H  H1  1  0.364884  0.751394  0.183364  1
  H  H2  1  0.751393  0.364884  0.683359  1
  H  H3  1  0.635115  0.248606  0.816636  1
  H  H4  1  0.396953  0.543230  0.181247  1
  H  H5  1  0.456768  0.603046  0.318758  1
  H  H6  1  0.603047  0.456770  0.818753  1
  H  H7  1  0.543233  0.396954  0.681243  1
  H  H8  1  0.775913  0.521946  0.006561  1
  H  H9  1  0.478075  0.224098  0.493408  1
  H  H10  1  0.224087  0.478054  0.993439  1
  H  H11  1  0.521926  0.775902  0.506591  1
  H  H12  1  0.080223  0.632026  0.043587  1
  H  H13  1  0.367959  0.919756  0.456456  1
  H  H14  1  0.919776  0.367974  0.956414  1
  H  H15  1  0.632042  0.080244  0.543544  1
  N  N16  1  0.633257  0.366742  0.749997  1
  N  N17  1  0.366742  0.633258  0.250002  1
  O  O18  1  0.882798  0.701484  0.162501  1
  O  O19  1  0.504323  0.301854  0.181513  1
  O  O20  1  0.169759  0.972592  0.803788  1
  O  O21  1  0.027412  0.830230  0.696231  1
  O  O22  1  0.967308  0.152117  0.617120  1
  O  O23  1  0.972589  0.169770  0.303768  1
  O  O24  1  0.398446  0.806050  0.519713  1
  O  O25  1  0.193950  0.601533  0.980359  1
  O  O26  1  0.601554  0.193950  0.480286  1
  O  O27  1  0.806051  0.398467  0.019642  1
  O  O28  1  0.117202  0.298516  0.837498  1
  O  O29  1  0.847880  0.032706  0.882878  1
  O  O30  1  0.698164  0.495661  0.318447  1
  O  O31  1  0.298510  0.117213  0.337491  1
  O  O32  1  0.315969  0.234746  0.043821  1
  O  O33  1  0.765252  0.684017  0.456175  1
  O  O34  1  0.684032  0.765254  0.956178  1
  O  O35  1  0.234747  0.315983  0.543825  1
  O  O36  1  0.465129  0.007490  0.843303  1
  O  O37  1  0.992503  0.534871  0.656703  1
  O  O38  1  0.534870  0.992510  0.156698  1
  O  O39  1  0.007497  0.465129  0.343297  1
  O  O40  1  0.301836  0.504339  0.681553  1
  O  O41  1  0.495677  0.698146  0.818487  1
  O  O42  1  0.032692  0.847883  0.382881  1
  O  O43  1  0.152119  0.967294  0.117122  1
  O  O44  1  0.830240  0.027408  0.196212  1
  O  O45  1  0.701491  0.882787  0.662509  1
  P  P46  1  0.417606  0.165909  0.177283  1
  P  P47  1  0.834097  0.582385  0.322703  1
  P  P48  1  0.582394  0.834091  0.822716  1
  P  P49  1  0.000812  0.999186  0.750004  1
  P  P50  1  0.999188  0.000814  0.249995  1
  P  P51  1  0.165904  0.417615  0.677297  1
  Ni  Ni52  1  0.275481  0.724518  0.750073  1
  Ni  Ni53  1  0.724520  0.275482  0.249925  1
  Ga  Ga54  1  0.098111  0.246165  0.431620  1
  Ga  Ga55  1  0.753841  0.901892  0.068379  1
  Ga  Ga56  1  0.901888  0.753835  0.568381  1
  Ga  Ga57  1  0.246160  0.098108  0.931621  1
