# generated using pymatgen
data_HgCN2
_symmetry_space_group_name_H-M   'P 1'
_cell_length_a   5.57972911
_cell_length_b   7.27617149
_cell_length_c   7.12657097
_cell_angle_alpha   90.00000000
_cell_angle_beta   90.00000000
_cell_angle_gamma   113.11475022
_symmetry_Int_Tables_number   1
_chemical_formula_structural   HgCN2
_chemical_formula_sum   'Hg4 C4 N8'
_cell_volume   266.10467550
_cell_formula_units_Z   4
loop_
 _symmetry_equiv_pos_site_id
 _symmetry_equiv_pos_as_xyz
  1  'x, y, z'
loop_
 _atom_site_type_symbol
 _atom_site_label
 _atom_site_symmetry_multiplicity
 _atom_site_fract_x
 _atom_site_fract_y
 _atom_site_fract_z
 _atom_site_occupancy
  Hg  Hg0  1  0.007848  0.255988  0.874847  1
  Hg  Hg1  1  0.992152  0.744012  0.125153  1
  Hg  Hg2  1  0.992152  0.244012  0.374847  1
  Hg  Hg3  1  0.007848  0.755988  0.625153  1
  C  C4  1  0.429025  0.769594  0.372978  1
  C  C5  1  0.429025  0.269594  0.127022  1
  C  C6  1  0.570975  0.230406  0.627022  1
  C  C7  1  0.570975  0.730406  0.872978  1
  N  N8  1  0.821104  0.287375  0.626750  1
  N  N9  1  0.340287  0.683640  0.874880  1
  N  N10  1  0.659713  0.816360  0.374880  1
  N  N11  1  0.178896  0.712625  0.373250  1
  N  N12  1  0.659713  0.316360  0.125120  1
  N  N13  1  0.821104  0.787375  0.873250  1
  N  N14  1  0.178896  0.212625  0.126750  1
  N  N15  1  0.340287  0.183640  0.625120  1
