# generated using pymatgen
data_WSeS2Cl5
_symmetry_space_group_name_H-M   'P 1'
_cell_length_a   9.75100323
_cell_length_b   10.19505964
_cell_length_c   13.88144783
_cell_angle_alpha   71.98311404
_cell_angle_beta   69.42091768
_cell_angle_gamma   61.42616220
_symmetry_Int_Tables_number   1
_chemical_formula_structural   WSeS2Cl5
_chemical_formula_sum   'W4 Se4 S8 Cl20'
_cell_volume   1117.71702240
_cell_formula_units_Z   4
loop_
 _symmetry_equiv_pos_site_id
 _symmetry_equiv_pos_as_xyz
  1  'x, y, z'
loop_
 _atom_site_type_symbol
 _atom_site_label
 _atom_site_symmetry_multiplicity
 _atom_site_fract_x
 _atom_site_fract_y
 _atom_site_fract_z
 _atom_site_occupancy
  W  W0  1  0.237069  0.409860  0.739220  1
  W  W1  1  0.385600  0.091302  0.760819  1
  W  W2  1  0.762931  0.590140  0.260780  1
  W  W3  1  0.614400  0.908698  0.239181  1
  Se  Se4  1  0.919761  0.564080  0.738926  1
  Se  Se5  1  0.777782  0.062910  0.238774  1
  Se  Se6  1  0.080239  0.435920  0.261074  1
  Se  Se7  1  0.222218  0.937090  0.761226  1
  S  S8  1  0.540634  0.732794  0.391505  1
  S  S9  1  0.665528  0.766007  0.108545  1
  S  S10  1  0.753634  0.735553  0.376290  1
  S  S11  1  0.866072  0.763303  0.123654  1
  S  S12  1  0.133928  0.236697  0.876346  1
  S  S13  1  0.246366  0.264447  0.623710  1
  S  S14  1  0.334472  0.233993  0.891455  1
  S  S15  1  0.459366  0.267206  0.608495  1
  Cl  Cl16  1  0.863984  0.478426  0.633286  1
  Cl  Cl17  1  0.864075  0.984694  0.384811  1
  Cl  Cl18  1  0.482675  0.101064  0.353017  1
  Cl  Cl19  1  0.765730  0.485781  0.885004  1
  Cl  Cl20  1  0.135925  0.015306  0.615189  1
  Cl  Cl21  1  0.380401  0.877469  0.904795  1
  Cl  Cl22  1  0.655133  0.009461  0.770790  1
  Cl  Cl23  1  0.234270  0.514219  0.114996  1
  Cl  Cl24  1  0.517325  0.898936  0.646983  1
  Cl  Cl25  1  0.838101  0.376289  0.404777  1
  Cl  Cl26  1  0.136016  0.521574  0.366714  1
  Cl  Cl27  1  0.024900  0.977361  0.133094  1
  Cl  Cl28  1  0.937413  0.397790  0.146957  1
  Cl  Cl29  1  0.619599  0.122531  0.095205  1
  Cl  Cl30  1  0.161899  0.623711  0.595223  1
  Cl  Cl31  1  0.062587  0.602210  0.853043  1
  Cl  Cl32  1  0.975100  0.022639  0.866906  1
  Cl  Cl33  1  0.434758  0.491805  0.729055  1
  Cl  Cl34  1  0.344867  0.990539  0.229210  1
  Cl  Cl35  1  0.565242  0.508195  0.270945  1
