# generated using pymatgen
data_PuGa
_symmetry_space_group_name_H-M   'P 1'
_cell_length_a   5.92445649
_cell_length_b   5.92445613
_cell_length_c   5.92445615
_cell_angle_alpha   98.85990061
_cell_angle_beta   115.02354067
_cell_angle_gamma   115.02353755
_symmetry_Int_Tables_number   1
_chemical_formula_structural   PuGa
_chemical_formula_sum   'Pu4 Ga4'
_cell_volume   156.07154474
_cell_formula_units_Z   4
loop_
 _symmetry_equiv_pos_site_id
 _symmetry_equiv_pos_as_xyz
  1  'x, y, z'
loop_
 _atom_site_type_symbol
 _atom_site_label
 _atom_site_symmetry_multiplicity
 _atom_site_fract_x
 _atom_site_fract_y
 _atom_site_fract_z
 _atom_site_occupancy
  Pu  Pu0  1  0.000000  0.148285  0.148285  1
  Pu  Pu1  1  1.000000  0.851715  0.851715  1
  Pu  Pu2  1  0.500000  0.250000  0.750000  1
  Pu  Pu3  1  0.500000  0.750000  0.250000  1
  Ga  Ga4  1  0.000000  0.700169  0.299831  1
  Ga  Ga5  1  0.599662  0.299831  0.299831  1
  Ga  Ga6  1  1.000000  0.299831  0.700169  1
  Ga  Ga7  1  0.400338  0.700169  0.700169  1
