# generated using pymatgen
data_Mg17(As3O16)2
_symmetry_space_group_name_H-M   'P 1'
_cell_length_a   9.96081703
_cell_length_b   39.83978794
_cell_length_c   18.96472124
_cell_angle_alpha   17.81500421
_cell_angle_beta   31.54289211
_cell_angle_gamma   35.76873866
_symmetry_Int_Tables_number   1
_chemical_formula_structural   Mg17(As3O16)2
_chemical_formula_sum   'Mg34 As12 O64'
_cell_volume   1204.52683286
_cell_formula_units_Z   2
loop_
 _symmetry_equiv_pos_site_id
 _symmetry_equiv_pos_as_xyz
  1  'x, y, z'
loop_
 _atom_site_type_symbol
 _atom_site_label
 _atom_site_symmetry_multiplicity
 _atom_site_fract_x
 _atom_site_fract_y
 _atom_site_fract_z
 _atom_site_occupancy
  As  As0  1  1.002754  -0.001125  0.001162  1
  As  As1  1  -0.002754  0.251125  0.998838  1
  As  As2  1  0.189980  0.249802  0.193735  1
  As  As3  1  -0.002754  0.498875  1.003339  1
  As  As4  1  0.810020  0.000198  0.806265  1
  As  As5  1  0.189980  0.500198  0.192943  1
  As  As6  1  1.002754  0.751125  -0.003339  1
  As  As7  1  0.808170  0.250289  0.806449  1
  As  As8  1  0.191830  0.750289  0.192395  1
  As  As9  1  0.808170  0.499711  0.807605  1
  As  As10  1  0.191830  0.999711  0.193551  1
  As  As11  1  0.810020  0.749802  0.807057  1
  Mg  Mg12  1  0.263985  0.124980  0.245887  1
  Mg  Mg13  1  0.744248  0.004367  0.246573  1
  Mg  Mg14  1  0.740104  0.125601  0.245929  1
  Mg  Mg15  1  0.500000  0.125000  0.500000  1
  Mg  Mg16  1  0.497794  0.383313  0.985051  1
  Mg  Mg17  1  0.018481  0.004004  0.481910  1
  Mg  Mg18  1  0.259896  0.124399  0.754071  1
  Mg  Mg19  1  0.253111  0.373279  0.259633  1
  Mg  Mg20  1  0.754081  0.249806  0.255775  1
  Mg  Mg21  1  0.255752  0.245633  0.753427  1
  Mg  Mg22  1  0.736015  0.125020  0.754113  1
  Mg  Mg23  1  0.743683  0.374470  0.244945  1
  Mg  Mg24  1  0.497794  0.366687  0.518302  1
  Mg  Mg25  1  0.500000  0.625000  0.000000  1
  Mg  Mg26  1  0.981519  0.245996  0.518090  1
  Mg  Mg27  1  0.253111  0.376721  0.752750  1
  Mg  Mg28  1  0.259896  0.625601  0.251667  1
  Mg  Mg29  1  0.754081  0.500194  0.254998  1
  Mg  Mg30  1  0.255752  0.504367  0.735958  1
  Mg  Mg31  1  0.743683  0.375530  0.742823  1
  Mg  Mg32  1  0.736015  0.624980  0.254195  1
  Mg  Mg33  1  0.018481  0.745996  0.497924  1
  Mg  Mg34  1  0.502206  0.866687  0.014949  1
  Mg  Mg35  1  0.981519  0.504004  0.502076  1
  Mg  Mg36  1  0.263985  0.625020  0.745805  1
  Mg  Mg37  1  0.256317  0.874470  0.257177  1
  Mg  Mg38  1  0.744248  0.745633  0.264042  1
  Mg  Mg39  1  0.245919  0.749806  0.745002  1
  Mg  Mg40  1  0.740104  0.624399  0.748333  1
  Mg  Mg41  1  0.746889  0.873279  0.247250  1
  Mg  Mg42  1  0.502206  0.883313  0.481698  1
  Mg  Mg43  1  0.256317  0.875530  0.755055  1
  Mg  Mg44  1  0.245919  0.000194  0.744225  1
  Mg  Mg45  1  0.746889  0.876721  0.740367  1
  O  O46  1  0.081167  0.144340  0.110415  1
  O  O47  1  0.690475  0.992602  0.109044  1
  O  O48  1  0.129014  0.249654  0.130060  1
  O  O49  1  0.635490  0.134871  0.095724  1
  O  O50  1  0.365112  0.134283  0.365317  1
  O  O51  1  0.903075  1.000422  0.364364  1
  O  O52  1  0.110740  0.108591  0.669441  1
  O  O53  1  0.105186  0.390107  0.109262  1
  O  O54  1  0.622206  0.000826  0.620101  1
  O  O55  1  0.662133  0.252087  0.107476  1
  O  O56  1  0.377794  0.249174  0.379899  1
  O  O57  1  0.889260  0.141409  0.330559  1
  O  O58  1  0.096925  0.249578  0.635636  1
  O  O59  1  0.129014  0.500346  0.128678  1
  O  O60  1  0.634888  0.115717  0.634683  1
  O  O61  1  0.635179  0.383673  0.098783  1
  O  O62  1  0.364510  0.115129  0.904276  1
  O  O63  1  0.360756  0.383975  0.367590  1
  O  O64  1  0.870986  0.000346  0.869940  1
  O  O65  1  0.901535  0.247646  0.369867  1
  O  O66  1  0.105186  0.359893  0.669689  1
  O  O67  1  0.110740  0.641409  0.103804  1
  O  O68  1  0.630549  0.257868  0.597889  1
  O  O69  1  0.662133  0.497913  0.115823  1
  O  O70  1  0.309525  0.257398  0.890956  1
  O  O71  1  0.377794  0.500826  0.376597  1
  O  O72  1  0.918833  0.105660  0.889585  1
  O  O73  1  0.880732  0.387761  0.341700  1
  O  O74  1  0.096925  0.500422  0.633947  1
  O  O75  1  0.128529  0.750045  0.130311  1
  O  O76  1  0.635179  0.366327  0.633475  1
  O  O77  1  0.634888  0.634283  0.097552  1
  O  O78  1  0.360756  0.366025  0.903491  1
  O  O79  1  0.364510  0.634871  0.364792  1
  O  O80  1  0.871471  0.250045  0.869507  1
  O  O81  1  0.901535  0.502354  0.360452  1
  O  O82  1  0.081167  0.605660  0.687776  1
  O  O83  1  0.119268  0.887761  0.107255  1
  O  O84  1  0.630549  0.492132  0.629363  1
  O  O85  1  0.690475  0.757398  0.079454  1
  O  O86  1  0.309525  0.492602  0.920546  1
  O  O87  1  0.369451  0.757868  0.370637  1
  O  O88  1  0.880732  0.362239  0.892745  1
  O  O89  1  0.918833  0.644340  0.312224  1
  O  O90  1  0.098465  0.747646  0.639548  1
  O  O91  1  0.128529  0.999955  0.130493  1
  O  O92  1  0.635490  0.615129  0.635208  1
  O  O93  1  0.639244  0.883975  0.096509  1
  O  O94  1  0.365112  0.615717  0.902448  1
  O  O95  1  0.364821  0.883673  0.366525  1
  O  O96  1  0.871471  0.499955  0.869689  1
  O  O97  1  0.903075  0.749578  0.366053  1
  O  O98  1  0.119268  0.862239  0.658300  1
  O  O99  1  0.622206  0.749174  0.623403  1
  O  O100  1  0.337867  0.752087  0.884177  1
  O  O101  1  0.369451  0.992132  0.402111  1
  O  O102  1  0.889260  0.608591  0.896196  1
  O  O103  1  0.894814  0.890107  0.330311  1
  O  O104  1  0.098465  0.002354  0.630133  1
  O  O105  1  0.639244  0.866025  0.632410  1
  O  O106  1  0.364821  0.866327  0.901217  1
  O  O107  1  0.870986  0.749654  0.871322  1
  O  O108  1  0.337867  0.997913  0.892524  1
  O  O109  1  0.894814  0.859893  0.890738  1
