# generated using pymatgen
data_Ba3Bi2(PO4)4
_symmetry_space_group_name_H-M   'P 1'
_cell_length_a   8.87455037
_cell_length_b   8.85910981
_cell_length_c   11.31970045
_cell_angle_alpha   108.19609526
_cell_angle_beta   113.07840913
_cell_angle_gamma   90.00128231
_symmetry_Int_Tables_number   1
_chemical_formula_structural   Ba3Bi2(PO4)4
_chemical_formula_sum   'Ba6 Bi4 P8 O32'
_cell_volume   770.12574264
_cell_formula_units_Z   2
loop_
 _symmetry_equiv_pos_site_id
 _symmetry_equiv_pos_as_xyz
  1  'x, y, z'
loop_
 _atom_site_type_symbol
 _atom_site_label
 _atom_site_symmetry_multiplicity
 _atom_site_fract_x
 _atom_site_fract_y
 _atom_site_fract_z
 _atom_site_occupancy
  Ba  Ba0  1  0.722426  0.226752  0.567530  1
  Ba  Ba1  1  0.945024  0.750013  0.000014  1
  Ba  Ba2  1  0.054976  0.249987  0.999986  1
  Ba  Ba3  1  0.154866  0.273278  0.432495  1
  Ba  Ba4  1  0.277574  0.773248  0.432470  1
  Ba  Ba5  1  0.845134  0.726722  0.567505  1
  Bi  Bi6  1  0.474909  0.312620  0.835711  1
  Bi  Bi7  1  0.525091  0.687380  0.164289  1
  Bi  Bi8  1  0.639147  0.187394  0.164327  1
  Bi  Bi9  1  0.360853  0.812606  0.835673  1
  P  P10  1  0.547982  0.549200  0.709939  1
  P  P11  1  0.676539  0.011006  0.778691  1
  P  P12  1  0.102163  0.511027  0.778737  1
  P  P13  1  0.838020  0.950794  0.290058  1
  P  P14  1  0.452018  0.450800  0.290061  1
  P  P15  1  0.897837  0.488973  0.221263  1
  P  P16  1  0.161980  0.049206  0.709942  1
  P  P17  1  0.323461  0.988994  0.221309  1
  O  O18  1  0.450035  -0.002539  0.155257  1
  O  O19  1  0.289600  0.801267  0.190655  1
  O  O20  1  0.401021  0.645604  0.658530  1
  O  O21  1  0.294777  0.502534  0.844813  1
  O  O22  1  0.184544  0.865850  0.653798  1
  O  O23  1  0.901047  0.301253  0.190619  1
  O  O24  1  0.613618  0.600358  0.867852  1
  O  O25  1  0.978273  0.060898  0.657174  1
  O  O26  1  0.601508  0.924789  0.623432  1
  O  O27  1  0.710400  0.198733  0.809345  1
  O  O28  1  0.321071  0.439112  0.342817  1
  O  O29  1  0.815456  0.134150  0.346202  1
  O  O30  1  0.254221  0.100350  0.867853  1
  O  O31  1  0.987107  0.546330  0.147797  1
  O  O32  1  0.398492  0.075211  0.376568  1
  O  O33  1  0.549965  1.002539  0.844743  1
  O  O34  1  0.386382  0.399642  0.132148  1
  O  O35  1  0.530749  0.634143  0.346193  1
  O  O36  1  0.678929  0.560888  0.657183  1
  O  O37  1  0.598979  0.354396  0.341470  1
  O  O38  1  0.098953  0.698747  0.809381  1
  O  O39  1  0.021982  0.424799  0.623470  1
  O  O40  1  0.839247  0.953657  0.852208  1
  O  O41  1  0.978018  0.575201  0.376530  1
  O  O42  1  0.257570  0.145607  0.658556  1
  O  O43  1  0.745779  0.899650  0.132147  1
  O  O44  1  0.705223  0.497466  0.155187  1
  O  O45  1  0.012893  0.453670  0.852203  1
  O  O46  1  0.742430  0.854393  0.341444  1
  O  O47  1  0.021727  0.939102  0.342826  1
  O  O48  1  0.160753  0.046343  0.147792  1
  O  O49  1  0.469251  0.365857  0.653807  1
