# generated using pymatgen
data_NdNiSnH2
_symmetry_space_group_name_H-M   'P 1'
_cell_length_a   4.38844343
_cell_length_b   7.63422135
_cell_length_c   8.49646512
_cell_angle_alpha   90.00000000
_cell_angle_beta   90.00000000
_cell_angle_gamma   90.00000000
_symmetry_Int_Tables_number   1
_chemical_formula_structural   NdNiSnH2
_chemical_formula_sum   'Nd4 Ni4 Sn4 H8'
_cell_volume   284.65153569
_cell_formula_units_Z   4
loop_
 _symmetry_equiv_pos_site_id
 _symmetry_equiv_pos_as_xyz
  1  'x, y, z'
loop_
 _atom_site_type_symbol
 _atom_site_label
 _atom_site_symmetry_multiplicity
 _atom_site_fract_x
 _atom_site_fract_y
 _atom_site_fract_z
 _atom_site_occupancy
  Nd  Nd0  1  0.250000  0.749812  0.000066  1
  Nd  Nd1  1  0.750000  0.250188  0.999934  1
  Nd  Nd2  1  0.750000  0.249812  0.499934  1
  Nd  Nd3  1  0.250000  0.750188  0.500066  1
  Ni  Ni4  1  0.250000  0.416654  0.249987  1
  Ni  Ni5  1  0.750000  0.583346  0.750013  1
  Ni  Ni6  1  0.750000  0.916654  0.250013  1
  Ni  Ni7  1  0.250000  0.083346  0.749987  1
  Sn  Sn8  1  0.250000  0.083939  0.249829  1
  Sn  Sn9  1  0.750000  0.916061  0.750171  1
  Sn  Sn10  1  0.750000  0.583939  0.250171  1
  Sn  Sn11  1  0.250000  0.416061  0.749829  1
  H  H12  1  0.250000  0.084478  0.938086  1
  H  H13  1  0.750000  0.915522  0.061914  1
  H  H14  1  0.750000  0.584478  0.561914  1
  H  H15  1  0.250000  0.415522  0.438086  1
  H  H16  1  0.250000  0.083445  0.561902  1
  H  H17  1  0.750000  0.916555  0.438098  1
  H  H18  1  0.750000  0.583445  0.938098  1
  H  H19  1  0.250000  0.416555  0.061902  1
