# generated using pymatgen
data_Na2Be(GeO3)2
_symmetry_space_group_name_H-M   'P 1'
_cell_length_a   7.19140711
_cell_length_b   11.49523956
_cell_length_c   11.53247550
_cell_angle_alpha   84.40318810
_cell_angle_beta   71.83289916
_cell_angle_gamma   71.77198597
_symmetry_Int_Tables_number   1
_chemical_formula_structural   Na2Be(GeO3)2
_chemical_formula_sum   'Na12 Be6 Ge12 O36'
_cell_volume   860.37570081
_cell_formula_units_Z   6
loop_
 _symmetry_equiv_pos_site_id
 _symmetry_equiv_pos_as_xyz
  1  'x, y, z'
loop_
 _atom_site_type_symbol
 _atom_site_label
 _atom_site_symmetry_multiplicity
 _atom_site_fract_x
 _atom_site_fract_y
 _atom_site_fract_z
 _atom_site_occupancy
  Na  Na0  1  0.742165  0.500000  0.515670  1
  Na  Na1  1  0.492165  0.000000  0.015670  1
  Na  Na2  1  0.109340  0.500000  0.781320  1
  Na  Na3  1  0.859340  0.000000  0.281320  1
  Na  Na4  1  0.061208  0.845205  0.552390  1
  Na  Na5  1  0.386403  0.154795  0.552390  1
  Na  Na6  1  0.156413  0.654795  0.052390  1
  Na  Na7  1  0.791198  0.345205  0.052390  1
  Na  Na8  1  0.442877  0.814823  0.827447  1
  Na  Na9  1  0.729676  0.185177  0.827447  1
  Na  Na10  1  0.507701  0.685177  0.327447  1
  Na  Na11  1  0.164853  0.314823  0.327447  1
  Be  Be12  1  0.273880  0.837374  0.146008  1
  Be  Be13  1  0.580112  0.162626  0.146008  1
  Be  Be14  1  0.361254  0.662626  0.646008  1
  Be  Be15  1  0.992738  0.337374  0.646008  1
  Be  Be16  1  0.884927  0.500000  0.230145  1
  Be  Be17  1  0.634927  0.000000  0.730145  1
  Ge  Ge18  1  0.249514  0.500000  0.500973  1
  Ge  Ge19  1  0.999514  0.000000  0.000973  1
  Ge  Ge20  1  0.594975  0.500000  0.810051  1
  Ge  Ge21  1  0.344975  0.000000  0.310051  1
  Ge  Ge22  1  0.942123  0.799148  0.842760  1
  Ge  Ge23  1  0.215117  0.200852  0.842760  1
  Ge  Ge24  1  0.991271  0.700852  0.342760  1
  Ge  Ge25  1  0.665969  0.299148  0.342760  1
  Ge  Ge26  1  0.560043  0.867973  0.525772  1
  Ge  Ge27  1  0.914185  0.132027  0.525772  1
  Ge  Ge28  1  0.678016  0.632027  0.025772  1
  Ge  Ge29  1  0.296212  0.367973  0.025772  1
  O  O30  1  0.736061  0.518349  0.909478  1
  O  O31  1  0.354461  0.481651  0.909478  1
  O  O32  1  0.504410  0.981651  0.409478  1
  O  O33  1  0.086112  0.018349  0.409478  1
  O  O34  1  0.112721  0.714362  0.715452  1
  O  O35  1  0.171827  0.285638  0.715452  1
  O  O36  1  0.077082  0.785638  0.215452  1
  O  O37  1  0.707466  0.214362  0.215452  1
  O  O38  1  0.085241  0.870702  0.900104  1
  O  O39  1  0.014655  0.129298  0.900104  1
  O  O40  1  0.205942  0.629298  0.400104  1
  O  O41  1  0.393953  0.370702  0.400104  1
  O  O42  1  0.833999  0.808462  0.465181  1
  O  O43  1  0.700820  0.191538  0.465181  1
  O  O44  1  0.892461  0.691538  0.965181  1
  O  O45  1  0.142357  0.308462  0.965181  1
  O  O46  1  0.510413  0.954205  0.654230  1
  O  O47  1  0.835358  0.045795  0.654230  1
  O  O48  1  0.714617  0.545795  0.154230  1
  O  O49  1  0.131153  0.454205  0.154230  1
  O  O50  1  0.403740  0.866747  0.228182  1
  O  O51  1  0.368078  0.133253  0.228182  1
  O  O52  1  0.520488  0.633253  0.728182  1
  O  O53  1  0.751330  0.366747  0.728182  1
  O  O54  1  0.437619  0.736363  0.036403  1
  O  O55  1  0.525978  0.263637  0.036403  1
  O  O56  1  0.423983  0.763637  0.536403  1
  O  O57  1  0.039615  0.236363  0.536403  1
  O  O58  1  0.393626  0.531171  0.583547  1
  O  O59  1  0.022827  0.468829  0.583547  1
  O  O60  1  0.174797  0.968829  0.083547  1
  O  O61  1  0.741656  0.031171  0.083547  1
  O  O62  1  0.851015  0.608445  0.326767  1
  O  O63  1  0.822218  0.391555  0.326767  1
  O  O64  1  0.709460  0.891555  0.826767  1
  O  O65  1  0.463773  0.108445  0.826767  1
