# generated using pymatgen
data_PrMg2Ni9
_symmetry_space_group_name_H-M   'P 1'
_cell_length_a   8.36100254
_cell_length_b   8.36100227
_cell_length_c   8.36100317
_cell_angle_alpha   34.05279938
_cell_angle_beta   34.05280220
_cell_angle_gamma   34.05280196
_symmetry_Int_Tables_number   1
_chemical_formula_structural   PrMg2Ni9
_chemical_formula_sum   'Pr1 Mg2 Ni9'
_cell_volume   163.37406639
_cell_formula_units_Z   1
loop_
 _symmetry_equiv_pos_site_id
 _symmetry_equiv_pos_as_xyz
  1  'x, y, z'
loop_
 _atom_site_type_symbol
 _atom_site_label
 _atom_site_symmetry_multiplicity
 _atom_site_fract_x
 _atom_site_fract_y
 _atom_site_fract_z
 _atom_site_occupancy
  Pr  Pr0  1  0.000000  0.000000  0.000000  1
  Mg  Mg1  1  0.855394  0.855394  0.855394  1
  Mg  Mg2  1  0.144606  0.144606  0.144606  1
  Ni  Ni3  1  0.586474  0.082597  0.586474  1
  Ni  Ni4  1  0.413526  0.917403  0.413526  1
  Ni  Ni5  1  0.666321  0.666321  0.666321  1
  Ni  Ni6  1  0.586474  0.586474  0.082597  1
  Ni  Ni7  1  0.917403  0.413526  0.413526  1
  Ni  Ni8  1  0.333679  0.333679  0.333679  1
  Ni  Ni9  1  0.500000  0.500000  0.500000  1
  Ni  Ni10  1  0.413526  0.413526  0.917403  1
  Ni  Ni11  1  0.082597  0.586474  0.586474  1
