# generated using pymatgen
data_Li2ZnSn3O8
_symmetry_space_group_name_H-M   'P 1'
_cell_length_a   10.05516142
_cell_length_b   10.66681254
_cell_length_c   10.67483246
_cell_angle_alpha   119.97515296
_cell_angle_beta   90.00000000
_cell_angle_gamma   90.00000000
_symmetry_Int_Tables_number   1
_chemical_formula_structural   Li2ZnSn3O8
_chemical_formula_sum   'Li12 Zn6 Sn18 O48'
_cell_volume   991.79997065
_cell_formula_units_Z   6
loop_
 _symmetry_equiv_pos_site_id
 _symmetry_equiv_pos_as_xyz
  1  'x, y, z'
loop_
 _atom_site_type_symbol
 _atom_site_label
 _atom_site_symmetry_multiplicity
 _atom_site_fract_x
 _atom_site_fract_y
 _atom_site_fract_z
 _atom_site_occupancy
  Li  Li0  1  0.279930  0.697061  0.361943  1
  Li  Li1  1  0.508396  0.833732  0.499719  1
  Li  Li2  1  0.779930  0.302939  0.638057  1
  Li  Li3  1  0.508396  0.334013  0.500281  1
  Li  Li4  1  0.010310  0.165993  1.000000  1
  Li  Li5  1  0.779930  0.664883  0.361943  1
  Li  Li6  1  0.008396  0.166268  0.500281  1
  Li  Li7  1  0.008396  0.665987  0.499719  1
  Li  Li8  1  0.283864  0.978342  1.000000  1
  Li  Li9  1  0.279930  0.335117  0.638057  1
  Li  Li10  1  0.783864  0.021658  0.000000  1
  Li  Li11  1  0.510310  0.834007  0.000000  1
  Zn  Zn12  1  0.694723  1.000350  0.333749  1
  Zn  Zn13  1  0.194723  0.333400  0.333749  1
  Zn  Zn14  1  0.190846  0.666627  0.000000  1
  Zn  Zn15  1  0.690846  0.333373  1.000000  1
  Zn  Zn16  1  0.194723  -0.000350  0.666251  1
  Zn  Zn17  1  0.694723  0.666600  0.666251  1
  Sn  Sn18  1  0.502159  0.505961  0.344668  1
  Sn  Sn19  1  0.503593  0.984549  0.825440  1
  Sn  Sn20  1  0.503674  0.681152  0.172722  1
  Sn  Sn21  1  0.503593  0.159109  0.174560  1
  Sn  Sn22  1  0.503674  0.508430  0.827278  1
  Sn  Sn23  1  0.502159  0.161293  0.655332  1
  Sn  Sn24  1  0.003674  0.491570  0.172722  1
  Sn  Sn25  1  0.283003  0.666868  0.663044  1
  Sn  Sn26  1  0.784168  0.670724  1.000000  1
  Sn  Sn27  1  0.002159  0.494039  0.655332  1
  Sn  Sn28  1  0.003593  0.840891  0.825440  1
  Sn  Sn29  1  0.283003  0.003824  0.336956  1
  Sn  Sn30  1  0.783003  0.333132  0.336956  1
  Sn  Sn31  1  0.783003  0.996176  0.663044  1
  Sn  Sn32  1  0.002159  0.838707  0.344668  1
  Sn  Sn33  1  0.284168  0.329276  0.000000  1
  Sn  Sn34  1  0.003674  0.318848  0.827278  1
  Sn  Sn35  1  0.003593  0.015451  0.174560  1
  O  O36  1  0.883700  0.167742  0.670899  1
  O  O37  1  0.100595  0.665735  0.330456  1
  O  O38  1  0.384477  0.000441  0.167471  1
  O  O39  1  0.383700  0.503157  0.670899  1
  O  O40  1  0.887649  0.842015  0.000000  1
  O  O41  1  0.393040  0.663196  1.000000  1
  O  O42  1  0.893040  0.336804  0.000000  1
  O  O43  1  0.382786  0.169109  0.504382  1
  O  O44  1  0.629394  0.150303  0.818856  1
  O  O45  1  0.632368  0.517842  0.000000  1
  O  O46  1  0.896570  0.996911  0.330052  1
  O  O47  1  0.100595  0.335278  0.669544  1
  O  O48  1  0.382786  0.664726  0.495618  1
  O  O49  1  0.129394  0.668553  0.818856  1
  O  O50  1  0.884477  0.999559  0.832529  1
  O  O51  1  0.896570  0.666859  0.669948  1
  O  O52  1  0.600595  0.664722  0.330456  1
  O  O53  1  0.600595  0.334265  0.669544  1
  O  O54  1  0.141585  0.508913  0.519263  1
  O  O55  1  0.141585  0.989650  0.480737  1
  O  O56  1  0.140376  0.150663  0.329910  1
  O  O57  1  0.384477  0.832971  0.832529  1
  O  O58  1  0.132368  0.482158  1.000000  1
  O  O59  1  0.640376  0.849337  0.670090  1
  O  O60  1  0.643724  0.815402  0.154254  1
  O  O61  1  0.629394  0.331447  0.181144  1
  O  O62  1  0.396570  0.003089  0.669948  1
  O  O63  1  0.890142  0.664531  0.168938  1
  O  O64  1  0.396570  0.333141  0.330052  1
  O  O65  1  0.883700  0.496843  0.329101  1
  O  O66  1  0.143724  0.184598  0.845746  1
  O  O67  1  0.383700  0.832258  0.329101  1
  O  O68  1  0.102105  0.997695  1.000000  1
  O  O69  1  0.884477  0.167029  0.167471  1
  O  O70  1  0.602105  0.002305  0.000000  1
  O  O71  1  0.387649  0.157985  1.000000  1
  O  O72  1  0.140376  0.820753  0.670090  1
  O  O73  1  0.129394  0.849697  0.181144  1
  O  O74  1  0.143724  0.338852  0.154254  1
  O  O75  1  0.643724  0.661148  0.845746  1
  O  O76  1  0.882786  0.335274  0.504382  1
  O  O77  1  0.641585  0.491087  0.480737  1
  O  O78  1  0.390142  0.504407  0.168938  1
  O  O79  1  0.641585  0.010350  0.519263  1
  O  O80  1  0.882786  0.830891  0.495618  1
  O  O81  1  0.640376  0.179247  0.329910  1
  O  O82  1  0.890142  0.495593  0.831062  1
  O  O83  1  0.390142  0.335469  0.831062  1
