# generated using pymatgen
data_CeTe3
_symmetry_space_group_name_H-M   'P 1'
_cell_length_a   4.41333049
_cell_length_b   4.41938879
_cell_length_c   13.13356477
_cell_angle_alpha   90.00000000
_cell_angle_beta   99.67255301
_cell_angle_gamma   90.00000000
_symmetry_Int_Tables_number   1
_chemical_formula_structural   CeTe3
_chemical_formula_sum   'Ce2 Te6'
_cell_volume   252.51842734
_cell_formula_units_Z   2
loop_
 _symmetry_equiv_pos_site_id
 _symmetry_equiv_pos_as_xyz
  1  'x, y, z'
loop_
 _atom_site_type_symbol
 _atom_site_label
 _atom_site_symmetry_multiplicity
 _atom_site_fract_x
 _atom_site_fract_y
 _atom_site_fract_z
 _atom_site_occupancy
  Ce  Ce0  1  0.088743  0.750000  0.336275  1
  Ce  Ce1  1  0.752468  0.250000  0.663725  1
  Te  Te2  1  0.994917  0.250000  0.147075  1
  Te  Te3  1  0.494583  0.750000  0.147107  1
  Te  Te4  1  0.625203  0.250000  0.409434  1
  Te  Te5  1  0.847842  0.750000  0.852925  1
  Te  Te6  1  0.347476  0.250000  0.852893  1
  Te  Te7  1  0.215769  0.750000  0.590566  1
