# generated using pymatgen
data_La5Sn3
_symmetry_space_group_name_H-M   'P 1'
_cell_length_a   6.36379768
_cell_length_b   9.62087356
_cell_length_c   9.62087438
_cell_angle_alpha   83.73042702
_cell_angle_beta   70.68438959
_cell_angle_gamma   70.68438444
_symmetry_Int_Tables_number   1
_chemical_formula_structural   La5Sn3
_chemical_formula_sum   'La10 Sn6'
_cell_volume   524.59397894
_cell_formula_units_Z   2
loop_
 _symmetry_equiv_pos_site_id
 _symmetry_equiv_pos_as_xyz
  1  'x, y, z'
loop_
 _atom_site_type_symbol
 _atom_site_label
 _atom_site_symmetry_multiplicity
 _atom_site_fract_x
 _atom_site_fract_y
 _atom_site_fract_z
 _atom_site_occupancy
  La  La0  1  0.250000  0.500003  0.499997  1
  La  La1  1  0.750000  0.499997  0.500003  1
  La  La2  1  0.085628  0.131403  0.697485  1
  La  La3  1  0.782976  0.302523  0.131407  1
  La  La4  1  0.217024  0.697477  0.868593  1
  La  La5  1  0.914372  0.868597  0.302515  1
  La  La6  1  0.282976  0.131407  0.302523  1
  La  La7  1  0.717024  0.868593  0.697477  1
  La  La8  1  0.414372  0.302515  0.868597  1
  La  La9  1  0.585628  0.697485  0.131403  1
  Sn  Sn10  1  0.250000  -0.000034  1.000034  1
  Sn  Sn11  1  0.750000  1.000034  -0.000034  1
  Sn  Sn12  1  0.160111  0.499989  0.179790  1
  Sn  Sn13  1  0.339889  0.820210  0.500011  1
  Sn  Sn14  1  0.660111  0.179790  0.499989  1
  Sn  Sn15  1  0.839889  0.500011  0.820210  1
