# generated using pymatgen
data_YMoO4F
_symmetry_space_group_name_H-M   'P 1'
_cell_length_a   5.27935301
_cell_length_b   6.74759828
_cell_length_c   12.46077163
_cell_angle_alpha   90.00000000
_cell_angle_beta   90.00000000
_cell_angle_gamma   113.08429175
_symmetry_Int_Tables_number   1
_chemical_formula_structural   YMoO4F
_chemical_formula_sum   'Y4 Mo4 O16 F4'
_cell_volume   408.34682240
_cell_formula_units_Z   4
loop_
 _symmetry_equiv_pos_site_id
 _symmetry_equiv_pos_as_xyz
  1  'x, y, z'
loop_
 _atom_site_type_symbol
 _atom_site_label
 _atom_site_symmetry_multiplicity
 _atom_site_fract_x
 _atom_site_fract_y
 _atom_site_fract_z
 _atom_site_occupancy
  Y  Y0  1  0.639002  0.799988  0.051468  1
  Y  Y1  1  0.360998  0.200012  0.948532  1
  Y  Y2  1  0.639002  0.299988  0.448532  1
  Y  Y3  1  0.360998  0.700012  0.551468  1
  Mo  Mo4  1  0.921667  0.869946  0.356631  1
  Mo  Mo5  1  0.078333  0.630054  0.856631  1
  Mo  Mo6  1  0.921667  0.369946  0.143369  1
  Mo  Mo7  1  0.078333  0.130054  0.643369  1
  O  O8  1  0.192397  0.205126  0.777168  1
  O  O9  1  0.003439  0.336927  0.569017  1
  O  O10  1  0.192397  0.705126  0.722832  1
  O  O11  1  0.692042  0.961994  0.434627  1
  O  O12  1  0.807603  0.794874  0.222832  1
  O  O13  1  0.762082  0.407513  0.846910  1
  O  O14  1  0.237918  0.092487  0.346910  1
  O  O15  1  0.762082  0.907513  0.653090  1
  O  O16  1  0.807603  0.294874  0.277168  1
  O  O17  1  0.003439  0.836927  0.930983  1
  O  O18  1  0.307958  0.538006  0.934627  1
  O  O19  1  0.307958  0.038006  0.565373  1
  O  O20  1  0.237918  0.592487  0.153090  1
  O  O21  1  0.996561  0.663073  0.430983  1
  O  O22  1  0.996561  0.163073  0.069017  1
  O  O23  1  0.692042  0.461994  0.065373  1
  F  F24  1  0.544729  0.963462  0.902128  1
  F  F25  1  0.455271  0.536538  0.402128  1
  F  F26  1  0.455271  0.036538  0.097872  1
  F  F27  1  0.544729  0.463462  0.597872  1
