# generated using pymatgen
data_Li2U3P2O15
_symmetry_space_group_name_H-M   'P 1'
_cell_length_a   7.21445239
_cell_length_b   7.21445231
_cell_length_c   13.67743454
_cell_angle_alpha   105.29183674
_cell_angle_beta   105.29183655
_cell_angle_gamma   90.00000195
_symmetry_Int_Tables_number   1
_chemical_formula_structural   Li2U3P2O15
_chemical_formula_sum   'Li4 U6 P4 O30'
_cell_volume   660.51771278
_cell_formula_units_Z   2
loop_
 _symmetry_equiv_pos_site_id
 _symmetry_equiv_pos_as_xyz
  1  'x, y, z'
loop_
 _atom_site_type_symbol
 _atom_site_label
 _atom_site_symmetry_multiplicity
 _atom_site_fract_x
 _atom_site_fract_y
 _atom_site_fract_z
 _atom_site_occupancy
  Li  Li0  1  0.690859  0.440859  0.881719  1
  Li  Li1  1  0.940859  0.190859  0.381719  1
  Li  Li2  1  0.309141  0.559141  0.118281  1
  Li  Li3  1  0.059141  0.809141  0.618281  1
  U  U4  1  0.458679  0.208679  0.417357  1
  U  U5  1  0.541321  0.791321  0.582643  1
  U  U6  1  0.291321  0.041321  0.082643  1
  U  U7  1  0.875000  0.625000  0.250000  1
  U  U8  1  0.708679  0.958679  0.917357  1
  U  U9  1  0.125000  0.375000  0.750000  1
  P  P10  1  0.163304  0.913304  0.826609  1
  P  P11  1  0.413305  0.663304  0.326609  1
  P  P12  1  0.836696  0.086695  0.173391  1
  P  P13  1  0.586696  0.336695  0.673391  1
  O  O14  1  0.790314  0.787752  0.575505  1
  O  O15  1  0.375000  0.125000  0.250000  1
  O  O16  1  0.451733  0.373542  0.747083  1
  O  O17  1  0.033934  0.951830  0.903660  1
  O  O18  1  0.209686  0.212248  0.424495  1
  O  O19  1  0.795351  0.373542  0.747083  1
  O  O20  1  0.873542  0.295351  0.247083  1
  O  O21  1  0.712248  0.214809  0.924495  1
  O  O22  1  0.451830  0.869726  0.403660  1
  O  O23  1  0.451830  0.533934  0.403660  1
  O  O24  1  0.714809  0.212248  0.424495  1
  O  O25  1  0.712248  0.709686  0.924495  1
  O  O26  1  0.630274  0.048170  0.096340  1
  O  O27  1  0.873542  0.951733  0.247083  1
  O  O28  1  0.285191  0.787752  0.575505  1
  O  O29  1  0.195888  0.445888  0.891775  1
  O  O30  1  0.287752  0.785191  0.075505  1
  O  O31  1  0.804112  0.554112  0.108225  1
  O  O32  1  0.548170  0.130274  0.596340  1
  O  O33  1  0.126458  0.048267  0.752917  1
  O  O34  1  0.966066  0.048170  0.096340  1
  O  O35  1  0.548170  0.466066  0.596340  1
  O  O36  1  0.548267  0.626458  0.252917  1
  O  O37  1  0.054112  0.304112  0.608225  1
  O  O38  1  0.369726  0.951830  0.903660  1
  O  O39  1  0.945888  0.695888  0.391775  1
  O  O40  1  0.287752  0.290314  0.075505  1
  O  O41  1  0.126458  0.704649  0.752917  1
  O  O42  1  0.204649  0.626458  0.252917  1
  O  O43  1  0.625000  0.875000  0.750000  1
