# generated using pymatgen
data_ZnS
_symmetry_space_group_name_H-M   'P 1'
_cell_length_a   31.57174431
_cell_length_b   31.57174435
_cell_length_c   31.57174391
_cell_angle_alpha   7.01534699
_cell_angle_beta   7.01534642
_cell_angle_gamma   7.01534652
_symmetry_Int_Tables_number   1
_chemical_formula_structural   ZnS
_chemical_formula_sum   'Zn10 S10'
_cell_volume   407.05231170
_cell_formula_units_Z   10
loop_
 _symmetry_equiv_pos_site_id
 _symmetry_equiv_pos_as_xyz
  1  'x, y, z'
loop_
 _atom_site_type_symbol
 _atom_site_label
 _atom_site_symmetry_multiplicity
 _atom_site_fract_x
 _atom_site_fract_y
 _atom_site_fract_z
 _atom_site_occupancy
  Zn  Zn0  1  0.899980  0.899980  0.899980  1
  Zn  Zn1  1  0.199994  0.199994  0.199994  1
  Zn  Zn2  1  0.100004  0.100004  0.100004  1
  Zn  Zn3  1  0.633301  0.633301  0.633301  1
  Zn  Zn4  1  0.700008  0.700008  0.700008  1
  Zn  Zn5  1  0.799989  0.799989  0.799989  1
  Zn  Zn6  1  0.500010  0.500010  0.500010  1
  Zn  Zn7  1  -0.000007  -0.000007  -0.000007  1
  Zn  Zn8  1  0.400007  0.400007  0.400007  1
  Zn  Zn9  1  0.266651  0.266651  0.266651  1
  S  S10  1  0.224964  0.224964  0.224964  1
  S  S11  1  0.724994  0.724994  0.724994  1
  S  S12  1  0.525002  0.525002  0.525002  1
  S  S13  1  0.425004  0.425004  0.425004  1
  S  S14  1  0.824990  0.824990  0.824990  1
  S  S15  1  0.924992  0.924992  0.924992  1
  S  S16  1  0.658286  0.658286  0.658286  1
  S  S17  1  0.291628  0.291628  0.291628  1
  S  S18  1  0.124992  0.124992  0.124992  1
  S  S19  1  0.025011  0.025011  0.025011  1
