# generated using pymatgen
data_UCu5Sn
_symmetry_space_group_name_H-M   'P 1'
_cell_length_a   4.97744086
_cell_length_b   4.97744089
_cell_length_c   20.31044615
_cell_angle_alpha   90.00000000
_cell_angle_beta   90.00000000
_cell_angle_gamma   119.99999977
_symmetry_Int_Tables_number   1
_chemical_formula_structural   UCu5Sn
_chemical_formula_sum   'U4 Cu20 Sn4'
_cell_volume   435.77500480
_cell_formula_units_Z   4
loop_
 _symmetry_equiv_pos_site_id
 _symmetry_equiv_pos_as_xyz
  1  'x, y, z'
loop_
 _atom_site_type_symbol
 _atom_site_label
 _atom_site_symmetry_multiplicity
 _atom_site_fract_x
 _atom_site_fract_y
 _atom_site_fract_z
 _atom_site_occupancy
  U  U0  1  0.666667  0.333333  0.250000  1
  U  U1  1  0.333333  0.666667  0.750000  1
  U  U2  1  0.000000  0.000000  0.000000  1
  U  U3  1  0.000000  0.000000  0.500000  1
  Cu  Cu4  1  0.000000  0.000000  0.250000  1
  Cu  Cu5  1  0.000000  0.000000  0.750000  1
  Cu  Cu6  1  0.165948  0.331896  0.147252  1
  Cu  Cu7  1  0.834052  0.165948  0.647252  1
  Cu  Cu8  1  0.331896  0.165948  0.647252  1
  Cu  Cu9  1  0.668104  0.834052  0.147252  1
  Cu  Cu10  1  0.165948  0.834052  0.147252  1
  Cu  Cu11  1  0.834052  0.668104  0.852748  1
  Cu  Cu12  1  0.834052  0.165948  0.852748  1
  Cu  Cu13  1  0.834052  0.668104  0.647252  1
  Cu  Cu14  1  0.331896  0.165948  0.852748  1
  Cu  Cu15  1  0.668104  0.834052  0.352748  1
  Cu  Cu16  1  0.165948  0.331896  0.352748  1
  Cu  Cu17  1  0.165948  0.834052  0.352748  1
  Cu  Cu18  1  0.333333  0.666667  0.043618  1
  Cu  Cu19  1  0.666667  0.333333  0.543618  1
  Cu  Cu20  1  0.666667  0.333333  0.956382  1
  Cu  Cu21  1  0.333333  0.666667  0.456382  1
  Cu  Cu22  1  0.333333  0.666667  0.250000  1
  Cu  Cu23  1  0.666667  0.333333  0.750000  1
  Sn  Sn24  1  0.666667  0.333333  0.084532  1
  Sn  Sn25  1  0.333333  0.666667  0.584532  1
  Sn  Sn26  1  0.333333  0.666667  0.915468  1
  Sn  Sn27  1  0.666667  0.333333  0.415468  1
