# generated using pymatgen
data_Na4Zr(MoO4)4
_symmetry_space_group_name_H-M   'P 1'
_cell_length_a   9.92250567
_cell_length_b   9.92250604
_cell_length_c   9.92250595
_cell_angle_alpha   106.46477787
_cell_angle_beta   110.99503675
_cell_angle_gamma   110.99503357
_symmetry_Int_Tables_number   1
_chemical_formula_structural   Na4Zr(MoO4)4
_chemical_formula_sum   'Na8 Zr2 Mo8 O32'
_cell_volume   750.49959271
_cell_formula_units_Z   2
loop_
 _symmetry_equiv_pos_site_id
 _symmetry_equiv_pos_as_xyz
  1  'x, y, z'
loop_
 _atom_site_type_symbol
 _atom_site_label
 _atom_site_symmetry_multiplicity
 _atom_site_fract_x
 _atom_site_fract_y
 _atom_site_fract_z
 _atom_site_occupancy
  Na  Na0  1  0.136831  0.368749  0.459202  1
  Na  Na1  1  0.363169  0.822371  0.231918  1
  Na  Na2  1  0.090453  0.959202  0.322371  1
  Na  Na3  1  0.909547  0.040798  0.677629  1
  Na  Na4  1  0.863169  0.631251  0.540798  1
  Na  Na5  1  0.409547  0.731918  0.868749  1
  Na  Na6  1  0.590453  0.268082  0.131251  1
  Na  Na7  1  0.636831  0.177629  0.768082  1
  Zr  Zr8  1  0.750000  0.625000  0.875000  1
  Zr  Zr9  1  0.250000  0.375000  0.125000  1
  Mo  Mo10  1  0.513970  0.709023  0.552278  1
  Mo  Mo11  1  0.013970  0.461692  0.804946  1
  Mo  Mo12  1  0.486030  0.290977  0.447722  1
  Mo  Mo13  1  0.843254  0.052278  0.038308  1
  Mo  Mo14  1  0.986030  0.538308  0.195054  1
  Mo  Mo15  1  0.156746  0.947722  0.961692  1
  Mo  Mo16  1  0.656746  0.695054  0.209023  1
  Mo  Mo17  1  0.343254  0.304946  0.790977  1
  O  O18  1  0.374021  0.074903  0.361342  1
  O  O19  1  0.999750  0.140434  0.980236  1
  O  O20  1  0.499750  0.519515  0.859317  1
  O  O21  1  0.286439  0.861342  0.987321  1
  O  O22  1  0.555481  0.800714  0.153392  1
  O  O23  1  0.582282  0.366994  0.669754  1
  O  O24  1  0.697240  0.830246  0.912528  1
  O  O25  1  0.444519  0.199286  0.846608  1
  O  O26  1  0.917718  0.587472  0.784712  1
  O  O27  1  0.417718  0.633006  0.330246  1
  O  O28  1  0.944519  0.097911  0.245233  1
  O  O29  1  0.147322  0.745233  0.300714  1
  O  O30  1  0.852678  0.254767  0.699286  1
  O  O31  1  0.839802  0.480236  0.980485  1
  O  O32  1  0.713561  0.138658  0.012679  1
  O  O33  1  0.874021  0.512679  0.299118  1
  O  O34  1  0.339802  0.359317  0.359566  1
  O  O35  1  0.055481  0.902089  0.754767  1
  O  O36  1  0.125979  0.487321  0.700882  1
  O  O37  1  0.160198  0.519764  0.019515  1
  O  O38  1  0.302760  0.169754  0.087472  1
  O  O39  1  0.625979  0.925097  0.638658  1
  O  O40  1  0.082282  0.412528  0.215288  1
  O  O41  1  0.786439  0.799118  0.425097  1
  O  O42  1  0.213561  0.200882  0.574903  1
  O  O43  1  0.000250  0.859566  0.019764  1
  O  O44  1  0.500250  0.480485  0.140683  1
  O  O45  1  0.802760  0.715288  0.133006  1
  O  O46  1  0.352678  0.653392  0.597911  1
  O  O47  1  0.647322  0.346608  0.402089  1
  O  O48  1  0.660198  0.640683  0.640434  1
  O  O49  1  0.197240  0.284712  0.866994  1
