# generated using pymatgen
data_Ba2CuTeO6
_symmetry_space_group_name_H-M   'P 1'
_cell_length_a   5.81958481
_cell_length_b   5.93624717
_cell_length_c   10.29172018
_cell_angle_alpha   105.92250188
_cell_angle_beta   90.00450588
_cell_angle_gamma   119.30772651
_symmetry_Int_Tables_number   1
_chemical_formula_structural   Ba2CuTeO6
_chemical_formula_sum   'Ba4 Cu2 Te2 O12'
_cell_volume   294.28722854
_cell_formula_units_Z   2
loop_
 _symmetry_equiv_pos_site_id
 _symmetry_equiv_pos_as_xyz
  1  'x, y, z'
loop_
 _atom_site_type_symbol
 _atom_site_label
 _atom_site_symmetry_multiplicity
 _atom_site_fract_x
 _atom_site_fract_y
 _atom_site_fract_z
 _atom_site_occupancy
  Ba  Ba0  1  0.127230  0.255380  0.375401  1
  Ba  Ba1  1  0.872770  0.744620  0.624599  1
  Ba  Ba2  1  0.714679  0.428472  0.145483  1
  Ba  Ba3  1  0.285321  0.571528  0.854517  1
  Cu  Cu4  1  0.595808  0.191603  0.784281  1
  Cu  Cu5  1  0.404192  0.808397  0.215719  1
  Te  Te6  1  0.000000  0.000000  0.000000  1
  Te  Te7  1  0.500000  0.000000  0.500000  1
  O  O8  1  0.366415  0.731605  0.596873  1
  O  O9  1  0.633585  0.268395  0.403127  1
  O  O10  1  0.286383  0.096306  0.885785  1
  O  O11  1  0.164338  0.789719  0.369513  1
  O  O12  1  0.812281  0.628848  0.874315  1
  O  O13  1  0.193215  0.899645  0.110296  1
  O  O14  1  0.620687  0.787067  0.367860  1
  O  O15  1  0.806785  0.100355  0.889704  1
  O  O16  1  0.835662  0.210281  0.630487  1
  O  O17  1  0.713617  0.903694  0.114215  1
  O  O18  1  0.187719  0.371152  0.125685  1
  O  O19  1  0.379313  0.212933  0.632140  1
