# generated using pymatgen
data_LaMg(BO2)5
_symmetry_space_group_name_H-M   'P 1'
_cell_length_a   7.67640540
_cell_length_b   8.89872087
_cell_length_c   9.54274083
_cell_angle_alpha   92.19395051
_cell_angle_beta   90.00000000
_cell_angle_gamma   90.00000000
_symmetry_Int_Tables_number   1
_chemical_formula_structural   LaMg(BO2)5
_chemical_formula_sum   'La4 Mg4 B20 O40'
_cell_volume   651.38858715
_cell_formula_units_Z   4
loop_
 _symmetry_equiv_pos_site_id
 _symmetry_equiv_pos_as_xyz
  1  'x, y, z'
loop_
 _atom_site_type_symbol
 _atom_site_label
 _atom_site_symmetry_multiplicity
 _atom_site_fract_x
 _atom_site_fract_y
 _atom_site_fract_z
 _atom_site_occupancy
  La  La0  1  0.810623  0.815263  0.764766  1
  La  La1  1  0.310623  0.684737  0.735234  1
  La  La2  1  0.189377  0.184737  0.235234  1
  La  La3  1  0.689377  0.315263  0.264766  1
  Mg  Mg4  1  0.587290  0.390411  0.878956  1
  Mg  Mg5  1  0.087290  0.109589  0.621044  1
  Mg  Mg6  1  0.412710  0.609589  0.121044  1
  Mg  Mg7  1  0.912710  0.890411  0.378956  1
  B  B8  1  0.329380  0.487457  0.389114  1
  B  B9  1  0.184894  0.427867  0.915371  1
  B  B10  1  0.533046  0.716674  0.447999  1
  B  B11  1  0.684894  0.072133  0.584629  1
  B  B12  1  0.033046  0.783326  0.052001  1
  B  B13  1  0.084355  0.588238  0.230768  1
  B  B14  1  0.829380  0.012543  0.110886  1
  B  B15  1  0.670620  0.512543  0.610886  1
  B  B16  1  0.915645  0.411762  0.769232  1
  B  B17  1  0.584355  0.911762  0.269232  1
  B  B18  1  0.466954  0.283326  0.552001  1
  B  B19  1  0.094089  0.649521  0.490950  1
  B  B20  1  0.170620  0.987457  0.889114  1
  B  B21  1  0.905911  0.350479  0.509050  1
  B  B22  1  0.405911  0.149521  0.990950  1
  B  B23  1  0.815106  0.572133  0.084629  1
  B  B24  1  0.594089  0.850479  0.009050  1
  B  B25  1  0.315106  0.927867  0.415371  1
  B  B26  1  0.966954  0.216674  0.947999  1
  B  B27  1  0.415645  0.088238  0.730768  1
  O  O28  1  0.577755  0.011170  0.684678  1
  O  O29  1  0.523279  0.411816  0.645430  1
  O  O30  1  0.476721  0.588184  0.354570  1
  O  O31  1  0.221344  0.540170  0.508453  1
  O  O32  1  0.964410  0.271768  0.393602  1
  O  O33  1  0.077755  0.488830  0.815322  1
  O  O34  1  0.223148  0.476064  0.257875  1
  O  O35  1  0.626931  0.191727  0.509937  1
  O  O36  1  0.346929  0.493182  0.930722  1
  O  O37  1  0.895957  0.166966  0.086171  1
  O  O38  1  0.023279  0.088184  0.854570  1
  O  O39  1  0.723148  0.023936  0.242125  1
  O  O40  1  0.104043  0.833034  0.913829  1
  O  O41  1  0.653071  0.506818  0.069278  1
  O  O42  1  0.395957  0.333034  0.413829  1
  O  O43  1  0.778656  0.459830  0.491547  1
  O  O44  1  0.153071  0.993182  0.430722  1
  O  O45  1  0.655074  0.812847  0.375456  1
  O  O46  1  0.976721  0.911816  0.145430  1
  O  O47  1  0.278656  0.040170  0.008453  1
  O  O48  1  0.846929  0.006818  0.569278  1
  O  O49  1  0.463380  0.181997  0.859025  1
  O  O50  1  0.155074  0.687153  0.124544  1
  O  O51  1  0.344926  0.187153  0.624544  1
  O  O52  1  0.776852  0.523936  0.742125  1
  O  O53  1  0.604043  0.666966  0.586171  1
  O  O54  1  0.963380  0.318003  0.640975  1
  O  O55  1  0.844926  0.312847  0.875456  1
  O  O56  1  0.126931  0.308273  0.990063  1
  O  O57  1  0.721344  0.959830  0.991547  1
  O  O58  1  0.873069  0.691727  0.009937  1
  O  O59  1  0.536620  0.818003  0.140975  1
  O  O60  1  0.276852  0.976064  0.757875  1
  O  O61  1  0.422245  0.988830  0.315322  1
  O  O62  1  0.464410  0.228232  0.106398  1
  O  O63  1  0.373069  0.808273  0.490063  1
  O  O64  1  0.535590  0.771768  0.893602  1
  O  O65  1  0.035590  0.728232  0.606398  1
  O  O66  1  0.036620  0.681997  0.359025  1
  O  O67  1  0.922245  0.511170  0.184678  1
