# generated using pymatgen
data_Tb4Zn5Ge6
_symmetry_space_group_name_H-M   'P 1'
_cell_length_a   4.26697808
_cell_length_b   9.50275579
_cell_length_c   15.84671705
_cell_angle_alpha   90.00000000
_cell_angle_beta   90.00000000
_cell_angle_gamma   102.97422285
_symmetry_Int_Tables_number   1
_chemical_formula_structural   Tb4Zn5Ge6
_chemical_formula_sum   'Tb8 Zn10 Ge12'
_cell_volume   626.14984745
_cell_formula_units_Z   2
loop_
 _symmetry_equiv_pos_site_id
 _symmetry_equiv_pos_as_xyz
  1  'x, y, z'
loop_
 _atom_site_type_symbol
 _atom_site_label
 _atom_site_symmetry_multiplicity
 _atom_site_fract_x
 _atom_site_fract_y
 _atom_site_fract_z
 _atom_site_occupancy
  Tb  Tb0  1  0.679580  0.359160  0.508052  1
  Tb  Tb1  1  0.467066  0.934131  0.821229  1
  Tb  Tb2  1  0.327697  0.655394  0.366611  1
  Tb  Tb3  1  0.320420  0.640840  0.008052  1
  Tb  Tb4  1  0.532934  0.065869  0.321229  1
  Tb  Tb5  1  0.533297  0.066593  0.050738  1
  Tb  Tb6  1  0.466703  0.933407  0.550738  1
  Tb  Tb7  1  0.672303  0.344606  0.866611  1
  Zn  Zn8  1  0.925200  0.850401  0.104527  1
  Zn  Zn9  1  0.209864  0.419728  0.678029  1
  Zn  Zn10  1  0.646913  0.293825  0.182699  1
  Zn  Zn11  1  0.353087  0.706175  0.682699  1
  Zn  Zn12  1  0.931374  0.862747  0.268286  1
  Zn  Zn13  1  0.790136  0.580272  0.178029  1
  Zn  Zn14  1  0.068626  0.137253  0.768286  1
  Zn  Zn15  1  0.155622  0.311244  0.323686  1
  Zn  Zn16  1  0.844378  0.688756  0.823686  1
  Zn  Zn17  1  0.074800  0.149599  0.604527  1
  Ge  Ge18  1  0.932063  0.864127  0.949947  1
  Ge  Ge19  1  0.275744  0.551488  0.821838  1
  Ge  Ge20  1  0.930080  0.860160  0.426181  1
  Ge  Ge21  1  0.384388  0.768776  0.186249  1
  Ge  Ge22  1  0.940876  0.881751  0.686378  1
  Ge  Ge23  1  0.059124  0.118249  0.186378  1
  Ge  Ge24  1  0.615612  0.231224  0.686249  1
  Ge  Ge25  1  0.288412  0.576824  0.544450  1
  Ge  Ge26  1  0.711588  0.423176  0.044450  1
  Ge  Ge27  1  0.069920  0.139840  0.926181  1
  Ge  Ge28  1  0.724256  0.448512  0.321838  1
  Ge  Ge29  1  0.067937  0.135873  0.449947  1
