# generated using pymatgen
data_Yb2Ni12P7
_symmetry_space_group_name_H-M   'P 1'
_cell_length_a   9.01617054
_cell_length_b   9.01617060
_cell_length_c   3.65822277
_cell_angle_alpha   90.00000000
_cell_angle_beta   90.00000000
_cell_angle_gamma   119.99999981
_symmetry_Int_Tables_number   1
_chemical_formula_structural   Yb2Ni12P7
_chemical_formula_sum   'Yb2 Ni12 P7'
_cell_volume   257.54019463
_cell_formula_units_Z   1
loop_
 _symmetry_equiv_pos_site_id
 _symmetry_equiv_pos_as_xyz
  1  'x, y, z'
loop_
 _atom_site_type_symbol
 _atom_site_label
 _atom_site_symmetry_multiplicity
 _atom_site_fract_x
 _atom_site_fract_y
 _atom_site_fract_z
 _atom_site_occupancy
  Yb  Yb0  1  0.333333  0.666667  0.000000  1
  Yb  Yb1  1  0.666667  0.333333  0.500000  1
  Ni  Ni2  1  0.435244  0.060675  0.000000  1
  Ni  Ni3  1  0.625430  0.564756  0.000000  1
  Ni  Ni4  1  0.939325  0.374570  0.000000  1
  Ni  Ni5  1  0.153453  0.276391  0.000000  1
  Ni  Ni6  1  0.122937  0.846547  0.000000  1
  Ni  Ni7  1  0.723609  0.877063  0.000000  1
  Ni  Ni8  1  0.380199  0.430686  0.500000  1
  Ni  Ni9  1  0.050487  0.619801  0.500000  1
  Ni  Ni10  1  0.569314  0.949513  0.500000  1
  Ni  Ni11  1  0.213823  0.093527  0.500000  1
  Ni  Ni12  1  0.879704  0.786177  0.500000  1
  Ni  Ni13  1  0.906473  0.120296  0.500000  1
  P  P14  1  0.407938  0.294081  0.000000  1
  P  P15  1  0.886143  0.592062  0.000000  1
  P  P16  1  0.705919  0.113857  0.000000  1
  P  P17  1  0.109135  0.404943  0.500000  1
  P  P18  1  0.295807  0.890865  0.500000  1
  P  P19  1  0.595057  0.704193  0.500000  1
  P  P20  1  0.000000  0.000000  0.000000  1
