# generated using pymatgen
data_Ti2MnO4
_symmetry_space_group_name_H-M   'P 1'
_cell_length_a   6.12239683
_cell_length_b   6.12239663
_cell_length_c   6.12239654
_cell_angle_alpha   60.00000048
_cell_angle_beta   60.00000156
_cell_angle_gamma   59.99999675
_symmetry_Int_Tables_number   1
_chemical_formula_structural   Ti2MnO4
_chemical_formula_sum   'Ti4 Mn2 O8'
_cell_volume   162.27416746
_cell_formula_units_Z   2
loop_
 _symmetry_equiv_pos_site_id
 _symmetry_equiv_pos_as_xyz
  1  'x, y, z'
loop_
 _atom_site_type_symbol
 _atom_site_label
 _atom_site_symmetry_multiplicity
 _atom_site_fract_x
 _atom_site_fract_y
 _atom_site_fract_z
 _atom_site_occupancy
  Ti  Ti0  1  0.500000  0.500000  0.000000  1
  Ti  Ti1  1  0.500000  0.000000  0.500000  1
  Ti  Ti2  1  0.500000  0.500000  0.500000  1
  Ti  Ti3  1  0.000000  0.500000  0.500000  1
  Mn  Mn4  1  0.125000  0.125000  0.125000  1
  Mn  Mn5  1  0.875000  0.875000  0.875000  1
  O  O6  1  0.738665  0.738665  0.284005  1
  O  O7  1  0.261335  0.261335  0.261335  1
  O  O8  1  0.261335  0.261335  0.715995  1
  O  O9  1  0.284005  0.738665  0.738665  1
  O  O10  1  0.738665  0.284005  0.738665  1
  O  O11  1  0.261335  0.715995  0.261335  1
  O  O12  1  0.738665  0.738665  0.738665  1
  O  O13  1  0.715995  0.261335  0.261335  1
