# generated using pymatgen
data_CsFeS2
_symmetry_space_group_name_H-M   'P 1'
_cell_length_a   5.42348879
_cell_length_b   7.10822746
_cell_length_c   7.48196274
_cell_angle_alpha   118.37322086
_cell_angle_beta   111.26137943
_cell_angle_gamma   89.99520390
_symmetry_Int_Tables_number   1
_chemical_formula_structural   CsFeS2
_chemical_formula_sum   'Cs2 Fe2 S4'
_cell_volume   231.23935177
_cell_formula_units_Z   2
loop_
 _symmetry_equiv_pos_site_id
 _symmetry_equiv_pos_as_xyz
  1  'x, y, z'
loop_
 _atom_site_type_symbol
 _atom_site_label
 _atom_site_symmetry_multiplicity
 _atom_site_fract_x
 _atom_site_fract_y
 _atom_site_fract_z
 _atom_site_occupancy
  Cs  Cs0  1  0.327801  0.327834  0.655611  1
  Cs  Cs1  1  0.672199  0.672166  0.344389  1
  Fe  Fe2  1  0.246623  0.999968  0.999958  1
  Fe  Fe3  1  0.753377  0.000032  0.000042  1
  S  S4  1  0.999974  0.242894  0.999986  1
  S  S5  1  0.000026  0.757106  0.000014  1
  S  S6  1  0.641998  0.142011  0.283932  1
  S  S7  1  0.358002  0.857989  0.716068  1
