# generated using pymatgen
data_BaMnSnS4
_symmetry_space_group_name_H-M   'P 1'
_cell_length_a   12.67732378
_cell_length_b   12.67732406
_cell_length_c   12.92195664
_cell_angle_alpha   104.96073990
_cell_angle_beta   104.96074029
_cell_angle_gamma   118.27620498
_symmetry_Int_Tables_number   1
_chemical_formula_structural   BaMnSnS4
_chemical_formula_sum   'Ba8 Mn8 Sn8 S32'
_cell_volume   1580.44930422
_cell_formula_units_Z   8
loop_
 _symmetry_equiv_pos_site_id
 _symmetry_equiv_pos_as_xyz
  1  'x, y, z'
loop_
 _atom_site_type_symbol
 _atom_site_label
 _atom_site_symmetry_multiplicity
 _atom_site_fract_x
 _atom_site_fract_y
 _atom_site_fract_z
 _atom_site_occupancy
  Ba  Ba0  1  0.749928  0.751089  0.504206  1
  Ba  Ba1  1  0.995721  0.496883  0.995794  1
  Ba  Ba2  1  0.501089  0.999928  0.004206  1
  Ba  Ba3  1  0.248233  0.748233  0.500000  1
  Ba  Ba4  1  0.999501  0.999501  1.000000  1
  Ba  Ba5  1  0.498233  0.498233  0.000000  1
  Ba  Ba6  1  0.246883  0.245721  0.495794  1
  Ba  Ba7  1  0.749501  0.249501  0.500000  1
  Mn  Mn8  1  0.735544  0.088029  0.751160  1
  Mn  Mn9  1  0.238560  0.514639  0.748767  1
  Mn  Mn10  1  0.239793  0.015872  0.751233  1
  Mn  Mn11  1  0.838029  0.985544  0.251160  1
  Mn  Mn12  1  0.765872  0.489793  0.251233  1
  Mn  Mn13  1  0.734384  0.586869  0.748840  1
  Mn  Mn14  1  0.336869  0.984384  0.248840  1
  Mn  Mn15  1  0.264639  0.488560  0.248767  1
  Sn  Sn16  1  0.985570  0.760968  0.248789  1
  Sn  Sn17  1  0.512179  0.736781  0.751211  1
  Sn  Sn18  1  0.015574  0.654546  0.750423  1
  Sn  Sn19  1  0.904122  0.265151  0.249577  1
  Sn  Sn20  1  0.510968  0.235570  0.748789  1
  Sn  Sn21  1  0.486781  0.762179  0.251211  1
  Sn  Sn22  1  0.404546  0.265574  0.250423  1
  Sn  Sn23  1  0.015151  0.154122  0.749577  1
  S  S24  1  0.958656  0.211143  0.414292  1
  S  S25  1  0.221816  0.284569  0.249290  1
  S  S26  1  0.219895  0.816033  0.752658  1
  S  S27  1  0.294363  0.046850  0.085708  1
  S  S28  1  0.217237  0.313376  0.747342  1
  S  S29  1  0.961143  0.208656  0.914292  1
  S  S30  1  0.687766  0.781398  0.252091  1
  S  S31  1  0.457781  0.705061  0.913259  1
  S  S32  1  0.715884  0.769340  0.752352  1
  S  S33  1  0.034569  0.471817  0.749290  1
  S  S34  1  0.529307  0.435675  0.747909  1
  S  S35  1  0.713532  0.266988  0.747648  1
  S  S36  1  0.297297  0.543916  0.586693  1
  S  S37  1  0.793436  0.044711  0.086702  1
  S  S38  1  0.958009  0.706734  0.913298  1
  S  S39  1  0.035280  0.972527  0.750710  1
  S  S40  1  0.063376  0.467237  0.247342  1
  S  S41  1  0.531398  0.937766  0.752091  1
  S  S42  1  0.185675  0.779307  0.247909  1
  S  S43  1  0.293916  0.547297  0.086693  1
  S  S44  1  0.791801  0.544522  0.086741  1
  S  S45  1  0.796850  0.544363  0.585708  1
  S  S46  1  0.455061  0.707781  0.413259  1
  S  S47  1  0.794711  0.043436  0.586702  1
  S  S48  1  0.016988  0.963532  0.247648  1
  S  S49  1  0.294522  0.041801  0.586741  1
  S  S50  1  0.566033  0.469895  0.252658  1
  S  S51  1  0.456734  0.208009  0.413298  1
  S  S52  1  0.460604  0.207223  0.913307  1
  S  S53  1  0.519340  0.965884  0.252352  1
  S  S54  1  0.957223  0.710604  0.413307  1
  S  S55  1  0.722527  0.285280  0.250710  1
