# generated using pymatgen
data_ZnGa3N3O
_symmetry_space_group_name_H-M   'P 1'
_cell_length_a   6.48468963
_cell_length_b   6.48467416
_cell_length_c   10.52516182
_cell_angle_alpha   89.85427644
_cell_angle_beta   90.17314688
_cell_angle_gamma   120.01005306
_symmetry_Int_Tables_number   1
_chemical_formula_structural   ZnGa3N3O
_chemical_formula_sum   'Zn4 Ga12 N12 O4'
_cell_volume   383.25733180
_cell_formula_units_Z   4
loop_
 _symmetry_equiv_pos_site_id
 _symmetry_equiv_pos_as_xyz
  1  'x, y, z'
loop_
 _atom_site_type_symbol
 _atom_site_label
 _atom_site_symmetry_multiplicity
 _atom_site_fract_x
 _atom_site_fract_y
 _atom_site_fract_z
 _atom_site_occupancy
  Zn  Zn0  1  0.839199  0.660831  0.737812  1
  Zn  Zn1  1  0.671653  0.327669  0.992822  1
  Zn  Zn2  1  0.665834  0.832750  0.494543  1
  Zn  Zn3  1  0.333513  0.166719  0.736579  1
  Ga  Ga4  1  0.837643  0.176829  0.746701  1
  Ga  Ga5  1  0.322476  0.663091  0.745132  1
  Ga  Ga6  1  0.160175  0.334989  0.000543  1
  Ga  Ga7  1  0.664519  0.840413  0.000769  1
  Ga  Ga8  1  0.165789  0.336291  0.500290  1
  Ga  Ga9  1  0.838554  0.676753  0.256849  1
  Ga  Ga10  1  0.669587  0.333471  0.501705  1
  Ga  Ga11  1  0.332783  0.665672  0.255155  1
  Ga  Ga12  1  0.322927  0.162024  0.255045  1
  Ga  Ga13  1  0.839312  0.161961  0.256514  1
  Ga  Ga14  1  0.170453  0.830414  0.001784  1
  Ga  Ga15  1  0.167061  0.829796  0.502038  1
  N  N16  1  0.669178  0.326576  0.686492  1
  N  N17  1  0.173003  0.831434  0.686313  1
  N  N18  1  0.839538  0.160610  0.935461  1
  N  N19  1  0.837668  0.175045  0.436523  1
  N  N20  1  0.325281  0.662406  0.436651  1
  N  N21  1  0.837739  0.661916  0.437316  1
  N  N22  1  0.167247  0.833232  0.186464  1
  N  N23  1  0.333269  0.166951  0.437574  1
  N  N24  1  0.163320  0.337319  0.686800  1
  N  N25  1  0.333860  0.665959  0.937244  1
  N  N26  1  0.665631  0.832887  0.187200  1
  N  N27  1  0.167305  0.334220  0.186365  1
  O  O28  1  0.664958  0.333309  0.193560  1
  O  O29  1  0.320803  0.160592  0.950239  1
  O  O30  1  0.839327  0.679757  0.948888  1
  O  O31  1  0.660394  0.838115  0.698610  1
