# generated using pymatgen
data_CuMo3Br7
_symmetry_space_group_name_H-M   'P 1'
_cell_length_a   13.73653890
_cell_length_b   13.73653890
_cell_length_c   13.73653890
_cell_angle_alpha   90.00000000
_cell_angle_beta   90.00000000
_cell_angle_gamma   90.00000000
_symmetry_Int_Tables_number   1
_chemical_formula_structural   CuMo3Br7
_chemical_formula_sum   'Cu8 Mo24 Br56'
_cell_volume   2591.98187945
_cell_formula_units_Z   8
loop_
 _symmetry_equiv_pos_site_id
 _symmetry_equiv_pos_as_xyz
  1  'x, y, z'
loop_
 _atom_site_type_symbol
 _atom_site_label
 _atom_site_symmetry_multiplicity
 _atom_site_fract_x
 _atom_site_fract_y
 _atom_site_fract_z
 _atom_site_occupancy
  Cu  Cu0  1  0.438283  0.438283  0.438283  1
  Cu  Cu1  1  0.061717  0.061717  0.438283  1
  Cu  Cu2  1  0.438283  0.061717  0.061717  1
  Cu  Cu3  1  0.938283  0.938283  0.561717  1
  Cu  Cu4  1  0.938283  0.561717  0.938283  1
  Cu  Cu5  1  0.561717  0.561717  0.561717  1
  Cu  Cu6  1  0.061717  0.438283  0.061717  1
  Cu  Cu7  1  0.561717  0.938283  0.938283  1
  Mo  Mo8  1  0.024417  0.530538  0.630909  1
  Mo  Mo9  1  0.630909  0.024417  0.530538  1
  Mo  Mo10  1  0.969462  0.869091  0.024417  1
  Mo  Mo11  1  0.130909  0.975583  0.030538  1
  Mo  Mo12  1  0.469462  0.130909  0.524417  1
  Mo  Mo13  1  0.030538  0.130909  0.975583  1
  Mo  Mo14  1  0.530538  0.630909  0.024417  1
  Mo  Mo15  1  0.869091  0.024417  0.969462  1
  Mo  Mo16  1  0.969462  0.630909  0.475583  1
  Mo  Mo17  1  0.975583  0.469462  0.369091  1
  Mo  Mo18  1  0.130909  0.524417  0.469462  1
  Mo  Mo19  1  0.469462  0.369091  0.975583  1
  Mo  Mo20  1  0.475583  0.969462  0.630909  1
  Mo  Mo21  1  0.024417  0.969462  0.869091  1
  Mo  Mo22  1  0.030538  0.369091  0.524417  1
  Mo  Mo23  1  0.530538  0.869091  0.475583  1
  Mo  Mo24  1  0.975583  0.030538  0.130909  1
  Mo  Mo25  1  0.475583  0.530538  0.869091  1
  Mo  Mo26  1  0.369091  0.975583  0.469462  1
  Mo  Mo27  1  0.869091  0.475583  0.530538  1
  Mo  Mo28  1  0.524417  0.469462  0.130909  1
  Mo  Mo29  1  0.369091  0.524417  0.030538  1
  Mo  Mo30  1  0.630909  0.475583  0.969462  1
  Mo  Mo31  1  0.524417  0.030538  0.369091  1
  Br  Br32  1  0.364356  0.364356  0.135644  1
  Br  Br33  1  0.816503  0.925915  0.124005  1
  Br  Br34  1  0.684654  0.438819  0.577781  1
  Br  Br35  1  0.815346  0.438819  0.922219  1
  Br  Br36  1  0.077781  0.184654  0.561181  1
  Br  Br37  1  0.375995  0.816503  0.574085  1
  Br  Br38  1  0.864356  0.635644  0.635644  1
  Br  Br39  1  0.422219  0.315346  0.561181  1
  Br  Br40  1  0.135644  0.135644  0.135644  1
  Br  Br41  1  0.635644  0.864356  0.635644  1
  Br  Br42  1  0.875995  0.183497  0.074085  1
  Br  Br43  1  0.375995  0.683497  0.925915  1
  Br  Br44  1  0.316503  0.074085  0.624005  1
  Br  Br45  1  0.315346  0.938819  0.077781  1
  Br  Br46  1  0.922219  0.684654  0.061181  1
  Br  Br47  1  0.577781  0.684654  0.438819  1
  Br  Br48  1  0.816503  0.574085  0.375995  1
  Br  Br49  1  0.124005  0.683497  0.574085  1
  Br  Br50  1  0.438819  0.577781  0.684654  1
  Br  Br51  1  0.864356  0.864356  0.864356  1
  Br  Br52  1  0.077781  0.315346  0.938819  1
  Br  Br53  1  0.422219  0.184654  0.938819  1
  Br  Br54  1  0.875995  0.316503  0.425915  1
  Br  Br55  1  0.561181  0.077781  0.184654  1
  Br  Br56  1  0.364356  0.135644  0.364356  1
  Br  Br57  1  0.183497  0.425915  0.624005  1
  Br  Br58  1  0.635644  0.635644  0.864356  1
  Br  Br59  1  0.074085  0.875995  0.183497  1
  Br  Br60  1  0.938819  0.077781  0.315346  1
  Br  Br61  1  0.438819  0.922219  0.815346  1
  Br  Br62  1  0.425915  0.875995  0.316503  1
  Br  Br63  1  0.938819  0.422219  0.184654  1
  Br  Br64  1  0.135644  0.364356  0.364356  1
  Br  Br65  1  0.074085  0.624005  0.316503  1
  Br  Br66  1  0.925915  0.124005  0.816503  1
  Br  Br67  1  0.425915  0.624005  0.183497  1
  Br  Br68  1  0.574085  0.124005  0.683497  1
  Br  Br69  1  0.316503  0.425915  0.875995  1
  Br  Br70  1  0.624005  0.183497  0.425915  1
  Br  Br71  1  0.184654  0.938819  0.422219  1
  Br  Br72  1  0.315346  0.561181  0.422219  1
  Br  Br73  1  0.061181  0.922219  0.684654  1
  Br  Br74  1  0.624005  0.316503  0.074085  1
  Br  Br75  1  0.683497  0.925915  0.375995  1
  Br  Br76  1  0.574085  0.375995  0.816503  1
  Br  Br77  1  0.922219  0.815346  0.438819  1
  Br  Br78  1  0.561181  0.422219  0.315346  1
  Br  Br79  1  0.184654  0.561181  0.077781  1
  Br  Br80  1  0.815346  0.061181  0.577781  1
  Br  Br81  1  0.683497  0.574085  0.124005  1
  Br  Br82  1  0.124005  0.816503  0.925915  1
  Br  Br83  1  0.183497  0.074085  0.875995  1
  Br  Br84  1  0.925915  0.375995  0.683497  1
  Br  Br85  1  0.577781  0.815346  0.061181  1
  Br  Br86  1  0.061181  0.577781  0.815346  1
  Br  Br87  1  0.684654  0.061181  0.922219  1
