# generated using pymatgen
data_AsXeF11
_symmetry_space_group_name_H-M   'P 1'
_cell_length_a   6.15816543
_cell_length_b   8.30783906
_cell_length_c   16.68315831
_cell_angle_alpha   90.00000000
_cell_angle_beta   90.00000000
_cell_angle_gamma   92.74117286
_symmetry_Int_Tables_number   1
_chemical_formula_structural   AsXeF11
_chemical_formula_sum   'As4 Xe4 F44'
_cell_volume   852.55121660
_cell_formula_units_Z   4
loop_
 _symmetry_equiv_pos_site_id
 _symmetry_equiv_pos_as_xyz
  1  'x, y, z'
loop_
 _atom_site_type_symbol
 _atom_site_label
 _atom_site_symmetry_multiplicity
 _atom_site_fract_x
 _atom_site_fract_y
 _atom_site_fract_z
 _atom_site_occupancy
  As  As0  1  0.396242  0.799168  0.605814  1
  As  As1  1  0.603758  0.700832  0.105814  1
  As  As2  1  0.603758  0.200832  0.394186  1
  As  As3  1  0.396242  0.299168  0.894186  1
  Xe  Xe4  1  0.203278  0.252252  0.106326  1
  Xe  Xe5  1  0.203278  0.752252  0.393674  1
  Xe  Xe6  1  0.796722  0.247748  0.606326  1
  Xe  Xe7  1  0.796722  0.747748  0.893674  1
  F  F8  1  0.072524  0.620250  0.307658  1
  F  F9  1  0.105421  0.721860  0.920969  1
  F  F10  1  0.161996  0.921357  0.312336  1
  F  F11  1  0.171673  0.856063  0.539507  1
  F  F12  1  0.474370  0.690559  0.340893  1
  F  F13  1  0.927476  0.379750  0.692342  1
  F  F14  1  0.523687  0.494956  0.917125  1
  F  F15  1  0.476314  0.005044  0.417125  1
  F  F16  1  0.161996  0.421357  0.187664  1
  F  F17  1  0.171673  0.356063  0.960493  1
  F  F18  1  0.262033  0.112168  0.878552  1
  F  F19  1  0.828327  0.143937  0.460493  1
  F  F20  1  0.072524  0.120250  0.192342  1
  F  F21  1  0.181881  0.541555  0.448403  1
  F  F22  1  0.474370  0.190559  0.159107  1
  F  F23  1  0.525630  0.809441  0.840893  1
  F  F24  1  0.818119  0.958445  0.948403  1
  F  F25  1  0.266076  0.885765  0.686604  1
  F  F26  1  0.476314  0.505044  0.082875  1
  F  F27  1  0.181881  0.041555  0.051597  1
  F  F28  1  0.927476  0.879750  0.807658  1
  F  F29  1  0.733924  0.114235  0.313396  1
  F  F30  1  0.262033  0.612168  0.621448  1
  F  F31  1  0.733924  0.614235  0.186604  1
  F  F32  1  0.894579  0.778140  0.420969  1
  F  F33  1  0.266076  0.385765  0.813396  1
  F  F34  1  0.838004  0.578643  0.812336  1
  F  F35  1  0.487895  0.272025  0.486059  1
  F  F36  1  0.487895  0.772025  0.013940  1
  F  F37  1  0.737967  0.387832  0.378552  1
  F  F38  1  0.838004  0.078643  0.687664  1
  F  F39  1  0.523687  0.994956  0.582875  1
  F  F40  1  0.624319  0.247362  0.840098  1
  F  F41  1  0.828327  0.643937  0.039507  1
  F  F42  1  0.737967  0.887832  0.121448  1
  F  F43  1  0.375681  0.252638  0.340098  1
  F  F44  1  0.624319  0.747362  0.659902  1
  F  F45  1  0.512105  0.727975  0.513941  1
  F  F46  1  0.105421  0.221860  0.579031  1
  F  F47  1  0.525630  0.309441  0.659107  1
  F  F48  1  0.375681  0.752638  0.159902  1
  F  F49  1  0.512105  0.227975  0.986059  1
  F  F50  1  0.818119  0.458445  0.551597  1
  F  F51  1  0.894579  0.278140  0.079031  1
