# generated using pymatgen
data_CsSiBiS4
_symmetry_space_group_name_H-M   'P 1'
_cell_length_a   7.12732917
_cell_length_b   9.49751857
_cell_length_c   13.10579376
_cell_angle_alpha   108.08811608
_cell_angle_beta   90.00000000
_cell_angle_gamma   90.00000000
_symmetry_Int_Tables_number   1
_chemical_formula_structural   CsSiBiS4
_chemical_formula_sum   'Cs4 Si4 Bi4 S16'
_cell_volume   843.31347204
_cell_formula_units_Z   4
loop_
 _symmetry_equiv_pos_site_id
 _symmetry_equiv_pos_as_xyz
  1  'x, y, z'
loop_
 _atom_site_type_symbol
 _atom_site_label
 _atom_site_symmetry_multiplicity
 _atom_site_fract_x
 _atom_site_fract_y
 _atom_site_fract_z
 _atom_site_occupancy
  Cs  Cs0  1  0.260679  0.573251  0.395215  1
  Cs  Cs1  1  0.760679  0.426749  0.104785  1
  Cs  Cs2  1  0.739321  0.426749  0.604785  1
  Cs  Cs3  1  0.239321  0.573251  0.895215  1
  Si  Si4  1  0.764705  0.824009  0.346621  1
  Si  Si5  1  0.264705  0.175991  0.153379  1
  Si  Si6  1  0.235295  0.175991  0.653379  1
  Si  Si7  1  0.735295  0.824009  0.846621  1
  Bi  Bi8  1  0.152709  0.054280  0.370662  1
  Bi  Bi9  1  0.652709  0.945720  0.129338  1
  Bi  Bi10  1  0.847291  0.945720  0.629338  1
  Bi  Bi11  1  0.347291  0.054280  0.870662  1
  S  S12  1  0.991037  0.790874  0.757396  1
  S  S13  1  0.794026  0.056455  0.441637  1
  S  S14  1  0.510006  0.786191  0.735781  1
  S  S15  1  0.705974  0.056455  0.941637  1
  S  S16  1  0.768693  0.693806  0.452295  1
  S  S17  1  0.008963  0.209126  0.242604  1
  S  S18  1  0.268693  0.306194  0.047705  1
  S  S19  1  0.205975  0.943545  0.558363  1
  S  S20  1  0.731307  0.693806  0.952295  1
  S  S21  1  0.489994  0.213809  0.264219  1
  S  S22  1  0.010006  0.213809  0.764219  1
  S  S23  1  0.231307  0.306194  0.547705  1
  S  S24  1  0.508963  0.790874  0.257396  1
  S  S25  1  0.989994  0.786191  0.235781  1
  S  S26  1  0.491037  0.209126  0.742604  1
  S  S27  1  0.294025  0.943545  0.058363  1
