# generated using pymatgen
data_K2PrH4N5O17
_symmetry_space_group_name_H-M   'P 1'
_cell_length_a   8.43398444
_cell_length_b   8.43422655
_cell_length_c   12.28647521
_cell_angle_alpha   108.35750850
_cell_angle_beta   108.37118252
_cell_angle_gamma   94.70683050
_symmetry_Int_Tables_number   1
_chemical_formula_structural   K2PrH4N5O17
_chemical_formula_sum   'K4 Pr2 H8 N10 O34'
_cell_volume   771.11905444
_cell_formula_units_Z   2
loop_
 _symmetry_equiv_pos_site_id
 _symmetry_equiv_pos_as_xyz
  1  'x, y, z'
loop_
 _atom_site_type_symbol
 _atom_site_label
 _atom_site_symmetry_multiplicity
 _atom_site_fract_x
 _atom_site_fract_y
 _atom_site_fract_z
 _atom_site_occupancy
  Pr  Pr0  1  0.997744  0.002257  1.000008  1
  Pr  Pr1  1  0.747809  0.252208  0.500011  1
  O  O2  1  0.772014  0.958257  0.097214  1
  O  O3  1  0.041731  0.227971  0.902784  1
  O  O4  1  0.888932  0.575224  0.597284  1
  O  O5  1  0.424788  0.111069  0.402705  1
  O  O6  1  0.730646  0.754729  0.923090  1
  O  O7  1  0.245295  0.269337  0.076912  1
  O  O8  1  0.918304  0.442504  0.423136  1
  O  O9  1  0.557526  0.081671  0.576855  1
  O  O10  1  0.576580  0.725400  0.033488  1
  O  O11  1  0.274580  0.423420  0.966510  1
  O  O12  1  0.058065  0.706932  0.533560  1
  O  O13  1  0.293069  0.941944  0.466429  1
  O  O14  1  0.063559  0.774852  0.114977  1
  O  O15  1  0.225162  0.936447  0.885046  1
  O  O16  1  0.090039  0.301418  0.614957  1
  O  O17  1  0.698575  0.909936  0.385044  1
  O  O18  1  0.288838  0.931243  0.122690  1
  O  O19  1  0.068764  0.711174  0.877337  1
  O  O20  1  0.941397  0.083828  0.622612  1
  O  O21  1  0.916189  0.058599  0.377402  1
  O  O22  1  0.317254  0.731163  0.203928  1
  O  O23  1  0.268816  0.682763  0.796078  1
  O  O24  1  0.222675  0.136724  0.703926  1
  O  O25  1  0.863276  0.777332  0.296070  1
  O  O26  1  0.713591  0.113813  0.909653  1
  O  O27  1  0.886207  0.286375  0.090320  1
  O  O28  1  0.545907  0.446242  0.409701  1
  O  O29  1  0.553765  0.454046  0.590267  1
  O  O30  1  0.645457  0.354536  1.000004  1
  O  O31  1  0.395419  0.604599  0.500005  1
  K  K32  1  0.561412  0.524417  0.204780  1
  K  K33  1  0.475550  0.438606  0.795196  1
  K  K34  1  0.429901  0.893712  0.704807  1
  K  K35  1  0.106259  0.570112  0.295173  1
  N  N36  1  0.689256  0.809807  0.018433  1
  N  N37  1  0.190194  0.310736  0.981567  1
  N  N38  1  0.958588  0.579208  0.518498  1
  N  N39  1  0.420806  0.041406  0.481492  1
  N  N40  1  0.225047  0.810145  0.148261  1
  N  N41  1  0.189854  0.774971  0.851760  1
  N  N42  1  0.088020  0.173220  0.648225  1
  N  N43  1  0.826790  0.911967  0.351775  1
  N  N44  1  0.746102  0.253888  -0.000009  1
  N  N45  1  0.496050  0.503943  0.499990  1
  O  O46  1  0.110180  0.157940  0.245139  1
  O  O47  1  0.842033  0.889844  0.754864  1
  O  O48  1  0.837130  0.384910  0.745168  1
  O  O49  1  0.615062  0.162898  0.254830  1
  H  H50  1  0.222365  0.142736  0.292570  1
  H  H51  1  0.857236  0.777664  0.707464  1
  H  H52  1  0.899813  0.320178  0.792588  1
  H  H53  1  0.679829  0.100246  0.207446  1
  H  H54  1  0.034031  0.118191  0.282002  1
  H  H55  1  0.881794  0.965970  0.717988  1
  H  H56  1  0.913743  0.497927  0.781995  1
  H  H57  1  0.502061  0.086262  0.217994  1
