# generated using pymatgen
data_Nb2CrSe4
_symmetry_space_group_name_H-M   'P 1'
_cell_length_a   7.21504517
_cell_length_b   7.21504470
_cell_length_c   12.48240492
_cell_angle_alpha   90.00000000
_cell_angle_beta   90.00000000
_cell_angle_gamma   120.00000220
_symmetry_Int_Tables_number   1
_chemical_formula_structural   Nb2CrSe4
_chemical_formula_sum   'Nb8 Cr4 Se16'
_cell_volume   562.73894114
_cell_formula_units_Z   4
loop_
 _symmetry_equiv_pos_site_id
 _symmetry_equiv_pos_as_xyz
  1  'x, y, z'
loop_
 _atom_site_type_symbol
 _atom_site_label
 _atom_site_symmetry_multiplicity
 _atom_site_fract_x
 _atom_site_fract_y
 _atom_site_fract_z
 _atom_site_occupancy
  Nb  Nb0  1  0.472396  0.527604  0.750000  1
  Nb  Nb1  1  0.944792  0.472396  0.250000  1
  Nb  Nb2  1  0.000000  0.000000  0.250000  1
  Nb  Nb3  1  0.472396  0.944792  0.750000  1
  Nb  Nb4  1  0.000000  0.000000  0.750000  1
  Nb  Nb5  1  0.527604  0.472396  0.250000  1
  Nb  Nb6  1  0.055208  0.527604  0.750000  1
  Nb  Nb7  1  0.527604  0.055208  0.250000  1
  Cr  Cr8  1  0.000000  0.000000  0.500000  1
  Cr  Cr9  1  0.000000  0.000000  0.000000  1
  Cr  Cr10  1  0.666667  0.333333  0.750000  1
  Cr  Cr11  1  0.333333  0.666667  0.250000  1
  Se  Se12  1  0.834439  0.165561  0.878847  1
  Se  Se13  1  0.333333  0.666667  0.903762  1
  Se  Se14  1  0.668878  0.834439  0.121153  1
  Se  Se15  1  0.668878  0.834439  0.378847  1
  Se  Se16  1  0.331122  0.165561  0.878847  1
  Se  Se17  1  0.165561  0.331122  0.121153  1
  Se  Se18  1  0.165561  0.834439  0.121153  1
  Se  Se19  1  0.666667  0.333333  0.096238  1
  Se  Se20  1  0.165561  0.834439  0.378847  1
  Se  Se21  1  0.834439  0.165561  0.621153  1
  Se  Se22  1  0.834439  0.668878  0.621153  1
  Se  Se23  1  0.165561  0.331122  0.378847  1
  Se  Se24  1  0.834439  0.668878  0.878847  1
  Se  Se25  1  0.331122  0.165561  0.621153  1
  Se  Se26  1  0.333333  0.666667  0.596238  1
  Se  Se27  1  0.666667  0.333333  0.403762  1
