# generated using pymatgen
data_CaZnSi3O8
_symmetry_space_group_name_H-M   'P 1'
_cell_length_a   7.30417025
_cell_length_b   8.22803856
_cell_length_c   13.08313912
_cell_angle_alpha   84.14961852
_cell_angle_beta   85.87394642
_cell_angle_gamma   63.80253292
_symmetry_Int_Tables_number   1
_chemical_formula_structural   CaZnSi3O8
_chemical_formula_sum   'Ca4 Zn4 Si12 O32'
_cell_volume   701.52009041
_cell_formula_units_Z   4
loop_
 _symmetry_equiv_pos_site_id
 _symmetry_equiv_pos_as_xyz
  1  'x, y, z'
loop_
 _atom_site_type_symbol
 _atom_site_label
 _atom_site_symmetry_multiplicity
 _atom_site_fract_x
 _atom_site_fract_y
 _atom_site_fract_z
 _atom_site_occupancy
  Ca  Ca0  1  0.146171  0.745647  0.522600  1
  Ca  Ca1  1  0.853696  0.753546  0.977071  1
  Ca  Ca2  1  0.853829  0.254353  0.477400  1
  Ca  Ca3  1  0.146304  0.246454  0.022929  1
  Zn  Zn4  1  0.206401  0.994224  0.317406  1
  Zn  Zn5  1  0.793285  0.507508  0.182482  1
  Zn  Zn6  1  0.206715  0.492492  0.817518  1
  Zn  Zn7  1  0.793599  0.005776  0.682594  1
  Si  Si8  1  0.369853  0.331930  0.609025  1
  Si  Si9  1  0.692178  0.691516  0.612835  1
  Si  Si10  1  0.309601  0.805877  0.887618  1
  Si  Si11  1  0.690399  0.194123  0.112382  1
  Si  Si12  1  0.250778  0.000895  0.669497  1
  Si  Si13  1  0.749222  0.999105  0.330503  1
  Si  Si14  1  0.307822  0.308484  0.387165  1
  Si  Si15  1  0.630147  0.668070  0.390975  1
  Si  Si16  1  0.249214  0.504208  0.169355  1
  Si  Si17  1  0.750786  0.495792  0.830645  1
  Si  Si18  1  0.630071  0.166101  0.890933  1
  Si  Si19  1  0.369929  0.833899  0.109067  1
  O  O20  1  0.172227  0.197606  0.399289  1
  O  O21  1  0.716354  0.080560  0.010034  1
  O  O22  1  0.236171  0.965318  0.793950  1
  O  O23  1  0.553284  0.174921  0.375087  1
  O  O24  1  0.446716  0.825079  0.624913  1
  O  O25  1  0.050745  0.516730  0.113500  1
  O  O26  1  0.733714  0.984182  0.828421  1
  O  O27  1  0.733119  0.486800  0.328068  1
  O  O28  1  0.266881  0.513200  0.671932  1
  O  O29  1  0.949255  0.483270  0.886500  1
  O  O30  1  0.726151  0.308944  0.852555  1
  O  O31  1  0.947984  0.986332  0.386211  1
  O  O32  1  0.273849  0.691056  0.147445  1
  O  O33  1  0.383644  0.767854  0.397759  1
  O  O34  1  0.766306  0.531248  0.706110  1
  O  O35  1  0.274923  0.187999  0.646663  1
  O  O36  1  0.173620  0.695206  0.900010  1
  O  O37  1  0.282245  0.420076  0.490291  1
  O  O38  1  0.826380  0.304794  0.099990  1
  O  O39  1  0.827773  0.802394  0.600711  1
  O  O40  1  0.717755  0.579924  0.509709  1
  O  O41  1  0.616178  0.734398  0.102722  1
  O  O42  1  0.052016  0.013668  0.613789  1
  O  O43  1  0.383822  0.265602  0.897278  1
  O  O44  1  0.266286  0.015818  0.171579  1
  O  O45  1  0.616356  0.232146  0.602241  1
  O  O46  1  0.444993  0.328801  0.124252  1
  O  O47  1  0.283646  0.919440  0.989966  1
  O  O48  1  0.555007  0.671199  0.875748  1
  O  O49  1  0.763829  0.034681  0.206050  1
  O  O50  1  0.725077  0.812001  0.353337  1
  O  O51  1  0.233694  0.468752  0.293890  1
