# generated using pymatgen
data_In2Pt3
_symmetry_space_group_name_H-M   'P 1'
_cell_length_a   5.66853622
_cell_length_b   5.66853656
_cell_length_c   13.92912674
_cell_angle_alpha   90.00000000
_cell_angle_beta   90.00000000
_cell_angle_gamma   119.99999802
_symmetry_Int_Tables_number   1
_chemical_formula_structural   In2Pt3
_chemical_formula_sum   'In8 Pt12'
_cell_volume   387.61128104
_cell_formula_units_Z   4
loop_
 _symmetry_equiv_pos_site_id
 _symmetry_equiv_pos_as_xyz
  1  'x, y, z'
loop_
 _atom_site_type_symbol
 _atom_site_label
 _atom_site_symmetry_multiplicity
 _atom_site_fract_x
 _atom_site_fract_y
 _atom_site_fract_z
 _atom_site_occupancy
  In  In0  1  0.000000  0.000000  0.250000  1
  In  In1  1  0.000000  0.000000  0.750000  1
  In  In2  1  0.333333  0.666667  0.250000  1
  In  In3  1  0.666667  0.333333  0.750000  1
  In  In4  1  0.333333  0.666667  0.914810  1
  In  In5  1  0.333333  0.666667  0.585190  1
  In  In6  1  0.666667  0.333333  0.085190  1
  In  In7  1  0.666667  0.333333  0.414810  1
  Pt  Pt8  1  0.165972  0.331938  0.089506  1
  Pt  Pt9  1  0.668062  0.834034  0.089506  1
  Pt  Pt10  1  0.165966  0.834028  0.089506  1
  Pt  Pt11  1  0.668062  0.834028  0.410494  1
  Pt  Pt12  1  0.165966  0.331938  0.410494  1
  Pt  Pt13  1  0.165972  0.834034  0.410494  1
  Pt  Pt14  1  0.834028  0.668062  0.910494  1
  Pt  Pt15  1  0.331938  0.165966  0.910494  1
  Pt  Pt16  1  0.834034  0.165972  0.910494  1
  Pt  Pt17  1  0.331938  0.165972  0.589506  1
  Pt  Pt18  1  0.834034  0.668062  0.589506  1
  Pt  Pt19  1  0.834028  0.165966  0.589506  1
