# generated using pymatgen
data_Sm4Al23Ni6
_symmetry_space_group_name_H-M   'P 1'
_cell_length_a   4.10807479
_cell_length_b   8.23036466
_cell_length_c   17.01035898
_cell_angle_alpha   85.72513950
_cell_angle_beta   83.06187839
_cell_angle_gamma   75.57398977
_symmetry_Int_Tables_number   1
_chemical_formula_structural   Sm4Al23Ni6
_chemical_formula_sum   'Sm4 Al23 Ni6'
_cell_volume   552.33243588
_cell_formula_units_Z   1
loop_
 _symmetry_equiv_pos_site_id
 _symmetry_equiv_pos_as_xyz
  1  'x, y, z'
loop_
 _atom_site_type_symbol
 _atom_site_label
 _atom_site_symmetry_multiplicity
 _atom_site_fract_x
 _atom_site_fract_y
 _atom_site_fract_z
 _atom_site_occupancy
  Sm  Sm0  1  0.264820  0.688735  0.781658  1
  Sm  Sm1  1  0.570878  0.264853  0.593186  1
  Sm  Sm2  1  0.735180  0.311265  0.218342  1
  Sm  Sm3  1  0.429122  0.735147  0.406814  1
  Al  Al4  1  0.467856  0.282155  0.782184  1
  Al  Al5  1  0.081558  0.523201  0.313509  1
  Al  Al6  1  0.608980  0.943458  0.838463  1
  Al  Al7  1  0.255322  0.535176  0.954127  1
  Al  Al8  1  0.623314  0.348400  0.404794  1
  Al  Al9  1  0.090007  0.869774  0.950302  1
  Al  Al10  1  0.532144  0.717845  0.217816  1
  Al  Al11  1  0.202295  0.116301  0.479166  1
  Al  Al12  1  0.909656  0.900749  0.279695  1
  Al  Al13  1  0.391020  0.056542  0.161537  1
  Al  Al14  1  0.909993  0.130226  0.049698  1
  Al  Al15  1  0.744678  0.464824  0.045873  1
  Al  Al16  1  0.376686  0.651600  0.595206  1
  Al  Al17  1  0.275966  0.123975  0.324286  1
  Al  Al18  1  0.855843  0.430783  0.857683  1
  Al  Al19  1  0.144157  0.569217  0.142317  1
  Al  Al20  1  0.432621  0.194739  0.940145  1
  Al  Al21  1  0.797705  0.883699  0.520834  1
  Al  Al22  1  0.567379  0.805261  0.059855  1
  Al  Al23  1  0.724034  0.876025  0.675714  1
  Al  Al24  1  0.918442  0.476799  0.686491  1
  Al  Al25  1  0.090344  0.099251  0.720305  1
  Al  Al26  1  0.000000  0.500000  0.500000  1
  Ni  Ni27  1  0.992396  0.879725  0.135593  1
  Ni  Ni28  1  0.007604  0.120275  0.864407  1
  Ni  Ni29  1  0.310522  0.311867  0.067204  1
  Ni  Ni30  1  0.689478  0.688133  0.932796  1
  Ni  Ni31  1  0.773134  0.055549  0.398318  1
  Ni  Ni32  1  0.226866  0.944451  0.601682  1
