# generated using pymatgen
data_SiO2
_symmetry_space_group_name_H-M   'P 1'
_cell_length_a   4.25058803
_cell_length_b   4.66289148
_cell_length_c   8.37621025
_cell_angle_alpha   106.15749495
_cell_angle_beta   104.70007416
_cell_angle_gamma   90.00035635
_symmetry_Int_Tables_number   1
_chemical_formula_structural   SiO2
_chemical_formula_sum   'Si4 O8'
_cell_volume   153.79338109
_cell_formula_units_Z   4
loop_
 _symmetry_equiv_pos_site_id
 _symmetry_equiv_pos_as_xyz
  1  'x, y, z'
loop_
 _atom_site_type_symbol
 _atom_site_label
 _atom_site_symmetry_multiplicity
 _atom_site_fract_x
 _atom_site_fract_y
 _atom_site_fract_z
 _atom_site_occupancy
  Si  Si0  1  0.937059  0.187113  0.874165  1
  Si  Si1  1  0.190094  0.440062  0.380127  1
  Si  Si2  1  0.309928  0.059922  0.619874  1
  Si  Si3  1  0.562922  0.312890  0.125824  1
  O  O4  1  0.108226  0.287944  0.740913  1
  O  O5  1  0.867328  0.212049  0.259063  1
  O  O6  1  0.391785  0.547067  0.259079  1
  O  O7  1  0.249977  0.071457  0.000009  1
  O  O8  1  0.092936  0.749986  0.499996  1
  O  O9  1  0.407073  0.249990  0.500009  1
  O  O10  1  0.749975  0.428571  0.999992  1
  O  O11  1  0.632696  0.952950  0.740949  1
