# generated using pymatgen
data_La2Si2O7
_symmetry_space_group_name_H-M   'P 1'
_cell_length_a   7.41487528
_cell_length_b   10.21394587
_cell_length_c   23.60618962
_cell_angle_alpha   90.00000000
_cell_angle_beta   90.00000000
_cell_angle_gamma   90.65030563
_symmetry_Int_Tables_number   1
_chemical_formula_structural   La2Si2O7
_chemical_formula_sum   'La24 Si24 O84'
_cell_volume   1787.70279865
_cell_formula_units_Z   12
loop_
 _symmetry_equiv_pos_site_id
 _symmetry_equiv_pos_as_xyz
  1  'x, y, z'
loop_
 _atom_site_type_symbol
 _atom_site_label
 _atom_site_symmetry_multiplicity
 _atom_site_fract_x
 _atom_site_fract_y
 _atom_site_fract_z
 _atom_site_occupancy
  La  La0  1  0.910130  0.264152  0.315840  1
  La  La1  1  0.405203  0.739170  0.184183  1
  La  La2  1  0.149481  0.360961  0.157942  1
  La  La3  1  0.089870  0.735848  0.684160  1
  La  La4  1  0.089870  0.235848  0.815840  1
  La  La5  1  0.910130  0.764152  0.184160  1
  La  La6  1  0.643136  0.507277  0.074760  1
  La  La7  1  0.594797  0.260830  0.815817  1
  La  La8  1  0.643136  0.007277  0.425241  1
  La  La9  1  0.327818  0.364353  0.665572  1
  La  La10  1  0.405203  0.239170  0.315817  1
  La  La11  1  0.327818  0.864353  0.834428  1
  La  La12  1  0.133766  0.008003  0.076852  1
  La  La13  1  0.133766  0.508003  0.423148  1
  La  La14  1  0.149481  0.860961  0.342058  1
  La  La15  1  0.356864  0.992723  0.574759  1
  La  La16  1  0.866234  0.491997  0.576852  1
  La  La17  1  0.850518  0.139039  0.657942  1
  La  La18  1  0.594797  0.760830  0.684183  1
  La  La19  1  0.850518  0.639039  0.842058  1
  La  La20  1  0.356864  0.492723  0.925241  1
  La  La21  1  0.866234  0.991997  0.923148  1
  La  La22  1  0.672182  0.135647  0.165572  1
  La  La23  1  0.672182  0.635647  0.334428  1
  Si  Si24  1  0.851359  0.872738  0.579883  1
  Si  Si25  1  0.807241  0.442271  0.724172  1
  Si  Si26  1  0.581824  0.766223  0.966926  1
  Si  Si27  1  0.418176  0.733777  0.466926  1
  Si  Si28  1  0.418176  0.233777  0.033074  1
  Si  Si29  1  0.159027  0.261244  0.535054  1
  Si  Si30  1  0.692280  0.935294  0.280320  1
  Si  Si31  1  0.148641  0.627262  0.079883  1
  Si  Si32  1  0.692280  0.435294  0.219680  1
  Si  Si33  1  0.148641  0.127262  0.420117  1
  Si  Si34  1  0.641283  0.382807  0.416997  1
  Si  Si35  1  0.358717  0.117193  0.916997  1
  Si  Si36  1  0.358717  0.617193  0.583003  1
  Si  Si37  1  0.307720  0.064706  0.719680  1
  Si  Si38  1  0.581824  0.266223  0.533074  1
  Si  Si39  1  0.159027  0.761244  0.964946  1
  Si  Si40  1  0.840973  0.738756  0.464946  1
  Si  Si41  1  0.851359  0.372738  0.920117  1
  Si  Si42  1  0.807241  0.942271  0.775828  1
  Si  Si43  1  0.641283  0.882807  0.083003  1
  Si  Si44  1  0.192759  0.057730  0.224172  1
  Si  Si45  1  0.192759  0.557729  0.275828  1
  Si  Si46  1  0.840973  0.238756  0.035054  1
  Si  Si47  1  0.307720  0.564706  0.780320  1
  O  O48  1  0.208095  0.896001  0.224601  1
  O  O49  1  0.867142  0.901260  0.710598  1
  O  O50  1  0.574823  0.119955  0.508137  1
  O  O51  1  0.381638  0.143629  0.215485  1
  O  O52  1  0.347629  0.122362  0.987195  1
  O  O53  1  0.952091  0.398060  0.675862  1
  O  O54  1  0.369559  0.100375  0.785288  1
  O  O55  1  0.711459  0.096815  0.280869  1
  O  O56  1  0.168226  0.134346  0.490955  1
  O  O57  1  0.676677  0.949556  0.606203  1
  O  O58  1  0.047909  0.101940  0.175862  1
  O  O59  1  0.820386  0.957403  0.108896  1
  O  O60  1  0.132858  0.098740  0.289402  1
  O  O61  1  0.618362  0.856371  0.784515  1
  O  O62  1  0.711459  0.596815  0.219131  1
  O  O63  1  0.563160  0.884158  0.332474  1
  O  O64  1  0.372214  0.803474  0.948969  1
  O  O65  1  0.906121  0.281568  0.097483  1
  O  O66  1  0.179614  0.042597  0.891104  1
  O  O67  1  0.351708  0.767443  0.609727  1
  O  O68  1  0.123905  0.154957  0.715120  1
  O  O69  1  0.946048  0.620881  0.493853  1
  O  O70  1  0.847791  0.725333  0.609325  1
  O  O71  1  0.037178  0.445498  0.899895  1
  O  O72  1  0.053952  0.379119  0.506147  1
  O  O73  1  0.093879  0.718432  0.902517  1
  O  O74  1  0.627786  0.196526  0.051031  1
  O  O75  1  0.962822  0.054502  0.399895  1
  O  O76  1  0.906121  0.781568  0.402517  1
  O  O77  1  0.962822  0.554502  0.100105  1
  O  O78  1  0.618362  0.356371  0.715485  1
  O  O79  1  0.179614  0.542597  0.608896  1
  O  O80  1  0.704035  0.782279  0.910775  1
  O  O81  1  0.288541  0.903185  0.719131  1
  O  O82  1  0.093879  0.218432  0.597483  1
  O  O83  1  0.627786  0.696526  0.448969  1
  O  O84  1  0.952091  0.898060  0.824138  1
  O  O85  1  0.676677  0.449556  0.893797  1
  O  O86  1  0.152209  0.774667  0.109325  1
  O  O87  1  0.208095  0.396001  0.275399  1
  O  O88  1  0.630441  0.399625  0.285288  1
  O  O89  1  0.538298  0.545128  0.606442  1
  O  O90  1  0.704035  0.282279  0.589225  1
  O  O91  1  0.876095  0.845043  0.284880  1
  O  O92  1  0.425177  0.380045  0.008137  1
  O  O93  1  0.563160  0.384158  0.167526  1
  O  O94  1  0.630441  0.899625  0.214712  1
  O  O95  1  0.461702  0.954872  0.106442  1
  O  O96  1  0.123905  0.654957  0.784880  1
  O  O97  1  0.538298  0.045128  0.893558  1
  O  O98  1  0.037178  0.945498  0.600105  1
  O  O99  1  0.372214  0.303474  0.551031  1
  O  O100  1  0.425177  0.880045  0.491863  1
  O  O101  1  0.323323  0.050444  0.393797  1
  O  O102  1  0.347629  0.622362  0.512805  1
  O  O103  1  0.295965  0.717721  0.410775  1
  O  O104  1  0.381638  0.643629  0.284515  1
  O  O105  1  0.791905  0.603999  0.724601  1
  O  O106  1  0.648292  0.232557  0.390273  1
  O  O107  1  0.461702  0.454872  0.393558  1
  O  O108  1  0.369559  0.600375  0.714712  1
  O  O109  1  0.867142  0.401260  0.789402  1
  O  O110  1  0.648292  0.732557  0.109727  1
  O  O111  1  0.436840  0.615842  0.832474  1
  O  O112  1  0.351708  0.267443  0.890273  1
  O  O113  1  0.295965  0.217721  0.089225  1
  O  O114  1  0.053952  0.879119  0.993853  1
  O  O115  1  0.574823  0.619955  0.991863  1
  O  O116  1  0.168226  0.634346  0.009045  1
  O  O117  1  0.791905  0.103999  0.775399  1
  O  O118  1  0.152209  0.274667  0.390675  1
  O  O119  1  0.831774  0.365654  0.990955  1
  O  O120  1  0.946048  0.120881  0.006147  1
  O  O121  1  0.323323  0.550444  0.106203  1
  O  O122  1  0.652371  0.377638  0.487195  1
  O  O123  1  0.132858  0.598740  0.210598  1
  O  O124  1  0.831774  0.865654  0.509045  1
  O  O125  1  0.652371  0.877638  0.012805  1
  O  O126  1  0.847791  0.225333  0.890675  1
  O  O127  1  0.436840  0.115842  0.667526  1
  O  O128  1  0.876095  0.345043  0.215120  1
  O  O129  1  0.047909  0.601940  0.324138  1
  O  O130  1  0.288541  0.403185  0.780869  1
  O  O131  1  0.820386  0.457403  0.391104  1
