# generated using pymatgen
data_SNClO
_symmetry_space_group_name_H-M   'P 1'
_cell_length_a   7.88663340
_cell_length_b   10.51263393
_cell_length_c   12.05510951
_cell_angle_alpha   90.00000000
_cell_angle_beta   90.00000000
_cell_angle_gamma   90.00000000
_symmetry_Int_Tables_number   1
_chemical_formula_structural   SNClO
_chemical_formula_sum   'S12 N12 Cl12 O12'
_cell_volume   999.48056883
_cell_formula_units_Z   12
loop_
 _symmetry_equiv_pos_site_id
 _symmetry_equiv_pos_as_xyz
  1  'x, y, z'
loop_
 _atom_site_type_symbol
 _atom_site_label
 _atom_site_symmetry_multiplicity
 _atom_site_fract_x
 _atom_site_fract_y
 _atom_site_fract_z
 _atom_site_occupancy
  S  S0  1  0.402541  0.519721  0.750000  1
  S  S1  1  0.869468  0.868611  0.364960  1
  S  S2  1  0.597459  0.480279  0.250000  1
  S  S3  1  0.130532  0.131389  0.635040  1
  S  S4  1  0.369468  0.631389  0.135040  1
  S  S5  1  0.097459  0.019721  0.250000  1
  S  S6  1  0.630532  0.368611  0.635040  1
  S  S7  1  0.902541  0.980279  0.750000  1
  S  S8  1  0.130532  0.131389  0.864960  1
  S  S9  1  0.369468  0.631389  0.364960  1
  S  S10  1  0.869468  0.868611  0.135040  1
  S  S11  1  0.630532  0.368611  0.864960  1
  N  N12  1  0.537975  0.549677  0.359819  1
  N  N13  1  0.679154  0.304860  0.750000  1
  N  N14  1  0.037975  0.950323  0.359819  1
  N  N15  1  0.179154  0.195140  0.750000  1
  N  N16  1  0.537975  0.549677  0.140181  1
  N  N17  1  0.037975  0.950323  0.140181  1
  N  N18  1  0.462025  0.450323  0.640181  1
  N  N19  1  0.320846  0.695140  0.250000  1
  N  N20  1  0.962025  0.049677  0.859819  1
  N  N21  1  0.962025  0.049677  0.640181  1
  N  N22  1  0.462025  0.450323  0.859819  1
  N  N23  1  0.820846  0.804860  0.250000  1
  Cl  Cl24  1  0.678570  0.992522  0.401432  1
  Cl  Cl25  1  0.982326  0.193563  0.250000  1
  Cl  Cl26  1  0.821430  0.492522  0.901432  1
  Cl  Cl27  1  0.178570  0.507478  0.098568  1
  Cl  Cl28  1  0.017674  0.806437  0.750000  1
  Cl  Cl29  1  0.178570  0.507478  0.401432  1
  Cl  Cl30  1  0.517674  0.693563  0.750000  1
  Cl  Cl31  1  0.321430  0.007478  0.901432  1
  Cl  Cl32  1  0.321430  0.007478  0.598568  1
  Cl  Cl33  1  0.482326  0.306437  0.250000  1
  Cl  Cl34  1  0.678570  0.992522  0.098568  1
  Cl  Cl35  1  0.821430  0.492522  0.598568  1
  O  O36  1  0.724027  0.958143  0.750000  1
  O  O37  1  0.624777  0.277157  0.952207  1
  O  O38  1  0.124777  0.222843  0.547793  1
  O  O39  1  0.375223  0.722843  0.047793  1
  O  O40  1  0.224027  0.541857  0.750000  1
  O  O41  1  0.124777  0.222843  0.952207  1
  O  O42  1  0.275973  0.041857  0.250000  1
  O  O43  1  0.375223  0.722843  0.452207  1
  O  O44  1  0.875223  0.777157  0.452207  1
  O  O45  1  0.875223  0.777157  0.047793  1
  O  O46  1  0.624777  0.277157  0.547793  1
  O  O47  1  0.775973  0.458143  0.250000  1
