# generated using pymatgen
data_La4Ti9(Si2O15)2
_symmetry_space_group_name_H-M   'P 1'
_cell_length_a   5.77727758
_cell_length_b   7.42869873
_cell_length_c   14.66023909
_cell_angle_alpha   80.65261175
_cell_angle_beta   78.63761001
_cell_angle_gamma   67.11662079
_symmetry_Int_Tables_number   1
_chemical_formula_structural   La4Ti9(Si2O15)2
_chemical_formula_sum   'La4 Ti9 Si4 O30'
_cell_volume   565.73383971
_cell_formula_units_Z   1
loop_
 _symmetry_equiv_pos_site_id
 _symmetry_equiv_pos_as_xyz
  1  'x, y, z'
loop_
 _atom_site_type_symbol
 _atom_site_label
 _atom_site_symmetry_multiplicity
 _atom_site_fract_x
 _atom_site_fract_y
 _atom_site_fract_z
 _atom_site_occupancy
  La  La0  1  0.892596  0.901349  0.313447  1
  La  La1  1  0.612293  0.467003  0.308456  1
  La  La2  1  0.107404  0.098651  0.686553  1
  La  La3  1  0.387707  0.532997  0.691544  1
  Ti  Ti4  1  0.563291  0.756732  0.116722  1
  Ti  Ti5  1  0.408369  0.773404  0.890133  1
  Ti  Ti6  1  0.906684  0.305280  0.881318  1
  Ti  Ti7  1  0.000000  0.500000  0.500000  1
  Ti  Ti8  1  0.071888  0.226584  0.109868  1
  Ti  Ti9  1  0.928112  0.773416  0.890132  1
  Ti  Ti10  1  0.436709  0.243268  0.883278  1
  Ti  Ti11  1  0.591631  0.226596  0.109867  1
  Ti  Ti12  1  0.093316  0.694720  0.118682  1
  Si  Si13  1  0.758858  0.804717  0.677558  1
  Si  Si14  1  0.241142  0.195283  0.322442  1
  Si  Si15  1  0.630251  0.205315  0.534205  1
  Si  Si16  1  0.369749  0.794685  0.465795  1
  O  O17  1  0.711248  0.292033  0.783758  1
  O  O18  1  0.489293  0.805549  0.739047  1
  O  O19  1  0.921819  0.023487  0.132803  1
  O  O20  1  0.572634  0.970958  0.883766  1
  O  O21  1  0.722320  0.422395  0.132991  1
  O  O22  1  0.306796  0.993909  0.392649  1
  O  O23  1  0.078181  0.976513  0.867197  1
  O  O24  1  0.770774  0.578287  0.880198  1
  O  O25  1  0.131432  0.256721  0.975958  1
  O  O26  1  0.364144  0.743300  0.024047  1
  O  O27  1  0.427366  0.029042  0.116234  1
  O  O28  1  0.635856  0.256700  0.975953  1
  O  O29  1  0.510707  0.194451  0.260953  1
  O  O30  1  0.212863  0.292042  0.783753  1
  O  O31  1  0.693204  0.006091  0.607351  1
  O  O32  1  0.321711  0.322562  0.566408  1
  O  O33  1  0.789349  0.322537  0.566417  1
  O  O34  1  0.678289  0.677438  0.433592  1
  O  O35  1  0.229226  0.421713  0.119802  1
  O  O36  1  0.883714  0.614262  0.618274  1
  O  O37  1  0.210651  0.677463  0.433583  1
  O  O38  1  0.277680  0.577605  0.867009  1
  O  O39  1  0.116286  0.385738  0.381726  1
  O  O40  1  0.288752  0.707967  0.216242  1
  O  O41  1  0.296291  0.832979  0.574325  1
  O  O42  1  0.703709  0.167021  0.425675  1
  O  O43  1  0.868568  0.743279  0.024042  1
  O  O44  1  0.033934  0.194421  0.260945  1
  O  O45  1  0.787137  0.707958  0.216247  1
  O  O46  1  0.966066  0.805579  0.739055  1
