# generated using pymatgen
data_La3CuS3O2
_symmetry_space_group_name_H-M   'P 1'
_cell_length_a   3.94255218
_cell_length_b   12.57416028
_cell_length_c   14.07889137
_cell_angle_alpha   90.00000000
_cell_angle_beta   90.00000000
_cell_angle_gamma   90.00000000
_symmetry_Int_Tables_number   1
_chemical_formula_structural   La3CuS3O2
_chemical_formula_sum   'La12 Cu4 S12 O8'
_cell_volume   697.95094543
_cell_formula_units_Z   4
loop_
 _symmetry_equiv_pos_site_id
 _symmetry_equiv_pos_as_xyz
  1  'x, y, z'
loop_
 _atom_site_type_symbol
 _atom_site_label
 _atom_site_symmetry_multiplicity
 _atom_site_fract_x
 _atom_site_fract_y
 _atom_site_fract_z
 _atom_site_occupancy
  La  La0  1  0.750000  0.904280  0.368169  1
  La  La1  1  0.250000  0.387705  0.708116  1
  La  La2  1  0.750000  0.612295  0.291884  1
  La  La3  1  0.750000  0.900361  0.077502  1
  La  La4  1  0.250000  0.099639  0.922498  1
  La  La5  1  0.250000  0.400361  0.422498  1
  La  La6  1  0.250000  0.095720  0.631831  1
  La  La7  1  0.750000  0.599639  0.577502  1
  La  La8  1  0.750000  0.595720  0.868169  1
  La  La9  1  0.250000  0.112295  0.208116  1
  La  La10  1  0.750000  0.887705  0.791884  1
  La  La11  1  0.250000  0.404280  0.131831  1
  Cu  Cu12  1  0.750000  0.171704  0.414485  1
  Cu  Cu13  1  0.250000  0.671704  0.085515  1
  Cu  Cu14  1  0.250000  0.828296  0.585515  1
  Cu  Cu15  1  0.750000  0.328296  0.914485  1
  S  S16  1  0.250000  0.788115  0.218372  1
  S  S17  1  0.750000  0.567724  0.087012  1
  S  S18  1  0.250000  0.711885  0.718372  1
  S  S19  1  0.250000  0.432276  0.912988  1
  S  S20  1  0.750000  0.932276  0.587012  1
  S  S21  1  0.750000  0.235987  0.055780  1
  S  S22  1  0.250000  0.735987  0.444220  1
  S  S23  1  0.750000  0.264013  0.555780  1
  S  S24  1  0.750000  0.211885  0.781628  1
  S  S25  1  0.250000  0.067724  0.412988  1
  S  S26  1  0.750000  0.288115  0.281628  1
  S  S27  1  0.250000  0.764013  0.944220  1
  O  O28  1  0.250000  0.493281  0.573465  1
  O  O29  1  0.750000  0.506719  0.426535  1
  O  O30  1  0.750000  0.493475  0.729028  1
  O  O31  1  0.250000  0.006719  0.073465  1
  O  O32  1  0.250000  0.506525  0.270972  1
  O  O33  1  0.750000  0.993281  0.926535  1
  O  O34  1  0.750000  0.006525  0.229028  1
  O  O35  1  0.250000  0.993475  0.770972  1
