# generated using pymatgen
data_S3N3ClO2
_symmetry_space_group_name_H-M   'P 1'
_cell_length_a   7.00718222
_cell_length_b   9.73990719
_cell_length_c   12.51596456
_cell_angle_alpha   112.58643156
_cell_angle_beta   90.00000000
_cell_angle_gamma   111.08269672
_symmetry_Int_Tables_number   1
_chemical_formula_structural   S3N3ClO2
_chemical_formula_sum   'S12 N12 Cl4 O8'
_cell_volume   726.37149014
_cell_formula_units_Z   4
loop_
 _symmetry_equiv_pos_site_id
 _symmetry_equiv_pos_as_xyz
  1  'x, y, z'
loop_
 _atom_site_type_symbol
 _atom_site_label
 _atom_site_symmetry_multiplicity
 _atom_site_fract_x
 _atom_site_fract_y
 _atom_site_fract_z
 _atom_site_occupancy
  S  S0  1  0.911284  0.195493  0.202331  1
  S  S1  1  0.499436  0.336976  0.555693  1
  S  S2  1  0.715792  0.804507  0.297669  1
  S  S3  1  0.162460  0.663024  0.944307  1
  S  S4  1  0.089880  0.316001  0.581187  1
  S  S5  1  0.773879  0.683999  0.918813  1
  S  S6  1  0.837540  0.336976  0.055693  1
  S  S7  1  0.500564  0.663024  0.444307  1
  S  S8  1  0.910120  0.683999  0.418813  1
  S  S9  1  0.088716  0.804507  0.797669  1
  S  S10  1  0.284208  0.195493  0.702331  1
  S  S11  1  0.226121  0.316001  0.081187  1
  N  N12  1  0.756649  0.224604  0.132337  1
  N  N13  1  0.243351  0.775396  0.867663  1
  N  N14  1  0.331371  0.411833  0.572043  1
  N  N15  1  0.101292  0.240623  0.679510  1
  N  N16  1  0.898708  0.759377  0.320490  1
  N  N17  1  0.668629  0.588167  0.427957  1
  N  N18  1  0.467955  0.224604  0.632337  1
  N  N19  1  0.139331  0.240623  0.179510  1
  N  N20  1  0.532045  0.775396  0.367663  1
  N  N21  1  0.080463  0.411833  0.072043  1
  N  N22  1  0.860669  0.759377  0.820490  1
  N  N23  1  0.919537  0.588167  0.927957  1
  Cl  Cl24  1  0.436462  0.141406  0.386268  1
  Cl  Cl25  1  0.704945  0.141406  0.886268  1
  Cl  Cl26  1  0.295055  0.858594  0.113732  1
  Cl  Cl27  1  0.563538  0.858594  0.613732  1
  O  O28  1  -0.004767  0.563976  0.367304  1
  O  O29  1  0.804039  0.819912  0.028398  1
  O  O30  1  0.195961  0.180088  0.971602  1
  O  O31  1  0.431257  0.436024  0.132696  1
  O  O32  1  0.984126  0.180088  0.471602  1
  O  O33  1  0.015874  0.819912  0.528398  1
  O  O34  1  0.568743  0.563976  0.867304  1
  O  O35  1  1.004767  0.436024  0.632696  1
