# generated using pymatgen
data_NaNbO3
_symmetry_space_group_name_H-M   'P 1'
_cell_length_a   5.73822740
_cell_length_b   5.69120510
_cell_length_c   15.95675738
_cell_angle_alpha   90.00000000
_cell_angle_beta   90.00000000
_cell_angle_gamma   90.00000000
_symmetry_Int_Tables_number   1
_chemical_formula_structural   NaNbO3
_chemical_formula_sum   'Na8 Nb8 O24'
_cell_volume   521.10667191
_cell_formula_units_Z   8
loop_
 _symmetry_equiv_pos_site_id
 _symmetry_equiv_pos_as_xyz
  1  'x, y, z'
loop_
 _atom_site_type_symbol
 _atom_site_label
 _atom_site_symmetry_multiplicity
 _atom_site_fract_x
 _atom_site_fract_y
 _atom_site_fract_z
 _atom_site_occupancy
  Na  Na0  1  0.045976  0.500000  0.500000  1
  Na  Na1  1  0.546560  0.000000  0.500000  1
  Na  Na2  1  0.954024  0.500000  0.000000  1
  Na  Na3  1  0.000000  0.504595  0.250000  1
  Na  Na4  1  0.500000  -0.000760  0.750000  1
  Na  Na5  1  0.500000  1.000760  0.250000  1
  Na  Na6  1  0.000000  0.495405  0.750000  1
  Na  Na7  1  0.453440  0.000000  0.000000  1
  Nb  Nb8  1  0.474771  0.499667  0.875147  1
  Nb  Nb9  1  0.474771  0.500333  0.124853  1
  Nb  Nb10  1  0.525229  0.499667  0.624853  1
  Nb  Nb11  1  0.974644  0.000897  0.124833  1
  Nb  Nb12  1  0.025356  0.999103  0.624833  1
  Nb  Nb13  1  0.025356  0.000897  0.375167  1
  Nb  Nb14  1  0.974644  0.999103  0.875167  1
  Nb  Nb15  1  0.525229  0.500333  0.375147  1
  O  O16  1  0.514104  0.500000  0.000000  1
  O  O17  1  0.485896  0.500000  0.500000  1
  O  O18  1  0.257849  0.753610  0.125220  1
  O  O19  1  0.757620  0.253590  0.124715  1
  O  O20  1  0.000000  0.000978  0.250000  1
  O  O21  1  0.257346  0.247616  0.124693  1
  O  O22  1  0.742151  0.246390  0.625220  1
  O  O23  1  0.985875  0.000000  0.500000  1
  O  O24  1  0.242445  0.747555  0.374798  1
  O  O25  1  0.500000  0.498652  0.250000  1
  O  O26  1  0.742654  0.247616  0.375307  1
  O  O27  1  0.014125  0.000000  0.000000  1
  O  O28  1  0.257849  0.246390  0.874780  1
  O  O29  1  0.742151  0.753610  0.374780  1
  O  O30  1  0.242445  0.252445  0.625202  1
  O  O31  1  0.742654  0.752384  0.624693  1
  O  O32  1  0.500000  0.501348  0.750000  1
  O  O33  1  0.257346  0.752384  0.875307  1
  O  O34  1  0.757620  0.746410  0.875285  1
  O  O35  1  0.757555  0.747555  0.125202  1
  O  O36  1  0.757555  0.252445  0.874798  1
  O  O37  1  0.242380  0.253590  0.375285  1
  O  O38  1  0.000000  0.999022  0.750000  1
  O  O39  1  0.242380  0.746410  0.624715  1
