# generated using pymatgen
data_BH11C4BrNF4
_symmetry_space_group_name_H-M   'P 1'
_cell_length_a   6.08387834
_cell_length_b   7.90845498
_cell_length_c   9.62135735
_cell_angle_alpha   90.00000000
_cell_angle_beta   104.00144815
_cell_angle_gamma   90.00000000
_symmetry_Int_Tables_number   1
_chemical_formula_structural   BH11C4BrNF4
_chemical_formula_sum   'B2 H22 C8 Br2 N2 F8'
_cell_volume   449.16912356
_cell_formula_units_Z   2
loop_
 _symmetry_equiv_pos_site_id
 _symmetry_equiv_pos_as_xyz
  1  'x, y, z'
loop_
 _atom_site_type_symbol
 _atom_site_label
 _atom_site_symmetry_multiplicity
 _atom_site_fract_x
 _atom_site_fract_y
 _atom_site_fract_z
 _atom_site_occupancy
  B  B0  1  0.057328  0.750000  0.764156  1
  B  B1  1  0.942672  0.250000  0.235844  1
  H  H2  1  0.359293  0.250000  0.963070  1
  H  H3  1  0.492187  0.017198  0.209493  1
  H  H4  1  0.183072  0.135951  0.815502  1
  H  H5  1  0.747766  0.089103  0.753843  1
  H  H6  1  0.640707  0.750000  0.036930  1
  H  H7  1  0.305163  0.897377  0.070481  1
  H  H8  1  0.492187  0.482802  0.209493  1
  H  H9  1  0.261763  0.135400  0.588353  1
  H  H10  1  0.252234  0.589103  0.246157  1
  H  H11  1  0.252234  0.910897  0.246157  1
  H  H12  1  0.738237  0.864600  0.411647  1
  H  H13  1  0.694837  0.397377  0.929519  1
  H  H14  1  0.507813  0.517198  0.790507  1
  H  H15  1  0.816928  0.635951  0.184498  1
  H  H16  1  0.816928  0.864049  0.184498  1
  H  H17  1  0.694837  0.102623  0.929519  1
  H  H18  1  0.183072  0.364049  0.815502  1
  H  H19  1  0.738237  0.635400  0.411647  1
  H  H20  1  0.261763  0.364600  0.588353  1
  H  H21  1  0.507813  0.982802  0.790507  1
  H  H22  1  0.305163  0.602623  0.070481  1
  H  H23  1  0.747766  0.410897  0.753843  1
  C  C24  1  0.382533  0.594104  0.185464  1
  C  C25  1  0.284940  0.250000  0.847576  1
  C  C26  1  0.364486  0.250000  0.613469  1
  C  C27  1  0.617467  0.094104  0.814536  1
  C  C28  1  0.715060  0.750000  0.152424  1
  C  C29  1  0.382533  0.905896  0.185464  1
  C  C30  1  0.617467  0.405896  0.814536  1
  C  C31  1  0.635513  0.750000  0.386531  1
  Br  Br32  1  0.580151  0.250000  0.494651  1
  Br  Br33  1  0.419849  0.750000  0.505349  1
  N  N34  1  0.524452  0.750000  0.227898  1
  N  N35  1  0.475548  0.250000  0.772102  1
  F  F36  1  0.917497  0.750000  0.861837  1
  F  F37  1  0.017259  0.603082  0.676839  1
  F  F38  1  0.289919  0.750000  0.842770  1
  F  F39  1  0.710081  0.250000  0.157230  1
  F  F40  1  0.082503  0.250000  0.138163  1
  F  F41  1  0.982741  0.396918  0.323161  1
  F  F42  1  0.982741  0.103082  0.323161  1
  F  F43  1  0.017259  0.896918  0.676839  1
