# generated using pymatgen
data_Sr14MnSb11
_symmetry_space_group_name_H-M   'P 1'
_cell_length_a   17.08800890
_cell_length_b   17.08800956
_cell_length_c   17.08800893
_cell_angle_alpha   93.90242502
_cell_angle_beta   117.77309720
_cell_angle_gamma   117.77309719
_symmetry_Int_Tables_number   1
_chemical_formula_structural   Sr14MnSb11
_chemical_formula_sum   'Sr56 Mn4 Sb44'
_cell_volume   3637.88194076
_cell_formula_units_Z   4
loop_
 _symmetry_equiv_pos_site_id
 _symmetry_equiv_pos_as_xyz
  1  'x, y, z'
loop_
 _atom_site_type_symbol
 _atom_site_label
 _atom_site_symmetry_multiplicity
 _atom_site_fract_x
 _atom_site_fract_y
 _atom_site_fract_z
 _atom_site_occupancy
  Sr  Sr0  1  0.225232  0.975840  0.062795  1
  Sr  Sr1  1  0.725232  0.562795  0.475840  1
  Sr  Sr2  1  0.616632  0.400448  0.871559  1
  Sr  Sr3  1  0.144093  0.750000  0.894093  1
  Sr  Sr4  1  0.355907  0.250000  0.605907  1
  Sr  Sr5  1  0.274768  0.337563  0.750608  1
  Sr  Sr6  1  0.883368  0.628441  0.099552  1
  Sr  Sr7  1  0.913045  0.475840  0.250608  1
  Sr  Sr8  1  0.413045  0.750608  0.975840  1
  Sr  Sr9  1  0.646244  0.122272  0.519290  1
  Sr  Sr10  1  0.397019  0.519290  0.373047  1
  Sr  Sr11  1  0.853756  0.980710  0.377728  1
  Sr  Sr12  1  0.383368  0.599552  0.128441  1
  Sr  Sr13  1  0.725232  0.662437  0.249392  1
  Sr  Sr14  1  0.413045  0.162437  0.437205  1
  Sr  Sr15  1  0.471111  0.099552  0.716183  1
  Sr  Sr16  1  0.646244  0.023972  0.126953  1
  Sr  Sr17  1  0.146244  0.019290  0.622272  1
  Sr  Sr18  1  0.086955  0.524160  0.749392  1
  Sr  Sr19  1  0.353756  0.976028  0.873047  1
  Sr  Sr20  1  0.855907  0.105907  0.750000  1
  Sr  Sr21  1  0.086955  0.062795  0.337563  1
  Sr  Sr22  1  0.971111  0.254927  0.371559  1
  Sr  Sr23  1  0.397019  0.377728  0.023972  1
  Sr  Sr24  1  0.913045  0.937205  0.662437  1
  Sr  Sr25  1  0.225232  0.749392  0.162437  1
  Sr  Sr26  1  0.471111  0.871559  0.754927  1
  Sr  Sr27  1  0.102981  0.126953  0.980710  1
  Sr  Sr28  1  0.274768  0.437205  0.524160  1
  Sr  Sr29  1  0.644093  0.394093  0.250000  1
  Sr  Sr30  1  0.383368  0.283817  0.254927  1
  Sr  Sr31  1  0.028889  0.783817  0.400448  1
  Sr  Sr32  1  0.602981  0.622272  0.976028  1
  Sr  Sr33  1  0.971111  0.216183  0.599552  1
  Sr  Sr34  1  0.102981  0.476028  0.122272  1
  Sr  Sr35  1  0.116632  0.245073  0.216183  1
  Sr  Sr36  1  0.774768  0.250608  0.837563  1
  Sr  Sr37  1  0.144093  0.894093  0.250000  1
  Sr  Sr38  1  0.528889  0.900448  0.283817  1
  Sr  Sr39  1  0.116632  0.371559  0.900448  1
  Sr  Sr40  1  0.897019  0.523972  0.877728  1
  Sr  Sr41  1  0.644093  0.750000  0.394093  1
  Sr  Sr42  1  0.897019  0.873047  0.019290  1
  Sr  Sr43  1  0.853756  0.373047  0.476028  1
  Sr  Sr44  1  0.355907  0.605907  0.750000  1
  Sr  Sr45  1  0.146244  0.626953  0.523972  1
  Sr  Sr46  1  0.586955  0.837563  0.562795  1
  Sr  Sr47  1  0.855907  0.250000  0.105907  1
  Sr  Sr48  1  0.602981  0.480710  0.626953  1
  Sr  Sr49  1  0.028889  0.745073  0.628441  1
  Sr  Sr50  1  0.528889  0.128441  0.245073  1
  Sr  Sr51  1  0.883368  0.754927  0.783817  1
  Sr  Sr52  1  0.586955  0.249392  0.024160  1
  Sr  Sr53  1  0.353756  0.877728  0.480710  1
  Sr  Sr54  1  0.616632  0.716183  0.745073  1
  Sr  Sr55  1  0.774768  0.024160  0.937205  1
  Mn  Mn56  1  0.250000  0.125000  0.875000  1
  Mn  Mn57  1  0.750000  0.375000  0.625000  1
  Mn  Mn58  1  0.750000  0.875000  0.125000  1
  Mn  Mn59  1  0.250000  0.625000  0.375000  1
  Sb  Sb60  1  0.344267  0.522063  0.916223  1
  Sb  Sb61  1  0.881862  0.071737  0.183563  1
  Sb  Sb62  1  0.655733  0.477937  0.083777  1
  Sb  Sb63  1  0.618138  0.316437  0.428263  1
  Sb  Sb64  1  0.105839  0.177796  0.522063  1
  Sb  Sb65  1  0.111826  0.183563  0.801701  1
  Sb  Sb66  1  0.515355  0.507678  0.257678  1
  Sb  Sb67  1  0.105839  0.428043  0.583777  1
  Sb  Sb68  1  0.750000  0.125000  0.375000  1
  Sb  Sb69  1  0.611826  0.301701  0.683563  1
  Sb  Sb70  1  0.388174  0.698299  0.316437  1
  Sb  Sb71  1  0.394161  0.916223  0.071957  1
  Sb  Sb72  1  0.381862  0.198299  0.810125  1
  Sb  Sb73  1  0.894161  0.822204  0.477937  1
  Sb  Sb74  1  0.250000  0.375000  0.125000  1
  Sb  Sb75  1  0.250000  0.742322  0.757678  1
  Sb  Sb76  1  0.118138  0.689875  0.301701  1
  Sb  Sb77  1  0.618138  0.801701  0.189875  1
  Sb  Sb78  1  0.111826  0.428263  0.310125  1
  Sb  Sb79  1  0.605839  0.083777  0.928043  1
  Sb  Sb80  1  0.888174  0.816437  0.198299  1
  Sb  Sb81  1  0.894161  0.571957  0.416223  1
  Sb  Sb82  1  0.250000  0.875000  0.625000  1
  Sb  Sb83  1  0.381862  0.683563  0.571737  1
  Sb  Sb84  1  0.015355  0.757678  0.007678  1
  Sb  Sb85  1  0.611826  0.810125  0.928263  1
  Sb  Sb86  1  0.155733  0.583777  0.977937  1
  Sb  Sb87  1  0.388174  0.189875  0.071737  1
  Sb  Sb88  1  0.844267  0.928043  0.822204  1
  Sb  Sb89  1  0.484645  0.492322  0.742322  1
  Sb  Sb90  1  0.984645  0.242322  0.992322  1
  Sb  Sb91  1  0.394161  0.977937  0.322204  1
  Sb  Sb92  1  0.750000  0.992322  0.507678  1
  Sb  Sb93  1  0.605839  0.022063  0.677796  1
  Sb  Sb94  1  0.118138  0.928263  0.816437  1
  Sb  Sb95  1  0.344267  0.322204  0.428043  1
  Sb  Sb96  1  0.155733  0.071957  0.177796  1
  Sb  Sb97  1  0.750000  0.257678  0.242322  1
  Sb  Sb98  1  0.750000  0.625000  0.875000  1
  Sb  Sb99  1  0.250000  0.007678  0.492322  1
  Sb  Sb100  1  0.888174  0.571737  0.689875  1
  Sb  Sb101  1  0.655733  0.677796  0.571957  1
  Sb  Sb102  1  0.881862  0.310125  0.698299  1
  Sb  Sb103  1  0.844267  0.416223  0.022063  1
