# generated using pymatgen
data_Mo2P2PbO12
_symmetry_space_group_name_H-M   'P 1'
_cell_length_a   6.43462022
_cell_length_b   12.07097435
_cell_length_c   12.58085952
_cell_angle_alpha   90.00000000
_cell_angle_beta   90.00000000
_cell_angle_gamma   91.68400924
_symmetry_Int_Tables_number   1
_chemical_formula_structural   Mo2P2PbO12
_chemical_formula_sum   'Mo8 P8 Pb4 O48'
_cell_volume   976.76018311
_cell_formula_units_Z   4
loop_
 _symmetry_equiv_pos_site_id
 _symmetry_equiv_pos_as_xyz
  1  'x, y, z'
loop_
 _atom_site_type_symbol
 _atom_site_label
 _atom_site_symmetry_multiplicity
 _atom_site_fract_x
 _atom_site_fract_y
 _atom_site_fract_z
 _atom_site_occupancy
  Mo  Mo0  1  0.751129  0.904457  0.871180  1
  Mo  Mo1  1  0.248871  0.595543  0.371180  1
  Mo  Mo2  1  0.747319  0.901861  0.384825  1
  Mo  Mo3  1  0.751129  0.404457  0.628820  1
  Mo  Mo4  1  0.252681  0.098139  0.615175  1
  Mo  Mo5  1  0.248871  0.095543  0.128820  1
  Mo  Mo6  1  0.252681  0.598139  0.884825  1
  Mo  Mo7  1  0.747319  0.401861  0.115175  1
  P  P8  1  0.755822  0.612315  0.436438  1
  P  P9  1  0.244196  0.960190  0.375482  1
  P  P10  1  0.755822  0.112315  0.063562  1
  P  P11  1  0.244178  0.887685  0.936438  1
  P  P12  1  0.755804  0.039810  0.624518  1
  P  P13  1  0.244196  0.460190  0.124518  1
  P  P14  1  0.755804  0.539810  0.875482  1
  P  P15  1  0.244178  0.387685  0.563562  1
  Pb  Pb16  1  0.990222  0.768328  0.622778  1
  Pb  Pb17  1  0.990222  0.268328  0.877222  1
  Pb  Pb18  1  0.009778  0.231672  0.377222  1
  Pb  Pb19  1  0.009778  0.731672  0.122778  1
  O  O20  1  0.763995  0.830992  0.990437  1
  O  O21  1  0.556026  0.601785  0.908210  1
  O  O22  1  0.763283  0.024510  0.744935  1
  O  O23  1  0.933197  0.586264  0.357163  1
  O  O24  1  0.781192  0.044473  0.365035  1
  O  O25  1  0.236005  0.669008  0.490437  1
  O  O26  1  0.755693  0.846814  0.257547  1
  O  O27  1  0.794180  0.561184  0.546348  1
  O  O28  1  0.205820  0.438816  0.453652  1
  O  O29  1  0.553500  0.568061  0.382789  1
  O  O30  1  0.218808  0.455527  0.865035  1
  O  O31  1  0.066803  0.413736  0.642837  1
  O  O32  1  0.732080  0.299650  0.724959  1
  O  O33  1  0.446500  0.931939  0.882789  1
  O  O34  1  0.794180  0.061184  0.953652  1
  O  O35  1  0.443974  0.898215  0.408210  1
  O  O36  1  0.236717  0.975490  0.255065  1
  O  O37  1  0.749043  0.239102  0.042086  1
  O  O38  1  0.556026  0.101785  0.591790  1
  O  O39  1  0.941047  0.117274  0.587295  1
  O  O40  1  0.761925  0.928091  0.564023  1
  O  O41  1  0.941047  0.617274  0.912705  1
  O  O42  1  0.236005  0.169008  0.009563  1
  O  O43  1  0.066803  0.913736  0.857163  1
  O  O44  1  0.761925  0.428091  0.935977  1
  O  O45  1  0.749043  0.739102  0.457914  1
  O  O46  1  0.236717  0.475490  0.244935  1
  O  O47  1  0.732080  0.799650  0.775041  1
  O  O48  1  0.267920  0.200350  0.224959  1
  O  O49  1  0.933197  0.086264  0.142837  1
  O  O50  1  0.443974  0.398215  0.091790  1
  O  O51  1  0.238075  0.071909  0.435977  1
  O  O52  1  0.205820  0.938816  0.046348  1
  O  O53  1  0.553500  0.068061  0.117211  1
  O  O54  1  0.218808  0.955527  0.634965  1
  O  O55  1  0.238075  0.571909  0.064023  1
  O  O56  1  0.244307  0.153186  0.742453  1
  O  O57  1  0.250957  0.760898  0.957914  1
  O  O58  1  0.244307  0.653186  0.757547  1
  O  O59  1  0.446500  0.431939  0.617211  1
  O  O60  1  0.267920  0.700350  0.275041  1
  O  O61  1  0.763995  0.330992  0.509563  1
  O  O62  1  0.763283  0.524510  0.755065  1
  O  O63  1  0.781192  0.544473  0.134965  1
  O  O64  1  0.250957  0.260898  0.542086  1
  O  O65  1  0.755693  0.346814  0.242453  1
  O  O66  1  0.058953  0.882726  0.412705  1
  O  O67  1  0.058953  0.382726  0.087295  1
