# generated using pymatgen
data_CdI2
_symmetry_space_group_name_H-M   'P 1'
_cell_length_a   4.33290050
_cell_length_b   4.33290076
_cell_length_c   67.04069403
_cell_angle_alpha   90.00000000
_cell_angle_beta   90.00000000
_cell_angle_gamma   119.99999798
_symmetry_Int_Tables_number   1
_chemical_formula_structural   CdI2
_chemical_formula_sum   'Cd9 I18'
_cell_volume   1090.00025810
_cell_formula_units_Z   9
loop_
 _symmetry_equiv_pos_site_id
 _symmetry_equiv_pos_as_xyz
  1  'x, y, z'
loop_
 _atom_site_type_symbol
 _atom_site_label
 _atom_site_symmetry_multiplicity
 _atom_site_fract_x
 _atom_site_fract_y
 _atom_site_fract_z
 _atom_site_occupancy
  Cd  Cd0  1  0.000000  0.000000  0.805561  1
  Cd  Cd1  1  0.666667  0.333333  0.583315  1
  Cd  Cd2  1  0.000000  0.000000  0.472224  1
  Cd  Cd3  1  0.000000  0.000000  0.916648  1
  Cd  Cd4  1  0.000000  0.000000  0.694428  1
  Cd  Cd5  1  0.666667  0.333333  0.027805  1
  Cd  Cd6  1  0.000000  0.000000  0.138902  1
  Cd  Cd7  1  0.000000  0.000000  0.361086  1
  Cd  Cd8  1  0.666667  0.333333  0.250022  1
  I  I9  1  0.666667  0.333333  0.335351  1
  I  I10  1  0.333333  0.666667  0.720191  1
  I  I11  1  0.000000  0.000000  0.557569  1
  I  I12  1  0.000000  0.000000  0.224279  1
  I  I13  1  0.333333  0.666667  0.275777  1
  I  I14  1  0.333333  0.666667  0.053554  1
  I  I15  1  0.333333  0.666667  0.609066  1
  I  I16  1  0.666667  0.333333  0.890905  1
  I  I17  1  0.333333  0.666667  0.942388  1
  I  I18  1  0.666667  0.333333  0.113162  1
  I  I19  1  0.000000  0.000000  0.002070  1
  I  I20  1  0.666667  0.333333  0.446468  1
  I  I21  1  0.333333  0.666667  0.164642  1
  I  I22  1  0.666667  0.333333  0.779796  1
  I  I23  1  0.333333  0.666667  0.386822  1
  I  I24  1  0.333333  0.666667  0.831335  1
  I  I25  1  0.666667  0.333333  0.668656  1
  I  I26  1  0.333333  0.666667  0.497979  1
