# generated using pymatgen
data_MgCl2
_symmetry_space_group_name_H-M   'P 1'
_cell_length_a   6.66939750
_cell_length_b   7.07323316
_cell_length_c   7.12137351
_cell_angle_alpha   64.66637351
_cell_angle_beta   65.54243102
_cell_angle_gamma   77.13963786
_symmetry_Int_Tables_number   1
_chemical_formula_structural   MgCl2
_chemical_formula_sum   'Mg2 Cl4'
_cell_volume   275.97028170
_cell_formula_units_Z   2
loop_
 _symmetry_equiv_pos_site_id
 _symmetry_equiv_pos_as_xyz
  1  'x, y, z'
loop_
 _atom_site_type_symbol
 _atom_site_label
 _atom_site_symmetry_multiplicity
 _atom_site_fract_x
 _atom_site_fract_y
 _atom_site_fract_z
 _atom_site_occupancy
  Mg  Mg0  1  0.499238  0.866741  0.863923  1
  Mg  Mg1  1  0.500762  0.133259  0.136077  1
  Cl  Cl2  1  0.786543  0.983613  0.895805  1
  Cl  Cl3  1  0.213457  0.016387  0.104195  1
  Cl  Cl4  1  0.500000  0.000000  0.500000  1
  Cl  Cl5  1  0.500000  0.500000  0.000000  1
