# generated using pymatgen
data_Na5HfAs3
_symmetry_space_group_name_H-M   'P 1'
_cell_length_a   7.56578262
_cell_length_b   8.51211908
_cell_length_c   13.93078332
_cell_angle_alpha   90.44041084
_cell_angle_beta   90.00000000
_cell_angle_gamma   90.00000000
_symmetry_Int_Tables_number   1
_chemical_formula_structural   Na5HfAs3
_chemical_formula_sum   'Na20 Hf4 As12'
_cell_volume   897.12767976
_cell_formula_units_Z   4
loop_
 _symmetry_equiv_pos_site_id
 _symmetry_equiv_pos_as_xyz
  1  'x, y, z'
loop_
 _atom_site_type_symbol
 _atom_site_label
 _atom_site_symmetry_multiplicity
 _atom_site_fract_x
 _atom_site_fract_y
 _atom_site_fract_z
 _atom_site_occupancy
  Hf  Hf0  1  0.857900  0.925387  0.586059  1
  Hf  Hf1  1  0.357900  0.574613  0.913941  1
  Hf  Hf2  1  0.142100  0.074613  0.413941  1
  Hf  Hf3  1  0.642100  0.425387  0.086059  1
  As  As4  1  0.206648  0.912174  0.570011  1
  As  As5  1  0.706648  0.587826  0.929989  1
  As  As6  1  0.793352  0.087826  0.429989  1
  As  As7  1  0.293352  0.412174  0.070011  1
  As  As8  1  0.742560  0.638879  0.582671  1
  As  As9  1  0.242560  0.861121  0.917329  1
  As  As10  1  0.257440  0.361121  0.417329  1
  As  As11  1  0.757440  0.138879  0.082671  1
  As  As12  1  0.762769  0.088329  0.734764  1
  As  As13  1  0.262769  0.411671  0.765236  1
  As  As14  1  0.237231  0.911671  0.265236  1
  As  As15  1  0.737231  0.588329  0.234764  1
  Na  Na16  1  0.508537  0.820483  0.737493  1
  Na  Na17  1  0.008537  0.679517  0.762507  1
  Na  Na18  1  0.491463  0.179517  0.262507  1
  Na  Na19  1  0.991463  0.320483  0.237493  1
  Na  Na20  1  0.988588  0.332034  0.592794  1
  Na  Na21  1  0.488588  0.167966  0.907206  1
  Na  Na22  1  0.011412  0.667966  0.407206  1
  Na  Na23  1  0.511412  0.832034  0.092794  1
  Na  Na24  1  0.528018  0.819869  0.415192  1
  Na  Na25  1  0.028018  0.680131  0.084808  1
  Na  Na26  1  0.471982  0.180131  0.584808  1
  Na  Na27  1  0.971982  0.319869  0.915192  1
  Na  Na28  1  0.155442  0.077581  0.757227  1
  Na  Na29  1  0.655442  0.422419  0.742773  1
  Na  Na30  1  0.844558  0.922419  0.242773  1
  Na  Na31  1  0.344558  0.577581  0.257227  1
  Na  Na32  1  0.335689  0.578684  0.580763  1
  Na  Na33  1  0.835689  0.921316  0.919237  1
  Na  Na34  1  0.664311  0.421316  0.419237  1
  Na  Na35  1  0.164311  0.078684  0.080763  1
