# generated using pymatgen
data_Sr8Tl3Cr(CuO5)4
_symmetry_space_group_name_H-M   'P 1'
_cell_length_a   3.70275750
_cell_length_b   11.79078486
_cell_length_c   11.79078376
_cell_angle_alpha   99.44153047
_cell_angle_beta   90.00000000
_cell_angle_gamma   90.00000000
_symmetry_Int_Tables_number   1
_chemical_formula_structural   Sr8Tl3Cr(CuO5)4
_chemical_formula_sum   'Sr8 Tl3 Cr1 Cu4 O20'
_cell_volume   507.79367301
_cell_formula_units_Z   1
loop_
 _symmetry_equiv_pos_site_id
 _symmetry_equiv_pos_as_xyz
  1  'x, y, z'
loop_
 _atom_site_type_symbol
 _atom_site_label
 _atom_site_symmetry_multiplicity
 _atom_site_fract_x
 _atom_site_fract_y
 _atom_site_fract_z
 _atom_site_occupancy
  Sr  Sr0  1  0.500000  0.027626  0.725353  1
  Sr  Sr1  1  0.500000  0.274647  0.972374  1
  Sr  Sr2  1  0.500000  0.486803  0.767556  1
  Sr  Sr3  1  0.500000  0.767462  0.486779  1
  Sr  Sr4  1  0.500000  0.725334  0.027588  1
  Sr  Sr5  1  0.500000  0.513221  0.232538  1
  Sr  Sr6  1  0.500000  0.232444  0.513197  1
  Sr  Sr7  1  0.500000  0.972412  0.274666  1
  Tl  Tl8  1  0.000000  0.773274  0.773244  1
  Tl  Tl9  1  0.000000  0.999991  0.000009  1
  Tl  Tl10  1  0.000000  0.226756  0.226726  1
  Cr  Cr11  1  0.000000  0.500003  0.499997  1
  Cu  Cu12  1  0.000000  0.747246  0.252754  1
  Cu  Cu13  1  0.000000  0.500008  0.000204  1
  Cu  Cu14  1  0.000000  0.999796  0.499992  1
  Cu  Cu15  1  0.000000  0.252697  0.747303  1
  O  O16  1  0.000000  0.883523  0.116477  1
  O  O17  1  0.500000  0.583936  0.583912  1
  O  O18  1  0.000000  0.403023  0.596977  1
  O  O19  1  0.000000  0.363082  0.134994  1
  O  O20  1  0.000000  0.130794  0.620287  1
  O  O21  1  0.500000  0.416088  0.416064  1
  O  O22  1  0.000000  0.379713  0.869206  1
  O  O23  1  0.000000  0.596993  0.403007  1
  O  O24  1  0.500000  0.125180  0.125168  1
  O  O25  1  0.000000  0.116458  0.883542  1
  O  O26  1  0.000000  0.865006  0.636918  1
  O  O27  1  0.000000  0.620141  0.130699  1
  O  O28  1  0.000000  0.636977  0.864983  1
  O  O29  1  0.500000  0.499876  0.999738  1
  O  O30  1  0.500000  0.736009  0.263991  1
  O  O31  1  0.500000  0.000262  0.500124  1
  O  O32  1  0.000000  0.135017  0.363023  1
  O  O33  1  0.500000  0.264069  0.735931  1
  O  O34  1  0.500000  0.874832  0.874820  1
  O  O35  1  0.000000  0.869301  0.379859  1
