# generated using pymatgen
data_K3Co2F7
_symmetry_space_group_name_H-M   'P 1'
_cell_length_a   4.13210515
_cell_length_b   4.13210489
_cell_length_c   11.03780103
_cell_angle_alpha   100.78823627
_cell_angle_beta   100.78823562
_cell_angle_gamma   90.00000303
_symmetry_Int_Tables_number   1
_chemical_formula_structural   K3Co2F7
_chemical_formula_sum   'K3 Co2 F7'
_cell_volume   181.73970747
_cell_formula_units_Z   1
loop_
 _symmetry_equiv_pos_site_id
 _symmetry_equiv_pos_as_xyz
  1  'x, y, z'
loop_
 _atom_site_type_symbol
 _atom_site_label
 _atom_site_symmetry_multiplicity
 _atom_site_fract_x
 _atom_site_fract_y
 _atom_site_fract_z
 _atom_site_occupancy
  K  K0  1  0.315689  0.315689  0.631379  1
  K  K1  1  0.684311  0.684311  0.368621  1
  K  K2  1  0.500000  0.500000  0.000000  1
  Co  Co3  1  0.096010  0.096010  0.192020  1
  Co  Co4  1  0.903990  0.903990  0.807980  1
  F  F5  1  0.000000  0.000000  0.000000  1
  F  F6  1  0.404780  0.904780  0.809559  1
  F  F7  1  0.904780  0.404780  0.809559  1
  F  F8  1  0.595220  0.095220  0.190441  1
  F  F9  1  0.095220  0.595220  0.190441  1
  F  F10  1  0.191149  0.191149  0.382297  1
  F  F11  1  0.808851  0.808851  0.617703  1
