# generated using pymatgen
data_LiUAsO6
_symmetry_space_group_name_H-M   'P 1'
_cell_length_a   5.23643578
_cell_length_b   10.39839227
_cell_length_c   11.23741299
_cell_angle_alpha   64.67304419
_cell_angle_beta   76.24271833
_cell_angle_gamma   74.20544287
_symmetry_Int_Tables_number   1
_chemical_formula_structural   LiUAsO6
_chemical_formula_sum   'Li4 U4 As4 O24'
_cell_volume   526.98058474
_cell_formula_units_Z   4
loop_
 _symmetry_equiv_pos_site_id
 _symmetry_equiv_pos_as_xyz
  1  'x, y, z'
loop_
 _atom_site_type_symbol
 _atom_site_label
 _atom_site_symmetry_multiplicity
 _atom_site_fract_x
 _atom_site_fract_y
 _atom_site_fract_z
 _atom_site_occupancy
  Li  Li0  1  0.691325  0.623220  0.231231  1
  Li  Li1  1  0.308675  0.376780  0.768769  1
  Li  Li2  1  0.845450  0.907491  0.705309  1
  Li  Li3  1  0.154550  0.092509  0.294691  1
  U  U4  1  0.258436  0.719615  0.520692  1
  U  U5  1  0.762236  0.202020  0.017726  1
  U  U6  1  0.741564  0.280385  0.479308  1
  U  U7  1  0.237764  0.797980  0.982274  1
  As  As8  1  0.770626  0.891715  0.271530  1
  As  As9  1  0.304090  0.417973  0.216536  1
  As  As10  1  0.695910  0.582027  0.783464  1
  As  As11  1  0.229374  0.108285  0.728470  1
  O  O12  1  0.700974  0.121551  0.461325  1
  O  O13  1  0.119566  0.287921  0.324898  1
  O  O14  1  0.990461  0.820035  0.881164  1
  O  O15  1  0.880434  0.712079  0.675102  1
  O  O16  1  0.793655  0.436559  0.495406  1
  O  O17  1  0.918251  0.904000  0.113539  1
  O  O18  1  0.206345  0.563441  0.504594  1
  O  O19  1  0.457701  0.948121  0.769771  1
  O  O20  1  0.482317  0.772736  0.086470  1
  O  O21  1  0.473432  0.560703  0.704366  1
  O  O22  1  0.542299  0.051879  0.230229  1
  O  O23  1  0.995958  0.112939  0.640915  1
  O  O24  1  0.527695  0.642409  0.905887  1
  O  O25  1  0.472305  0.357591  0.094113  1
  O  O26  1  0.378193  0.257752  0.649295  1
  O  O27  1  0.081749  0.096000  0.886461  1
  O  O28  1  0.094018  0.583118  0.150608  1
  O  O29  1  0.621807  0.742248  0.350705  1
  O  O30  1  0.517683  0.227264  0.913530  1
  O  O31  1  0.526568  0.439297  0.295634  1
  O  O32  1  0.004042  0.887061  0.359085  1
  O  O33  1  0.905982  0.416882  0.849392  1
  O  O34  1  0.009539  0.179965  0.118836  1
  O  O35  1  0.299026  0.878449  0.538675  1
