# generated using pymatgen
data_Lu2Fe3Si5
_symmetry_space_group_name_H-M   'P 1'
_cell_length_a   5.39049869
_cell_length_b   10.28809662
_cell_length_c   10.28809662
_cell_angle_alpha   90.00000000
_cell_angle_beta   90.00000000
_cell_angle_gamma   90.00000000
_symmetry_Int_Tables_number   1
_chemical_formula_structural   Lu2Fe3Si5
_chemical_formula_sum   'Lu8 Fe12 Si20'
_cell_volume   570.55696763
_cell_formula_units_Z   4
loop_
 _symmetry_equiv_pos_site_id
 _symmetry_equiv_pos_as_xyz
  1  'x, y, z'
loop_
 _atom_site_type_symbol
 _atom_site_label
 _atom_site_symmetry_multiplicity
 _atom_site_fract_x
 _atom_site_fract_y
 _atom_site_fract_z
 _atom_site_occupancy
  Si  Si0  1  0.000000  0.023334  0.319125  1
  Si  Si1  1  0.000000  0.680875  0.023334  1
  Si  Si2  1  0.000000  0.319125  0.976666  1
  Si  Si3  1  0.000000  0.976666  0.680875  1
  Si  Si4  1  0.500000  0.523334  0.180875  1
  Si  Si5  1  0.500000  0.476666  0.819125  1
  Si  Si6  1  0.500000  0.819125  0.523334  1
  Si  Si7  1  0.500000  0.180875  0.476666  1
  Fe  Fe8  1  0.000000  0.143177  0.123105  1
  Fe  Fe9  1  0.000000  0.876895  0.143177  1
  Fe  Fe10  1  0.000000  0.123105  0.856823  1
  Fe  Fe11  1  0.000000  0.856823  0.876895  1
  Fe  Fe12  1  0.500000  0.643177  0.376895  1
  Fe  Fe13  1  0.500000  0.356823  0.623105  1
  Fe  Fe14  1  0.500000  0.623105  0.643177  1
  Fe  Fe15  1  0.500000  0.376895  0.356823  1
  Lu  Lu16  1  0.000000  0.262900  0.430910  1
  Lu  Lu17  1  0.000000  0.569090  0.262900  1
  Lu  Lu18  1  0.000000  0.430910  0.737100  1
  Lu  Lu19  1  0.000000  0.737100  0.569090  1
  Lu  Lu20  1  0.500000  0.762900  0.069090  1
  Lu  Lu21  1  0.500000  0.237100  0.930910  1
  Lu  Lu22  1  0.500000  0.930910  0.762900  1
  Lu  Lu23  1  0.500000  0.069090  0.237100  1
  Si  Si24  1  0.250000  0.178450  0.678450  1
  Si  Si25  1  0.250000  0.321550  0.178450  1
  Si  Si26  1  0.250000  0.678450  0.821550  1
  Si  Si27  1  0.250000  0.821550  0.321550  1
  Si  Si28  1  0.750000  0.821550  0.321550  1
  Si  Si29  1  0.750000  0.678450  0.821550  1
  Si  Si30  1  0.750000  0.321550  0.178450  1
  Si  Si31  1  0.750000  0.178450  0.678450  1
  Si  Si32  1  0.242240  0.000000  0.000000  1
  Si  Si33  1  0.257760  0.500000  0.500000  1
  Si  Si34  1  0.757760  0.000000  0.000000  1
  Si  Si35  1  0.742240  0.500000  0.500000  1
  Fe  Fe36  1  0.250000  0.000000  0.500000  1
  Fe  Fe37  1  0.250000  0.500000  0.000000  1
  Fe  Fe38  1  0.750000  0.000000  0.500000  1
  Fe  Fe39  1  0.750000  0.500000  0.000000  1
