# generated using pymatgen
data_Cs3As7
_symmetry_space_group_name_H-M   'P 1'
_cell_length_a   10.46720361
_cell_length_b   13.53492436
_cell_length_c   22.63386876
_cell_angle_alpha   90.00000000
_cell_angle_beta   90.00000000
_cell_angle_gamma   90.00000000
_symmetry_Int_Tables_number   1
_chemical_formula_structural   Cs3As7
_chemical_formula_sum   'Cs24 As56'
_cell_volume   3206.60376853
_cell_formula_units_Z   8
loop_
 _symmetry_equiv_pos_site_id
 _symmetry_equiv_pos_as_xyz
  1  'x, y, z'
loop_
 _atom_site_type_symbol
 _atom_site_label
 _atom_site_symmetry_multiplicity
 _atom_site_fract_x
 _atom_site_fract_y
 _atom_site_fract_z
 _atom_site_occupancy
  Cs  Cs0  1  0.696468  0.972866  0.730873  1
  Cs  Cs1  1  0.303532  0.472866  0.769127  1
  Cs  Cs2  1  0.400274  0.226440  0.620954  1
  Cs  Cs3  1  0.196468  0.527134  0.269127  1
  Cs  Cs4  1  0.235128  0.950066  0.478429  1
  Cs  Cs5  1  0.264872  0.450066  0.478429  1
  Cs  Cs6  1  0.900274  0.226440  0.879046  1
  Cs  Cs7  1  0.599726  0.726440  0.879046  1
  Cs  Cs8  1  0.303532  0.027134  0.269127  1
  Cs  Cs9  1  0.764872  0.450066  0.021571  1
  Cs  Cs10  1  0.264872  0.049934  0.978429  1
  Cs  Cs11  1  0.696468  0.527134  0.230873  1
  Cs  Cs12  1  0.803532  0.472866  0.730873  1
  Cs  Cs13  1  0.099726  0.773560  0.120954  1
  Cs  Cs14  1  0.400274  0.273560  0.120954  1
  Cs  Cs15  1  0.900274  0.273560  0.379046  1
  Cs  Cs16  1  0.599726  0.773560  0.379046  1
  Cs  Cs17  1  0.196468  0.972866  0.769127  1
  Cs  Cs18  1  0.735128  0.950066  0.021571  1
  Cs  Cs19  1  0.099726  0.726440  0.620954  1
  Cs  Cs20  1  0.803532  0.027134  0.230873  1
  Cs  Cs21  1  0.235128  0.549934  0.978429  1
  Cs  Cs22  1  0.735128  0.549934  0.521571  1
  Cs  Cs23  1  0.764872  0.049934  0.521571  1
  As  As24  1  0.591682  0.089835  0.366248  1
  As  As25  1  0.920737  0.821250  0.456456  1
  As  As26  1  0.032346  0.836494  0.947618  1
  As  As27  1  0.232396  0.705803  0.397269  1
  As  As28  1  0.408318  0.910165  0.633752  1
  As  As29  1  0.579263  0.178750  0.956456  1
  As  As30  1  0.053661  0.378482  0.142625  1
  As  As31  1  0.854218  0.203509  0.683626  1
  As  As32  1  0.446339  0.878482  0.142625  1
  As  As33  1  0.426897  0.779958  0.705010  1
  As  As34  1  0.946339  0.878482  0.357375  1
  As  As35  1  0.645782  0.796491  0.183626  1
  As  As36  1  0.573103  0.279958  0.794990  1
  As  As37  1  0.767605  0.205803  0.102731  1
  As  As38  1  0.073103  0.220042  0.205010  1
  As  As39  1  0.446339  0.621518  0.642625  1
  As  As40  1  0.926897  0.720042  0.294990  1
  As  As41  1  0.908318  0.910165  0.866248  1
  As  As42  1  0.145782  0.796491  0.316374  1
  As  As43  1  0.645782  0.703509  0.683626  1
  As  As44  1  0.145782  0.703509  0.816374  1
  As  As45  1  0.079263  0.178750  0.543544  1
  As  As46  1  0.532346  0.836494  0.552382  1
  As  As47  1  0.732395  0.705803  0.102731  1
  As  As48  1  0.946339  0.621518  0.857375  1
  As  As49  1  0.967654  0.336494  0.552382  1
  As  As50  1  0.053661  0.121518  0.642625  1
  As  As51  1  0.091682  0.410165  0.633752  1
  As  As52  1  0.591682  0.410165  0.866248  1
  As  As53  1  0.732395  0.794197  0.602731  1
  As  As54  1  0.032346  0.663506  0.447618  1
  As  As55  1  0.079263  0.321250  0.043544  1
  As  As56  1  0.420737  0.821250  0.043544  1
  As  As57  1  0.354218  0.203509  0.816374  1
  As  As58  1  0.967654  0.163506  0.052382  1
  As  As59  1  0.408318  0.589835  0.133752  1
  As  As60  1  0.467654  0.163506  0.447618  1
  As  As61  1  0.073103  0.279958  0.705010  1
  As  As62  1  0.553661  0.378482  0.357375  1
  As  As63  1  0.854218  0.296491  0.183626  1
  As  As64  1  0.426897  0.720042  0.205010  1
  As  As65  1  0.767605  0.294197  0.602731  1
  As  As66  1  0.573103  0.220042  0.294990  1
  As  As67  1  0.553661  0.121518  0.857375  1
  As  As68  1  0.091682  0.089835  0.133752  1
  As  As69  1  0.232396  0.794197  0.897269  1
  As  As70  1  0.420737  0.678750  0.543544  1
  As  As71  1  0.267605  0.294197  0.897269  1
  As  As72  1  0.267605  0.205803  0.397269  1
  As  As73  1  0.926897  0.779958  0.794990  1
  As  As74  1  0.908318  0.589835  0.366248  1
  As  As75  1  0.532346  0.663506  0.052382  1
  As  As76  1  0.467654  0.336494  0.947618  1
  As  As77  1  0.920737  0.678750  0.956456  1
  As  As78  1  0.579263  0.321250  0.456456  1
  As  As79  1  0.354218  0.296491  0.316374  1
