# generated using pymatgen
data_BaEu2NiO5
_symmetry_space_group_name_H-M   'P 1'
_cell_length_a   3.84137210
_cell_length_b   5.90570009
_cell_length_c   6.79625724
_cell_angle_alpha   115.75422895
_cell_angle_beta   106.41659832
_cell_angle_gamma   90.00256645
_symmetry_Int_Tables_number   1
_chemical_formula_structural   BaEu2NiO5
_chemical_formula_sum   'Ba1 Eu2 Ni1 O5'
_cell_volume   131.84988945
_cell_formula_units_Z   1
loop_
 _symmetry_equiv_pos_site_id
 _symmetry_equiv_pos_as_xyz
  1  'x, y, z'
loop_
 _atom_site_type_symbol
 _atom_site_label
 _atom_site_symmetry_multiplicity
 _atom_site_fract_x
 _atom_site_fract_y
 _atom_site_fract_z
 _atom_site_occupancy
  O  O0  1  1.000028  0.500013  1.000036  1
  O  O1  1  0.359177  0.599488  0.718325  1
  O  O2  1  0.640823  0.400521  0.281678  1
  O  O3  1  0.640788  0.881095  0.281656  1
  O  O4  1  0.359209  0.118894  0.718330  1
  Ni  Ni5  1  0.499985  0.499997  0.999994  1
  Ba  Ba6  1  0.000005  -0.000003  -0.000001  1
  Eu  Eu7  1  0.795205  0.295184  0.590347  1
  Eu  Eu8  1  0.204783  0.704809  0.409635  1
