# generated using pymatgen
data_Cs2Na3InO4
_symmetry_space_group_name_H-M   'P 1'
_cell_length_a   6.44599231
_cell_length_b   10.35980878
_cell_length_c   11.92993358
_cell_angle_alpha   90.00000000
_cell_angle_beta   99.15271160
_cell_angle_gamma   90.00000000
_symmetry_Int_Tables_number   1
_chemical_formula_structural   Cs2Na3InO4
_chemical_formula_sum   'Cs8 Na12 In4 O16'
_cell_volume   786.52866984
_cell_formula_units_Z   4
loop_
 _symmetry_equiv_pos_site_id
 _symmetry_equiv_pos_as_xyz
  1  'x, y, z'
loop_
 _atom_site_type_symbol
 _atom_site_label
 _atom_site_symmetry_multiplicity
 _atom_site_fract_x
 _atom_site_fract_y
 _atom_site_fract_z
 _atom_site_occupancy
  In  In0  1  0.333152  0.215890  0.435924  1
  In  In1  1  0.166848  0.715890  0.064076  1
  In  In2  1  0.666848  0.784110  0.564076  1
  In  In3  1  0.833152  0.284110  0.935924  1
  Cs  Cs4  1  0.107674  0.726555  0.391673  1
  Cs  Cs5  1  0.392326  0.226555  0.108327  1
  Cs  Cs6  1  0.892326  0.273445  0.608327  1
  Cs  Cs7  1  0.607674  0.773445  0.891673  1
  Cs  Cs8  1  0.360818  0.502274  0.634704  1
  Cs  Cs9  1  0.139182  0.002274  0.865296  1
  Cs  Cs10  1  0.639182  0.497726  0.365296  1
  Cs  Cs11  1  0.860818  0.997726  0.134704  1
  Na  Na12  1  0.408566  0.255041  0.798704  1
  Na  Na13  1  0.091434  0.755041  0.701296  1
  Na  Na14  1  0.591434  0.744959  0.201296  1
  Na  Na15  1  0.908566  0.244959  0.298704  1
  Na  Na16  1  0.616846  0.029491  0.704697  1
  Na  Na17  1  0.883154  0.529491  0.795303  1
  Na  Na18  1  0.383154  0.970509  0.295303  1
  Na  Na19  1  0.116846  0.470509  0.204697  1
  Na  Na20  1  0.293377  0.488588  0.931902  1
  Na  Na21  1  0.206623  0.988588  0.568098  1
  Na  Na22  1  0.706623  0.511412  0.068098  1
  Na  Na23  1  0.793377  0.011412  0.431902  1
  O  O24  1  0.089471  0.318148  0.850653  1
  O  O25  1  0.410529  0.818148  0.649347  1
  O  O26  1  0.910529  0.681852  0.149347  1
  O  O27  1  0.589471  0.181852  0.350653  1
  O  O28  1  0.391877  0.190056  0.613191  1
  O  O29  1  0.108123  0.690056  0.886809  1
  O  O30  1  0.608123  0.809944  0.386809  1
  O  O31  1  0.891877  0.309944  0.113191  1
  O  O32  1  0.678165  0.107302  0.891719  1
  O  O33  1  0.821835  0.607302  0.608281  1
  O  O34  1  0.321835  0.892698  0.108281  1
  O  O35  1  0.178165  0.392698  0.391719  1
  O  O36  1  0.115064  0.065337  0.376896  1
  O  O37  1  0.384936  0.565337  0.123104  1
  O  O38  1  0.884936  0.934663  0.623104  1
  O  O39  1  0.615064  0.434663  0.876896  1
