# generated using pymatgen
data_SrTeO3
_symmetry_space_group_name_H-M   'P 1'
_cell_length_a   5.98479472
_cell_length_b   14.65517079
_cell_length_c   14.88704384
_cell_angle_alpha   64.45889740
_cell_angle_beta   78.40415943
_cell_angle_gamma   78.21808244
_symmetry_Int_Tables_number   1
_chemical_formula_structural   SrTeO3
_chemical_formula_sum   'Sr12 Te12 O36'
_cell_volume   1143.82355123
_cell_formula_units_Z   12
loop_
 _symmetry_equiv_pos_site_id
 _symmetry_equiv_pos_as_xyz
  1  'x, y, z'
loop_
 _atom_site_type_symbol
 _atom_site_label
 _atom_site_symmetry_multiplicity
 _atom_site_fract_x
 _atom_site_fract_y
 _atom_site_fract_z
 _atom_site_occupancy
  Sr  Sr0  1  0.307727  0.380669  0.115584  1
  Sr  Sr1  1  0.976285  0.639258  0.603401  1
  Sr  Sr2  1  0.803981  0.619331  0.884416  1
  Sr  Sr3  1  0.426684  0.096283  0.157969  1
  Sr  Sr4  1  0.218944  0.360742  0.396599  1
  Sr  Sr5  1  0.814671  0.211754  0.282226  1
  Sr  Sr6  1  0.443393  0.824804  0.418705  1
  Sr  Sr7  1  0.083795  1.000000  1.000000  1
  Sr  Sr8  1  0.680936  0.903717  0.842031  1
  Sr  Sr9  1  0.617052  0.500000  0.500000  1
  Sr  Sr10  1  0.308650  0.788246  0.717774  1
  Sr  Sr11  1  0.686903  0.175196  0.581295  1
  Te  Te12  1  0.537633  0.186846  0.854962  1
  Te  Te13  1  0.202201  0.702765  0.997443  1
  Te  Te14  1  0.941294  0.951727  0.276640  1
  Te  Te15  1  0.711467  0.480677  0.230263  1
  Te  Te16  1  0.301075  0.108965  0.415848  1
  Te  Te17  1  0.057943  0.666409  0.348090  1
  Te  Te18  1  0.902410  0.297235  0.002557  1
  Te  Te19  1  0.825888  0.891035  0.584152  1
  Te  Te20  1  0.579441  0.813154  0.145038  1
  Te  Te21  1  0.422407  0.519323  0.769737  1
  Te  Te22  1  0.072442  0.333591  0.651910  1
  Te  Te23  1  0.169662  0.048273  0.723360  1
  O  O24  1  0.370174  0.117801  0.980493  1
  O  O25  1  0.876580  0.848888  0.114903  1
  O  O26  1  0.910267  0.047215  0.144731  1
  O  O27  1  0.102213  0.952785  0.855269  1
  O  O28  1  0.355229  0.344292  0.565095  1
  O  O29  1  0.422395  0.894714  0.216003  1
  O  O30  1  0.437160  0.971249  0.685063  1
  O  O31  1  0.016187  0.532671  0.376304  1
  O  O32  1  0.093472  0.028751  0.314937  1
  O  O33  1  0.836992  0.811166  0.722851  1
  O  O34  1  0.633552  0.609437  0.745260  1
  O  O35  1  0.068547  0.258657  0.112618  1
  O  O36  1  0.569737  0.464598  0.358870  1
  O  O37  1  0.544912  0.385476  0.227903  1
  O  O38  1  0.112341  0.818964  0.549981  1
  O  O39  1  0.823074  0.436614  0.976691  1
  O  O40  1  0.946710  0.742851  0.926829  1
  O  O41  1  0.627469  0.815256  0.566966  1
  O  O42  1  0.904812  0.309635  0.569853  1
  O  O43  1  0.009691  0.184744  0.433034  1
  O  O44  1  0.158291  0.614524  0.772097  1
  O  O45  1  0.637968  0.983195  0.333308  1
  O  O46  1  0.439822  0.741343  0.887382  1
  O  O47  1  0.925162  0.467329  0.623696  1
  O  O48  1  0.988249  0.390563  0.254740  1
  O  O49  1  0.954471  0.016805  0.666692  1
  O  O50  1  0.784301  0.690365  0.430147  1
  O  O51  1  0.616390  0.257149  0.073171  1
  O  O52  1  0.481286  0.181036  0.450019  1
  O  O53  1  0.236379  0.563386  0.023309  1
  O  O54  1  0.371009  0.188834  0.277149  1
  O  O55  1  0.393205  0.535402  0.641130  1
  O  O56  1  0.533112  0.105286  0.783997  1
  O  O57  1  0.264616  0.655708  0.434905  1
  O  O58  1  0.840372  0.151112  0.885097  1
  O  O59  1  0.468468  0.882199  0.019507  1
