# generated using pymatgen
data_CuAs4(H5O8)2
_symmetry_space_group_name_H-M   'P 1'
_cell_length_a   5.47198396
_cell_length_b   7.71509634
_cell_length_c   8.62467332
_cell_angle_alpha   107.77565949
_cell_angle_beta   98.54817929
_cell_angle_gamma   92.94246431
_symmetry_Int_Tables_number   1
_chemical_formula_structural   CuAs4(H5O8)2
_chemical_formula_sum   'Cu1 As4 H10 O16'
_cell_volume   341.05935943
_cell_formula_units_Z   1
loop_
 _symmetry_equiv_pos_site_id
 _symmetry_equiv_pos_as_xyz
  1  'x, y, z'
loop_
 _atom_site_type_symbol
 _atom_site_label
 _atom_site_symmetry_multiplicity
 _atom_site_fract_x
 _atom_site_fract_y
 _atom_site_fract_z
 _atom_site_occupancy
  As  As0  1  0.034286  0.281845  0.698922  1
  As  As1  1  0.965714  0.718155  0.301078  1
  As  As2  1  0.421362  0.815163  0.797499  1
  As  As3  1  0.578638  0.184837  0.202501  1
  Cu  Cu4  1  0.000000  0.000000  0.000000  1
  O  O5  1  0.868429  0.473611  0.725550  1
  O  O6  1  0.131571  0.526389  0.274450  1
  O  O7  1  0.120382  0.241501  0.505654  1
  O  O8  1  0.879618  0.758499  0.494346  1
  O  O9  1  0.871344  0.096841  0.711881  1
  O  O10  1  0.128656  0.903159  0.288119  1
  O  O11  1  0.295374  0.364539  0.852750  1
  O  O12  1  0.704626  0.635461  0.147250  1
  O  O13  1  0.674889  0.848894  0.951193  1
  O  O14  1  0.325111  0.151106  0.048807  1
  O  O15  1  0.418976  0.604358  0.646547  1
  O  O16  1  0.581024  0.395642  0.353453  1
  O  O17  1  0.140664  0.794476  0.859194  1
  O  O18  1  0.859336  0.205524  0.140806  1
  O  O19  1  0.416140  0.979557  0.696543  1
  O  O20  1  0.583860  0.020443  0.303457  1
  H  H21  1  0.110290  0.107350  0.441603  1
  H  H22  1  0.889710  0.892650  0.558397  1
  H  H23  1  0.984971  0.591569  0.776268  1
  H  H24  1  0.015029  0.408431  0.223732  1
  H  H25  1  0.313909  0.284044  0.925838  1
  H  H26  1  0.686091  0.715956  0.074162  1
  H  H27  1  0.576059  0.547642  0.664357  1
  H  H28  1  0.423941  0.452358  0.335643  1
  H  H29  1  0.591053  0.039010  0.703856  1
  H  H30  1  0.408947  0.960990  0.296144  1
