# generated using pymatgen
data_Ho7FeI12
_symmetry_space_group_name_H-M   'P 1'
_cell_length_a   9.74573435
_cell_length_b   9.74573400
_cell_length_c   9.74573400
_cell_angle_alpha   107.03202692
_cell_angle_beta   107.03202627
_cell_angle_gamma   107.03202589
_symmetry_Int_Tables_number   1
_chemical_formula_structural   Ho7FeI12
_chemical_formula_sum   'Ho7 Fe1 I12'
_cell_volume   770.21015464
_cell_formula_units_Z   1
loop_
 _symmetry_equiv_pos_site_id
 _symmetry_equiv_pos_as_xyz
  1  'x, y, z'
loop_
 _atom_site_type_symbol
 _atom_site_label
 _atom_site_symmetry_multiplicity
 _atom_site_fract_x
 _atom_site_fract_y
 _atom_site_fract_z
 _atom_site_occupancy
  Ho  Ho0  1  0.213942  0.478888  0.409636  1
  Ho  Ho1  1  0.590364  0.786058  0.521112  1
  Ho  Ho2  1  0.521112  0.590364  0.786058  1
  Ho  Ho3  1  0.409636  0.213942  0.478888  1
  Ho  Ho4  1  0.000000  0.000000  0.000000  1
  Ho  Ho5  1  0.478888  0.409636  0.213942  1
  Ho  Ho6  1  0.786058  0.521112  0.590364  1
  Fe  Fe7  1  0.500000  0.500000  0.500000  1
  I  I8  1  0.338881  0.038382  0.115113  1
  I  I9  1  0.275518  0.820498  0.428681  1
  I  I10  1  0.115113  0.338881  0.038382  1
  I  I11  1  0.724482  0.179502  0.571319  1
  I  I12  1  0.820498  0.428681  0.275518  1
  I  I13  1  0.961618  0.884887  0.661119  1
  I  I14  1  0.428681  0.275518  0.820498  1
  I  I15  1  0.884887  0.661119  0.961618  1
  I  I16  1  0.179502  0.571319  0.724482  1
  I  I17  1  0.571319  0.724482  0.179502  1
  I  I18  1  0.038382  0.115113  0.338881  1
  I  I19  1  0.661119  0.961618  0.884887  1
