# generated using pymatgen
data_CuAg4TeO6
_symmetry_space_group_name_H-M   'P 1'
_cell_length_a   5.83917763
_cell_length_b   7.57298241
_cell_length_c   7.57298250
_cell_angle_alpha   81.40439156
_cell_angle_beta   82.64582797
_cell_angle_gamma   82.64582798
_symmetry_Int_Tables_number   1
_chemical_formula_structural   CuAg4TeO6
_chemical_formula_sum   'Cu2 Ag8 Te2 O12'
_cell_volume   326.36190039
_cell_formula_units_Z   2
loop_
 _symmetry_equiv_pos_site_id
 _symmetry_equiv_pos_as_xyz
  1  'x, y, z'
loop_
 _atom_site_type_symbol
 _atom_site_label
 _atom_site_symmetry_multiplicity
 _atom_site_fract_x
 _atom_site_fract_y
 _atom_site_fract_z
 _atom_site_occupancy
  Cu  Cu0  1  0.250000  0.917200  0.082800  1
  Cu  Cu1  1  0.750000  0.082800  0.917200  1
  Ag  Ag2  1  0.250000  0.571647  0.428353  1
  Ag  Ag3  1  0.971320  0.651411  0.821294  1
  Ag  Ag4  1  0.750000  0.428353  0.571647  1
  Ag  Ag5  1  0.471320  0.821294  0.651411  1
  Ag  Ag6  1  0.528680  0.178706  0.348589  1
  Ag  Ag7  1  0.028680  0.348589  0.178706  1
  Ag  Ag8  1  0.500000  0.500000  0.000000  1
  Ag  Ag9  1  0.000000  0.000000  0.500000  1
  Te  Te10  1  0.250000  0.221818  0.778182  1
  Te  Te11  1  0.750000  0.778182  0.221818  1
  O  O12  1  0.687097  0.525376  0.244434  1
  O  O13  1  0.187097  0.244434  0.525376  1
  O  O14  1  0.820345  0.033057  0.174324  1
  O  O15  1  0.312903  0.474624  0.755566  1
  O  O16  1  0.812903  0.755566  0.474624  1
  O  O17  1  0.581379  0.148052  0.701873  1
  O  O18  1  0.081379  0.701873  0.148052  1
  O  O19  1  0.918621  0.298127  0.851948  1
  O  O20  1  0.679655  0.825676  0.966943  1
  O  O21  1  0.320345  0.174324  0.033057  1
  O  O22  1  0.418621  0.851948  0.298127  1
  O  O23  1  0.179655  0.966943  0.825676  1
