# generated using pymatgen
data_KCrF6
_symmetry_space_group_name_H-M   'P 1'
_cell_length_a   5.00132969
_cell_length_b   5.00132970
_cell_length_c   5.00132969
_cell_angle_alpha   97.92290047
_cell_angle_beta   97.92290046
_cell_angle_gamma   97.92290042
_symmetry_Int_Tables_number   1
_chemical_formula_structural   KCrF6
_chemical_formula_sum   'K1 Cr1 F6'
_cell_volume   121.14424729
_cell_formula_units_Z   1
loop_
 _symmetry_equiv_pos_site_id
 _symmetry_equiv_pos_as_xyz
  1  'x, y, z'
loop_
 _atom_site_type_symbol
 _atom_site_label
 _atom_site_symmetry_multiplicity
 _atom_site_fract_x
 _atom_site_fract_y
 _atom_site_fract_z
 _atom_site_occupancy
  F  F0  1  0.581991  0.268016  0.225074  1
  F  F1  1  0.268016  0.225074  0.581991  1
  F  F2  1  0.774926  0.418009  0.731984  1
  F  F3  1  0.731984  0.774926  0.418009  1
  F  F4  1  0.418009  0.731984  0.774926  1
  F  F5  1  0.225074  0.581991  0.268016  1
  K  K6  1  0.000000  0.000000  0.000000  1
  Cr  Cr7  1  0.500000  0.500000  0.500000  1
