# generated using pymatgen
data_Ba3Fe2Cl2O5
_symmetry_space_group_name_H-M   'P 1'
_cell_length_a   8.80541995
_cell_length_b   8.80542017
_cell_length_c   8.80541995
_cell_angle_alpha   109.47121773
_cell_angle_beta   109.47121821
_cell_angle_gamma   109.47122597
_symmetry_Int_Tables_number   1
_chemical_formula_structural   Ba3Fe2Cl2O5
_chemical_formula_sum   'Ba6 Fe4 Cl4 O10'
_cell_volume   525.56730412
_cell_formula_units_Z   2
loop_
 _symmetry_equiv_pos_site_id
 _symmetry_equiv_pos_as_xyz
  1  'x, y, z'
loop_
 _atom_site_type_symbol
 _atom_site_label
 _atom_site_symmetry_multiplicity
 _atom_site_fract_x
 _atom_site_fract_y
 _atom_site_fract_z
 _atom_site_occupancy
  Ba  Ba0  1  0.250000  0.655082  0.405082  1
  Ba  Ba1  1  0.405082  0.250000  0.655082  1
  Ba  Ba2  1  0.844918  0.094918  0.750000  1
  Ba  Ba3  1  0.750000  0.844918  0.094918  1
  Ba  Ba4  1  0.655082  0.405082  0.250000  1
  Ba  Ba5  1  0.094918  0.750000  0.844918  1
  Fe  Fe6  1  0.189621  0.189621  0.189621  1
  Fe  Fe7  1  0.310379  0.500000  1.000000  1
  Fe  Fe8  1  0.500000  0.000000  0.310379  1
  Fe  Fe9  1  1.000000  0.310379  0.500000  1
  Cl  Cl10  1  0.614321  0.614321  0.614321  1
  Cl  Cl11  1  1.000000  0.885679  0.500000  1
  Cl  Cl12  1  0.500000  0.000000  0.885679  1
  Cl  Cl13  1  0.885679  0.500000  0.000000  1
  O  O14  1  0.500000  1.000000  0.521387  1
  O  O15  1  0.250000  0.391694  0.141694  1
  O  O16  1  0.391694  0.141694  0.250000  1
  O  O17  1  0.000000  0.521387  0.500000  1
  O  O18  1  0.750000  0.108306  0.358306  1
  O  O19  1  0.521387  0.500000  0.000000  1
  O  O20  1  0.141694  0.250000  0.391694  1
  O  O21  1  0.978613  0.978613  0.978613  1
  O  O22  1  0.108306  0.358306  0.750000  1
  O  O23  1  0.358306  0.750000  0.108306  1
