# generated using pymatgen
data_Y2Si2O7
_symmetry_space_group_name_H-M   'P 1'
_cell_length_a   5.09407783
_cell_length_b   7.41782377
_cell_length_c   8.15220351
_cell_angle_alpha   90.00000000
_cell_angle_beta   90.00000000
_cell_angle_gamma   108.76854805
_symmetry_Int_Tables_number   1
_chemical_formula_structural   Y2Si2O7
_chemical_formula_sum   'Y4 Si4 O14'
_cell_volume   291.66699388
_cell_formula_units_Z   2
loop_
 _symmetry_equiv_pos_site_id
 _symmetry_equiv_pos_as_xyz
  1  'x, y, z'
loop_
 _atom_site_type_symbol
 _atom_site_label
 _atom_site_symmetry_multiplicity
 _atom_site_fract_x
 _atom_site_fract_y
 _atom_site_fract_z
 _atom_site_occupancy
  Y  Y0  1  0.269449  0.748251  0.507789  1
  Y  Y1  1  0.730551  0.251749  0.492211  1
  Y  Y2  1  0.730551  0.251749  0.007789  1
  Y  Y3  1  0.269449  0.748251  0.992211  1
  Si  Si4  1  0.786303  0.867043  0.750000  1
  Si  Si5  1  0.346128  0.426787  0.750000  1
  Si  Si6  1  0.213697  0.132957  0.250000  1
  Si  Si7  1  0.653872  0.573213  0.250000  1
  O  O8  1  0.716345  0.965854  0.584680  1
  O  O9  1  0.283655  0.034146  0.084680  1
  O  O10  1  0.168553  0.407294  0.919216  1
  O  O11  1  0.490469  0.335359  0.250000  1
  O  O12  1  0.168553  0.407294  0.580784  1
  O  O13  1  0.283655  0.034146  0.415320  1
  O  O14  1  0.831447  0.592706  0.419216  1
  O  O15  1  0.569586  0.312160  0.750000  1
  O  O16  1  0.430414  0.687840  0.250000  1
  O  O17  1  0.071418  0.814484  0.750000  1
  O  O18  1  0.509531  0.664641  0.750000  1
  O  O19  1  0.831447  0.592706  0.080784  1
  O  O20  1  0.716345  0.965854  0.915320  1
  O  O21  1  0.928582  0.185516  0.250000  1
