# generated using pymatgen
data_Ge(PbS2)2
_symmetry_space_group_name_H-M   'P 1'
_cell_length_a   12.51248375
_cell_length_b   12.51248344
_cell_length_c   12.51248336
_cell_angle_alpha   110.09673331
_cell_angle_beta   110.09673283
_cell_angle_gamma   108.22731313
_symmetry_Int_Tables_number   1
_chemical_formula_structural   Ge(PbS2)2
_chemical_formula_sum   'Ge8 Pb16 S32'
_cell_volume   1507.49370621
_cell_formula_units_Z   8
loop_
 _symmetry_equiv_pos_site_id
 _symmetry_equiv_pos_as_xyz
  1  'x, y, z'
loop_
 _atom_site_type_symbol
 _atom_site_label
 _atom_site_symmetry_multiplicity
 _atom_site_fract_x
 _atom_site_fract_y
 _atom_site_fract_z
 _atom_site_occupancy
  Ge  Ge0  1  0.995830  0.445777  0.501991  1
  Ge  Ge1  1  0.506161  0.004170  0.949947  1
  Ge  Ge2  1  0.056214  0.054223  0.050053  1
  Ge  Ge3  1  0.504170  0.006161  0.449947  1
  Ge  Ge4  1  0.554223  0.556214  0.550053  1
  Ge  Ge5  1  0.443786  0.493839  0.998009  1
  Ge  Ge6  1  0.945777  0.495830  0.001991  1
  Ge  Ge7  1  0.993839  0.943786  0.498009  1
  Pb  Pb8  1  0.018937  0.268937  0.750000  1
  Pb  Pb9  1  0.250000  0.770309  0.520309  1
  Pb  Pb10  1  0.250000  0.085179  0.835179  1
  Pb  Pb11  1  0.229691  0.250000  0.479691  1
  Pb  Pb12  1  0.250000  0.479695  0.229695  1
  Pb  Pb13  1  0.270309  0.750000  0.020309  1
  Pb  Pb14  1  0.731063  0.981063  0.750000  1
  Pb  Pb15  1  0.750000  0.729691  0.979691  1
  Pb  Pb16  1  0.520305  0.250000  0.770305  1
  Pb  Pb17  1  0.585179  0.750000  0.335179  1
  Pb  Pb18  1  0.481063  0.231063  0.250000  1
  Pb  Pb19  1  0.750000  0.414821  0.664821  1
  Pb  Pb20  1  0.979695  0.750000  0.729695  1
  Pb  Pb21  1  0.768937  0.518937  0.250000  1
  Pb  Pb22  1  0.750000  0.020305  0.270305  1
  Pb  Pb23  1  0.914821  0.250000  0.164821  1
  S  S24  1  0.001435  0.628316  0.501382  1
  S  S25  1  0.025500  0.476481  0.698589  1
  S  S26  1  0.196592  0.979865  0.550688  1
  S  S27  1  0.303408  0.854097  0.783273  1
  S  S28  1  0.145903  0.429176  0.449312  1
  S  S29  1  0.277892  0.326911  0.801411  1
  S  S30  1  0.020135  0.070824  0.216727  1
  S  S31  1  0.128316  0.501435  0.001382  1
  S  S32  1  0.354097  0.803408  0.283273  1
  S  S33  1  0.056675  0.220422  0.016953  1
  S  S34  1  0.673089  0.974500  0.950981  1
  S  S35  1  0.523519  0.722108  0.549019  1
  S  S36  1  0.371684  0.373067  0.373119  1
  S  S37  1  0.539722  0.203469  0.983047  1
  S  S38  1  0.570824  0.520135  0.716727  1
  S  S39  1  0.222108  0.023519  0.049019  1
  S  S40  1  0.443325  0.460278  0.163747  1
  S  S41  1  0.479865  0.696592  0.050688  1
  S  S42  1  0.474500  0.173089  0.450981  1
  S  S43  1  0.498565  -0.000053  0.626881  1
  S  S44  1  0.873067  0.871684  0.873119  1
  S  S45  1  0.720422  0.556675  0.516953  1
  S  S46  1  0.779578  0.296531  0.836253  1
  S  S47  1  0.929176  0.645903  0.949312  1
  S  S48  1  0.960278  0.943325  0.663747  1
  S  S49  1  0.499947  0.998565  0.126881  1
  S  S50  1  0.626933  0.500053  0.998618  1
  S  S51  1  0.826911  0.777892  0.301411  1
  S  S52  1  0.703469  0.039722  0.483047  1
  S  S53  1  0.796531  0.279578  0.336253  1
  S  S54  1  0.976481  0.525500  0.198589  1
  S  S55  1  1.000053  0.126933  0.498618  1
