# generated using pymatgen
data_LiTaSiO5
_symmetry_space_group_name_H-M   'P 1'
_cell_length_a   7.49724904
_cell_length_b   7.54266643
_cell_length_c   8.00416527
_cell_angle_alpha   90.00000000
_cell_angle_beta   90.00000000
_cell_angle_gamma   119.20993741
_symmetry_Int_Tables_number   1
_chemical_formula_structural   LiTaSiO5
_chemical_formula_sum   'Li4 Ta4 Si4 O20'
_cell_volume   395.07200623
_cell_formula_units_Z   4
loop_
 _symmetry_equiv_pos_site_id
 _symmetry_equiv_pos_as_xyz
  1  'x, y, z'
loop_
 _atom_site_type_symbol
 _atom_site_label
 _atom_site_symmetry_multiplicity
 _atom_site_fract_x
 _atom_site_fract_y
 _atom_site_fract_z
 _atom_site_occupancy
  Li  Li0  1  0.749091  0.304879  0.432241  1
  Li  Li1  1  0.250909  0.695121  0.567759  1
  Li  Li2  1  0.749091  0.804879  0.067759  1
  Li  Li3  1  0.250909  0.195121  0.932241  1
  Ta  Ta4  1  0.748412  0.008507  0.740191  1
  Ta  Ta5  1  0.748412  0.508507  0.759809  1
  Ta  Ta6  1  0.251588  0.991493  0.259809  1
  Ta  Ta7  1  0.251588  0.491493  0.240191  1
  Si  Si8  1  0.250738  0.257489  0.607595  1
  Si  Si9  1  0.250738  0.757489  0.892405  1
  Si  Si10  1  0.749262  0.242511  0.107595  1
  Si  Si11  1  0.749262  0.742511  0.392405  1
  O  O12  1  0.442498  0.855289  0.760332  1
  O  O13  1  0.249195  0.747218  0.327018  1
  O  O14  1  0.944813  0.855820  0.265164  1
  O  O15  1  0.750805  0.252782  0.672982  1
  O  O16  1  0.730861  0.908559  0.513367  1
  O  O17  1  0.761539  0.070697  0.989767  1
  O  O18  1  0.269139  0.091441  0.486633  1
  O  O19  1  0.944813  0.355820  0.234836  1
  O  O20  1  0.442498  0.355289  0.739668  1
  O  O21  1  0.730861  0.408559  0.986633  1
  O  O22  1  0.055187  0.644180  0.765164  1
  O  O23  1  0.238461  0.429303  0.489767  1
  O  O24  1  0.750805  0.752782  0.827018  1
  O  O25  1  0.761539  0.570697  0.510233  1
  O  O26  1  0.249195  0.247218  0.172982  1
  O  O27  1  0.269139  0.591441  0.013367  1
  O  O28  1  0.055187  0.144180  0.734836  1
  O  O29  1  0.238461  0.929303  0.010233  1
  O  O30  1  0.557502  0.144711  0.239668  1
  O  O31  1  0.557502  0.644711  0.260332  1
