# generated using pymatgen
data_Ta3Bi7O18
_symmetry_space_group_name_H-M   'P 1'
_cell_length_a   6.71401785
_cell_length_b   7.68197074
_cell_length_c   16.74539175
_cell_angle_alpha   103.26124554
_cell_angle_beta   93.62761295
_cell_angle_gamma   89.99739917
_symmetry_Int_Tables_number   1
_chemical_formula_structural   Ta3Bi7O18
_chemical_formula_sum   'Ta6 Bi14 O36'
_cell_volume   838.86723684
_cell_formula_units_Z   2
loop_
 _symmetry_equiv_pos_site_id
 _symmetry_equiv_pos_as_xyz
  1  'x, y, z'
loop_
 _atom_site_type_symbol
 _atom_site_label
 _atom_site_symmetry_multiplicity
 _atom_site_fract_x
 _atom_site_fract_y
 _atom_site_fract_z
 _atom_site_occupancy
  Ta  Ta0  1  0.882765  0.194293  0.887962  1
  Ta  Ta1  1  0.882734  0.693752  0.887970  1
  Ta  Ta2  1  0.500000  0.000000  0.500000  1
  Ta  Ta3  1  0.117235  0.805707  0.112038  1
  Ta  Ta4  1  0.500000  0.500000  0.500000  1
  Ta  Ta5  1  0.117266  0.306248  0.112030  1
  Bi  Bi6  1  0.973840  0.252004  0.503980  1
  Bi  Bi7  1  0.651893  0.551557  0.102935  1
  Bi  Bi8  1  0.836335  0.894611  0.290512  1
  Bi  Bi9  1  0.163665  0.105389  0.709488  1
  Bi  Bi10  1  0.836325  0.396006  0.290475  1
  Bi  Bi11  1  0.682556  0.353351  0.706608  1
  Bi  Bi12  1  0.026160  0.747996  0.496020  1
  Bi  Bi13  1  0.163675  0.603994  0.709525  1
  Bi  Bi14  1  0.317444  0.646649  0.293392  1
  Bi  Bi15  1  0.592545  0.056350  0.112560  1
  Bi  Bi16  1  0.311332  0.161565  0.323189  1
  Bi  Bi17  1  0.407455  0.943650  0.887440  1
  Bi  Bi18  1  0.688668  0.838435  0.676811  1
  Bi  Bi19  1  0.348107  0.448443  0.897065  1
  O  O20  1  0.577081  0.120479  0.240888  1
  O  O21  1  0.982323  0.181774  0.363595  1
  O  O22  1  0.185579  0.715633  0.857027  1
  O  O23  1  0.393833  0.750047  0.099812  1
  O  O24  1  0.830717  0.952143  0.904222  1
  O  O25  1  0.017677  0.818226  0.636405  1
  O  O26  1  0.606167  0.249953  0.900188  1
  O  O27  1  0.145315  0.907564  0.237199  1
  O  O28  1  0.059980  0.568638  0.137325  1
  O  O29  1  0.993819  0.329194  0.658446  1
  O  O30  1  0.814369  0.858586  0.142974  1
  O  O31  1  0.606140  0.650283  0.900188  1
  O  O32  1  0.428255  0.481458  0.379143  1
  O  O33  1  0.213589  0.463995  0.518719  1
  O  O34  1  0.571745  0.518542  0.620857  1
  O  O35  1  0.655340  0.616557  0.233147  1
  O  O36  1  0.540975  0.235862  0.471733  1
  O  O37  1  0.213573  0.054714  0.518705  1
  O  O38  1  0.786427  0.945286  0.481295  1
  O  O39  1  0.786411  0.536005  0.481281  1
  O  O40  1  0.344660  0.383443  0.766853  1
  O  O41  1  0.814421  0.284367  0.142973  1
  O  O42  1  0.393860  0.349717  0.099812  1
  O  O43  1  0.459025  0.764138  0.528267  1
  O  O44  1  0.854685  0.092436  0.762801  1
  O  O45  1  0.000027  0.279366  0.999996  1
  O  O46  1  0.428280  0.897619  0.379143  1
  O  O47  1  0.999973  0.720634  0.000004  1
  O  O48  1  0.145337  0.329628  0.237202  1
  O  O49  1  0.854663  0.670372  0.762798  1
  O  O50  1  0.169283  0.047857  0.095778  1
  O  O51  1  0.185631  0.141414  0.857026  1
  O  O52  1  0.422919  0.879521  0.759112  1
  O  O53  1  0.006181  0.670806  0.341554  1
  O  O54  1  0.940020  0.431362  0.862675  1
  O  O55  1  0.571720  0.102381  0.620857  1
