# generated using pymatgen
data_ZrMnTlF7
_symmetry_space_group_name_H-M   'P 1'
_cell_length_a   6.53739597
_cell_length_b   6.56122573
_cell_length_c   8.41366195
_cell_angle_alpha   90.00000000
_cell_angle_beta   90.00000000
_cell_angle_gamma   117.57612470
_symmetry_Int_Tables_number   1
_chemical_formula_structural   ZrMnTlF7
_chemical_formula_sum   'Zr2 Mn2 Tl2 F14'
_cell_volume   319.89163997
_cell_formula_units_Z   2
loop_
 _symmetry_equiv_pos_site_id
 _symmetry_equiv_pos_as_xyz
  1  'x, y, z'
loop_
 _atom_site_type_symbol
 _atom_site_label
 _atom_site_symmetry_multiplicity
 _atom_site_fract_x
 _atom_site_fract_y
 _atom_site_fract_z
 _atom_site_occupancy
  Zr  Zr0  1  0.689257  0.807402  0.750000  1
  Zr  Zr1  1  0.310743  0.192598  0.250000  1
  Mn  Mn2  1  0.309282  0.188185  0.750000  1
  Mn  Mn3  1  0.690718  0.811815  0.250000  1
  Tl  Tl4  1  0.000000  0.500000  0.500000  1
  Tl  Tl5  1  0.000000  0.500000  0.000000  1
  F  F6  1  0.944024  0.156409  0.750000  1
  F  F7  1  0.304118  0.198917  0.494344  1
  F  F8  1  0.971340  0.166594  0.250000  1
  F  F9  1  0.336572  0.530689  0.250000  1
  F  F10  1  0.028660  0.833406  0.750000  1
  F  F11  1  0.695882  0.801083  0.505656  1
  F  F12  1  0.695882  0.801083  0.994344  1
  F  F13  1  0.504133  0.992329  0.750000  1
  F  F14  1  0.661026  0.445952  0.250000  1
  F  F15  1  0.304118  0.198917  0.005656  1
  F  F16  1  0.495867  0.007671  0.250000  1
  F  F17  1  0.663428  0.469311  0.750000  1
  F  F18  1  0.338974  0.554048  0.750000  1
  F  F19  1  0.055976  0.843591  0.250000  1
