# generated using pymatgen
data_Li47Cu7N18
_symmetry_space_group_name_H-M   'P 1'
_cell_length_a   3.66274327
_cell_length_b   3.66274291
_cell_length_c   67.69159834
_cell_angle_alpha   90.00000000
_cell_angle_beta   90.00000000
_cell_angle_gamma   120.00000313
_symmetry_Int_Tables_number   1
_chemical_formula_structural   Li47Cu7N18
_chemical_formula_sum   'Li47 Cu7 N18'
_cell_volume   786.46301262
_cell_formula_units_Z   1
loop_
 _symmetry_equiv_pos_site_id
 _symmetry_equiv_pos_as_xyz
  1  'x, y, z'
loop_
 _atom_site_type_symbol
 _atom_site_label
 _atom_site_symmetry_multiplicity
 _atom_site_fract_x
 _atom_site_fract_y
 _atom_site_fract_z
 _atom_site_occupancy
  Cu  Cu0  1  0.000000  0.000000  0.805568  1
  Cu  Cu1  1  0.000000  0.000000  0.861111  1
  Cu  Cu2  1  0.000000  0.000000  0.971760  1
  Cu  Cu3  1  0.000000  0.000000  0.083246  1
  Cu  Cu4  1  0.000000  0.000000  0.638976  1
  Cu  Cu5  1  0.000000  0.000000  0.750462  1
  Cu  Cu6  1  0.000000  0.000000  0.916655  1
  Li  Li7  1  0.000000  0.000000  0.250024  1
  Li  Li8  1  0.000000  0.000000  0.305490  1
  Li  Li9  1  0.000000  0.000000  0.472198  1
  Li  Li10  1  0.000000  0.000000  0.584065  1
  Li  Li11  1  0.000000  0.000000  0.694489  1
  Li  Li12  1  0.333333  0.666667  0.997660  1
  Li  Li13  1  0.333333  0.666667  0.057749  1
  Li  Li14  1  0.333333  0.666667  0.108873  1
  Li  Li15  1  0.333333  0.666667  0.166602  1
  Li  Li16  1  0.333333  0.666667  0.222203  1
  Li  Li17  1  0.333333  0.666667  0.277775  1
  Li  Li18  1  0.333333  0.666667  0.333367  1
  Li  Li19  1  0.333333  0.666667  0.388855  1
  Li  Li20  1  0.333333  0.666667  0.444447  1
  Li  Li21  1  0.333333  0.666667  0.500019  1
  Li  Li22  1  0.333333  0.666667  0.555621  1
  Li  Li23  1  0.333333  0.666667  0.613349  1
  Li  Li24  1  0.333333  0.666667  0.664474  1
  Li  Li25  1  0.333333  0.666667  0.724562  1
  Li  Li26  1  0.333333  0.666667  0.777828  1
  Li  Li27  1  0.333333  0.666667  0.833347  1
  Li  Li28  1  0.333333  0.666667  0.888875  1
  Li  Li29  1  0.333333  0.666667  0.944394  1
  Li  Li30  1  0.666667  0.333333  0.997660  1
  Li  Li31  1  0.666667  0.333333  0.057749  1
  Li  Li32  1  0.666667  0.333333  0.108873  1
  Li  Li33  1  0.666667  0.333333  0.166602  1
  Li  Li34  1  0.666667  0.333333  0.222203  1
  Li  Li35  1  0.666667  0.333333  0.277775  1
  Li  Li36  1  0.666667  0.333333  0.333367  1
  Li  Li37  1  0.666667  0.333333  0.388855  1
  Li  Li38  1  0.000000  0.000000  0.027733  1
  Li  Li39  1  0.666667  0.333333  0.444447  1
  Li  Li40  1  0.666667  0.333333  0.500019  1
  Li  Li41  1  0.000000  0.000000  0.138157  1
  Li  Li42  1  0.666667  0.333333  0.555621  1
  Li  Li43  1  0.000000  0.000000  0.194341  1
  Li  Li44  1  0.666667  0.333333  0.613349  1
  Li  Li45  1  0.666667  0.333333  0.664474  1
  Li  Li46  1  0.666667  0.333333  0.724562  1
  Li  Li47  1  0.000000  0.000000  0.361111  1
  Li  Li48  1  0.000000  0.000000  0.416733  1
  Li  Li49  1  0.666667  0.333333  0.833347  1
  Li  Li50  1  0.666667  0.333333  0.777828  1
  Li  Li51  1  0.666667  0.333333  0.888875  1
  Li  Li52  1  0.000000  0.000000  0.527881  1
  Li  Li53  1  0.666667  0.333333  0.944394  1
  N  N54  1  0.000000  0.000000  0.055828  1
  N  N55  1  0.000000  0.000000  0.110586  1
  N  N56  1  0.000000  0.000000  0.222242  1
  N  N57  1  0.000000  0.000000  0.444423  1
  N  N58  1  0.000000  0.000000  0.499980  1
  N  N59  1  0.000000  0.000000  0.611636  1
  N  N60  1  0.000000  0.000000  0.888856  1
  N  N61  1  0.000000  0.000000  0.944242  1
  N  N62  1  0.000000  0.000000  0.999443  1
  N  N63  1  0.000000  0.000000  0.166552  1
  N  N64  1  0.000000  0.000000  0.277799  1
  N  N65  1  0.000000  0.000000  0.333293  1
  N  N66  1  0.000000  0.000000  0.388929  1
  N  N67  1  0.000000  0.000000  0.555671  1
  N  N68  1  0.000000  0.000000  0.666395  1
  N  N69  1  0.000000  0.000000  0.722779  1
  N  N70  1  0.000000  0.000000  0.777980  1
  N  N71  1  0.000000  0.000000  0.833366  1
