# generated using pymatgen
data_NaCa9Ti9Nb(SiO5)10
_symmetry_space_group_name_H-M   'P 1'
_cell_length_a   5.51181153
_cell_length_b   27.60563053
_cell_length_c   7.87825811
_cell_angle_alpha   61.74182492
_cell_angle_beta   114.36633239
_cell_angle_gamma   105.42296128
_symmetry_Int_Tables_number   1
_chemical_formula_structural   NaCa9Ti9Nb(SiO5)10
_chemical_formula_sum   'Na1 Ca9 Ti9 Nb1 Si10 O50'
_cell_volume   958.08888965
_cell_formula_units_Z   1
loop_
 _symmetry_equiv_pos_site_id
 _symmetry_equiv_pos_as_xyz
  1  'x, y, z'
loop_
 _atom_site_type_symbol
 _atom_site_label
 _atom_site_symmetry_multiplicity
 _atom_site_fract_x
 _atom_site_fract_y
 _atom_site_fract_z
 _atom_site_occupancy
  Ca  Ca0  1  0.172463  0.614347  0.755090  1
  Ca  Ca1  1  0.171689  0.415339  0.750418  1
  Ca  Ca2  1  0.826606  0.984855  0.246591  1
  Ca  Ca3  1  0.171633  0.215777  0.749750  1
  Ca  Ca4  1  0.824146  0.787127  0.230126  1
  Ca  Ca5  1  0.172036  0.016079  0.749526  1
  Ca  Ca6  1  0.828655  0.583370  0.252408  1
  Ca  Ca7  1  0.828119  0.383859  0.250925  1
  Ca  Ca8  1  0.827794  0.184413  0.249946  1
  Na  Na9  1  0.176462  0.814973  0.764309  1
  Nb  Nb10  1  0.503047  0.800571  0.507370  1
  O  O11  1  0.124928  0.870764  0.907878  1
  O  O12  1  0.429668  0.964718  0.744013  1
  O  O13  1  0.122778  0.668291  0.909449  1
  O  O14  1  0.252713  0.945224  0.398909  1
  O  O15  1  0.184060  0.848199  0.366355  1
  O  O16  1  0.624004  0.862498  0.886202  1
  O  O17  1  0.431256  0.763451  0.754653  1
  O  O18  1  0.123231  0.467700  0.908762  1
  O  O19  1  0.239919  0.743227  0.403849  1
  O  O20  1  0.387115  0.941340  0.109735  1
  O  O21  1  0.187279  0.644799  0.390823  1
  O  O22  1  0.814067  0.955668  0.612822  1
  O  O23  1  0.612249  0.659651  0.885966  1
  O  O24  1  0.745567  0.859762  0.589003  1
  O  O25  1  0.428561  0.562457  0.751661  1
  O  O26  1  0.123395  0.268720  0.906090  1
  O  O27  1  0.575520  0.837403  0.244734  1
  O  O28  1  0.249107  0.542324  0.408783  1
  O  O29  1  0.396761  0.735878  0.131484  1
  O  O30  1  0.187293  0.445581  0.384945  1
  O  O31  1  0.801629  0.751802  0.611266  1
  O  O32  1  0.615287  0.459829  0.886403  1
  O  O33  1  0.751614  0.654112  0.600360  1
  O  O34  1  0.431215  0.363707  0.749557  1
  O  O35  1  0.123603  0.069567  0.904267  1
  O  O36  1  0.875604  0.934085  0.086614  1
  O  O37  1  0.567231  0.634490  0.252521  1
  O  O38  1  0.249995  0.343113  0.406730  1
  O  O39  1  0.385568  0.538361  0.117914  1
  O  O40  1  0.187376  0.246280  0.383208  1
  O  O41  1  0.811682  0.552828  0.619015  1
  O  O42  1  0.615114  0.260757  0.883910  1
  O  O43  1  0.750275  0.456317  0.594035  1
  O  O44  1  0.431467  0.164511  0.747562  1
  O  O45  1  0.876447  0.729393  0.093909  1
  O  O46  1  0.569780  0.435849  0.250977  1
  O  O47  1  0.250064  0.143804  0.404919  1
  O  O48  1  0.385098  0.339144  0.115599  1
  O  O49  1  0.187682  0.047011  0.380666  1
  O  O50  1  0.812128  0.353747  0.616338  1
  O  O51  1  0.614890  0.061604  0.881782  1
  O  O52  1  0.750474  0.257071  0.592032  1
  O  O53  1  0.877087  0.530928  0.093774  1
  O  O54  1  0.569033  0.236644  0.248692  1
  O  O55  1  0.385010  0.139994  0.113421  1
  O  O56  1  0.812022  0.154440  0.614105  1
  O  O57  1  0.750115  0.057533  0.590867  1
  O  O58  1  0.876851  0.331491  0.092664  1
  O  O59  1  0.571313  0.037748  0.246737  1
  O  O60  1  0.877083  0.132384  0.090551  1
  Si  Si61  1  0.178524  0.916194  0.240184  1
  Si  Si62  1  0.179349  0.712293  0.252841  1
  Si  Si63  1  0.824317  0.888303  0.750338  1
  Si  Si64  1  0.180483  0.513221  0.251614  1
  Si  Si65  1  0.817904  0.684521  0.753520  1
  Si  Si66  1  0.180480  0.313898  0.249615  1
  Si  Si67  1  0.819633  0.485245  0.752166  1
  Si  Si68  1  0.180456  0.114603  0.247634  1
  Si  Si69  1  0.819482  0.286121  0.749715  1
  Si  Si70  1  0.819306  0.086751  0.747709  1
  Ti  Ti71  1  0.496529  0.900257  0.992585  1
  Ti  Ti72  1  0.499951  0.697089  0.014596  1
  Ti  Ti73  1  0.501533  0.497911  0.007122  1
  Ti  Ti74  1  0.499771  0.597945  0.510268  1
  Ti  Ti75  1  0.501088  0.299072  0.003433  1
  Ti  Ti76  1  0.498855  0.399016  0.505045  1
  Ti  Ti77  1  0.500883  0.100123  0.999909  1
  Ti  Ti78  1  0.499035  0.199910  0.501847  1
  Ti  Ti79  1  0.497563  0.000621  0.496890  1
