# generated using pymatgen
data_LiCoP2O7
_symmetry_space_group_name_H-M   'P 1'
_cell_length_a   6.23603972
_cell_length_b   10.34382803
_cell_length_c   9.05089099
_cell_angle_alpha   64.70023612
_cell_angle_beta   106.64718282
_cell_angle_gamma   94.58830081
_symmetry_Int_Tables_number   1
_chemical_formula_structural   LiCoP2O7
_chemical_formula_sum   'Li4 Co4 P8 O28'
_cell_volume   505.09568360
_cell_formula_units_Z   4
loop_
 _symmetry_equiv_pos_site_id
 _symmetry_equiv_pos_as_xyz
  1  'x, y, z'
loop_
 _atom_site_type_symbol
 _atom_site_label
 _atom_site_symmetry_multiplicity
 _atom_site_fract_x
 _atom_site_fract_y
 _atom_site_fract_z
 _atom_site_occupancy
  Li  Li0  1  0.535150  0.018295  0.497748  1
  Li  Li1  1  0.358000  0.617835  0.925092  1
  Li  Li2  1  0.025042  0.511498  0.173613  1
  Li  Li3  1  0.934566  0.472651  0.844150  1
  Co  Co4  1  0.709627  0.777700  0.099608  1
  Co  Co5  1  0.626819  0.753900  0.480864  1
  Co  Co6  1  0.292826  0.226294  0.896215  1
  Co  Co7  1  0.373015  0.253541  0.510354  1
  P  P8  1  0.299376  0.964088  0.807776  1
  P  P9  1  0.415736  0.466577  0.691745  1
  P  P10  1  0.704105  0.043496  0.181745  1
  P  P11  1  0.892842  0.297729  0.561347  1
  P  P12  1  0.103862  0.211843  0.185809  1
  P  P13  1  0.906333  0.792582  0.806157  1
  P  P14  1  0.107048  0.707597  0.429864  1
  P  P15  1  0.578893  0.540292  0.301781  1
  O  O16  1  0.635726  0.573220  0.133052  1
  O  O17  1  0.316515  0.188753  0.336585  1
  O  O18  1  0.622975  0.552682  0.662391  1
  O  O19  1  0.560627  0.695804  0.289285  1
  O  O20  1  0.313715  0.794538  0.452674  1
  O  O21  1  0.055014  0.281474  0.470778  1
  O  O22  1  0.437574  0.311743  0.703883  1
  O  O23  1  0.154692  0.153041  0.070475  1
  O  O24  1  0.944594  0.729218  0.516548  1
  O  O25  1  0.028835  0.645626  0.890291  1
  O  O26  1  0.372485  0.454368  0.330076  1
  O  O27  1  0.996518  0.291871  0.738843  1
  O  O28  1  0.934375  0.096240  0.272131  1
  O  O29  1  0.065868  0.914646  0.716367  1
  O  O30  1  0.352903  0.440556  0.854873  1
  O  O31  1  0.688853  0.813563  0.660187  1
  O  O32  1  0.206919  0.541847  0.533943  1
  O  O33  1  0.607549  0.953564  0.332083  1
  O  O34  1  0.000334  0.708687  0.254030  1
  O  O35  1  0.751938  0.962325  0.087973  1
  O  O36  1  0.429235  0.818522  0.926118  1
  O  O37  1  0.999341  0.362452  0.094650  1
  O  O38  1  0.686625  0.210063  0.537162  1
  O  O39  1  0.572496  0.185968  0.059153  1
  O  O40  1  0.789681  0.463439  0.455456  1
  O  O41  1  0.856154  0.841805  0.929028  1
  O  O42  1  0.256903  0.040590  0.907091  1
  O  O43  1  0.398685  0.054342  0.660646  1
