# generated using pymatgen
data_Sm3Ga5O12
_symmetry_space_group_name_H-M   'P 1'
_cell_length_a   10.88299112
_cell_length_b   10.88299112
_cell_length_c   10.88299112
_cell_angle_alpha   109.47122065
_cell_angle_beta   109.47122065
_cell_angle_gamma   109.47122065
_symmetry_Int_Tables_number   1
_chemical_formula_structural   Sm3Ga5O12
_chemical_formula_sum   'Sm12 Ga20 O48'
_cell_volume   992.25417244
_cell_formula_units_Z   4
loop_
 _symmetry_equiv_pos_site_id
 _symmetry_equiv_pos_as_xyz
  1  'x, y, z'
loop_
 _atom_site_type_symbol
 _atom_site_label
 _atom_site_symmetry_multiplicity
 _atom_site_fract_x
 _atom_site_fract_y
 _atom_site_fract_z
 _atom_site_occupancy
  O  O0  1  0.296840  0.474889  0.379071  1
  O  O1  1  0.025111  0.321951  0.904182  1
  O  O2  1  0.120929  0.595818  0.917769  1
  O  O3  1  0.203160  0.582231  0.178049  1
  O  O4  1  0.203160  0.120929  0.025111  1
  O  O5  1  0.582231  0.178049  0.203160  1
  O  O6  1  0.595818  0.178049  0.474889  1
  O  O7  1  0.178049  0.203160  0.582231  1
  O  O8  1  0.904182  0.379071  0.582231  1
  O  O9  1  0.321951  0.917769  0.296840  1
  O  O10  1  0.917769  0.296840  0.321951  1
  O  O11  1  0.025111  0.203160  0.120929  1
  O  O12  1  0.178049  0.474889  0.595818  1
  O  O13  1  0.582231  0.904182  0.379071  1
  O  O14  1  0.120929  0.025111  0.203160  1
  O  O15  1  0.474889  0.595818  0.178049  1
  O  O16  1  0.379071  0.582231  0.904182  1
  O  O17  1  0.904182  0.025111  0.321951  1
  O  O18  1  0.595818  0.917769  0.120929  1
  O  O19  1  0.095818  0.620929  0.417769  1
  O  O20  1  0.917769  0.120929  0.595818  1
  O  O21  1  0.379071  0.296840  0.474889  1
  O  O22  1  0.321951  0.904182  0.025111  1
  O  O23  1  0.296840  0.321951  0.917769  1
  O  O24  1  0.703160  0.525111  0.620929  1
  O  O25  1  0.974889  0.678049  0.095818  1
  O  O26  1  0.879071  0.404182  0.082231  1
  O  O27  1  0.796840  0.417769  0.821951  1
  O  O28  1  0.796840  0.879071  0.974889  1
  O  O29  1  0.417769  0.821951  0.796840  1
  O  O30  1  0.404182  0.821951  0.525111  1
  O  O31  1  0.821951  0.796840  0.417769  1
  O  O32  1  0.703160  0.678049  0.082231  1
  O  O33  1  0.678049  0.095818  0.974889  1
  O  O34  1  0.620929  0.703160  0.525111  1
  O  O35  1  0.525111  0.620929  0.703160  1
  O  O36  1  0.082231  0.879071  0.404182  1
  O  O37  1  0.404182  0.082231  0.879071  1
  O  O38  1  0.095818  0.974889  0.678049  1
  O  O39  1  0.620929  0.417769  0.095818  1
  O  O40  1  0.525111  0.404182  0.821951  1
  O  O41  1  0.879071  0.974889  0.796840  1
  O  O42  1  0.417769  0.095818  0.620929  1
  O  O43  1  0.821951  0.525111  0.404182  1
  O  O44  1  0.974889  0.796840  0.879071  1
  O  O45  1  0.082231  0.703160  0.678049  1
  O  O46  1  0.678049  0.082231  0.703160  1
  O  O47  1  0.474889  0.379071  0.296840  1
  Ga  Ga48  1  0.250000  0.125000  0.875000  1
  Ga  Ga49  1  0.750000  0.875000  0.125000  1
  Ga  Ga50  1  0.375000  0.250000  0.625000  1
  Ga  Ga51  1  0.625000  0.375000  0.250000  1
  Ga  Ga52  1  0.125000  0.750000  0.875000  1
  Ga  Ga53  1  0.875000  0.125000  0.750000  1
  Ga  Ga54  1  0.750000  0.375000  0.625000  1
  Ga  Ga55  1  0.375000  0.625000  0.750000  1
  Ga  Ga56  1  0.125000  0.875000  0.250000  1
  Ga  Ga57  1  0.875000  0.250000  0.125000  1
  Ga  Ga58  1  0.625000  0.750000  0.375000  1
  Ga  Ga59  1  0.250000  0.625000  0.375000  1
  Ga  Ga60  1  0.500000  0.500000  0.500000  1
  Ga  Ga61  1  0.500000  0.500000  0.000000  1
  Ga  Ga62  1  0.500000  0.000000  0.500000  1
  Ga  Ga63  1  0.000000  0.500000  0.500000  1
  Ga  Ga64  1  0.500000  0.000000  0.000000  1
  Ga  Ga65  1  0.000000  0.000000  0.500000  1
  Ga  Ga66  1  0.000000  0.500000  0.000000  1
  Ga  Ga67  1  0.000000  0.000000  0.000000  1
  Sm  Sm68  1  0.250000  0.875000  0.625000  1
  Sm  Sm69  1  0.875000  0.625000  0.250000  1
  Sm  Sm70  1  0.625000  0.875000  0.750000  1
  Sm  Sm71  1  0.875000  0.750000  0.625000  1
  Sm  Sm72  1  0.625000  0.250000  0.875000  1
  Sm  Sm73  1  0.750000  0.625000  0.875000  1
  Sm  Sm74  1  0.750000  0.125000  0.375000  1
  Sm  Sm75  1  0.125000  0.375000  0.750000  1
  Sm  Sm76  1  0.375000  0.125000  0.250000  1
  Sm  Sm77  1  0.125000  0.250000  0.375000  1
  Sm  Sm78  1  0.375000  0.750000  0.125000  1
  Sm  Sm79  1  0.250000  0.375000  0.125000  1
