# generated using pymatgen
data_CSCl2
_symmetry_space_group_name_H-M   'P 1'
_cell_length_a   6.41134068
_cell_length_b   6.72108309
_cell_length_c   10.26511188
_cell_angle_alpha   101.08199743
_cell_angle_beta   90.00000000
_cell_angle_gamma   90.00000000
_symmetry_Int_Tables_number   1
_chemical_formula_structural   CSCl2
_chemical_formula_sum   'C4 S4 Cl8'
_cell_volume   434.08732800
_cell_formula_units_Z   4
loop_
 _symmetry_equiv_pos_site_id
 _symmetry_equiv_pos_as_xyz
  1  'x, y, z'
loop_
 _atom_site_type_symbol
 _atom_site_label
 _atom_site_symmetry_multiplicity
 _atom_site_fract_x
 _atom_site_fract_y
 _atom_site_fract_z
 _atom_site_occupancy
  C  C0  1  0.420921  0.663371  0.549650  1
  C  C1  1  0.579079  0.336629  0.450350  1
  C  C2  1  0.920921  0.336629  0.950350  1
  C  C3  1  0.079079  0.663371  0.049650  1
  S  S4  1  0.563817  0.578644  0.395248  1
  S  S5  1  0.436183  0.421356  0.604752  1
  S  S6  1  0.936183  0.578644  0.895248  1
  S  S7  1  0.063817  0.421356  0.104752  1
  Cl  Cl8  1  0.953140  0.865873  0.160573  1
  Cl  Cl9  1  0.660127  0.257767  0.974902  1
  Cl  Cl10  1  0.046860  0.134127  0.839427  1
  Cl  Cl11  1  0.160127  0.742233  0.525098  1
  Cl  Cl12  1  0.453140  0.134127  0.339427  1
  Cl  Cl13  1  0.839873  0.257767  0.474902  1
  Cl  Cl14  1  0.339873  0.742233  0.025098  1
  Cl  Cl15  1  0.546860  0.865873  0.660573  1
