# generated using pymatgen
data_Rb2Ag4Pd3(NO2)12
_symmetry_space_group_name_H-M   'P 1'
_cell_length_a   7.32664416
_cell_length_b   7.80856363
_cell_length_c   24.51252894
_cell_angle_alpha   90.00000000
_cell_angle_beta   90.00000000
_cell_angle_gamma   98.78458644
_symmetry_Int_Tables_number   1
_chemical_formula_structural   Rb2Ag4Pd3(NO2)12
_chemical_formula_sum   'Rb4 Ag8 Pd6 N24 O48'
_cell_volume   1385.92511655
_cell_formula_units_Z   2
loop_
 _symmetry_equiv_pos_site_id
 _symmetry_equiv_pos_as_xyz
  1  'x, y, z'
loop_
 _atom_site_type_symbol
 _atom_site_label
 _atom_site_symmetry_multiplicity
 _atom_site_fract_x
 _atom_site_fract_y
 _atom_site_fract_z
 _atom_site_occupancy
  Rb  Rb0  1  0.099731  0.412829  0.866585  1
  Rb  Rb1  1  0.400269  0.087171  0.366585  1
  Rb  Rb2  1  0.900269  0.587171  0.133415  1
  Rb  Rb3  1  0.599731  0.912829  0.633415  1
  Ag  Ag4  1  0.107415  0.682205  0.682924  1
  Ag  Ag5  1  0.374738  0.606499  0.472741  1
  Ag  Ag6  1  0.607415  0.182205  0.817076  1
  Ag  Ag7  1  0.392585  0.817795  0.182924  1
  Ag  Ag8  1  0.125262  0.893501  0.972741  1
  Ag  Ag9  1  0.625262  0.393501  0.527259  1
  Ag  Ag10  1  0.874738  0.106499  0.027259  1
  Ag  Ag11  1  0.892585  0.317795  0.317076  1
  Pd  Pd12  1  0.889935  0.719197  0.324387  1
  Pd  Pd13  1  0.389935  0.219197  0.175613  1
  Pd  Pd14  1  0.000000  0.000000  0.500000  1
  Pd  Pd15  1  0.110065  0.280803  0.675613  1
  Pd  Pd16  1  0.610065  0.780803  0.824387  1
  Pd  Pd17  1  0.500000  0.500000  0.000000  1
  N  N18  1  0.333989  0.350474  0.623841  1
  N  N19  1  0.287353  0.203281  0.732304  1
  N  N20  1  0.387927  0.717837  0.772084  1
  N  N21  1  0.114951  0.898015  0.567178  1
  N  N22  1  0.666011  0.649526  0.376159  1
  N  N23  1  0.614951  0.398015  0.932822  1
  N  N24  1  0.202282  0.218122  0.496607  1
  N  N25  1  0.797718  0.781878  0.503393  1
  N  N26  1  0.112073  0.782163  0.272084  1
  N  N27  1  0.712647  0.796719  0.267696  1
  N  N28  1  0.930535  0.352956  0.616887  1
  N  N29  1  0.885049  0.101985  0.432822  1
  N  N30  1  0.430535  0.852956  0.883113  1
  N  N31  1  0.166011  0.149526  0.123841  1
  N  N32  1  0.212647  0.296719  0.232304  1
  N  N33  1  0.385049  0.601985  0.067178  1
  N  N34  1  0.702282  0.718122  0.003393  1
  N  N35  1  0.569465  0.147044  0.116887  1
  N  N36  1  0.887927  0.217837  0.727916  1
  N  N37  1  0.069465  0.647044  0.383113  1
  N  N38  1  0.297718  0.281878  0.996607  1
  N  N39  1  0.833989  0.850474  0.876159  1
  N  N40  1  0.787353  0.703281  0.767696  1
  N  N41  1  0.612073  0.282163  0.227916  1
  O  O42  1  0.613358  0.494522  0.387112  1
  O  O43  1  0.033418  0.896915  0.612370  1
  O  O44  1  0.466581  0.603085  0.112370  1
  O  O45  1  0.862062  0.700923  0.018487  1
  O  O46  1  0.227718  0.700484  0.790198  1
  O  O47  1  0.772282  0.299516  0.209802  1
  O  O48  1  0.158141  0.202741  0.272408  1
  O  O49  1  0.258606  0.833422  0.562135  1
  O  O50  1  0.412732  0.009790  0.886400  1
  O  O51  1  0.161578  0.439332  0.225606  1
  O  O52  1  0.241394  0.666578  0.062135  1
  O  O53  1  0.336346  0.135176  0.007685  1
  O  O54  1  0.911906  0.203838  0.778490  1
  O  O55  1  0.841859  0.797259  0.727592  1
  O  O56  1  0.886642  0.005478  0.887112  1
  O  O57  1  0.341859  0.297259  0.772408  1
  O  O58  1  0.663654  0.864824  0.992315  1
  O  O59  1  0.637938  0.799077  0.518487  1
  O  O60  1  0.088094  0.796162  0.221510  1
  O  O61  1  0.658141  0.702741  0.227592  1
  O  O62  1  0.137938  0.299077  0.981513  1
  O  O63  1  0.741394  0.166578  0.437865  1
  O  O64  1  0.727718  0.200484  0.709802  1
  O  O65  1  0.533419  0.396915  0.887630  1
  O  O66  1  0.588094  0.296162  0.278490  1
  O  O67  1  0.272282  0.799516  0.290198  1
  O  O68  1  0.090285  0.266041  0.102129  1
  O  O69  1  0.909715  0.733959  0.897871  1
  O  O70  1  0.336035  0.744707  0.913265  1
  O  O71  1  0.836346  0.635176  0.492315  1
  O  O72  1  0.663965  0.255293  0.086735  1
  O  O73  1  0.587268  0.990210  0.113600  1
  O  O74  1  0.163654  0.364824  0.507685  1
  O  O75  1  0.087268  0.490210  0.386400  1
  O  O76  1  0.838422  0.560668  0.774394  1
  O  O77  1  0.590285  0.766041  0.397871  1
  O  O78  1  0.661578  0.939332  0.274394  1
  O  O79  1  0.338422  0.060668  0.725606  1
  O  O80  1  0.912732  0.509790  0.613600  1
  O  O81  1  0.411906  0.703838  0.721510  1
  O  O82  1  0.758606  0.333422  0.937865  1
  O  O83  1  0.966581  0.103085  0.387630  1
  O  O84  1  0.836035  0.244707  0.586735  1
  O  O85  1  0.113358  0.994522  0.112888  1
  O  O86  1  0.163965  0.755293  0.413265  1
  O  O87  1  0.386642  0.505478  0.612888  1
  O  O88  1  0.362062  0.200923  0.481513  1
  O  O89  1  0.409715  0.233959  0.602129  1
