# generated using pymatgen
data_Na(CoO2)2
_symmetry_space_group_name_H-M   'P 1'
_cell_length_a   5.05698252
_cell_length_b   5.78494218
_cell_length_c   11.25940487
_cell_angle_alpha   90.00000000
_cell_angle_beta   90.00000000
_cell_angle_gamma   90.00000000
_symmetry_Int_Tables_number   1
_chemical_formula_structural   Na(CoO2)2
_chemical_formula_sum   'Na4 Co8 O16'
_cell_volume   329.38658756
_cell_formula_units_Z   4
loop_
 _symmetry_equiv_pos_site_id
 _symmetry_equiv_pos_as_xyz
  1  'x, y, z'
loop_
 _atom_site_type_symbol
 _atom_site_label
 _atom_site_symmetry_multiplicity
 _atom_site_fract_x
 _atom_site_fract_y
 _atom_site_fract_z
 _atom_site_occupancy
  O  O0  1  0.818277  0.996624  0.410302  1
  O  O1  1  0.818277  0.503376  0.089698  1
  O  O2  1  0.181722  0.496623  0.589698  1
  O  O3  1  0.181722  0.003376  0.910302  1
  O  O4  1  0.181722  0.003376  0.589698  1
  O  O5  1  0.181722  0.496623  0.910302  1
  O  O6  1  0.818277  0.503376  0.410302  1
  O  O7  1  0.818277  0.996624  0.089698  1
  O  O8  1  0.652372  0.250000  0.584470  1
  O  O9  1  0.652372  0.250000  0.915530  1
  O  O10  1  0.347629  0.750000  0.415530  1
  O  O11  1  0.347629  0.750000  0.084470  1
  O  O12  1  0.351169  0.250000  0.090718  1
  O  O13  1  0.351169  0.250000  0.409283  1
  O  O14  1  0.648830  0.750000  0.590718  1
  O  O15  1  0.648830  0.750000  0.909282  1
  Na  Na16  1  0.643422  0.250000  0.250000  1
  Na  Na17  1  0.356579  0.750000  0.750000  1
  Na  Na18  1  0.025761  0.750000  0.250000  1
  Na  Na19  1  0.974240  0.250000  0.750000  1
  Co  Co20  1  0.499999  0.500001  0.500000  1
  Co  Co21  1  0.499999  0.500001  0.000000  1
  Co  Co22  1  0.499999  0.000000  0.500000  1
  Co  Co23  1  0.499999  0.000000  0.000000  1
  Co  Co24  1  0.996452  0.750000  0.508583  1
  Co  Co25  1  0.996452  0.750000  0.991417  1
  Co  Co26  1  0.003547  0.250000  0.491416  1
  Co  Co27  1  0.003547  0.250000  0.008584  1
