# generated using pymatgen
data_K6NaAu2IO8
_symmetry_space_group_name_H-M   'P 1'
_cell_length_a   7.17724526
_cell_length_b   9.97793412
_cell_length_c   10.21519551
_cell_angle_alpha   90.00000000
_cell_angle_beta   93.25418599
_cell_angle_gamma   90.00000000
_symmetry_Int_Tables_number   1
_chemical_formula_structural   K6NaAu2IO8
_chemical_formula_sum   'K12 Na2 Au4 I2 O16'
_cell_volume   730.37222346
_cell_formula_units_Z   2
loop_
 _symmetry_equiv_pos_site_id
 _symmetry_equiv_pos_as_xyz
  1  'x, y, z'
loop_
 _atom_site_type_symbol
 _atom_site_label
 _atom_site_symmetry_multiplicity
 _atom_site_fract_x
 _atom_site_fract_y
 _atom_site_fract_z
 _atom_site_occupancy
  K  K0  1  0.601376  0.660732  0.589348  1
  K  K1  1  0.750000  0.357120  0.750000  1
  K  K2  1  0.114676  0.816239  0.587964  1
  K  K3  1  0.250000  0.157208  0.750000  1
  K  K4  1  0.101376  0.339268  0.089348  1
  K  K5  1  0.750000  0.842792  0.250000  1
  K  K6  1  0.614676  0.183761  0.087964  1
  K  K7  1  0.898624  0.660732  0.910652  1
  K  K8  1  0.250000  0.642880  0.250000  1
  K  K9  1  0.398624  0.339268  0.410652  1
  K  K10  1  0.885324  0.183761  0.412036  1
  K  K11  1  0.385324  0.816239  0.912036  1
  Na  Na12  1  0.750000  0.506027  0.250000  1
  Na  Na13  1  0.250000  0.493973  0.750000  1
  Au  Au14  1  0.250000  0.043335  0.250000  1
  Au  Au15  1  0.750000  0.956665  0.750000  1
  Au  Au16  1  0.500000  0.000000  0.500000  1
  Au  Au17  1  0.000000  0.000000  0.000000  1
  I  I18  1  0.000000  0.500000  0.500000  1
  I  I19  1  0.500000  0.500000  0.000000  1
  O  O20  1  0.249823  0.572359  0.986830  1
  O  O21  1  0.526416  0.052636  0.309660  1
  O  O22  1  0.473584  0.947364  0.690340  1
  O  O23  1  0.455921  0.419986  0.166457  1
  O  O24  1  0.909769  0.660027  0.409058  1
  O  O25  1  0.090231  0.339973  0.590942  1
  O  O26  1  0.749823  0.427641  0.486830  1
  O  O27  1  0.955921  0.580014  0.666457  1
  O  O28  1  0.250177  0.572359  0.513170  1
  O  O29  1  0.544079  0.580014  0.833543  1
  O  O30  1  0.973584  0.052636  0.190340  1
  O  O31  1  0.026416  0.947364  0.809660  1
  O  O32  1  0.044079  0.419986  0.333543  1
  O  O33  1  0.409769  0.339973  0.909058  1
  O  O34  1  0.590231  0.660027  0.090942  1
  O  O35  1  0.750177  0.427641  0.013170  1
