# generated using pymatgen
data_MnH21C7S3N
_symmetry_space_group_name_H-M   'P 1'
_cell_length_a   9.72788367
_cell_length_b   9.93456889
_cell_length_c   9.99201000
_cell_angle_alpha   118.22663187
_cell_angle_beta   107.20204660
_cell_angle_gamma   101.67965371
_symmetry_Int_Tables_number   1
_chemical_formula_structural   MnH21C7S3N
_chemical_formula_sum   'Mn2 H42 C14 S6 N2'
_cell_volume   742.50416225
_cell_formula_units_Z   2
loop_
 _symmetry_equiv_pos_site_id
 _symmetry_equiv_pos_as_xyz
  1  'x, y, z'
loop_
 _atom_site_type_symbol
 _atom_site_label
 _atom_site_symmetry_multiplicity
 _atom_site_fract_x
 _atom_site_fract_y
 _atom_site_fract_z
 _atom_site_occupancy
  Mn  Mn0  1  0.645201  0.569879  0.462361  1
  Mn  Mn1  1  0.354799  0.430121  0.537639  1
  H  H2  1  0.764212  0.883698  0.881114  1
  H  H3  1  0.937717  0.140390  0.475286  1
  H  H4  1  0.352949  0.855979  0.738079  1
  H  H5  1  0.843124  0.040724  0.554723  1
  H  H6  1  0.432477  0.152158  0.618540  1
  H  H7  1  0.237043  0.229041  0.700592  1
  H  H8  1  0.712032  0.629351  0.868545  1
  H  H9  1  0.140823  0.126796  0.777995  1
  H  H10  1  0.306551  0.034984  0.236663  1
  H  H11  1  0.287968  0.370649  0.131455  1
  H  H12  1  0.235788  0.116302  0.118886  1
  H  H13  1  0.792675  0.083949  0.200855  1
  H  H14  1  0.519543  0.008925  0.368076  1
  H  H15  1  0.108167  0.927766  0.072026  1
  H  H16  1  0.892276  0.397802  0.314435  1
  H  H17  1  0.860931  0.567338  0.822111  1
  H  H18  1  0.567523  0.847842  0.381460  1
  H  H19  1  0.480457  0.991075  0.631924  1
  H  H20  1  0.762957  0.770959  0.299408  1
  H  H21  1  0.848953  0.371789  0.115761  1
  H  H22  1  0.587304  0.940188  0.072505  1
  H  H23  1  0.726015  0.447459  0.854072  1
  H  H24  1  0.273985  0.552541  0.145928  1
  H  H25  1  0.107724  0.602198  0.685565  1
  H  H26  1  0.062283  0.859610  0.524714  1
  H  H27  1  0.207475  0.799237  0.461231  1
  H  H28  1  0.139069  0.432662  0.177889  1
  H  H29  1  0.082019  0.425653  0.696128  1
  H  H30  1  0.207324  0.916051  0.799145  1
  H  H31  1  0.859177  0.873204  0.222005  1
  H  H32  1  0.412696  0.059812  0.927495  1
  H  H33  1  0.792525  0.200763  0.538769  1
  H  H34  1  0.891833  0.072234  0.927974  1
  H  H35  1  0.539308  0.192781  0.824093  1
  H  H36  1  0.917981  0.574347  0.303872  1
  H  H37  1  0.647051  0.144021  0.261921  1
  H  H38  1  0.693449  0.965016  0.763337  1
  H  H39  1  0.653362  0.728447  0.094873  1
  H  H40  1  0.346638  0.271553  0.905127  1
  H  H41  1  0.460692  0.807219  0.175907  1
  H  H42  1  0.156876  0.959276  0.445277  1
  H  H43  1  0.151047  0.628211  0.884239  1
  C  C44  1  0.251311  0.176312  0.776049  1
  C  C45  1  0.261005  0.478175  0.198515  1
  C  C46  1  0.319590  0.960480  0.797949  1
  C  C47  1  0.550654  0.902725  0.308036  1
  C  C48  1  0.203369  0.051364  0.175553  1
  C  C49  1  0.171135  0.902198  0.516951  1
  C  C50  1  0.449346  0.097275  0.691964  1
  C  C51  1  0.828865  0.097802  0.483049  1
  C  C52  1  0.748689  0.823688  0.223951  1
  C  C53  1  0.843109  0.441619  0.236720  1
  C  C54  1  0.156891  0.558381  0.763280  1
  C  C55  1  0.796632  0.948636  0.824447  1
  C  C56  1  0.680410  0.039520  0.202051  1
  C  C57  1  0.738995  0.521825  0.801485  1
  S  S58  1  0.136949  0.168992  0.329975  1
  S  S59  1  0.361413  0.590573  0.807053  1
  S  S60  1  0.863051  0.831008  0.670025  1
  S  S61  1  0.394630  0.606814  0.427354  1
  S  S62  1  0.638587  0.409427  0.192947  1
  S  S63  1  0.605370  0.393186  0.572646  1
  N  N64  1  0.297790  0.033763  0.695489  1
  N  N65  1  0.702210  0.966237  0.304511  1
