# generated using pymatgen
data_K2SO4
_symmetry_space_group_name_H-M   'P 1'
_cell_length_a   5.44268430
_cell_length_b   5.44268427
_cell_length_c   9.56330543
_cell_angle_alpha   90.00000000
_cell_angle_beta   90.00000000
_cell_angle_gamma   120.00000020
_symmetry_Int_Tables_number   1
_chemical_formula_structural   K2SO4
_chemical_formula_sum   'K4 S2 O8'
_cell_volume   245.33806891
_cell_formula_units_Z   2
loop_
 _symmetry_equiv_pos_site_id
 _symmetry_equiv_pos_as_xyz
  1  'x, y, z'
loop_
 _atom_site_type_symbol
 _atom_site_label
 _atom_site_symmetry_multiplicity
 _atom_site_fract_x
 _atom_site_fract_y
 _atom_site_fract_z
 _atom_site_occupancy
  K  K0  1  0.000000  0.000000  0.000000  1
  K  K1  1  0.666667  0.333333  0.921130  1
  K  K2  1  0.000000  0.000000  0.500000  1
  K  K3  1  0.333333  0.666667  0.078870  1
  S  S4  1  0.333333  0.666667  0.715826  1
  S  S5  1  0.666667  0.333333  0.284174  1
  O  O6  1  0.666667  0.333333  0.436951  1
  O  O7  1  0.333333  0.666667  0.563049  1
  O  O8  1  0.865903  0.731806  0.760716  1
  O  O9  1  0.268194  0.134097  0.760716  1
  O  O10  1  0.134097  0.865903  0.239284  1
  O  O11  1  0.134097  0.268194  0.239284  1
  O  O12  1  0.731806  0.865903  0.239284  1
  O  O13  1  0.865903  0.134097  0.760716  1
