# generated using pymatgen
data_AlCu2Sb(HO)12
_symmetry_space_group_name_H-M   'P 1'
_cell_length_a   9.24872336
_cell_length_b   9.20949586
_cell_length_c   9.74351480
_cell_angle_alpha   90.14351460
_cell_angle_beta   90.10193096
_cell_angle_gamma   119.05220022
_symmetry_Int_Tables_number   1
_chemical_formula_structural   AlCu2Sb(HO)12
_chemical_formula_sum   'Al3 Cu6 Sb3 H36 O36'
_cell_volume   725.48607772
_cell_formula_units_Z   3
loop_
 _symmetry_equiv_pos_site_id
 _symmetry_equiv_pos_as_xyz
  1  'x, y, z'
loop_
 _atom_site_type_symbol
 _atom_site_label
 _atom_site_symmetry_multiplicity
 _atom_site_fract_x
 _atom_site_fract_y
 _atom_site_fract_z
 _atom_site_occupancy
  Al  Al0  1  0.997363  0.000476  0.497340  1
  Al  Al1  1  0.335400  0.667627  0.506409  1
  Al  Al2  1  0.670579  0.333829  0.490861  1
  Cu  Cu3  1  0.328034  0.986778  0.492818  1
  Cu  Cu4  1  0.013450  0.340626  0.505527  1
  Cu  Cu5  1  0.342711  0.328259  0.496011  1
  Cu  Cu6  1  0.660098  0.673947  0.495988  1
  Cu  Cu7  1  0.986225  0.659725  0.503638  1
  Cu  Cu8  1  0.672937  0.013534  0.501462  1
  H  H9  1  0.038281  0.856306  0.703745  1
  H  H10  1  0.195979  0.904155  0.113726  1
  H  H11  1  0.055527  0.565111  0.151176  1
  H  H12  1  0.235715  0.840123  0.883132  1
  H  H13  1  0.216724  0.753104  0.298852  1
  H  H14  1  0.145696  0.538591  0.712435  1
  H  H15  1  0.067696  0.272120  0.108131  1
  H  H16  1  0.399675  0.868986  0.704379  1
  H  H17  1  0.171569  0.405168  0.890438  1
  H  H18  1  0.135057  0.204814  0.700346  1
  H  H19  1  0.262616  0.469742  0.300478  1
  H  H20  1  0.573116  0.948362  0.114512  1
  H  H21  1  0.539994  0.792563  0.299892  1
  H  H22  1  0.188529  0.048580  0.293206  1
  H  H23  1  0.375762  0.435534  0.110266  1
  H  H24  1  0.472984  0.611646  0.707193  1
  H  H25  1  0.273332  0.192439  0.880245  1
  H  H26  1  0.608397  0.781811  0.888585  1
  H  H27  1  0.366393  0.202257  0.106284  1
  H  H28  1  0.726001  0.815376  0.113646  1
  H  H29  1  0.532635  0.392726  0.287816  1
  H  H30  1  0.603241  0.560491  0.880541  1
  H  H31  1  0.806140  0.949916  0.705091  1
  H  H32  1  0.461635  0.208093  0.691043  1
  H  H33  1  0.439016  0.054750  0.877837  1
  H  H34  1  0.734078  0.533252  0.696140  1
  H  H35  1  0.861851  0.802432  0.293972  1
  H  H36  1  0.816547  0.623938  0.101657  1
  H  H37  1  0.610629  0.140698  0.287657  1
  H  H38  1  1.011010  0.846907  0.890378  1
  H  H39  1  0.921499  0.448031  0.297684  1
  H  H40  1  0.780984  0.252998  0.705647  1
  H  H41  1  0.772069  0.185673  0.112185  1
  H  H42  1  0.933736  0.392831  0.896476  1
  H  H43  1  0.808142  0.086774  0.889007  1
  H  H44  1  0.941817  0.141500  0.295089  1
  O  O45  1  0.068756  0.873394  0.606901  1
  O  O46  1  0.160805  0.507033  0.885905  1
  O  O47  1  0.218518  0.757395  0.402982  1
  O  O48  1  0.137121  0.552604  0.611514  1
  O  O49  1  0.199068  0.733436  0.125867  1
  O  O50  1  0.346928  0.853095  0.875423  1
  O  O51  1  0.422149  0.873028  0.604076  1
  O  O52  1  0.124200  0.208824  0.598441  1
  O  O53  1  0.251363  0.464438  0.403076  1
  O  O54  1  0.302975  0.486302  0.130804  1
  O  O55  1  0.164352  0.189116  0.876462  1
  O  O56  1  0.544211  0.829256  0.126392  1
  O  O57  1  0.540161  0.783260  0.402440  1
  O  O58  1  0.194581  0.068204  0.394332  1
  O  O59  1  0.455165  0.584844  0.607632  1
  O  O60  1  0.188469  0.012200  0.116504  1
  O  O61  1  0.507783  0.670739  0.883543  1
  O  O62  1  0.461942  0.318256  0.107342  1
  O  O63  1  0.813412  0.982487  0.877731  1
  O  O64  1  0.552491  0.418266  0.387235  1
  O  O65  1  0.800978  0.929722  0.603946  1
  O  O66  1  0.459001  0.216968  0.588525  1
  O  O67  1  0.469939  0.173958  0.860806  1
  O  O68  1  0.833893  0.814300  0.117961  1
  O  O69  1  0.677157  0.511889  0.859650  1
  O  O70  1  0.752880  0.539211  0.593842  1
  O  O71  1  0.872074  0.799414  0.395628  1
  O  O72  1  0.589582  0.134830  0.388169  1
  O  O73  1  0.654011  0.157403  0.111485  1
  O  O74  1  0.781262  0.505641  0.128031  1
  O  O75  1  0.887015  0.446649  0.409533  1
  O  O76  1  0.772702  0.237010  0.603911  1
  O  O77  1  0.817601  0.306312  0.876921  1
  O  O78  1  0.967732  0.443350  0.173575  1
  O  O79  1  0.923040  0.129493  0.396274  1
  O  O80  1  0.977486  0.157031  0.119723  1
  Sb  Sb81  1  1.002321  0.995923  0.996845  1
  Sb  Sb82  1  0.338950  0.678741  0.013703  1
  Sb  Sb83  1  0.647158  0.332379  0.988127  1
