# generated using pymatgen
data_SiO2
_symmetry_space_group_name_H-M   'P 1'
_cell_length_a   10.13857625
_cell_length_b   10.13858089
_cell_length_c   12.63518774
_cell_angle_alpha   113.65695676
_cell_angle_beta   113.65696981
_cell_angle_gamma   89.99813623
_symmetry_Int_Tables_number   1
_chemical_formula_structural   SiO2
_chemical_formula_sum   'Si16 O32'
_cell_volume   1069.41916740
_cell_formula_units_Z   16
loop_
 _symmetry_equiv_pos_site_id
 _symmetry_equiv_pos_as_xyz
  1  'x, y, z'
loop_
 _atom_site_type_symbol
 _atom_site_label
 _atom_site_symmetry_multiplicity
 _atom_site_fract_x
 _atom_site_fract_y
 _atom_site_fract_z
 _atom_site_occupancy
  Si  Si0  1  0.048033  0.106655  0.393681  1
  Si  Si1  1  0.893336  0.654357  0.106291  1
  Si  Si2  1  0.047996  0.787047  0.393668  1
  Si  Si3  1  0.787061  0.345638  0.893683  1
  Si  Si4  1  0.212939  0.654362  0.106317  1
  Si  Si5  1  0.787047  0.047996  0.893669  1
  Si  Si6  1  0.106664  0.345643  0.893709  1
  Si  Si7  1  0.106655  0.048033  0.893680  1
  Si  Si8  1  0.345637  0.787061  0.393682  1
  Si  Si9  1  0.345643  0.106664  0.393710  1
  Si  Si10  1  0.951967  0.893345  0.606319  1
  Si  Si11  1  0.654363  0.212939  0.606318  1
  Si  Si12  1  0.212953  0.952004  0.106331  1
  Si  Si13  1  0.893345  0.951967  0.106320  1
  Si  Si14  1  0.654357  0.893336  0.606290  1
  Si  Si15  1  0.952004  0.212953  0.606332  1
  O  O16  1  0.742859  0.209447  0.918945  1
  O  O17  1  0.347063  0.952306  0.404561  1
  O  O18  1  0.057429  0.952261  0.404551  1
  O  O19  1  0.652937  0.047694  0.595439  1
  O  O20  1  0.047739  0.942571  0.095448  1
  O  O21  1  0.790518  0.823864  0.581011  1
  O  O22  1  0.952261  0.057429  0.904552  1
  O  O23  1  0.219688  0.500026  1.000021  1
  O  O24  1  0.500026  0.219688  0.500021  1
  O  O25  1  0.924779  0.674809  0.249984  1
  O  O26  1  0.790553  0.257141  0.581055  1
  O  O27  1  0.942571  0.047739  0.595449  1
  O  O28  1  0.952306  0.347063  0.904561  1
  O  O29  1  0.047694  0.652937  0.095439  1
  O  O30  1  0.325191  0.075221  0.250017  1
  O  O31  1  0.075221  0.325191  0.750016  1
  O  O32  1  0.000000  0.219706  0.500015  1
  O  O33  1  0.257141  0.790553  0.081055  1
  O  O34  1  0.674827  0.325172  0.750000  1
  O  O35  1  1.000000  0.780294  0.499985  1
  O  O36  1  0.209447  0.742859  0.418945  1
  O  O37  1  0.823864  0.790519  0.081011  1
  O  O38  1  0.325173  0.674828  0.250000  1
  O  O39  1  0.075188  0.924813  0.750000  1
  O  O40  1  0.176136  0.209481  0.918989  1
  O  O41  1  0.780293  1.000000  -0.000016  1
  O  O42  1  0.924812  0.075187  0.250000  1
  O  O43  1  0.674809  0.924779  0.749983  1
  O  O44  1  0.209482  0.176136  0.418989  1
  O  O45  1  0.219707  -0.000000  1.000016  1
  O  O46  1  0.499974  0.780312  0.499979  1
  O  O47  1  0.780312  0.499974  -0.000021  1
