# generated using pymatgen
data_Ga2BiSe4
_symmetry_space_group_name_H-M   'P 1'
_cell_length_a   7.94781365
_cell_length_b   7.94781365
_cell_length_c   12.80106546
_cell_angle_alpha   90.00000000
_cell_angle_beta   90.00000000
_cell_angle_gamma   90.00000000
_symmetry_Int_Tables_number   1
_chemical_formula_structural   Ga2BiSe4
_chemical_formula_sum   'Ga8 Bi4 Se16'
_cell_volume   808.61439794
_cell_formula_units_Z   4
loop_
 _symmetry_equiv_pos_site_id
 _symmetry_equiv_pos_as_xyz
  1  'x, y, z'
loop_
 _atom_site_type_symbol
 _atom_site_label
 _atom_site_symmetry_multiplicity
 _atom_site_fract_x
 _atom_site_fract_y
 _atom_site_fract_z
 _atom_site_occupancy
  Ga  Ga0  1  0.750000  0.250000  0.000000  1
  Ga  Ga1  1  0.250000  0.750000  0.000000  1
  Ga  Ga2  1  0.250000  0.750000  0.250000  1
  Ga  Ga3  1  0.250000  0.750000  0.500000  1
  Ga  Ga4  1  0.750000  0.250000  0.750000  1
  Ga  Ga5  1  0.750000  0.250000  0.500000  1
  Ga  Ga6  1  0.250000  0.750000  0.750000  1
  Ga  Ga7  1  0.750000  0.250000  0.250000  1
  Bi  Bi8  1  0.250000  0.250000  0.373729  1
  Bi  Bi9  1  0.250000  0.250000  0.126271  1
  Bi  Bi10  1  0.750000  0.750000  0.626271  1
  Bi  Bi11  1  0.750000  0.750000  0.873729  1
  Se  Se12  1  0.912656  0.080879  0.125461  1
  Se  Se13  1  0.412656  0.580878  0.874539  1
  Se  Se14  1  0.087344  0.919122  0.874539  1
  Se  Se15  1  0.412656  0.919122  0.625461  1
  Se  Se16  1  0.919122  0.412656  0.874539  1
  Se  Se17  1  0.080879  0.587344  0.125461  1
  Se  Se18  1  0.919122  0.087344  0.625461  1
  Se  Se19  1  0.912656  0.419121  0.374539  1
  Se  Se20  1  0.419121  0.587344  0.374539  1
  Se  Se21  1  0.580878  0.087344  0.874539  1
  Se  Se22  1  0.419121  0.912656  0.125461  1
  Se  Se23  1  0.087344  0.580878  0.625461  1
  Se  Se24  1  0.080879  0.912656  0.374539  1
  Se  Se25  1  0.587344  0.419121  0.125461  1
  Se  Se26  1  0.580878  0.412656  0.625461  1
  Se  Se27  1  0.587344  0.080879  0.374539  1
