# generated using pymatgen
data_K4Nb11Al2O20F
_symmetry_space_group_name_H-M   'P 1'
_cell_length_a   8.90774178
_cell_length_b   8.90774177
_cell_length_c   8.99270425
_cell_angle_alpha   119.68795567
_cell_angle_beta   119.68795565
_cell_angle_gamma   90.00000067
_symmetry_Int_Tables_number   1
_chemical_formula_structural   K4Nb11Al2O20F
_chemical_formula_sum   'K4 Nb11 Al2 O20 F1'
_cell_volume   509.27974203
_cell_formula_units_Z   1
loop_
 _symmetry_equiv_pos_site_id
 _symmetry_equiv_pos_as_xyz
  1  'x, y, z'
loop_
 _atom_site_type_symbol
 _atom_site_label
 _atom_site_symmetry_multiplicity
 _atom_site_fract_x
 _atom_site_fract_y
 _atom_site_fract_z
 _atom_site_occupancy
  K  K0  1  0.500000  0.807504  0.000000  1
  K  K1  1  0.192496  0.500000  1.000000  1
  K  K2  1  0.807504  0.500000  0.000000  1
  K  K3  1  0.500000  0.192496  1.000000  1
  Nb  Nb4  1  0.676063  0.998955  0.675018  1
  Nb  Nb5  1  0.998955  0.676063  0.675018  1
  Nb  Nb6  1  0.676063  0.676063  0.675018  1
  Nb  Nb7  1  0.001045  0.001045  0.324982  1
  Nb  Nb8  1  0.998955  0.998955  0.675018  1
  Nb  Nb9  1  0.323937  0.323937  0.324982  1
  Nb  Nb10  1  0.001045  0.323937  0.324982  1
  Nb  Nb11  1  0.000000  0.000000  0.000000  1
  Nb  Nb12  1  0.684737  0.684737  0.369475  1
  Nb  Nb13  1  0.315263  0.315263  0.630525  1
  Nb  Nb14  1  0.323937  0.001045  0.324982  1
  Al  Al15  1  0.250000  0.750000  0.500000  1
  Al  Al16  1  0.750000  0.250000  0.500000  1
  O  O17  1  0.490580  0.159873  0.650453  1
  O  O18  1  0.509420  0.840127  0.349547  1
  O  O19  1  0.827150  0.166280  0.332560  1
  O  O20  1  0.505410  0.166280  0.332560  1
  O  O21  1  0.159873  0.159873  0.650453  1
  O  O22  1  0.509420  0.509420  0.349547  1
  O  O23  1  0.830329  0.830329  1.000000  1
  O  O24  1  0.830329  0.169671  0.000000  1
  O  O25  1  0.840127  0.509420  0.349547  1
  O  O26  1  0.169671  0.830329  1.000000  1
  O  O27  1  0.159873  0.490580  0.650453  1
  O  O28  1  0.169671  0.169671  0.000000  1
  O  O29  1  0.494590  0.833720  0.667440  1
  O  O30  1  0.490580  0.490580  0.650453  1
  O  O31  1  0.840127  0.840127  0.349547  1
  O  O32  1  0.166280  0.505410  0.332560  1
  O  O33  1  0.172850  0.833720  0.667440  1
  O  O34  1  0.166280  0.827150  0.332560  1
  O  O35  1  0.833720  0.494590  0.667440  1
  O  O36  1  0.833720  0.172850  0.667440  1
  F  F37  1  0.500000  0.500000  0.000000  1
