# generated using pymatgen
data_Ca5Nb5O17
_symmetry_space_group_name_H-M   'P 1'
_cell_length_a   5.54759513
_cell_length_b   7.84663554
_cell_length_c   32.87761968
_cell_angle_alpha   96.92486188
_cell_angle_beta   90.00000000
_cell_angle_gamma   90.00000000
_symmetry_Int_Tables_number   1
_chemical_formula_structural   Ca5Nb5O17
_chemical_formula_sum   'Ca20 Nb20 O68'
_cell_volume   1420.72122236
_cell_formula_units_Z   4
loop_
 _symmetry_equiv_pos_site_id
 _symmetry_equiv_pos_as_xyz
  1  'x, y, z'
loop_
 _atom_site_type_symbol
 _atom_site_label
 _atom_site_symmetry_multiplicity
 _atom_site_fract_x
 _atom_site_fract_y
 _atom_site_fract_z
 _atom_site_occupancy
  Ca  Ca0  1  0.016727  0.636224  0.290155  1
  Ca  Ca1  1  0.493055  0.744819  0.992453  1
  Ca  Ca2  1  0.993055  0.255181  0.507547  1
  Ca  Ca3  1  0.588719  0.863007  0.222751  1
  Ca  Ca4  1  0.497153  0.699813  0.403057  1
  Ca  Ca5  1  1.000842  0.791179  0.082471  1
  Ca  Ca6  1  0.502847  0.300187  0.596943  1
  Ca  Ca7  1  0.983273  0.363776  0.709845  1
  Ca  Ca8  1  -0.000842  0.208821  0.917529  1
  Ca  Ca9  1  0.411281  0.136993  0.777249  1
  Ca  Ca10  1  0.499158  0.791179  0.582471  1
  Ca  Ca11  1  0.006945  0.744819  0.492453  1
  Ca  Ca12  1  0.997153  0.300187  0.096943  1
  Ca  Ca13  1  0.500842  0.208821  0.417529  1
  Ca  Ca14  1  0.516727  0.363776  0.209845  1
  Ca  Ca15  1  0.002847  0.699813  0.903057  1
  Ca  Ca16  1  0.506945  0.255181  0.007547  1
  Ca  Ca17  1  0.911281  0.863007  0.722751  1
  Ca  Ca18  1  0.483273  0.636224  0.790155  1
  Ca  Ca19  1  0.088719  0.136993  0.277249  1
  Nb  Nb20  1  0.531430  0.404564  0.322040  1
  Nb  Nb21  1  0.526782  0.914453  0.322996  1
  Nb  Nb22  1  0.506432  0.049149  0.090960  1
  Nb  Nb23  1  0.973218  0.914453  0.822996  1
  Nb  Nb24  1  0.494169  0.457466  0.908247  1
  Nb  Nb25  1  0.000000  0.500000  0.000000  1
  Nb  Nb26  1  0.468570  0.595436  0.677960  1
  Nb  Nb27  1  0.493568  0.950851  0.909040  1
  Nb  Nb28  1  0.005831  0.457466  0.408247  1
  Nb  Nb29  1  0.505831  0.542534  0.091753  1
  Nb  Nb30  1  0.473218  0.085547  0.677004  1
  Nb  Nb31  1  0.031430  0.595436  0.177960  1
  Nb  Nb32  1  0.000000  0.000000  0.000000  1
  Nb  Nb33  1  0.500000  0.500000  0.500000  1
  Nb  Nb34  1  0.993568  0.049149  0.590960  1
  Nb  Nb35  1  0.026782  0.085547  0.177004  1
  Nb  Nb36  1  0.994169  0.542534  0.591753  1
  Nb  Nb37  1  0.968570  0.404564  0.822040  1
  Nb  Nb38  1  0.500000  0.000000  0.500000  1
  Nb  Nb39  1  0.006432  0.950851  0.409040  1
  O  O40  1  0.203878  0.076978  0.711049  1
  O  O41  1  0.425121  0.164524  0.329953  1
  O  O42  1  0.815191  0.967586  0.881942  1
  O  O43  1  0.593667  0.663779  0.330404  1
  O  O44  1  0.406333  0.336221  0.669596  1
  O  O45  1  0.301781  0.862249  0.280222  1
  O  O46  1  0.182029  0.585031  0.117232  1
  O  O47  1  0.091702  0.289623  0.578667  1
  O  O48  1  0.068068  0.205456  0.410395  1
  O  O49  1  0.294724  0.873366  0.864708  1
  O  O50  1  0.296541  0.558589  0.033675  1
  O  O51  1  0.796948  0.025302  0.466234  1
  O  O52  1  0.294543  0.931860  0.448641  1
  O  O53  1  0.568068  0.794544  0.089605  1
  O  O54  1  0.823973  0.362230  0.297039  1
  O  O55  1  0.198219  0.862249  0.780222  1
  O  O56  1  0.431932  0.205456  0.910395  1
  O  O57  1  0.706152  0.483584  0.551593  1
  O  O58  1  0.931932  0.794544  0.589605  1
  O  O59  1  0.684809  0.967586  0.381942  1
  O  O60  1  0.702421  0.509583  0.136487  1
  O  O61  1  0.206152  0.516416  0.948407  1
  O  O62  1  0.323973  0.637770  0.202961  1
  O  O63  1  0.794543  0.068140  0.051359  1
  O  O64  1  0.705457  0.068140  0.551359  1
  O  O65  1  0.202421  0.490417  0.363513  1
  O  O66  1  0.408298  0.289623  0.078667  1
  O  O67  1  0.801781  0.137751  0.219778  1
  O  O68  1  0.676027  0.362230  0.797039  1
  O  O69  1  0.297579  0.490417  0.863513  1
  O  O70  1  0.205276  0.873366  0.364708  1
  O  O71  1  0.203052  0.974698  0.533766  1
  O  O72  1  0.797579  0.509583  0.636487  1
  O  O73  1  0.703878  0.923022  0.788951  1
  O  O74  1  0.914007  0.752479  0.004891  1
  O  O75  1  0.317971  0.585031  0.617232  1
  O  O76  1  0.085993  0.247521  0.995109  1
  O  O77  1  0.824203  0.591414  0.224573  1
  O  O78  1  0.817971  0.414969  0.882768  1
  O  O79  1  0.796541  0.441411  0.466325  1
  O  O80  1  0.925121  0.835476  0.170047  1
  O  O81  1  0.293848  0.516416  0.448407  1
  O  O82  1  0.175797  0.408586  0.775427  1
  O  O83  1  0.796122  0.923022  0.288951  1
  O  O84  1  0.315191  0.032414  0.618058  1
  O  O85  1  0.203459  0.558589  0.533675  1
  O  O86  1  0.591702  0.710377  0.921333  1
  O  O87  1  0.703052  0.025302  0.966234  1
  O  O88  1  0.705276  0.126634  0.135292  1
  O  O89  1  0.324203  0.408586  0.275427  1
  O  O90  1  0.793848  0.483584  0.051593  1
  O  O91  1  0.093667  0.336221  0.169596  1
  O  O92  1  0.176027  0.637770  0.702961  1
  O  O93  1  0.296122  0.076978  0.211049  1
  O  O94  1  0.675797  0.591414  0.724573  1
  O  O95  1  0.296948  0.974698  0.033766  1
  O  O96  1  0.184809  0.032414  0.118058  1
  O  O97  1  0.908298  0.710377  0.421333  1
  O  O98  1  0.906333  0.663779  0.830404  1
  O  O99  1  0.794724  0.126634  0.635292  1
  O  O100  1  0.074879  0.164524  0.829953  1
  O  O101  1  0.682029  0.414969  0.382768  1
  O  O102  1  0.585993  0.752479  0.504891  1
  O  O103  1  0.703459  0.441411  0.966325  1
  O  O104  1  0.414007  0.247521  0.495109  1
  O  O105  1  0.205457  0.931860  0.948641  1
  O  O106  1  0.574879  0.835476  0.670047  1
  O  O107  1  0.698219  0.137751  0.719778  1
