# generated using pymatgen
data_SO3
_symmetry_space_group_name_H-M   'P 1'
_cell_length_a   4.17941319
_cell_length_b   6.48120159
_cell_length_c   9.67700901
_cell_angle_alpha   108.91218572
_cell_angle_beta   90.00000000
_cell_angle_gamma   90.00000000
_symmetry_Int_Tables_number   1
_chemical_formula_structural   SO3
_chemical_formula_sum   'S4 O12'
_cell_volume   247.97658298
_cell_formula_units_Z   4
loop_
 _symmetry_equiv_pos_site_id
 _symmetry_equiv_pos_as_xyz
  1  'x, y, z'
loop_
 _atom_site_type_symbol
 _atom_site_label
 _atom_site_symmetry_multiplicity
 _atom_site_fract_x
 _atom_site_fract_y
 _atom_site_fract_z
 _atom_site_occupancy
  S  S0  1  0.524704  0.378336  0.207658  1
  S  S1  1  0.475296  0.621664  0.792342  1
  S  S2  1  0.975296  0.878336  0.707658  1
  S  S3  1  0.024704  0.121664  0.292342  1
  O  O4  1  0.318894  0.658152  0.928081  1
  O  O5  1  0.131474  0.073018  0.790991  1
  O  O6  1  0.631474  0.426982  0.709009  1
  O  O7  1  0.181106  0.158152  0.428081  1
  O  O8  1  0.725764  0.830043  0.826263  1
  O  O9  1  0.818894  0.841848  0.571919  1
  O  O10  1  0.368526  0.573018  0.290991  1
  O  O11  1  0.274236  0.169957  0.173737  1
  O  O12  1  0.868526  0.926982  0.209009  1
  O  O13  1  0.774236  0.330043  0.326263  1
  O  O14  1  0.681106  0.341848  0.071919  1
  O  O15  1  0.225764  0.669957  0.673737  1
