# generated using pymatgen
data_Sm2IO2
_symmetry_space_group_name_H-M   'P 1'
_cell_length_a   4.15733967
_cell_length_b   6.76029062
_cell_length_c   8.70292933
_cell_angle_alpha   73.50313729
_cell_angle_beta   76.18149492
_cell_angle_gamma   72.09243065
_symmetry_Int_Tables_number   1
_chemical_formula_structural   Sm2IO2
_chemical_formula_sum   'Sm4 I2 O4'
_cell_volume   220.06432951
_cell_formula_units_Z   2
loop_
 _symmetry_equiv_pos_site_id
 _symmetry_equiv_pos_as_xyz
  1  'x, y, z'
loop_
 _atom_site_type_symbol
 _atom_site_label
 _atom_site_symmetry_multiplicity
 _atom_site_fract_x
 _atom_site_fract_y
 _atom_site_fract_z
 _atom_site_occupancy
  Sm  Sm0  1  0.027551  0.727910  0.216988  1
  O  O1  1  0.467281  0.378903  0.686534  1
  I  I2  1  0.685067  0.758201  0.871665  1
  O  O3  1  0.156998  0.110125  0.575878  1
  Sm  Sm4  1  0.651568  0.247286  0.449578  1
  O  O5  1  0.532719  0.621097  0.313466  1
  O  O6  1  0.843001  0.889876  0.424121  1
  Sm  Sm7  1  0.972449  0.272091  0.783012  1
  Sm  Sm8  1  0.348432  0.752714  0.550422  1
  I  I9  1  0.314933  0.241799  0.128335  1
