# generated using pymatgen
data_InGaSe3
_symmetry_space_group_name_H-M   'P 1'
_cell_length_a   7.16862127
_cell_length_b   7.16862139
_cell_length_c   19.21602508
_cell_angle_alpha   90.00000000
_cell_angle_beta   90.00000000
_cell_angle_gamma   119.99999940
_symmetry_Int_Tables_number   1
_chemical_formula_structural   InGaSe3
_chemical_formula_sum   'In6 Ga6 Se18'
_cell_volume   855.19562753
_cell_formula_units_Z   6
loop_
 _symmetry_equiv_pos_site_id
 _symmetry_equiv_pos_as_xyz
  1  'x, y, z'
loop_
 _atom_site_type_symbol
 _atom_site_label
 _atom_site_symmetry_multiplicity
 _atom_site_fract_x
 _atom_site_fract_y
 _atom_site_fract_z
 _atom_site_occupancy
  Ga  Ga0  1  0.663220  0.681051  0.141041  1
  Ga  Ga1  1  0.982169  0.663220  0.307708  1
  Ga  Ga2  1  0.681051  0.017831  0.974374  1
  Ga  Ga3  1  0.318949  0.982169  0.474374  1
  Ga  Ga4  1  0.017831  0.336780  0.807708  1
  Ga  Ga5  1  0.336780  0.318949  0.641041  1
  In  In6  1  0.326924  0.328523  0.004579  1
  In  In7  1  0.998401  0.326924  0.171246  1
  In  In8  1  0.328523  0.001599  0.837912  1
  In  In9  1  0.671477  0.998401  0.337912  1
  In  In10  1  0.001599  0.673076  0.671246  1
  In  In11  1  0.673076  0.671477  0.504579  1
  Se  Se12  1  0.361206  0.316828  0.152975  1
  Se  Se13  1  0.044378  0.361206  0.319642  1
  Se  Se14  1  0.316828  0.955622  0.986308  1
  Se  Se15  1  0.683172  0.044378  0.486308  1
  Se  Se16  1  0.955622  0.638794  0.819642  1
  Se  Se17  1  0.638794  0.683172  0.652975  1
  Se  Se18  1  0.969180  0.348114  0.022078  1
  Se  Se19  1  0.621066  0.969180  0.188745  1
  Se  Se20  1  0.348114  0.378934  0.855411  1
  Se  Se21  1  0.651886  0.621066  0.355411  1
  Se  Se22  1  0.378934  0.030820  0.688745  1
  Se  Se23  1  0.030820  0.651886  0.522078  1
  Se  Se24  1  1.005342  0.707916  0.179328  1
  Se  Se25  1  0.297426  1.005342  0.345995  1
  Se  Se26  1  0.707916  0.702574  0.012661  1
  Se  Se27  1  0.292084  0.297426  0.512661  1
  Se  Se28  1  0.702574  -0.005342  0.845995  1
  Se  Se29  1  -0.005342  0.292084  0.679328  1
