# generated using pymatgen
data_CsB9O13
_symmetry_space_group_name_H-M   'P 1'
_cell_length_a   9.36878345
_cell_length_b   9.36878345
_cell_length_c   12.93727009
_cell_angle_alpha   90.00000000
_cell_angle_beta   90.00000000
_cell_angle_gamma   90.00000000
_symmetry_Int_Tables_number   1
_chemical_formula_structural   CsB9O13
_chemical_formula_sum   'Cs4 B36 O52'
_cell_volume   1135.55728173
_cell_formula_units_Z   4
loop_
 _symmetry_equiv_pos_site_id
 _symmetry_equiv_pos_as_xyz
  1  'x, y, z'
loop_
 _atom_site_type_symbol
 _atom_site_label
 _atom_site_symmetry_multiplicity
 _atom_site_fract_x
 _atom_site_fract_y
 _atom_site_fract_z
 _atom_site_occupancy
  B  B0  1  0.015160  0.150570  0.811835  1
  B  B1  1  0.015160  0.849430  0.688165  1
  B  B2  1  0.111798  0.669504  0.799100  1
  B  B3  1  0.111798  0.330496  0.700900  1
  B  B4  1  0.148517  0.306552  0.277474  1
  B  B5  1  0.148517  0.693448  0.222526  1
  B  B6  1  0.150570  0.015160  0.938165  1
  B  B7  1  0.150570  0.984840  0.561835  1
  B  B8  1  0.306552  0.851483  0.027474  1
  B  B9  1  0.306552  0.148517  0.472526  1
  B  B10  1  0.330496  0.111798  0.049100  1
  B  B11  1  0.330496  0.888202  0.450900  1
  B  B12  1  0.380565  0.380565  0.375000  1
  B  B13  1  0.380565  0.619435  0.125000  1
  B  B14  1  0.364965  0.565843  0.798053  1
  B  B15  1  0.364965  0.434157  0.701947  1
  B  B16  1  0.434157  0.364965  0.048053  1
  B  B17  1  0.434157  0.635035  0.451947  1
  B  B18  1  0.565843  0.635035  0.548053  1
  B  B19  1  0.565843  0.364965  0.951947  1
  B  B20  1  0.635035  0.565843  0.201947  1
  B  B21  1  0.635035  0.434157  0.298053  1
  B  B22  1  0.619435  0.380565  0.625000  1
  B  B23  1  0.619435  0.619435  0.875000  1
  B  B24  1  0.669504  0.111798  0.950900  1
  B  B25  1  0.669504  0.888202  0.549100  1
  B  B26  1  0.693448  0.148517  0.527474  1
  B  B27  1  0.693448  0.851483  0.972526  1
  B  B28  1  0.849430  0.015160  0.061835  1
  B  B29  1  0.849430  0.984840  0.438165  1
  B  B30  1  0.851483  0.306552  0.722526  1
  B  B31  1  0.851483  0.693448  0.777474  1
  B  B32  1  0.888202  0.669504  0.200900  1
  B  B33  1  0.888202  0.330496  0.299100  1
  B  B34  1  0.984840  0.150570  0.188165  1
  B  B35  1  0.984840  0.849430  0.311835  1
  Cs  Cs36  1  0.000000  0.428283  0.000000  1
  Cs  Cs37  1  0.000000  0.571717  0.500000  1
  Cs  Cs38  1  0.428283  0.000000  0.750000  1
  Cs  Cs39  1  0.571717  0.000000  0.250000  1
  O  O40  1  0.027775  0.366389  0.326686  1
  O  O41  1  0.027775  0.633611  0.173314  1
  O  O42  1  0.034073  0.034073  0.875000  1
  O  O43  1  0.034073  0.965927  0.625000  1
  O  O44  1  0.120360  0.196764  0.205478  1
  O  O45  1  0.120360  0.803236  0.294522  1
  O  O46  1  0.133217  0.781741  0.729250  1
  O  O47  1  0.133217  0.218259  0.770750  1
  O  O48  1  0.196764  0.120360  0.544522  1
  O  O49  1  0.196764  0.879640  0.955478  1
  O  O50  1  0.218259  0.133217  0.979250  1
  O  O51  1  0.218259  0.866783  0.520750  1
  O  O52  1  0.223158  0.593600  0.834123  1
  O  O53  1  0.223158  0.406400  0.665877  1
  O  O54  1  0.282378  0.344624  0.290980  1
  O  O55  1  0.282378  0.655377  0.209020  1
  O  O56  1  0.344624  0.717622  0.040980  1
  O  O57  1  0.344624  0.282378  0.459020  1
  O  O58  1  0.359696  0.470186  0.091556  1
  O  O59  1  0.359696  0.529814  0.408444  1
  O  O60  1  0.366389  0.972225  0.076686  1
  O  O61  1  0.366389  0.027775  0.423314  1
  O  O62  1  0.406400  0.223158  0.084123  1
  O  O63  1  0.406400  0.776842  0.415877  1
  O  O64  1  0.470186  0.359696  0.658444  1
  O  O65  1  0.470186  0.640304  0.841556  1
  O  O66  1  0.529814  0.359696  0.341556  1
  O  O67  1  0.529814  0.640304  0.158444  1
  O  O68  1  0.593600  0.776842  0.584123  1
  O  O69  1  0.593600  0.223158  0.915877  1
  O  O70  1  0.633611  0.027775  0.576686  1
  O  O71  1  0.633611  0.972225  0.923314  1
  O  O72  1  0.640304  0.470186  0.908444  1
  O  O73  1  0.640304  0.529814  0.591556  1
  O  O74  1  0.655377  0.282378  0.540980  1
  O  O75  1  0.655377  0.717622  0.959020  1
  O  O76  1  0.717622  0.344624  0.709020  1
  O  O77  1  0.717622  0.655377  0.790980  1
  O  O78  1  0.776842  0.406400  0.334123  1
  O  O79  1  0.776842  0.593600  0.165877  1
  O  O80  1  0.781741  0.133217  0.020750  1
  O  O81  1  0.781741  0.866783  0.479250  1
  O  O82  1  0.803236  0.120360  0.455478  1
  O  O83  1  0.803236  0.879640  0.044522  1
  O  O84  1  0.866783  0.781741  0.270750  1
  O  O85  1  0.866783  0.218259  0.229250  1
  O  O86  1  0.879640  0.803236  0.705478  1
  O  O87  1  0.879640  0.196764  0.794522  1
  O  O88  1  0.965927  0.034073  0.125000  1
  O  O89  1  0.965927  0.965927  0.375000  1
  O  O90  1  0.972225  0.366389  0.673314  1
  O  O91  1  0.972225  0.633611  0.826686  1
