# generated using pymatgen
data_TmMoClO4
_symmetry_space_group_name_H-M   'P 1'
_cell_length_a   6.26139731
_cell_length_b   6.26139690
_cell_length_c   6.87600960
_cell_angle_alpha   75.76437517
_cell_angle_beta   75.76437603
_cell_angle_gamma   70.65584379
_symmetry_Int_Tables_number   1
_chemical_formula_structural   TmMoClO4
_chemical_formula_sum   'Tm2 Mo2 Cl2 O8'
_cell_volume   242.52680943
_cell_formula_units_Z   2
loop_
 _symmetry_equiv_pos_site_id
 _symmetry_equiv_pos_as_xyz
  1  'x, y, z'
loop_
 _atom_site_type_symbol
 _atom_site_label
 _atom_site_symmetry_multiplicity
 _atom_site_fract_x
 _atom_site_fract_y
 _atom_site_fract_z
 _atom_site_occupancy
  Tm  Tm0  1  0.221680  0.221680  0.887260  1
  Tm  Tm1  1  0.778320  0.778320  0.112740  1
  Mo  Mo2  1  0.637771  0.637771  0.730947  1
  Mo  Mo3  1  0.362229  0.362229  0.269053  1
  Cl  Cl4  1  0.010353  0.010353  0.231607  1
  Cl  Cl5  1  0.989647  0.989647  0.768393  1
  O  O6  1  0.293508  0.293508  0.537956  1
  O  O7  1  0.706492  0.706492  0.462044  1
  O  O8  1  0.492158  0.106252  0.153708  1
  O  O9  1  0.545038  0.545038  0.199633  1
  O  O10  1  0.893748  0.507842  0.846292  1
  O  O11  1  0.106252  0.492158  0.153708  1
  O  O12  1  0.454962  0.454962  0.800367  1
  O  O13  1  0.507842  0.893748  0.846292  1
