# generated using pymatgen
data_La10S14O
_symmetry_space_group_name_H-M   'P 1'
_cell_length_a   14.92933420
_cell_length_b   14.92933414
_cell_length_c   14.92933463
_cell_angle_alpha   93.63403914
_cell_angle_beta   117.92454045
_cell_angle_gamma   117.92453850
_symmetry_Int_Tables_number   1
_chemical_formula_structural   La10S14O
_chemical_formula_sum   'La40 S56 O4'
_cell_volume   2421.45911908
_cell_formula_units_Z   4
loop_
 _symmetry_equiv_pos_site_id
 _symmetry_equiv_pos_as_xyz
  1  'x, y, z'
loop_
 _atom_site_type_symbol
 _atom_site_label
 _atom_site_symmetry_multiplicity
 _atom_site_fract_x
 _atom_site_fract_y
 _atom_site_fract_z
 _atom_site_occupancy
  La  La0  1  0.600418  0.019012  0.674718  1
  La  La1  1  0.519247  0.509623  0.259623  1
  La  La2  1  0.155706  0.074300  0.174718  1
  La  La3  1  0.623873  0.314101  0.425514  1
  La  La4  1  0.155706  0.581406  0.980988  1
  La  La5  1  0.111413  0.425514  0.301641  1
  La  La6  1  0.376127  0.190228  0.801641  1
  La  La7  1  0.019247  0.759623  0.009623  1
  La  La8  1  0.750000  0.259623  0.240377  1
  La  La9  1  0.344294  0.519012  0.918594  1
  La  La10  1  0.100418  0.425700  0.581406  1
  La  La11  1  0.250000  0.740377  0.759623  1
  La  La12  1  0.376127  0.685899  0.574486  1
  La  La13  1  0.750000  0.990377  0.509623  1
  La  La14  1  0.655706  0.674718  0.574300  1
  La  La15  1  0.123873  0.925514  0.814101  1
  La  La16  1  0.388587  0.690228  0.314101  1
  La  La17  1  0.388587  0.198359  0.074486  1
  La  La18  1  0.980753  0.240377  0.990377  1
  La  La19  1  0.600418  0.081406  0.925700  1
  La  La20  1  0.876127  0.074486  0.185899  1
  La  La21  1  0.655706  0.480988  0.081406  1
  La  La22  1  0.899582  0.825282  0.480988  1
  La  La23  1  0.399582  0.980988  0.325282  1
  La  La24  1  0.876127  0.301641  0.690228  1
  La  La25  1  0.250000  0.009623  0.490377  1
  La  La26  1  0.844294  0.925700  0.825282  1
  La  La27  1  0.399582  0.918594  0.074300  1
  La  La28  1  0.611413  0.309772  0.685899  1
  La  La29  1  0.611413  0.801641  0.925514  1
  La  La30  1  0.888587  0.814101  0.190228  1
  La  La31  1  0.888587  0.574486  0.698359  1
  La  La32  1  0.480753  0.490377  0.740377  1
  La  La33  1  0.899582  0.574300  0.418594  1
  La  La34  1  0.844294  0.418594  0.019012  1
  La  La35  1  0.623873  0.809772  0.198359  1
  La  La36  1  0.111413  0.185899  0.809772  1
  La  La37  1  0.344294  0.325282  0.425700  1
  La  La38  1  0.100418  0.174718  0.519012  1
  La  La39  1  0.123873  0.698359  0.309772  1
  S  S40  1  0.647328  0.397328  0.250000  1
  S  S41  1  0.852672  0.250000  0.102672  1
  S  S42  1  0.084839  0.063910  0.334474  1
  S  S43  1  0.770564  0.020929  0.936090  1
  S  S44  1  0.907618  0.527370  0.885643  1
  S  S45  1  0.109230  0.242740  0.209979  1
  S  S46  1  0.415161  0.749635  0.979071  1
  S  S47  1  0.592382  0.614357  0.972630  1
  S  S48  1  0.915161  0.936090  0.665526  1
  S  S49  1  0.641727  0.114357  0.521975  1
  S  S50  1  0.358273  0.885643  0.478025  1
  S  S51  1  0.641727  0.027370  0.119752  1
  S  S52  1  0.467239  0.866490  0.757260  1
  S  S53  1  0.390770  0.600749  0.133510  1
  S  S54  1  0.609230  0.709979  0.742740  1
  S  S55  1  0.729436  0.665526  0.250365  1
  S  S56  1  0.852672  0.102672  0.750000  1
  S  S57  1  0.141727  0.619752  0.527370  1
  S  S58  1  0.147328  0.750000  0.897328  1
  S  S59  1  0.358273  0.972630  0.880248  1
  S  S60  1  0.109230  0.366490  0.899251  1
  S  S61  1  0.032761  0.790021  0.399251  1
  S  S62  1  0.584839  0.834474  0.563910  1
  S  S63  1  0.352672  0.250000  0.602672  1
  S  S64  1  0.270564  0.334474  0.749635  1
  S  S65  1  0.390770  0.290021  0.257260  1
  S  S66  1  0.084839  0.520929  0.750365  1
  S  S67  1  0.532761  0.899251  0.290021  1
  S  S68  1  0.032761  0.742740  0.633510  1
  S  S69  1  0.092382  0.119752  0.978025  1
  S  S70  1  0.858273  0.380248  0.472630  1
  S  S71  1  0.890770  0.633510  0.100749  1
  S  S72  1  0.770564  0.249635  0.834474  1
  S  S73  1  0.092382  0.472630  0.114357  1
  S  S74  1  0.147328  0.897328  0.250000  1
  S  S75  1  0.407618  0.385643  0.027370  1
  S  S76  1  0.609230  0.399251  0.866490  1
  S  S77  1  0.967239  0.209979  0.600749  1
  S  S78  1  0.907618  0.880248  0.021975  1
  S  S79  1  0.915161  0.479071  0.249635  1
  S  S80  1  0.729436  0.563910  0.479071  1
  S  S81  1  0.647328  0.750000  0.397328  1
  S  S82  1  0.141727  0.021975  0.614357  1
  S  S83  1  0.890770  0.757260  0.790021  1
  S  S84  1  0.967239  0.257260  0.366490  1
  S  S85  1  0.532761  0.133510  0.242740  1
  S  S86  1  0.584839  0.250365  0.020929  1
  S  S87  1  0.229436  0.979071  0.063910  1
  S  S88  1  0.415161  0.165526  0.436090  1
  S  S89  1  0.467239  0.100749  0.709979  1
  S  S90  1  0.352672  0.602672  0.750000  1
  S  S91  1  0.407618  0.521975  0.380248  1
  S  S92  1  0.592382  0.478025  0.619752  1
  S  S93  1  0.229436  0.750365  0.165526  1
  S  S94  1  0.858273  0.978025  0.385643  1
  S  S95  1  0.270564  0.436090  0.520929  1
  O  O96  1  0.750000  0.375000  0.625000  1
  O  O97  1  0.250000  0.125000  0.875000  1
  O  O98  1  0.750000  0.875000  0.125000  1
  O  O99  1  0.250000  0.625000  0.375000  1
