# generated using pymatgen
data_CsGa2P5O16
_symmetry_space_group_name_H-M   'P 1'
_cell_length_a   7.55859117
_cell_length_b   9.37008235
_cell_length_c   10.25082127
_cell_angle_alpha   90.00000000
_cell_angle_beta   110.75712527
_cell_angle_gamma   90.00000000
_symmetry_Int_Tables_number   1
_chemical_formula_structural   CsGa2P5O16
_chemical_formula_sum   'Cs2 Ga4 P10 O32'
_cell_volume   678.88602456
_cell_formula_units_Z   2
loop_
 _symmetry_equiv_pos_site_id
 _symmetry_equiv_pos_as_xyz
  1  'x, y, z'
loop_
 _atom_site_type_symbol
 _atom_site_label
 _atom_site_symmetry_multiplicity
 _atom_site_fract_x
 _atom_site_fract_y
 _atom_site_fract_z
 _atom_site_occupancy
  Cs  Cs0  1  0.754691  0.196003  0.735140  1
  Cs  Cs1  1  0.254691  0.803997  0.235140  1
  Ga  Ga2  1  0.712700  0.630943  0.627077  1
  Ga  Ga3  1  0.163113  0.138592  0.519607  1
  Ga  Ga4  1  0.212700  0.369057  0.127077  1
  Ga  Ga5  1  0.663113  0.861408  0.019607  1
  P  P6  1  0.857972  0.585349  0.961161  1
  P  P7  1  0.500083  0.544570  0.000569  1
  P  P8  1  0.924404  0.127011  0.187842  1
  P  P9  1  0.808784  0.703540  0.362038  1
  P  P10  1  0.424404  0.872989  0.687842  1
  P  P11  1  0.018441  0.860650  0.616880  1
  P  P12  1  0.000083  0.455430  0.500569  1
  P  P13  1  0.308784  0.296460  0.862038  1
  P  P14  1  0.518441  0.139350  0.116880  1
  P  P15  1  0.357972  0.414651  0.461161  1
  O  O16  1  0.716958  0.506594  0.029975  1
  O  O17  1  0.493119  0.216969  0.970118  1
  O  O18  1  0.848235  0.746143  0.981401  1
  O  O19  1  0.889114  0.544057  0.358023  1
  O  O20  1  0.049129  0.065466  0.328400  1
  O  O21  1  0.943516  0.518311  0.615047  1
  O  O22  1  0.264515  0.231309  0.722033  1
  O  O23  1  0.228178  0.819238  0.709323  1
  O  O24  1  0.389114  0.455943  0.858023  1
  O  O25  1  0.968613  0.297633  0.471532  1
  O  O26  1  0.443516  0.481689  0.115047  1
  O  O27  1  0.216958  0.493406  0.529975  1
  O  O28  1  0.549129  0.934534  0.828400  1
  O  O29  1  0.993119  0.783031  0.470118  1
  O  O30  1  0.554655  0.467208  0.546352  1
  O  O31  1  0.998407  0.020741  0.590254  1
  O  O32  1  0.468613  0.702367  0.971532  1
  O  O33  1  0.885328  0.801300  0.683111  1
  O  O34  1  0.385328  0.198700  0.183111  1
  O  O35  1  0.656850  0.701588  0.426392  1
  O  O36  1  0.348235  0.253857  0.481401  1
  O  O37  1  0.361353  0.988005  0.574217  1
  O  O38  1  0.001078  0.258548  0.139915  1
  O  O39  1  0.764515  0.768691  0.222033  1
  O  O40  1  0.284166  0.459924  0.308454  1
  O  O41  1  0.054655  0.532792  0.046352  1
  O  O42  1  0.501078  0.741452  0.639915  1
  O  O43  1  0.784166  0.540076  0.808454  1
  O  O44  1  0.498407  0.979259  0.090254  1
  O  O45  1  0.861353  0.011995  0.074217  1
  O  O46  1  0.728178  0.180762  0.209323  1
  O  O47  1  0.156850  0.298412  0.926392  1
