# generated using pymatgen
data_KVCdO4
_symmetry_space_group_name_H-M   'P 1'
_cell_length_a   5.82004704
_cell_length_b   15.15648258
_cell_length_c   20.24475303
_cell_angle_alpha   90.30077164
_cell_angle_beta   90.00000000
_cell_angle_gamma   90.00000000
_symmetry_Int_Tables_number   1
_chemical_formula_structural   KVCdO4
_chemical_formula_sum   'K16 V16 Cd16 O64'
_cell_volume   1785.79424353
_cell_formula_units_Z   16
loop_
 _symmetry_equiv_pos_site_id
 _symmetry_equiv_pos_as_xyz
  1  'x, y, z'
loop_
 _atom_site_type_symbol
 _atom_site_label
 _atom_site_symmetry_multiplicity
 _atom_site_fract_x
 _atom_site_fract_y
 _atom_site_fract_z
 _atom_site_occupancy
  K  K0  1  0.784409  0.751105  0.863701  1
  K  K1  1  0.782761  0.625503  0.205813  1
  K  K2  1  0.219045  0.247201  0.616314  1
  K  K3  1  0.719045  0.252799  0.883686  1
  K  K4  1  0.282761  0.874497  0.294187  1
  K  K5  1  0.717239  0.125503  0.705813  1
  K  K6  1  0.215591  0.248895  0.136299  1
  K  K7  1  0.785229  0.896182  0.043676  1
  K  K8  1  0.285229  0.603818  0.456324  1
  K  K9  1  0.280955  0.747201  0.116314  1
  K  K10  1  0.780955  0.752799  0.383686  1
  K  K11  1  0.714771  0.396182  0.543676  1
  K  K12  1  0.284409  0.748895  0.636299  1
  K  K13  1  0.217239  0.374497  0.794187  1
  K  K14  1  0.214771  0.103818  0.956324  1
  K  K15  1  0.715591  0.251105  0.363701  1
  V  V16  1  0.225613  0.885346  0.462655  1
  V  V17  1  0.775953  0.633631  0.542118  1
  V  V18  1  0.275953  0.866369  0.957882  1
  V  V19  1  0.224047  0.366369  0.457882  1
  V  V20  1  0.728548  0.387778  0.715599  1
  V  V21  1  0.742410  0.364491  0.207693  1
  V  V22  1  0.771452  0.887778  0.215599  1
  V  V23  1  0.774387  0.114654  0.537345  1
  V  V24  1  0.257590  0.635509  0.792307  1
  V  V25  1  0.228548  0.112222  0.784401  1
  V  V26  1  0.271452  0.612222  0.284401  1
  V  V27  1  0.757590  0.864491  0.707693  1
  V  V28  1  0.274387  0.385346  0.962655  1
  V  V29  1  0.725613  0.614654  0.037345  1
  V  V30  1  0.724047  0.133631  0.042118  1
  V  V31  1  0.242410  0.135509  0.292307  1
  Cd  Cd32  1  0.747262  0.509255  0.877352  1
  Cd  Cd33  1  0.233021  0.394493  0.302954  1
  Cd  Cd34  1  0.247262  0.990745  0.622648  1
  Cd  Cd35  1  0.733021  0.105507  0.197046  1
  Cd  Cd36  1  0.214845  0.607965  0.953807  1
  Cd  Cd37  1  0.751444  0.998893  0.871058  1
  Cd  Cd38  1  0.266979  0.894493  0.802954  1
  Cd  Cd39  1  0.714845  0.892035  0.546193  1
  Cd  Cd40  1  0.251444  0.501107  0.628942  1
  Cd  Cd41  1  0.766979  0.605507  0.697046  1
  Cd  Cd42  1  0.285155  0.107965  0.453807  1
  Cd  Cd43  1  0.785155  0.392035  0.046193  1
  Cd  Cd44  1  0.248556  0.001107  0.128942  1
  Cd  Cd45  1  0.752738  0.009255  0.377352  1
  Cd  Cd46  1  0.252738  0.490745  0.122648  1
  Cd  Cd47  1  0.748556  0.498893  0.371058  1
  O  O48  1  0.878316  0.905798  0.781177  1
  O  O49  1  0.756895  0.750773  0.708233  1
  O  O50  1  0.312308  0.592003  0.199432  1
  O  O51  1  0.034011  0.887410  0.172453  1
  O  O52  1  0.687165  0.088260  0.963386  1
  O  O53  1  0.027183  0.401334  0.199979  1
  O  O54  1  0.626065  0.791799  0.208089  1
  O  O55  1  0.520497  0.882352  0.908108  1
  O  O56  1  0.126065  0.708201  0.291911  1
  O  O57  1  0.952433  0.080201  0.081348  1
  O  O58  1  0.731056  0.214112  0.572822  1
  O  O59  1  0.178385  0.382904  0.046074  1
  O  O60  1  0.547567  0.580201  0.581348  1
  O  O61  1  0.075304  0.099667  0.359286  1
  O  O62  1  0.972817  0.598666  0.800021  1
  O  O63  1  0.243105  0.249227  0.291767  1
  O  O64  1  0.889352  0.536765  0.080712  1
  O  O65  1  0.812835  0.588260  0.463386  1
  O  O66  1  0.047567  0.919799  0.918652  1
  O  O67  1  0.187692  0.092003  0.699432  1
  O  O68  1  0.768944  0.714112  0.072822  1
  O  O69  1  0.873935  0.291799  0.708089  1
  O  O70  1  0.256895  0.749227  0.791767  1
  O  O71  1  0.590873  0.970836  0.181319  1
  O  O72  1  0.409127  0.029164  0.818681  1
  O  O73  1  0.965989  0.112590  0.827547  1
  O  O74  1  0.373935  0.208201  0.791911  1
  O  O75  1  0.465989  0.387410  0.672453  1
  O  O76  1  0.821615  0.617096  0.953926  1
  O  O77  1  0.071328  0.086022  0.543977  1
  O  O78  1  0.268944  0.785888  0.427178  1
  O  O79  1  0.090873  0.529164  0.318681  1
  O  O80  1  0.321615  0.882904  0.546074  1
  O  O81  1  0.312835  0.911740  0.036614  1
  O  O82  1  0.389352  0.963235  0.419288  1
  O  O83  1  0.282364  0.255401  0.465998  1
  O  O84  1  0.479503  0.117648  0.091892  1
  O  O85  1  0.217636  0.755401  0.965998  1
  O  O86  1  0.452433  0.419799  0.418652  1
  O  O87  1  0.378316  0.594202  0.718823  1
  O  O88  1  0.121684  0.094202  0.218823  1
  O  O89  1  0.678385  0.117096  0.453926  1
  O  O90  1  0.110648  0.463235  0.919288  1
  O  O91  1  0.909127  0.470836  0.681319  1
  O  O92  1  0.231056  0.285888  0.927178  1
  O  O93  1  0.743105  0.250773  0.208233  1
  O  O94  1  0.924696  0.900333  0.640714  1
  O  O95  1  0.472817  0.901334  0.699979  1
  O  O96  1  0.534011  0.612590  0.327547  1
  O  O97  1  0.812308  0.907997  0.300568  1
  O  O98  1  0.717636  0.744599  0.534002  1
  O  O99  1  0.527183  0.098666  0.300021  1
  O  O100  1  0.621684  0.405798  0.281177  1
  O  O101  1  0.020497  0.617648  0.591892  1
  O  O102  1  0.571328  0.413978  0.956023  1
  O  O103  1  0.979503  0.382352  0.408108  1
  O  O104  1  0.575304  0.400333  0.140714  1
  O  O105  1  0.187165  0.411740  0.536614  1
  O  O106  1  0.687692  0.407997  0.800568  1
  O  O107  1  0.610648  0.036765  0.580712  1
  O  O108  1  0.782364  0.244599  0.034002  1
  O  O109  1  0.928672  0.913978  0.456023  1
  O  O110  1  0.424696  0.599667  0.859286  1
  O  O111  1  0.428672  0.586022  0.043977  1
