# generated using pymatgen
data_Na2SrV3O9
_symmetry_space_group_name_H-M   'P 1'
_cell_length_a   5.51257397
_cell_length_b   10.25788006
_cell_length_c   15.21247961
_cell_angle_alpha   90.00000000
_cell_angle_beta   90.00000000
_cell_angle_gamma   97.74248492
_symmetry_Int_Tables_number   1
_chemical_formula_structural   Na2SrV3O9
_chemical_formula_sum   'Na8 Sr4 V12 O36'
_cell_volume   852.38281591
_cell_formula_units_Z   4
loop_
 _symmetry_equiv_pos_site_id
 _symmetry_equiv_pos_as_xyz
  1  'x, y, z'
loop_
 _atom_site_type_symbol
 _atom_site_label
 _atom_site_symmetry_multiplicity
 _atom_site_fract_x
 _atom_site_fract_y
 _atom_site_fract_z
 _atom_site_occupancy
  Na  Na0  1  0.234642  0.530511  0.291825  1
  Na  Na1  1  0.248416  0.977628  0.933385  1
  Na  Na2  1  0.234642  0.030511  0.208175  1
  Na  Na3  1  0.765358  0.969489  0.791825  1
  Na  Na4  1  0.751584  0.022372  0.066615  1
  Na  Na5  1  0.751584  0.522372  0.433385  1
  Na  Na6  1  0.248416  0.477628  0.566615  1
  Na  Na7  1  0.765358  0.469489  0.708175  1
  Sr  Sr8  1  0.740683  0.467935  0.113909  1
  Sr  Sr9  1  0.740683  0.967935  0.386091  1
  Sr  Sr10  1  0.259317  0.532065  0.886091  1
  Sr  Sr11  1  0.259317  0.032065  0.613909  1
  V  V12  1  0.290829  0.215534  0.400685  1
  V  V13  1  0.290829  0.715534  0.099315  1
  V  V14  1  0.788829  0.704497  0.952571  1
  V  V15  1  0.214490  0.255556  0.763284  1
  V  V16  1  0.709171  0.284466  0.900685  1
  V  V17  1  0.785510  0.744444  0.236716  1
  V  V18  1  0.214490  0.755556  0.736716  1
  V  V19  1  0.211171  0.795503  0.452571  1
  V  V20  1  0.788829  0.204497  0.547429  1
  V  V21  1  0.211171  0.295503  0.047429  1
  V  V22  1  0.785510  0.244444  0.263284  1
  V  V23  1  0.709171  0.784466  0.599315  1
  O  O24  1  0.345034  0.878686  0.089751  1
  O  O25  1  0.482803  0.842239  0.687304  1
  O  O26  1  0.250032  0.777966  0.847070  1
  O  O27  1  0.175489  0.129614  0.060338  1
  O  O28  1  0.969595  0.353897  0.984835  1
  O  O29  1  0.345034  0.378686  0.410249  1
  O  O30  1  0.654966  0.121314  0.910249  1
  O  O31  1  0.749968  0.222034  0.152930  1
  O  O32  1  0.030405  0.646103  0.015165  1
  O  O33  1  0.250258  0.888123  0.358774  1
  O  O34  1  0.749742  0.611877  0.858774  1
  O  O35  1  0.749742  0.111877  0.641226  1
  O  O36  1  0.250032  0.277966  0.652930  1
  O  O37  1  0.030405  0.146103  0.484835  1
  O  O38  1  0.517197  0.157761  0.312696  1
  O  O39  1  0.516655  0.649048  0.013786  1
  O  O40  1  0.654966  0.621314  0.589751  1
  O  O41  1  0.965843  0.329602  0.809055  1
  O  O42  1  0.482803  0.342239  0.812696  1
  O  O43  1  0.516655  0.149048  0.486214  1
  O  O44  1  0.810216  0.409838  0.282013  1
  O  O45  1  0.824511  0.870386  0.939662  1
  O  O46  1  0.189784  0.590162  0.717987  1
  O  O47  1  0.810216  0.909838  0.217987  1
  O  O48  1  0.483345  0.350952  0.986214  1
  O  O49  1  0.969595  0.853897  0.515165  1
  O  O50  1  0.175489  0.629614  0.439662  1
  O  O51  1  0.034157  0.170398  0.309055  1
  O  O52  1  0.250258  0.388123  0.141226  1
  O  O53  1  0.189784  0.090162  0.782013  1
  O  O54  1  0.034157  0.670398  0.190945  1
  O  O55  1  0.517197  0.657761  0.187304  1
  O  O56  1  0.824511  0.370385  0.560338  1
  O  O57  1  0.483345  0.850952  0.513786  1
  O  O58  1  0.749968  0.722034  0.347070  1
  O  O59  1  0.965843  0.829602  0.690945  1
