# generated using pymatgen
data_Nd4GeO8
_symmetry_space_group_name_H-M   'P 1'
_cell_length_a   5.78873833
_cell_length_b   7.52440033
_cell_length_c   18.22667558
_cell_angle_alpha   90.00000000
_cell_angle_beta   90.00000000
_cell_angle_gamma   90.00000000
_symmetry_Int_Tables_number   1
_chemical_formula_structural   Nd4GeO8
_chemical_formula_sum   'Nd16 Ge4 O32'
_cell_volume   793.89538222
_cell_formula_units_Z   4
loop_
 _symmetry_equiv_pos_site_id
 _symmetry_equiv_pos_as_xyz
  1  'x, y, z'
loop_
 _atom_site_type_symbol
 _atom_site_label
 _atom_site_symmetry_multiplicity
 _atom_site_fract_x
 _atom_site_fract_y
 _atom_site_fract_z
 _atom_site_occupancy
  Nd  Nd0  1  0.269538  0.740796  0.113924  1
  Nd  Nd1  1  0.708214  0.000000  0.794298  1
  Nd  Nd2  1  0.729319  0.000000  0.997262  1
  Nd  Nd3  1  0.773669  0.240841  0.409631  1
  Nd  Nd4  1  0.211146  0.500000  0.728871  1
  Nd  Nd5  1  0.226331  0.759159  0.909631  1
  Nd  Nd6  1  0.730462  0.259204  0.613924  1
  Nd  Nd7  1  0.226331  0.240841  0.909631  1
  Nd  Nd8  1  0.233843  0.500000  0.525978  1
  Nd  Nd9  1  0.730462  0.740796  0.613924  1
  Nd  Nd10  1  0.270681  0.000000  0.497262  1
  Nd  Nd11  1  0.788854  0.500000  0.228871  1
  Nd  Nd12  1  0.291786  0.000000  0.294298  1
  Nd  Nd13  1  0.269538  0.259204  0.113924  1
  Nd  Nd14  1  0.773669  0.759159  0.409631  1
  Nd  Nd15  1  0.766157  0.500000  0.025978  1
  Ge  Ge16  1  0.757985  0.000000  0.202641  1
  Ge  Ge17  1  0.740495  0.500000  0.820287  1
  Ge  Ge18  1  0.259505  0.500000  0.320287  1
  Ge  Ge19  1  0.242015  0.000000  0.702641  1
  O  O20  1  0.474808  0.500000  0.636879  1
  O  O21  1  0.445770  0.500000  0.850128  1
  O  O22  1  0.521575  0.000000  0.395460  1
  O  O23  1  0.676648  0.189590  0.255550  1
  O  O24  1  0.006145  0.230987  0.017598  1
  O  O25  1  0.478425  0.000000  0.895460  1
  O  O26  1  0.510791  0.268884  0.505854  1
  O  O27  1  0.942840  0.500000  0.895419  1
  O  O28  1  0.525192  0.500000  0.136879  1
  O  O29  1  0.489209  0.268884  0.005854  1
  O  O30  1  0.017599  0.500000  0.127698  1
  O  O31  1  0.323352  0.810410  0.755550  1
  O  O32  1  0.554421  0.000000  0.127831  1
  O  O33  1  0.971151  0.000000  0.886482  1
  O  O34  1  0.821965  0.689593  0.767396  1
  O  O35  1  0.993855  0.230987  0.517598  1
  O  O36  1  0.993855  0.769013  0.517598  1
  O  O37  1  0.676648  0.810410  0.255550  1
  O  O38  1  0.982401  0.500000  0.627698  1
  O  O39  1  0.323352  0.189590  0.755550  1
  O  O40  1  0.947290  0.000000  0.673259  1
  O  O41  1  0.489209  0.731116  0.005854  1
  O  O42  1  0.006145  0.769013  0.017598  1
  O  O43  1  0.178035  0.310407  0.267396  1
  O  O44  1  0.445579  0.000000  0.627831  1
  O  O45  1  0.028849  0.000000  0.386482  1
  O  O46  1  0.057160  0.500000  0.395419  1
  O  O47  1  0.178035  0.689593  0.267396  1
  O  O48  1  0.052710  0.000000  0.173259  1
  O  O49  1  0.510791  0.731116  0.505854  1
  O  O50  1  0.821965  0.310407  0.767396  1
  O  O51  1  0.554230  0.500000  0.350128  1
