# generated using pymatgen
data_LaH6Au3C6(N2O)3
_symmetry_space_group_name_H-M   'P 1'
_cell_length_a   6.80452504
_cell_length_b   6.80452478
_cell_length_c   18.79716464
_cell_angle_alpha   90.00000000
_cell_angle_beta   90.00000000
_cell_angle_gamma   120.00000129
_symmetry_Int_Tables_number   1
_chemical_formula_structural   LaH6Au3C6(N2O)3
_chemical_formula_sum   'La2 H12 Au6 C12 N12 O6'
_cell_volume   753.73483562
_cell_formula_units_Z   2
loop_
 _symmetry_equiv_pos_site_id
 _symmetry_equiv_pos_as_xyz
  1  'x, y, z'
loop_
 _atom_site_type_symbol
 _atom_site_label
 _atom_site_symmetry_multiplicity
 _atom_site_fract_x
 _atom_site_fract_y
 _atom_site_fract_z
 _atom_site_occupancy
  La  La0  1  0.000000  0.000000  0.250000  1
  La  La1  1  0.000000  0.000000  0.750000  1
  Au  Au2  1  0.500000  0.500000  0.000000  1
  Au  Au3  1  0.000000  0.500000  0.500000  1
  Au  Au4  1  0.500000  0.000000  0.500000  1
  Au  Au5  1  0.500000  0.000000  0.000000  1
  Au  Au6  1  0.000000  0.500000  0.000000  1
  Au  Au7  1  0.500000  0.500000  0.500000  1
  N  N8  1  0.275515  0.275515  0.147675  1
  N  N9  1  0.000000  0.275515  0.647675  1
  N  N10  1  0.275515  0.000000  0.647675  1
  N  N11  1  0.724485  0.000000  0.147675  1
  N  N12  1  1.000000  0.724485  0.147675  1
  N  N13  1  1.000000  0.724485  0.352325  1
  N  N14  1  0.724485  0.000000  0.352325  1
  N  N15  1  0.724485  0.724485  0.647675  1
  N  N16  1  0.275515  0.275515  0.352325  1
  N  N17  1  0.724485  0.724485  0.852325  1
  N  N18  1  0.000000  0.275515  0.852325  1
  N  N19  1  0.275515  0.000000  0.852325  1
  C  C20  1  0.359460  0.359460  0.093112  1
  C  C21  1  1.000000  0.359460  0.593112  1
  C  C22  1  0.359460  0.000000  0.593112  1
  C  C23  1  0.640540  0.000000  0.093112  1
  C  C24  1  0.000000  0.640540  0.093112  1
  C  C25  1  0.000000  0.640540  0.406888  1
  C  C26  1  0.640540  0.000000  0.406888  1
  C  C27  1  0.640540  0.640540  0.593112  1
  C  C28  1  0.359460  0.359460  0.406888  1
  C  C29  1  0.640540  0.640540  0.906888  1
  C  C30  1  1.000000  0.359460  0.906888  1
  C  C31  1  0.359460  0.000000  0.906888  1
  O  O32  1  0.373511  0.000000  0.250000  1
  O  O33  1  0.373511  0.373511  0.750000  1
  O  O34  1  1.000000  0.626489  0.750000  1
  O  O35  1  0.000000  0.373511  0.250000  1
  O  O36  1  0.626489  0.626489  0.250000  1
  O  O37  1  0.626489  0.000000  0.750000  1
  H  H38  1  0.460213  0.000000  0.291615  1
  H  H39  1  0.460213  0.460213  0.791615  1
  H  H40  1  0.000000  0.539787  0.791615  1
  H  H41  1  1.000000  0.460213  0.291615  1
  H  H42  1  0.539787  0.539787  0.291615  1
  H  H43  1  0.460213  0.000000  0.208385  1
  H  H44  1  0.539787  0.539787  0.208385  1
  H  H45  1  0.539787  0.000000  0.791615  1
  H  H46  1  1.000000  0.460213  0.208385  1
  H  H47  1  0.000000  0.539787  0.708385  1
  H  H48  1  0.539787  0.000000  0.708385  1
  H  H49  1  0.460213  0.460213  0.708385  1
