# generated using pymatgen
data_K3SnTe3
_symmetry_space_group_name_H-M   'P 1'
_cell_length_a   9.72807514
_cell_length_b   9.74877841
_cell_length_c   13.88324488
_cell_angle_alpha   90.00000000
_cell_angle_beta   90.00000000
_cell_angle_gamma   116.84423094
_symmetry_Int_Tables_number   1
_chemical_formula_structural   K3SnTe3
_chemical_formula_sum   'K12 Sn4 Te12'
_cell_volume   1174.75841667
_cell_formula_units_Z   4
loop_
 _symmetry_equiv_pos_site_id
 _symmetry_equiv_pos_as_xyz
  1  'x, y, z'
loop_
 _atom_site_type_symbol
 _atom_site_label
 _atom_site_symmetry_multiplicity
 _atom_site_fract_x
 _atom_site_fract_y
 _atom_site_fract_z
 _atom_site_occupancy
  K  K0  1  0.945136  0.796518  0.718195  1
  K  K1  1  0.054864  0.703482  0.218195  1
  K  K2  1  0.054864  0.203482  0.281805  1
  K  K3  1  0.945136  0.296518  0.781805  1
  K  K4  1  0.723748  0.206532  0.065409  1
  K  K5  1  0.276252  0.293468  0.565409  1
  K  K6  1  0.276252  0.793468  0.934591  1
  K  K7  1  0.723748  0.706532  0.434591  1
  K  K8  1  0.498363  0.010941  0.656808  1
  K  K9  1  0.501637  0.489059  0.156808  1
  K  K10  1  0.501637  0.989059  0.343192  1
  K  K11  1  0.498363  0.510941  0.843192  1
  Sn  Sn12  1  0.154522  0.123822  0.991744  1
  Sn  Sn13  1  0.845478  0.376178  0.491744  1
  Sn  Sn14  1  0.845478  0.876178  0.008256  1
  Sn  Sn15  1  0.154522  0.623822  0.508256  1
  Te  Te16  1  0.144382  0.400040  0.025030  1
  Te  Te17  1  0.855618  0.099960  0.525030  1
  Te  Te18  1  0.855618  0.599960  0.974970  1
  Te  Te19  1  0.144382  0.900040  0.474970  1
  Te  Te20  1  0.260825  0.117901  0.806905  1
  Te  Te21  1  0.739175  0.382099  0.306905  1
  Te  Te22  1  0.739175  0.882099  0.193095  1
  Te  Te23  1  0.260825  0.617901  0.693095  1
  Te  Te24  1  0.329275  0.074652  0.133720  1
  Te  Te25  1  0.670725  0.425348  0.633720  1
  Te  Te26  1  0.670725  0.925348  0.866280  1
  Te  Te27  1  0.329275  0.574652  0.366280  1
