# generated using pymatgen
data_Rb2HgPSe5
_symmetry_space_group_name_H-M   'P 1'
_cell_length_a   7.37690290
_cell_length_b   18.06491749
_cell_length_c   18.06491749
_cell_angle_alpha   90.00000000
_cell_angle_beta   90.00000000
_cell_angle_gamma   90.00000000
_symmetry_Int_Tables_number   1
_chemical_formula_structural   Rb2HgPSe5
_chemical_formula_sum   'Rb16 Hg8 P8 Se40'
_cell_volume   2407.38766867
_cell_formula_units_Z   8
loop_
 _symmetry_equiv_pos_site_id
 _symmetry_equiv_pos_as_xyz
  1  'x, y, z'
loop_
 _atom_site_type_symbol
 _atom_site_label
 _atom_site_symmetry_multiplicity
 _atom_site_fract_x
 _atom_site_fract_y
 _atom_site_fract_z
 _atom_site_occupancy
  Rb  Rb0  1  0.271820  0.423495  0.397326  1
  Rb  Rb1  1  0.235353  0.371319  0.661655  1
  Rb  Rb2  1  0.728180  0.923495  0.897326  1
  Rb  Rb3  1  0.735353  0.338345  0.871319  1
  Rb  Rb4  1  0.228180  0.397326  0.076505  1
  Rb  Rb5  1  0.764647  0.628681  0.338345  1
  Rb  Rb6  1  0.728180  0.576505  0.602674  1
  Rb  Rb7  1  0.235353  0.128681  0.838345  1
  Rb  Rb8  1  0.264647  0.661655  0.128681  1
  Rb  Rb9  1  0.735353  0.161655  0.628681  1
  Rb  Rb10  1  0.771820  0.602674  0.923495  1
  Rb  Rb11  1  0.764647  0.871319  0.161655  1
  Rb  Rb12  1  0.271820  0.076505  0.102674  1
  Rb  Rb13  1  0.264647  0.838345  0.371319  1
  Rb  Rb14  1  0.228180  0.102674  0.423495  1
  Rb  Rb15  1  0.771820  0.897326  0.576505  1
  Hg  Hg16  1  0.724186  0.187790  0.380163  1
  Hg  Hg17  1  0.724186  0.312210  0.119837  1
  Hg  Hg18  1  0.224186  0.880163  0.812210  1
  Hg  Hg19  1  0.224186  0.619837  0.687790  1
  Hg  Hg20  1  0.275814  0.687790  0.880163  1
  Hg  Hg21  1  0.775814  0.119837  0.187790  1
  Hg  Hg22  1  0.275814  0.812210  0.619837  1
  Hg  Hg23  1  0.775814  0.380163  0.312210  1
  P  P24  1  0.768753  0.156084  0.981784  1
  P  P25  1  0.768753  0.343916  0.518216  1
  P  P26  1  0.731247  0.981784  0.343916  1
  P  P27  1  0.268753  0.018216  0.656084  1
  P  P28  1  0.231247  0.843916  0.018216  1
  P  P29  1  0.231247  0.656084  0.481784  1
  P  P30  1  0.268753  0.481784  0.843916  1
  P  P31  1  0.731247  0.518216  0.156084  1
  Se  Se32  1  0.461501  0.730298  0.516111  1
  Se  Se33  1  0.255252  0.554295  0.946396  1
  Se  Se34  1  0.744748  0.445705  0.053604  1
  Se  Se35  1  0.990059  0.739527  0.682729  1
  Se  Se36  1  0.490059  0.317271  0.239527  1
  Se  Se37  1  0.538499  0.269702  0.483889  1
  Se  Se38  1  0.509941  0.817271  0.739527  1
  Se  Se39  1  0.967809  0.787816  0.003841  1
  Se  Se40  1  0.222055  0.133769  0.621752  1
  Se  Se41  1  0.990059  0.760473  0.817271  1
  Se  Se42  1  0.277945  0.621752  0.366231  1
  Se  Se43  1  0.467809  0.996159  0.287816  1
  Se  Se44  1  0.038499  0.516111  0.769702  1
  Se  Se45  1  0.467809  0.503841  0.212184  1
  Se  Se46  1  0.961501  0.016111  0.269702  1
  Se  Se47  1  0.490059  0.182729  0.260473  1
  Se  Se48  1  0.009941  0.260473  0.317271  1
  Se  Se49  1  0.967809  0.712184  0.496159  1
  Se  Se50  1  0.755252  0.053604  0.054295  1
  Se  Se51  1  0.277945  0.878248  0.133769  1
  Se  Se52  1  0.777945  0.866231  0.378248  1
  Se  Se53  1  0.222055  0.366231  0.878248  1
  Se  Se54  1  0.532191  0.496159  0.787816  1
  Se  Se55  1  0.509941  0.682729  0.760473  1
  Se  Se56  1  0.038499  0.983889  0.730298  1
  Se  Se57  1  0.032191  0.212184  0.996159  1
  Se  Se58  1  0.032191  0.287816  0.503841  1
  Se  Se59  1  0.961501  0.483889  0.230298  1
  Se  Se60  1  0.744748  0.054295  0.446396  1
  Se  Se61  1  0.244748  0.946396  0.945705  1
  Se  Se62  1  0.532191  0.003841  0.712184  1
  Se  Se63  1  0.722055  0.378248  0.633769  1
  Se  Se64  1  0.755252  0.446396  0.445705  1
  Se  Se65  1  0.009941  0.239527  0.182729  1
  Se  Se66  1  0.722055  0.121752  0.866231  1
  Se  Se67  1  0.461501  0.769702  0.983889  1
  Se  Se68  1  0.255252  0.945705  0.553604  1
  Se  Se69  1  0.538499  0.230298  0.016111  1
  Se  Se70  1  0.777945  0.633769  0.121752  1
  Se  Se71  1  0.244748  0.553604  0.554295  1
