# generated using pymatgen
data_La8C8Cl5
_symmetry_space_group_name_H-M   'P 1'
_cell_length_a   6.92159008
_cell_length_b   7.82375582
_cell_length_c   17.17868301
_cell_angle_alpha   90.00000000
_cell_angle_beta   90.00000000
_cell_angle_gamma   104.31555104
_symmetry_Int_Tables_number   1
_chemical_formula_structural   La8C8Cl5
_chemical_formula_sum   'La16 C16 Cl10'
_cell_volume   901.38804465
_cell_formula_units_Z   2
loop_
 _symmetry_equiv_pos_site_id
 _symmetry_equiv_pos_as_xyz
  1  'x, y, z'
loop_
 _atom_site_type_symbol
 _atom_site_label
 _atom_site_symmetry_multiplicity
 _atom_site_fract_x
 _atom_site_fract_y
 _atom_site_fract_z
 _atom_site_occupancy
  La  La0  1  0.392263  0.705749  0.825634  1
  La  La1  1  0.375999  0.843434  0.069046  1
  La  La2  1  0.125359  0.086155  0.805687  1
  La  La3  1  0.118119  0.224886  0.050467  1
  La  La4  1  0.607737  0.294251  0.174366  1
  La  La5  1  0.374641  0.913845  0.305687  1
  La  La6  1  0.624001  0.156566  0.930954  1
  La  La7  1  0.874641  0.913845  0.194313  1
  La  La8  1  0.625359  0.086155  0.694313  1
  La  La9  1  0.881881  0.775114  0.949533  1
  La  La10  1  0.618119  0.224886  0.449533  1
  La  La11  1  0.875999  0.843434  0.430954  1
  La  La12  1  0.892263  0.705749  0.674366  1
  La  La13  1  0.381881  0.775114  0.550467  1
  La  La14  1  0.124001  0.156566  0.569046  1
  La  La15  1  0.107737  0.294251  0.325634  1
  C  C16  1  0.232788  0.958824  0.659881  1
  C  C17  1  0.278104  0.907186  0.913809  1
  C  C18  1  0.721896  0.092814  0.086191  1
  C  C19  1  0.767212  0.041176  0.340119  1
  C  C20  1  0.732788  0.958824  0.840119  1
  C  C21  1  0.778104  0.907186  0.586191  1
  C  C22  1  0.221896  0.092814  0.413809  1
  C  C23  1  0.221564  0.022401  0.962214  1
  C  C24  1  0.278436  0.977599  0.462214  1
  C  C25  1  0.267212  0.041176  0.159881  1
  C  C26  1  0.281605  0.854426  0.715634  1
  C  C27  1  0.718395  0.145574  0.284366  1
  C  C28  1  0.781605  0.854426  0.784366  1
  C  C29  1  0.778436  0.977599  0.037786  1
  C  C30  1  0.218395  0.145574  0.215634  1
  C  C31  1  0.721564  0.022401  0.537786  1
  Cl  Cl32  1  0.476172  0.584204  0.403276  1
  Cl  Cl33  1  0.023828  0.415796  0.903276  1
  Cl  Cl34  1  0.525522  0.360622  0.797480  1
  Cl  Cl35  1  0.523829  0.415796  0.596724  1
  Cl  Cl36  1  0.976171  0.584204  0.096724  1
  Cl  Cl37  1  0.474478  0.639378  0.202520  1
  Cl  Cl38  1  0.000000  0.500000  0.500000  1
  Cl  Cl39  1  0.974478  0.639378  0.297480  1
  Cl  Cl40  1  0.025522  0.360622  0.702520  1
  Cl  Cl41  1  0.500000  0.500000  0.000000  1
