# generated using pymatgen
data_Ce10S14O
_symmetry_space_group_name_H-M   'P 1'
_cell_length_a   14.60678960
_cell_length_b   14.60678962
_cell_length_c   14.60678993
_cell_angle_alpha   93.52112495
_cell_angle_beta   117.98833148
_cell_angle_gamma   117.98833068
_symmetry_Int_Tables_number   1
_chemical_formula_structural   Ce10S14O
_chemical_formula_sum   'Ce40 S56 O4'
_cell_volume   2266.06117581
_cell_formula_units_Z   4
loop_
 _symmetry_equiv_pos_site_id
 _symmetry_equiv_pos_as_xyz
  1  'x, y, z'
loop_
 _atom_site_type_symbol
 _atom_site_label
 _atom_site_symmetry_multiplicity
 _atom_site_fract_x
 _atom_site_fract_y
 _atom_site_fract_z
 _atom_site_occupancy
  Ce  Ce0  1  0.899303  0.575963  0.418524  1
  Ce  Ce1  1  0.376425  0.190215  0.801050  1
  Ce  Ce2  1  0.157439  0.581476  0.980779  1
  Ce  Ce3  1  0.342561  0.519221  0.918524  1
  Ce  Ce4  1  0.978830  0.239415  0.989415  1
  Ce  Ce5  1  0.889165  0.575374  0.698950  1
  Ce  Ce6  1  0.100697  0.424037  0.581476  1
  Ce  Ce7  1  0.157439  0.075963  0.176660  1
  Ce  Ce8  1  0.657439  0.676660  0.575963  1
  Ce  Ce9  1  0.657439  0.480779  0.081476  1
  Ce  Ce10  1  0.100697  0.176660  0.519221  1
  Ce  Ce11  1  0.600697  0.019221  0.676660  1
  Ce  Ce12  1  0.110835  0.186210  0.809785  1
  Ce  Ce13  1  0.123575  0.698950  0.309785  1
  Ce  Ce14  1  0.342561  0.323340  0.424037  1
  Ce  Ce15  1  0.521170  0.510585  0.260585  1
  Ce  Ce16  1  0.389165  0.198950  0.075374  1
  Ce  Ce17  1  0.376425  0.686210  0.575374  1
  Ce  Ce18  1  0.889165  0.813790  0.190215  1
  Ce  Ce19  1  0.250000  0.739415  0.760585  1
  Ce  Ce20  1  0.750000  0.260585  0.239415  1
  Ce  Ce21  1  0.250000  0.010585  0.489415  1
  Ce  Ce22  1  0.876425  0.075374  0.186210  1
  Ce  Ce23  1  0.876425  0.301050  0.690215  1
  Ce  Ce24  1  0.478830  0.489415  0.739415  1
  Ce  Ce25  1  0.389165  0.690215  0.313790  1
  Ce  Ce26  1  0.600697  0.081476  0.924037  1
  Ce  Ce27  1  0.842561  0.418524  0.019221  1
  Ce  Ce28  1  0.021170  0.760585  0.010585  1
  Ce  Ce29  1  0.399303  0.918524  0.075963  1
  Ce  Ce30  1  0.610835  0.309785  0.686210  1
  Ce  Ce31  1  0.123575  0.924626  0.813790  1
  Ce  Ce32  1  0.623575  0.313790  0.424626  1
  Ce  Ce33  1  0.110835  0.424626  0.301050  1
  Ce  Ce34  1  0.399303  0.980779  0.323340  1
  Ce  Ce35  1  0.623575  0.809785  0.198950  1
  Ce  Ce36  1  0.899303  0.823340  0.480779  1
  Ce  Ce37  1  0.610835  0.801050  0.924626  1
  Ce  Ce38  1  0.842561  0.924037  0.823340  1
  Ce  Ce39  1  0.750000  0.989415  0.510585  1
  S  S40  1  0.415509  0.165107  0.436108  1
  S  S41  1  0.584491  0.249598  0.020599  1
  S  S42  1  0.109804  0.366407  0.899902  1
  S  S43  1  0.646898  0.396898  0.250000  1
  S  S44  1  0.906254  0.527458  0.885353  1
  S  S45  1  0.466505  0.866407  0.756603  1
  S  S46  1  0.390196  0.290097  0.256603  1
  S  S47  1  0.609804  0.399902  0.866407  1
  S  S48  1  0.966505  0.209903  0.600098  1
  S  S49  1  0.084491  0.063892  0.334893  1
  S  S50  1  0.353102  0.603102  0.750000  1
  S  S51  1  0.033495  0.790097  0.399902  1
  S  S52  1  0.093746  0.472542  0.114647  1
  S  S53  1  0.853102  0.250000  0.103102  1
  S  S54  1  0.890196  0.633593  0.100099  1
  S  S55  1  0.646898  0.750000  0.396898  1
  S  S56  1  0.642105  0.027458  0.121204  1
  S  S57  1  0.406254  0.385353  0.027458  1
  S  S58  1  0.415509  0.750402  0.979401  1
  S  S59  1  0.533495  0.899902  0.290097  1
  S  S60  1  0.357895  0.972542  0.878796  1
  S  S61  1  0.142105  0.020901  0.614647  1
  S  S62  1  0.406254  0.520901  0.378796  1
  S  S63  1  0.228998  0.979401  0.063892  1
  S  S64  1  0.357895  0.885353  0.479099  1
  S  S65  1  0.853102  0.103102  0.750000  1
  S  S66  1  0.271002  0.436108  0.520599  1
  S  S67  1  0.146898  0.750000  0.896898  1
  S  S68  1  0.093746  0.121204  0.979099  1
  S  S69  1  0.109804  0.243397  0.209903  1
  S  S70  1  0.915509  0.479401  0.250402  1
  S  S71  1  0.966505  0.256603  0.366407  1
  S  S72  1  0.353102  0.250000  0.603102  1
  S  S73  1  0.146898  0.896898  0.250000  1
  S  S74  1  0.728998  0.665107  0.249598  1
  S  S75  1  0.642105  0.114647  0.520901  1
  S  S76  1  0.728998  0.563892  0.479401  1
  S  S77  1  0.906254  0.878796  0.020901  1
  S  S78  1  0.033495  0.743397  0.633593  1
  S  S79  1  0.857895  0.979099  0.385353  1
  S  S80  1  0.533495  0.133593  0.243397  1
  S  S81  1  0.890196  0.756603  0.790097  1
  S  S82  1  0.771002  0.020599  0.936108  1
  S  S83  1  0.228998  0.749598  0.165107  1
  S  S84  1  0.593746  0.614647  0.972542  1
  S  S85  1  0.609804  0.709903  0.743397  1
  S  S86  1  0.390196  0.600098  0.133593  1
  S  S87  1  0.771002  0.250402  0.834893  1
  S  S88  1  0.593746  0.479099  0.621204  1
  S  S89  1  0.142105  0.621204  0.527458  1
  S  S90  1  0.857895  0.378796  0.472542  1
  S  S91  1  0.584491  0.834893  0.563892  1
  S  S92  1  0.271002  0.334893  0.750402  1
  S  S93  1  0.466505  0.100099  0.709903  1
  S  S94  1  0.084491  0.520599  0.749598  1
  S  S95  1  0.915509  0.936108  0.665107  1
  O  O96  1  0.750000  0.875000  0.125000  1
  O  O97  1  0.250000  0.125000  0.875000  1
  O  O98  1  0.750000  0.375000  0.625000  1
  O  O99  1  0.250000  0.625000  0.375000  1
