# generated using pymatgen
data_KAg(CN)2
_symmetry_space_group_name_H-M   'P 1'
_cell_length_a   7.57421098
_cell_length_b   7.57421101
_cell_length_c   17.69036055
_cell_angle_alpha   90.00000000
_cell_angle_beta   90.00000000
_cell_angle_gamma   119.99999986
_symmetry_Int_Tables_number   1
_chemical_formula_structural   KAg(CN)2
_chemical_formula_sum   'K6 Ag6 C12 N12'
_cell_volume   878.90536422
_cell_formula_units_Z   6
loop_
 _symmetry_equiv_pos_site_id
 _symmetry_equiv_pos_as_xyz
  1  'x, y, z'
loop_
 _atom_site_type_symbol
 _atom_site_label
 _atom_site_symmetry_multiplicity
 _atom_site_fract_x
 _atom_site_fract_y
 _atom_site_fract_z
 _atom_site_occupancy
  K  K0  1  0.333333  0.666667  0.996706  1
  K  K1  1  0.666667  0.333333  0.003294  1
  K  K2  1  0.666667  0.333333  0.496706  1
  K  K3  1  0.333333  0.666667  0.503294  1
  K  K4  1  0.000000  0.000000  0.000000  1
  K  K5  1  0.000000  0.000000  0.500000  1
  Ag  Ag6  1  0.166790  0.833210  0.250000  1
  Ag  Ag7  1  0.333580  0.166790  0.750000  1
  Ag  Ag8  1  0.833210  0.166790  0.750000  1
  Ag  Ag9  1  0.833210  0.666420  0.750000  1
  Ag  Ag10  1  0.666420  0.833210  0.250000  1
  Ag  Ag11  1  0.166790  0.333580  0.250000  1
  C  C12  1  0.946461  0.667871  0.855545  1
  C  C13  1  0.946461  0.278590  0.644455  1
  C  C14  1  0.667871  0.721410  0.144455  1
  C  C15  1  0.053539  0.332129  0.144455  1
  C  C16  1  0.721410  0.667871  0.644455  1
  C  C17  1  0.721410  0.053539  0.855545  1
  C  C18  1  0.332129  0.278590  0.855545  1
  C  C19  1  0.667871  0.946461  0.355545  1
  C  C20  1  0.278590  0.946461  0.144455  1
  C  C21  1  0.332129  0.053539  0.644455  1
  C  C22  1  0.278590  0.332129  0.355545  1
  C  C23  1  0.053539  0.721410  0.355545  1
  N  N24  1  0.669836  0.006432  0.416970  1
  N  N25  1  0.006432  0.669836  0.916970  1
  N  N26  1  0.336597  0.006432  0.083030  1
  N  N27  1  0.669836  0.663403  0.083030  1
  N  N28  1  0.993568  0.330164  0.083030  1
  N  N29  1  0.993568  0.663403  0.416970  1
  N  N30  1  0.336597  0.330164  0.416970  1
  N  N31  1  0.330164  0.993568  0.583030  1
  N  N32  1  0.663403  0.993568  0.916970  1
  N  N33  1  0.006432  0.336597  0.583030  1
  N  N34  1  0.663403  0.669836  0.583030  1
  N  N35  1  0.330164  0.336597  0.916970  1
