# generated using pymatgen
data_CSNO2F3
_symmetry_space_group_name_H-M   'P 1'
_cell_length_a   5.29654016
_cell_length_b   16.46719321
_cell_length_c   17.26873405
_cell_angle_alpha   90.00000000
_cell_angle_beta   95.73799263
_cell_angle_gamma   90.00000000
_symmetry_Int_Tables_number   1
_chemical_formula_structural   CSNO2F3
_chemical_formula_sum   'C12 S12 N12 O24 F36'
_cell_volume   1498.61766033
_cell_formula_units_Z   12
loop_
 _symmetry_equiv_pos_site_id
 _symmetry_equiv_pos_as_xyz
  1  'x, y, z'
loop_
 _atom_site_type_symbol
 _atom_site_label
 _atom_site_symmetry_multiplicity
 _atom_site_fract_x
 _atom_site_fract_y
 _atom_site_fract_z
 _atom_site_occupancy
  C  C0  1  0.513800  0.592867  0.181509  1
  C  C1  1  0.653518  0.328503  0.416987  1
  C  C2  1  0.486200  0.092867  0.318491  1
  C  C3  1  0.081063  0.459316  0.297551  1
  C  C4  1  0.346482  0.671497  0.583013  1
  C  C5  1  0.653518  0.171497  0.916987  1
  C  C6  1  0.081063  0.040684  0.797551  1
  C  C7  1  0.486200  0.407133  0.818491  1
  C  C8  1  0.513800  0.907133  0.681509  1
  C  C9  1  0.346482  0.828503  0.083013  1
  C  C10  1  0.918937  0.959316  0.202449  1
  C  C11  1  0.918937  0.540684  0.702449  1
  S  S12  1  0.209656  0.393898  0.929591  1
  S  S13  1  0.031617  0.850661  0.304794  1
  S  S14  1  0.600093  0.844920  0.966744  1
  S  S15  1  0.399907  0.344920  0.533256  1
  S  S16  1  0.790344  0.606102  0.070409  1
  S  S17  1  0.399907  0.155080  0.033256  1
  S  S18  1  0.790344  0.893898  0.570409  1
  S  S19  1  0.968383  0.149339  0.695206  1
  S  S20  1  0.031617  0.649339  0.804794  1
  S  S21  1  0.968383  0.350661  0.195206  1
  S  S22  1  0.600093  0.655080  0.466744  1
  S  S23  1  0.209656  0.106102  0.429591  1
  N  N24  1  0.536543  0.697690  0.539714  1
  N  N25  1  0.721087  0.873530  0.650405  1
  N  N26  1  0.721087  0.626470  0.150405  1
  N  N27  1  0.463458  0.302310  0.460286  1
  N  N28  1  0.088544  0.574295  0.760057  1
  N  N29  1  0.278913  0.126470  0.349595  1
  N  N30  1  0.911456  0.425705  0.239943  1
  N  N31  1  0.278913  0.373530  0.849595  1
  N  N32  1  0.536543  0.802310  0.039714  1
  N  N33  1  0.911456  0.074295  0.739943  1
  N  N34  1  0.088544  0.925705  0.260057  1
  N  N35  1  0.463458  0.197690  0.960286  1
  O  O36  1  0.217087  0.191718  0.076092  1
  O  O37  1  0.223964  0.679470  0.859892  1
  O  O38  1  0.809110  0.118509  0.928046  1
  O  O39  1  0.362683  0.542595  0.155804  1
  O  O40  1  0.190890  0.618509  0.571954  1
  O  O41  1  0.782913  0.691718  0.423908  1
  O  O42  1  0.776036  0.179470  0.640108  1
  O  O43  1  -0.004387  0.852530  0.542067  1
  O  O44  1  0.713837  0.936822  0.174622  1
  O  O45  1  0.782913  0.808282  0.923908  1
  O  O46  1  0.286163  0.436822  0.325378  1
  O  O47  1  -0.004387  0.647470  0.042067  1
  O  O48  1  0.776036  0.320530  0.140108  1
  O  O49  1  1.004387  0.352530  0.957933  1
  O  O50  1  0.190890  0.881491  0.071954  1
  O  O51  1  0.809110  0.381491  0.428046  1
  O  O52  1  0.217087  0.308282  0.576092  1
  O  O53  1  0.223964  0.820530  0.359892  1
  O  O54  1  0.637316  0.457405  0.844196  1
  O  O55  1  0.637316  0.042595  0.344196  1
  O  O56  1  0.286163  0.063178  0.825378  1
  O  O57  1  1.004387  0.147470  0.457933  1
  O  O58  1  0.362683  0.957405  0.655804  1
  O  O59  1  0.713837  0.563178  0.674622  1
  F  F60  1  0.553748  0.610534  0.007710  1
  F  F61  1  0.497616  0.872415  0.752147  1
  F  F62  1  0.497616  0.627585  0.252147  1
  F  F63  1  0.974909  0.970797  0.821299  1
  F  F64  1  0.927410  0.720433  0.749996  1
  F  F65  1  0.446252  0.110534  0.492290  1
  F  F66  1  0.326028  0.064369  0.016354  1
  F  F67  1  0.219750  0.361406  0.154802  1
  F  F68  1  0.072590  0.220433  0.750004  1
  F  F69  1  0.354980  0.864386  0.911215  1
  F  F70  1  0.351920  0.720445  0.647276  1
  F  F71  1  0.648080  0.220445  0.852724  1
  F  F72  1  0.219750  0.138594  0.654802  1
  F  F73  1  0.829687  0.988346  0.561049  1
  F  F74  1  0.025091  0.470797  0.678701  1
  F  F75  1  0.645020  0.135614  0.088785  1
  F  F76  1  0.354980  0.635614  0.411215  1
  F  F77  1  0.673972  0.935631  0.983646  1
  F  F78  1  0.553748  0.889466  0.507710  1
  F  F79  1  0.170313  0.011654  0.438951  1
  F  F80  1  0.502384  0.372415  0.747853  1
  F  F81  1  0.446252  0.389466  0.992290  1
  F  F82  1  0.072590  0.279567  0.250004  1
  F  F83  1  0.025091  0.029203  0.178701  1
  F  F84  1  0.974909  0.529203  0.321299  1
  F  F85  1  0.780250  0.861406  0.345198  1
  F  F86  1  0.502384  0.127585  0.247853  1
  F  F87  1  0.645020  0.364386  0.588785  1
  F  F88  1  0.326028  0.435631  0.516354  1
  F  F89  1  0.927410  0.779567  0.249996  1
  F  F90  1  0.673972  0.564369  0.483646  1
  F  F91  1  0.648080  0.279555  0.352724  1
  F  F92  1  0.170313  0.488346  0.938951  1
  F  F93  1  0.829687  0.511654  0.061049  1
  F  F94  1  0.780250  0.638594  0.845198  1
  F  F95  1  0.351920  0.779555  0.147276  1
