# generated using pymatgen
data_Mn3Se3O10
_symmetry_space_group_name_H-M   'P 1'
_cell_length_a   6.80212493
_cell_length_b   8.74694610
_cell_length_c   9.84325880
_cell_angle_alpha   64.33231583
_cell_angle_beta   69.78633637
_cell_angle_gamma   67.11837561
_symmetry_Int_Tables_number   1
_chemical_formula_structural   Mn3Se3O10
_chemical_formula_sum   'Mn6 Se6 O20'
_cell_volume   475.13485622
_cell_formula_units_Z   2
loop_
 _symmetry_equiv_pos_site_id
 _symmetry_equiv_pos_as_xyz
  1  'x, y, z'
loop_
 _atom_site_type_symbol
 _atom_site_label
 _atom_site_symmetry_multiplicity
 _atom_site_fract_x
 _atom_site_fract_y
 _atom_site_fract_z
 _atom_site_occupancy
  O  O0  1  0.692575  0.599791  0.015058  1
  O  O1  1  0.307425  0.400209  0.984942  1
  O  O2  1  0.783804  0.084202  0.348191  1
  O  O3  1  0.216196  0.915798  0.651810  1
  O  O4  1  0.249183  0.172126  0.329509  1
  O  O5  1  0.750816  0.827874  0.670491  1
  O  O6  1  0.516974  0.106346  0.859706  1
  O  O7  1  0.483028  0.893654  0.140293  1
  O  O8  1  0.332927  0.806425  0.919051  1
  O  O9  1  0.058405  0.193575  0.080948  1
  O  O10  1  0.667072  0.193575  0.080948  1
  O  O11  1  0.941595  0.806425  0.919052  1
  O  O12  1  0.196387  0.797950  0.408078  1
  O  O13  1  0.402415  0.202050  0.591922  1
  O  O14  1  0.803613  0.202050  0.591922  1
  O  O15  1  0.597585  0.797950  0.408079  1
  O  O16  1  0.351121  0.485418  0.214240  1
  O  O17  1  0.648879  0.514582  0.785760  1
  O  O18  1  0.050777  0.514582  0.785760  1
  O  O19  1  0.949223  0.485418  0.214239  1
  Mn  Mn20  1  0.500000  0.000001  0.500000  1
  Mn  Mn21  1  0.000000  0.000001  0.500000  1
  Mn  Mn22  1  0.382845  0.149549  0.084759  1
  Mn  Mn23  1  0.617155  0.850451  0.915240  1
  Mn  Mn24  1  0.500001  0.499999  0.000000  1
  Mn  Mn25  1  0.000001  0.499999  0.000000  1
  Se  Se26  1  0.468700  0.729915  0.332684  1
  Se  Se27  1  0.531300  0.270085  0.667315  1
  Se  Se28  1  0.139502  0.394039  0.326957  1
  Se  Se29  1  0.860498  0.605961  0.673042  1
  Se  Se30  1  0.113726  0.943178  0.829371  1
  Se  Se31  1  0.886274  0.056822  0.170629  1
