# generated using pymatgen
data_CsTmP4(H2O3)6
_symmetry_space_group_name_H-M   'P 1'
_cell_length_a   7.60735857
_cell_length_b   7.60735793
_cell_length_c   15.15911644
_cell_angle_alpha   90.74073530
_cell_angle_beta   90.74073525
_cell_angle_gamma   109.92415881
_symmetry_Int_Tables_number   1
_chemical_formula_structural   CsTmP4(H2O3)6
_chemical_formula_sum   'Cs2 Tm2 P8 H24 O36'
_cell_volume   824.56731081
_cell_formula_units_Z   2
loop_
 _symmetry_equiv_pos_site_id
 _symmetry_equiv_pos_as_xyz
  1  'x, y, z'
loop_
 _atom_site_type_symbol
 _atom_site_label
 _atom_site_symmetry_multiplicity
 _atom_site_fract_x
 _atom_site_fract_y
 _atom_site_fract_z
 _atom_site_occupancy
  Tm  Tm0  1  0.894156  0.105844  0.750000  1
  Tm  Tm1  1  0.105844  0.894156  0.250000  1
  Cs  Cs2  1  0.536658  0.463342  0.750000  1
  Cs  Cs3  1  0.463342  0.536658  0.250000  1
  P  P4  1  0.210154  0.037371  0.586305  1
  P  P5  1  0.962629  0.789846  0.913695  1
  P  P6  1  0.789846  0.962629  0.413695  1
  P  P7  1  0.037371  0.210154  0.086305  1
  P  P8  1  0.243693  0.167392  0.926135  1
  P  P9  1  0.832608  0.756307  0.573865  1
  P  P10  1  0.756307  0.832608  0.073865  1
  P  P11  1  0.167392  0.243693  0.426135  1
  O  O12  1  0.149005  0.949303  0.952738  1
  O  O13  1  0.050697  0.850995  0.547262  1
  O  O14  1  0.850995  0.050697  0.047262  1
  O  O15  1  0.949303  0.149005  0.452738  1
  O  O16  1  0.274696  0.160806  0.499755  1
  O  O17  1  0.839194  0.725304  0.000245  1
  O  O18  1  0.725304  0.839194  0.500245  1
  O  O19  1  0.160806  0.274696  0.999755  1
  O  O20  1  0.130036  0.137617  0.651900  1
  O  O21  1  0.862383  0.869964  0.848100  1
  O  O22  1  0.869964  0.862383  0.348100  1
  O  O23  1  0.137617  0.130036  0.151900  1
  O  O24  1  0.374165  0.982161  0.614938  1
  O  O25  1  0.017839  0.625835  0.885062  1
  O  O26  1  0.625835  0.017839  0.385062  1
  O  O27  1  0.982161  0.374165  0.114938  1
  O  O28  1  0.802635  0.830731  0.662558  1
  O  O29  1  0.169269  0.197365  0.837442  1
  O  O30  1  0.197365  0.169269  0.337442  1
  O  O31  1  0.830731  0.802635  0.162558  1
  O  O32  1  0.450262  0.224068  0.941193  1
  O  O33  1  0.775932  0.549738  0.558807  1
  O  O34  1  0.549738  0.775932  0.058807  1
  O  O35  1  0.224068  0.450262  0.441193  1
  O  O36  1  0.739333  0.194884  0.633042  1
  O  O37  1  0.805116  0.260667  0.866958  1
  O  O38  1  0.260667  0.805116  0.366958  1
  O  O39  1  0.194884  0.739333  0.133042  1
  O  O40  1  0.406759  0.700451  0.885115  1
  O  O41  1  0.299549  0.593241  0.614885  1
  O  O42  1  0.593241  0.299549  0.114885  1
  O  O43  1  0.700451  0.406759  0.385115  1
  O  O44  1  0.567369  0.973830  0.773243  1
  O  O45  1  0.026170  0.432631  0.726757  1
  O  O46  1  0.432631  0.026170  0.226757  1
  O  O47  1  0.973830  0.567369  0.273243  1
  H  H48  1  0.611756  0.120494  0.611433  1
  H  H49  1  0.879506  0.388244  0.888567  1
  H  H50  1  0.388244  0.879506  0.388567  1
  H  H51  1  0.120494  0.611756  0.111433  1
  H  H52  1  0.679769  0.223774  0.892845  1
  H  H53  1  0.776226  0.320231  0.607155  1
  H  H54  1  0.320231  0.776226  0.107155  1
  H  H55  1  0.223774  0.679769  0.392845  1
  H  H56  1  0.458052  0.727871  0.946071  1
  H  H57  1  0.272129  0.541948  0.553929  1
  H  H58  1  0.541948  0.272129  0.053929  1
  H  H59  1  0.727871  0.458052  0.446071  1
  H  H60  1  0.329798  0.729416  0.609718  1
  H  H61  1  0.270584  0.670202  0.890282  1
  H  H62  1  0.670202  0.270584  0.390282  1
  H  H63  1  0.729416  0.329798  0.109718  1
  H  H64  1  0.505971  0.874829  0.817604  1
  H  H65  1  0.125171  0.494029  0.682396  1
  H  H66  1  0.494029  0.125171  0.182396  1
  H  H67  1  0.874829  0.505971  0.317604  1
  H  H68  1  0.477923  0.964387  0.724507  1
  H  H69  1  0.035613  0.522077  0.775493  1
  H  H70  1  0.522077  0.035613  0.275493  1
  H  H71  1  0.964387  0.477923  0.224507  1
