# generated using pymatgen
data_P2NCl5O
_symmetry_space_group_name_H-M   'P 1'
_cell_length_a   13.24555869
_cell_length_b   15.75354398
_cell_length_c   20.56597852
_cell_angle_alpha   90.00000000
_cell_angle_beta   90.00000000
_cell_angle_gamma   110.81530283
_symmetry_Int_Tables_number   1
_chemical_formula_structural   P2NCl5O
_chemical_formula_sum   'P32 N16 Cl80 O16'
_cell_volume   4011.29388958
_cell_formula_units_Z   16
loop_
 _symmetry_equiv_pos_site_id
 _symmetry_equiv_pos_as_xyz
  1  'x, y, z'
loop_
 _atom_site_type_symbol
 _atom_site_label
 _atom_site_symmetry_multiplicity
 _atom_site_fract_x
 _atom_site_fract_y
 _atom_site_fract_z
 _atom_site_occupancy
  P  P0  1  0.976036  0.446493  0.754699  1
  P  P1  1  0.526785  0.048329  0.252258  1
  P  P2  1  0.526785  0.548329  0.247742  1
  P  P3  1  0.806739  0.262216  0.776468  1
  P  P4  1  0.473215  0.451671  0.752258  1
  P  P5  1  0.551689  0.283411  0.485829  1
  P  P6  1  0.193261  0.237784  0.276468  1
  P  P7  1  0.976036  0.946493  0.745301  1
  P  P8  1  0.735150  0.455105  0.507914  1
  P  P9  1  0.023964  0.553507  0.245301  1
  P  P10  1  0.264850  0.044895  0.007914  1
  P  P11  1  0.264850  0.544895  0.492086  1
  P  P12  1  0.794589  0.033810  0.497741  1
  P  P13  1  0.685659  0.228136  0.209332  1
  P  P14  1  0.551689  0.783411  0.014171  1
  P  P15  1  0.030798  0.282333  0.005380  1
  P  P16  1  0.205411  0.966190  0.502259  1
  P  P17  1  0.806739  0.762216  0.723532  1
  P  P18  1  0.969202  0.217667  0.505380  1
  P  P19  1  0.023964  0.053507  0.254699  1
  P  P20  1  0.969202  0.717667  0.994620  1
  P  P21  1  0.314341  0.271864  0.709332  1
  P  P22  1  0.685659  0.728136  0.290668  1
  P  P23  1  0.193261  0.737784  0.223532  1
  P  P24  1  0.735150  0.955105  0.992086  1
  P  P25  1  0.205411  0.466190  0.997741  1
  P  P26  1  0.030798  0.782333  0.494620  1
  P  P27  1  0.448311  0.216589  0.985829  1
  P  P28  1  0.314341  0.771864  0.790668  1
  P  P29  1  0.473215  0.951671  0.747742  1
  P  P30  1  0.448311  0.716589  0.514171  1
  P  P31  1  0.794589  0.533810  0.002259  1
  N  N32  1  0.093214  0.890296  0.498316  1
  N  N33  1  0.128556  0.143933  0.247134  1
  N  N34  1  0.871444  0.856067  0.752866  1
  N  N35  1  0.336213  0.646155  0.486528  1
  N  N36  1  0.372595  0.357262  0.750536  1
  N  N37  1  0.627405  0.642738  0.249464  1
  N  N38  1  0.906786  0.609704  0.998316  1
  N  N39  1  0.871444  0.356067  0.747134  1
  N  N40  1  0.627405  0.142738  0.250536  1
  N  N41  1  0.663787  0.853845  0.986528  1
  N  N42  1  0.906786  0.109704  0.501684  1
  N  N43  1  0.336213  0.146155  0.013472  1
  N  N44  1  0.093214  0.390296  0.001684  1
  N  N45  1  0.128556  0.643933  0.252866  1
  N  N46  1  0.663787  0.353845  0.513472  1
  N  N47  1  0.372595  0.857262  0.749464  1
  Cl  Cl48  1  0.581610  0.751137  0.106573  1
  Cl  Cl49  1  0.608681  0.424349  0.729727  1
  Cl  Cl50  1  0.900775  0.775710  0.061773  1
  Cl  Cl51  1  0.813051  0.414697  0.012317  1
  Cl  Cl52  1  0.031768  0.999526  0.343728  1
  Cl  Cl53  1  0.818140  0.988833  0.075745  1
  Cl  Cl54  1  0.734051  0.763386  0.638718  1
  Cl  Cl55  1  0.186949  0.085303  0.512317  1
  Cl  Cl56  1  0.893291  0.592034  0.235018  1
  Cl  Cl57  1  0.031768  0.499526  0.156272  1
  Cl  Cl58  1  0.888926  0.679004  0.709258  1
  Cl  Cl59  1  0.111074  0.320996  0.290742  1
  Cl  Cl60  1  0.299654  0.458088  0.923834  1
  Cl  Cl61  1  0.893291  0.092034  0.264982  1
  Cl  Cl62  1  0.846787  0.486712  0.577336  1
  Cl  Cl63  1  0.818140  0.488833  0.424255  1
  Cl  Cl64  1  0.462890  0.832442  0.465319  1
  Cl  Cl65  1  0.608681  0.924349  0.770273  1
  Cl  Cl66  1  0.181860  0.511167  0.575745  1
  Cl  Cl67  1  0.811206  0.311274  0.258565  1
  Cl  Cl68  1  0.418390  0.748863  0.606573  1
  Cl  Cl69  1  0.111074  0.820996  0.209258  1
  Cl  Cl70  1  0.153213  0.513288  0.422664  1
  Cl  Cl71  1  0.968232  0.500474  0.843728  1
  Cl  Cl72  1  0.540721  0.974369  0.173807  1
  Cl  Cl73  1  0.811206  0.811274  0.241435  1
  Cl  Cl74  1  0.688109  0.194871  0.716004  1
  Cl  Cl75  1  0.099225  0.724290  0.561773  1
  Cl  Cl76  1  0.106709  0.907966  0.735018  1
  Cl  Cl77  1  0.746752  0.207459  0.124610  1
  Cl  Cl78  1  0.846787  0.986712  0.922664  1
  Cl  Cl79  1  0.659965  0.044371  0.983510  1
  Cl  Cl80  1  0.153213  0.013288  0.077336  1
  Cl  Cl81  1  0.391319  0.575651  0.270273  1
  Cl  Cl82  1  0.581610  0.251137  0.393427  1
  Cl  Cl83  1  0.265949  0.736614  0.138718  1
  Cl  Cl84  1  0.813051  0.914697  0.487683  1
  Cl  Cl85  1  0.188794  0.188726  0.758565  1
  Cl  Cl86  1  0.459279  0.525631  0.673807  1
  Cl  Cl87  1  0.181860  0.011167  0.924255  1
  Cl  Cl88  1  0.659965  0.544371  0.516490  1
  Cl  Cl89  1  0.075042  0.739210  0.409396  1
  Cl  Cl90  1  0.299021  0.980673  0.423250  1
  Cl  Cl91  1  0.099225  0.224290  0.938227  1
  Cl  Cl92  1  0.924958  0.760790  0.909396  1
  Cl  Cl93  1  0.700979  0.019327  0.576750  1
  Cl  Cl94  1  0.253248  0.292541  0.624610  1
  Cl  Cl95  1  0.311891  0.805129  0.283996  1
  Cl  Cl96  1  0.598154  0.804807  0.312959  1
  Cl  Cl97  1  0.537110  0.167558  0.534681  1
  Cl  Cl98  1  0.340035  0.955629  0.016490  1
  Cl  Cl99  1  0.968232  0.000474  0.656272  1
  Cl  Cl100  1  0.186949  0.585303  0.987683  1
  Cl  Cl101  1  0.459279  0.025631  0.826193  1
  Cl  Cl102  1  0.746752  0.707459  0.375390  1
  Cl  Cl103  1  0.537110  0.667558  0.965319  1
  Cl  Cl104  1  0.401846  0.195193  0.687041  1
  Cl  Cl105  1  0.462890  0.332442  0.034681  1
  Cl  Cl106  1  0.540721  0.474369  0.326193  1
  Cl  Cl107  1  0.265949  0.236614  0.361282  1
  Cl  Cl108  1  0.188794  0.688726  0.741435  1
  Cl  Cl109  1  0.391319  0.075651  0.229727  1
  Cl  Cl110  1  0.734051  0.263386  0.861282  1
  Cl  Cl111  1  0.900775  0.275710  0.438227  1
  Cl  Cl112  1  0.340035  0.455629  0.483510  1
  Cl  Cl113  1  0.253248  0.792541  0.875390  1
  Cl  Cl114  1  0.299654  0.958088  0.576166  1
  Cl  Cl115  1  0.401846  0.695193  0.812959  1
  Cl  Cl116  1  0.418390  0.248863  0.893427  1
  Cl  Cl117  1  0.299021  0.480673  0.076750  1
  Cl  Cl118  1  0.075042  0.239210  0.090604  1
  Cl  Cl119  1  0.598154  0.304807  0.187041  1
  Cl  Cl120  1  0.700979  0.519327  0.923250  1
  Cl  Cl121  1  0.106709  0.407966  0.764982  1
  Cl  Cl122  1  0.688109  0.694871  0.783996  1
  Cl  Cl123  1  0.700346  0.541912  0.076166  1
  Cl  Cl124  1  0.700346  0.041912  0.423834  1
  Cl  Cl125  1  0.888926  0.179004  0.790742  1
  Cl  Cl126  1  0.311891  0.305129  0.216004  1
  Cl  Cl127  1  0.924958  0.260790  0.590604  1
  O  O128  1  0.993283  0.014763  0.797488  1
  O  O129  1  0.006717  0.985237  0.202512  1
  O  O130  1  0.912257  0.750743  0.501347  1
  O  O131  1  0.512831  0.495670  0.186848  1
  O  O132  1  0.912257  0.250743  0.998653  1
  O  O133  1  0.512831  0.995670  0.313152  1
  O  O134  1  0.452209  0.805317  0.011319  1
  O  O135  1  0.006717  0.485237  0.297488  1
  O  O136  1  0.087743  0.749257  0.001347  1
  O  O137  1  0.487169  0.004330  0.686848  1
  O  O138  1  0.087743  0.249257  0.498653  1
  O  O139  1  0.993283  0.514763  0.702512  1
  O  O140  1  0.452209  0.305317  0.488681  1
  O  O141  1  0.547791  0.694683  0.511319  1
  O  O142  1  0.547791  0.194683  0.988681  1
  O  O143  1  0.487169  0.504330  0.813152  1
