# generated using pymatgen
data_SbSNCl5
_symmetry_space_group_name_H-M   'P 1'
_cell_length_a   13.73769601
_cell_length_b   13.73769580
_cell_length_c   13.73769588
_cell_angle_alpha   105.65566360
_cell_angle_beta   111.41203410
_cell_angle_gamma   111.41203282
_symmetry_Int_Tables_number   1
_chemical_formula_structural   SbSNCl5
_chemical_formula_sum   'Sb8 S8 N8 Cl40'
_cell_volume   1989.23177272
_cell_formula_units_Z   8
loop_
 _symmetry_equiv_pos_site_id
 _symmetry_equiv_pos_as_xyz
  1  'x, y, z'
loop_
 _atom_site_type_symbol
 _atom_site_label
 _atom_site_symmetry_multiplicity
 _atom_site_fract_x
 _atom_site_fract_y
 _atom_site_fract_z
 _atom_site_occupancy
  Sb  Sb0  1  0.789969  0.914969  0.625000  1
  Sb  Sb1  1  0.770026  0.395026  0.125000  1
  Sb  Sb2  1  0.729974  0.375000  0.604974  1
  Sb  Sb3  1  0.270026  0.875000  0.645026  1
  Sb  Sb4  1  0.210031  0.835031  0.125000  1
  Sb  Sb5  1  0.229974  0.354974  0.625000  1
  Sb  Sb6  1  0.289969  0.375000  0.164969  1
  Sb  Sb7  1  0.710031  0.875000  0.085031  1
  S  S8  1  0.568119  0.937017  0.849727  1
  S  S9  1  0.087289  0.150273  0.718392  1
  S  S10  1  0.931881  0.118897  0.531608  1
  S  S11  1  0.412711  0.812983  0.881103  1
  S  S12  1  0.912711  0.631103  0.062983  1
  S  S13  1  0.431881  0.281608  0.368897  1
  S  S14  1  0.587289  0.468392  0.400273  1
  S  S15  1  0.068119  0.599727  0.187017  1
  N  N16  1  0.062126  0.687126  0.125000  1
  N  N17  1  0.937874  0.062874  0.625000  1
  N  N18  1  0.418772  0.875000  0.793772  1
  N  N19  1  0.437874  0.375000  0.312874  1
  N  N20  1  0.918772  0.543772  0.125000  1
  N  N21  1  0.581228  0.375000  0.456228  1
  N  N22  1  0.081228  0.206228  0.625000  1
  N  N23  1  0.562126  0.875000  0.937126  1
  Cl  Cl24  1  0.442974  0.976538  0.630240  1
  Cl  Cl25  1  0.617947  0.242947  0.125000  1
  Cl  Cl26  1  0.557026  0.187267  0.533565  1
  Cl  Cl27  1  0.731629  0.267707  0.941675  1
  Cl  Cl28  1  0.219029  0.968405  0.284900  1
  Cl  Cl29  1  0.768371  0.286078  0.460046  1
  Cl  Cl30  1  0.653702  0.466435  0.023462  1
  Cl  Cl31  1  0.316494  0.250624  0.031595  1
  Cl  Cl32  1  0.816494  0.781595  0.500624  1
  Cl  Cl33  1  0.833765  0.008746  0.040583  1
  Cl  Cl34  1  0.637504  0.762504  0.625000  1
  Cl  Cl35  1  0.231629  0.691675  0.517707  1
  Cl  Cl36  1  0.268371  0.210046  0.536078  1
  Cl  Cl37  1  0.882053  0.375000  0.757053  1
  Cl  Cl38  1  0.862496  0.875000  0.237496  1
  Cl  Cl39  1  0.031837  0.825019  0.991254  1
  Cl  Cl40  1  0.382053  0.507053  0.625000  1
  Cl  Cl41  1  0.183506  0.684129  0.965100  1
  Cl  Cl42  1  0.531837  0.741254  0.075019  1
  Cl  Cl43  1  0.333765  0.790583  0.258746  1
  Cl  Cl44  1  0.346298  0.369760  0.812733  1
  Cl  Cl45  1  0.173968  0.482293  0.713922  1
  Cl  Cl46  1  0.326032  0.058325  0.789954  1
  Cl  Cl47  1  0.153702  0.773462  0.716435  1
  Cl  Cl48  1  0.673968  0.463922  0.732293  1
  Cl  Cl49  1  0.280971  0.499376  0.315871  1
  Cl  Cl50  1  0.666235  0.924981  0.456818  1
  Cl  Cl51  1  0.719029  0.034900  0.218405  1
  Cl  Cl52  1  0.683506  0.715100  0.934129  1
  Cl  Cl53  1  0.137504  0.375000  0.012504  1
  Cl  Cl54  1  0.826032  0.539954  0.308325  1
  Cl  Cl55  1  0.780971  0.065871  0.749376  1
  Cl  Cl56  1  0.942974  0.380240  0.226538  1
  Cl  Cl57  1  0.468163  0.543182  0.209417  1
  Cl  Cl58  1  0.117947  0.875000  0.492947  1
  Cl  Cl59  1  0.166235  0.206818  0.174981  1
  Cl  Cl60  1  0.362496  0.987496  0.125000  1
  Cl  Cl61  1  0.968163  0.959417  0.793182  1
  Cl  Cl62  1  0.057026  0.283565  0.437267  1
  Cl  Cl63  1  0.846298  0.562733  0.619760  1
