# generated using pymatgen
data_In2Te2MoO10
_symmetry_space_group_name_H-M   'P 1'
_cell_length_a   5.47500614
_cell_length_b   12.16755436
_cell_length_c   13.15712039
_cell_angle_alpha   95.51237656
_cell_angle_beta   90.00000000
_cell_angle_gamma   90.00000000
_symmetry_Int_Tables_number   1
_chemical_formula_structural   In2Te2MoO10
_chemical_formula_sum   'In8 Te8 Mo4 O40'
_cell_volume   872.44023991
_cell_formula_units_Z   4
loop_
 _symmetry_equiv_pos_site_id
 _symmetry_equiv_pos_as_xyz
  1  'x, y, z'
loop_
 _atom_site_type_symbol
 _atom_site_label
 _atom_site_symmetry_multiplicity
 _atom_site_fract_x
 _atom_site_fract_y
 _atom_site_fract_z
 _atom_site_occupancy
  In  In0  1  0.704432  0.844627  0.818522  1
  In  In1  1  0.295568  0.155373  0.181478  1
  In  In2  1  0.238223  0.060675  0.874411  1
  In  In3  1  0.795568  0.344627  0.318522  1
  In  In4  1  0.738223  0.439325  0.625589  1
  In  In5  1  0.261777  0.560675  0.374411  1
  In  In6  1  0.761777  0.939325  0.125589  1
  In  In7  1  0.204432  0.655373  0.681478  1
  Te  Te8  1  0.239772  0.874913  0.255478  1
  Te  Te9  1  0.691811  0.719930  0.541290  1
  Te  Te10  1  0.260228  0.374913  0.755478  1
  Te  Te11  1  0.808189  0.219930  0.041290  1
  Te  Te12  1  0.308189  0.280070  0.458710  1
  Te  Te13  1  0.739772  0.625087  0.244522  1
  Te  Te14  1  0.191811  0.780070  0.958710  1
  Te  Te15  1  0.760228  0.125087  0.744522  1
  Mo  Mo16  1  0.267561  0.434623  0.113327  1
  Mo  Mo17  1  0.232439  0.934623  0.613327  1
  Mo  Mo18  1  0.767561  0.065377  0.386673  1
  Mo  Mo19  1  0.732439  0.565377  0.886673  1
  O  O20  1  0.074962  0.480982  0.225861  1
  O  O21  1  0.912845  0.988055  0.789006  1
  O  O22  1  0.548736  0.304199  0.696690  1
  O  O23  1  0.925038  0.519018  0.774139  1
  O  O24  1  0.597241  0.374968  0.478230  1
  O  O25  1  0.087155  0.011945  0.210994  1
  O  O26  1  0.587155  0.488055  0.289006  1
  O  O27  1  0.433108  0.552905  0.089567  1
  O  O28  1  0.466983  0.311810  0.127692  1
  O  O29  1  0.533017  0.688190  0.872308  1
  O  O30  1  0.614248  0.097817  0.087476  1
  O  O31  1  0.578197  0.147935  0.870716  1
  O  O32  1  0.075566  0.392483  0.009488  1
  O  O33  1  0.454585  0.241840  0.322424  1
  O  O34  1  0.385752  0.902183  0.912524  1
  O  O35  1  0.885752  0.597817  0.587476  1
  O  O36  1  0.425038  0.980982  0.725861  1
  O  O37  1  0.097241  0.125032  0.021770  1
  O  O38  1  0.933108  0.947095  0.410433  1
  O  O39  1  0.966983  0.188190  0.372308  1
  O  O40  1  0.951264  0.804199  0.196690  1
  O  O41  1  0.424434  0.892483  0.509488  1
  O  O42  1  0.575566  0.107517  0.490512  1
  O  O43  1  0.921803  0.647935  0.370716  1
  O  O44  1  0.402759  0.625032  0.521770  1
  O  O45  1  0.566892  0.447095  0.910433  1
  O  O46  1  0.421803  0.852065  0.129284  1
  O  O47  1  0.451264  0.695801  0.303310  1
  O  O48  1  0.924434  0.607517  0.990512  1
  O  O49  1  0.045415  0.741840  0.822424  1
  O  O50  1  0.033017  0.811810  0.627692  1
  O  O51  1  0.954585  0.258160  0.177576  1
  O  O52  1  0.048736  0.195801  0.803310  1
  O  O53  1  0.114248  0.402183  0.412524  1
  O  O54  1  0.545415  0.758160  0.677576  1
  O  O55  1  0.066892  0.052905  0.589567  1
  O  O56  1  0.078197  0.352065  0.629284  1
  O  O57  1  0.412845  0.511945  0.710994  1
  O  O58  1  0.902759  0.874968  0.978230  1
  O  O59  1  0.574962  0.019018  0.274139  1
