# generated using pymatgen
data_La3Ti5Al15O37
_symmetry_space_group_name_H-M   'P 1'
_cell_length_a   9.92939043
_cell_length_b   11.39691582
_cell_length_c   12.80693654
_cell_angle_alpha   116.42019840
_cell_angle_beta   96.73003447
_cell_angle_gamma   89.99999906
_symmetry_Int_Tables_number   1
_chemical_formula_structural   La3Ti5Al15O37
_chemical_formula_sum   'La6 Ti10 Al30 O74'
_cell_volume   1286.75772030
_cell_formula_units_Z   2
loop_
 _symmetry_equiv_pos_site_id
 _symmetry_equiv_pos_as_xyz
  1  'x, y, z'
loop_
 _atom_site_type_symbol
 _atom_site_label
 _atom_site_symmetry_multiplicity
 _atom_site_fract_x
 _atom_site_fract_y
 _atom_site_fract_z
 _atom_site_occupancy
  La  La0  1  0.888959  0.078742  0.966567  1
  La  La1  1  0.177292  0.912326  0.548922  1
  La  La2  1  0.044090  0.724527  0.738720  1
  La  La3  1  0.388959  0.887825  0.966567  1
  La  La4  1  0.544090  0.014193  0.738720  1
  La  La5  1  0.677292  0.636596  0.548922  1
  Ti  Ti6  1  0.361445  0.679793  0.629477  1
  Ti  Ti7  1  0.064018  0.376893  0.026456  1
  Ti  Ti8  1  0.377895  0.693613  0.362598  1
  Ti  Ti9  1  0.367858  0.375306  0.278958  1
  Ti  Ti10  1  0.564018  0.649563  0.026456  1
  Ti  Ti11  1  0.718260  0.803893  0.825013  1
  Ti  Ti12  1  0.861445  0.949684  0.629477  1
  Ti  Ti13  1  0.218260  0.021120  0.825013  1
  Ti  Ti14  1  0.867858  0.903652  0.278958  1
  Ti  Ti15  1  0.877895  0.668985  0.362598  1
  Al  Al16  1  0.824343  0.520684  0.057899  1
  Al  Al17  1  0.603654  0.301186  0.630848  1
  Al  Al18  1  0.834870  0.776766  0.040152  1
  Al  Al19  1  0.103654  0.329662  0.630848  1
  Al  Al20  1  0.859173  0.448484  0.633495  1
  Al  Al21  1  0.380134  0.511500  0.772126  1
  Al  Al22  1  0.111312  0.740577  0.223113  1
  Al  Al23  1  0.714370  0.534283  0.829108  1
  Al  Al24  1  0.116557  0.503722  0.255515  1
  Al  Al25  1  0.652728  0.320662  0.389743  1
  Al  Al26  1  0.117807  0.211694  0.225622  1
  Al  Al27  1  0.616557  0.751793  0.255515  1
  Al  Al28  1  0.359173  0.185010  0.633495  1
  Al  Al29  1  0.214370  0.294824  0.829108  1
  Al  Al30  1  0.045594  0.570332  0.897114  1
  Al  Al31  1  0.593780  0.152311  0.044603  1
  Al  Al32  1  0.880134  0.260625  0.772126  1
  Al  Al33  1  0.617807  0.013929  0.225622  1
  Al  Al34  1  0.897480  0.208370  0.394479  1
  Al  Al35  1  0.397480  0.186110  0.394479  1
  Al  Al36  1  0.077629  0.495020  0.482793  1
  Al  Al37  1  0.855310  0.353764  0.228225  1
  Al  Al38  1  0.611312  0.482537  0.223113  1
  Al  Al39  1  0.093780  0.892292  0.044603  1
  Al  Al40  1  0.577629  0.987773  0.482793  1
  Al  Al41  1  0.545594  0.326782  0.897114  1
  Al  Al42  1  0.355310  0.874461  0.228225  1
  Al  Al43  1  0.324343  0.537215  0.057899  1
  Al  Al44  1  0.334870  0.263386  0.040152  1
  Al  Al45  1  0.152728  0.069081  0.389743  1
  O  O46  1  0.163301  0.408166  0.550381  1
  O  O47  1  0.450888  0.550248  0.540949  1
  O  O48  1  0.469751  0.538682  0.323271  1
  O  O49  1  0.041124  0.061166  0.113982  1
  O  O50  1  0.477137  0.823732  0.345259  1
  O  O51  1  0.223430  0.166054  0.332300  1
  O  O52  1  0.709215  0.912772  0.344291  1
  O  O53  1  0.670209  0.905964  0.566520  1
  O  O54  1  0.328470  0.656517  0.764408  1
  O  O55  1  0.825301  0.842885  0.735848  1
  O  O56  1  0.388615  0.099381  0.951108  1
  O  O57  1  0.919528  0.540491  0.558023  1
  O  O58  1  0.471510  0.032408  0.317440  1
  O  O59  1  0.657701  0.973709  0.914674  1
  O  O60  1  0.779081  0.612336  0.743280  1
  O  O61  1  0.157701  0.940966  0.914674  1
  O  O62  1  0.015595  0.558962  0.142147  1
  O  O63  1  0.975613  0.057838  0.351917  1
  O  O64  1  0.270028  0.229971  0.157229  1
  O  O65  1  0.475613  0.294079  0.351917  1
  O  O66  1  0.777491  0.371179  0.734825  1
  O  O67  1  0.520750  0.244710  0.742170  1
  O  O68  1  0.977137  0.521527  0.345259  1
  O  O69  1  0.378352  0.358639  0.952265  1
  O  O70  1  0.269476  0.913500  0.116047  1
  O  O71  1  0.723430  0.166247  0.332300  1
  O  O72  1  0.685976  0.397179  0.543503  1
  O  O73  1  0.185976  0.146324  0.543503  1
  O  O74  1  0.277491  0.363646  0.734825  1
  O  O75  1  0.897458  0.354477  0.941518  1
  O  O76  1  0.062113  0.945987  0.714675  1
  O  O77  1  0.753402  0.692690  0.139498  1
  O  O78  1  0.773833  0.460861  0.159592  1
  O  O79  1  0.393294  0.763350  0.515144  1
  O  O80  1  0.273833  0.698731  0.159592  1
  O  O81  1  0.659025  0.711937  0.937974  1
  O  O82  1  1.001017  0.817208  0.141025  1
  O  O83  1  0.211885  0.908336  0.327246  1
  O  O84  1  0.522597  0.817961  0.146597  1
  O  O85  1  0.022597  0.328636  0.146597  1
  O  O86  1  0.950888  0.990701  0.540949  1
  O  O87  1  0.115023  0.724648  0.931094  1
  O  O88  1  0.325301  0.892963  0.735848  1
  O  O89  1  0.547739  0.473956  0.743868  1
  O  O90  1  0.930494  0.289820  0.546667  1
  O  O91  1  0.156049  0.473219  0.950325  1
  O  O92  1  0.969751  0.784588  0.323271  1
  O  O93  1  0.419528  0.017533  0.558023  1
  O  O94  1  0.656049  0.477106  0.950325  1
  O  O95  1  0.397458  0.587041  0.941518  1
  O  O96  1  0.541124  0.052816  0.113982  1
  O  O97  1  0.515595  0.583185  0.142147  1
  O  O98  1  0.279081  0.130944  0.743280  1
  O  O99  1  0.893294  0.751794  0.515144  1
  O  O100  1  0.501017  0.323817  0.141025  1
  O  O101  1  0.687467  0.660299  0.333992  1
  O  O102  1  0.770028  0.927258  0.157229  1
  O  O103  1  0.209215  0.431520  0.344291  1
  O  O104  1  0.020750  0.497461  0.742170  1
  O  O105  1  0.878352  0.593627  0.952265  1
  O  O106  1  0.562113  0.768688  0.714675  1
  O  O107  1  0.888615  0.851727  0.951108  1
  O  O108  1  0.769476  0.202548  0.116047  1
  O  O109  1  0.663301  0.142215  0.550381  1
  O  O110  1  0.615023  0.206446  0.931094  1
  O  O111  1  0.711885  0.418910  0.327246  1
  O  O112  1  0.828470  0.107891  0.764408  1
  O  O113  1  0.047739  0.269912  0.743868  1
  O  O114  1  0.187467  0.673693  0.333992  1
  O  O115  1  0.971510  0.285032  0.317440  1
  O  O116  1  0.253402  0.446808  0.139498  1
  O  O117  1  0.159025  0.226037  0.937974  1
  O  O118  1  0.430494  0.256847  0.546667  1
  O  O119  1  0.170209  0.660556  0.566520  1
