# generated using pymatgen
data_U4Al18Ni5
_symmetry_space_group_name_H-M   'P 1'
_cell_length_a   4.03714943
_cell_length_b   8.06676209
_cell_length_c   14.42796058
_cell_angle_alpha   86.25231526
_cell_angle_beta   81.95466442
_cell_angle_gamma   75.51290035
_symmetry_Int_Tables_number   1
_chemical_formula_structural   U4Al18Ni5
_chemical_formula_sum   'U4 Al18 Ni5'
_cell_volume   450.22796980
_cell_formula_units_Z   1
loop_
 _symmetry_equiv_pos_site_id
 _symmetry_equiv_pos_as_xyz
  1  'x, y, z'
loop_
 _atom_site_type_symbol
 _atom_site_label
 _atom_site_symmetry_multiplicity
 _atom_site_fract_x
 _atom_site_fract_y
 _atom_site_fract_z
 _atom_site_occupancy
  U  U0  1  0.231806  0.197383  0.338868  1
  U  U1  1  0.437584  0.233655  0.891037  1
  U  U2  1  0.768030  0.799677  0.664467  1
  U  U3  1  0.557267  0.773452  0.111880  1
  Al  Al4  1  0.629586  0.850303  0.890073  1
  Al  Al5  1  0.895352  0.983904  0.225254  1
  Al  Al6  1  0.102890  0.014607  0.779537  1
  Al  Al7  1  0.569450  0.182632  0.678653  1
  Al  Al8  1  0.434813  0.797442  0.332821  1
  Al  Al9  1  0.704897  0.377181  0.212901  1
  Al  Al10  1  0.023427  0.406481  0.546953  1
  Al  Al11  1  0.287152  0.630548  0.795280  1
  Al  Al12  1  0.795111  0.381211  0.028363  1
  Al  Al13  1  0.572936  0.453997  0.399900  1
  Al  Al14  1  0.197737  0.044235  0.560742  1
  Al  Al15  1  0.063985  0.611750  0.260110  1
  Al  Al16  1  0.928370  0.399784  0.743435  1
  Al  Al17  1  0.996495  0.004049  0.002720  1
  Al  Al18  1  0.364969  0.153597  0.116542  1
  Al  Al19  1  0.389083  0.701003  0.520932  1
  Al  Al20  1  0.813019  0.939150  0.434882  1
  Al  Al21  1  0.199539  0.621754  0.979267  1
  Ni  Ni22  1  0.641556  0.204812  0.512558  1
  Ni  Ni23  1  0.780887  0.552118  0.886376  1
  Ni  Ni24  1  0.212585  0.452263  0.122654  1
  Ni  Ni25  1  0.970216  0.632515  0.426892  1
  Ni  Ni26  1  0.433858  0.482096  0.650103  1
