# generated using pymatgen
data_Ag5Te2Cl
_symmetry_space_group_name_H-M   'P 1'
_cell_length_a   7.79291518
_cell_length_b   19.71865882
_cell_length_c   19.89901027
_cell_angle_alpha   89.96826408
_cell_angle_beta   90.00000000
_cell_angle_gamma   90.00000000
_symmetry_Int_Tables_number   1
_chemical_formula_structural   Ag5Te2Cl
_chemical_formula_sum   'Ag80 Te32 Cl16'
_cell_volume   3057.79757148
_cell_formula_units_Z   16
loop_
 _symmetry_equiv_pos_site_id
 _symmetry_equiv_pos_as_xyz
  1  'x, y, z'
loop_
 _atom_site_type_symbol
 _atom_site_label
 _atom_site_symmetry_multiplicity
 _atom_site_fract_x
 _atom_site_fract_y
 _atom_site_fract_z
 _atom_site_occupancy
  Ag  Ag0  1  0.990087  0.132098  0.263226  1
  Ag  Ag1  1  0.875462  0.012024  0.910784  1
  Ag  Ag2  1  0.244376  0.795120  0.408203  1
  Ag  Ag3  1  0.744376  0.204880  0.091797  1
  Ag  Ag4  1  0.891713  0.067739  0.500092  1
  Ag  Ag5  1  0.124538  0.987976  0.089216  1
  Ag  Ag6  1  0.142221  0.562809  0.317870  1
  Ag  Ag7  1  0.212755  0.281447  0.922734  1
  Ag  Ag8  1  0.050021  0.166018  0.405031  1
  Ag  Ag9  1  0.885237  0.165997  0.765505  1
  Ag  Ag10  1  0.008678  0.614217  0.763319  1
  Ag  Ag11  1  0.644695  0.932114  0.686515  1
  Ag  Ag12  1  0.909833  0.740999  0.830175  1
  Ag  Ag13  1  0.590167  0.740999  0.330175  1
  Ag  Ag14  1  0.357779  0.562809  0.817870  1
  Ag  Ag15  1  0.509913  0.132098  0.763226  1
  Ag  Ag16  1  0.420479  0.689587  0.478329  1
  Ag  Ag17  1  0.020622  0.508451  0.870256  1
  Ag  Ag18  1  0.744579  0.818677  0.469506  1
  Ag  Ag19  1  0.436354  0.716235  0.011683  1
  Ag  Ag20  1  0.563646  0.283765  0.988317  1
  Ag  Ag21  1  0.009913  0.867902  0.736774  1
  Ag  Ag22  1  0.642221  0.437191  0.182130  1
  Ag  Ag23  1  0.255624  0.795120  0.908203  1
  Ag  Ag24  1  0.449979  0.166018  0.905031  1
  Ag  Ag25  1  0.984318  0.980607  0.632116  1
  Ag  Ag26  1  0.520622  0.491549  0.629744  1
  Ag  Ag27  1  0.508678  0.385783  0.736681  1
  Ag  Ag28  1  0.371479  0.340658  0.235167  1
  Ag  Ag29  1  0.712755  0.718553  0.577266  1
  Ag  Ag30  1  0.614763  0.165997  0.265505  1
  Ag  Ag31  1  0.888277  0.501544  0.418605  1
  Ag  Ag32  1  0.355305  0.067886  0.313485  1
  Ag  Ag33  1  0.244579  0.181323  0.030494  1
  Ag  Ag34  1  0.388277  0.498456  0.081395  1
  Ag  Ag35  1  0.755421  0.818677  0.969506  1
  Ag  Ag36  1  0.079521  0.689587  0.978329  1
  Ag  Ag37  1  0.108287  0.932261  0.499908  1
  Ag  Ag38  1  0.015682  0.019393  0.367884  1
  Ag  Ag39  1  0.624538  0.012024  0.410784  1
  Ag  Ag40  1  0.979378  0.491549  0.129744  1
  Ag  Ag41  1  0.090167  0.259001  0.169825  1
  Ag  Ag42  1  0.787245  0.718553  0.077266  1
  Ag  Ag43  1  0.255421  0.181323  0.530494  1
  Ag  Ag44  1  0.479378  0.508451  0.370256  1
  Ag  Ag45  1  0.375462  0.987976  0.589216  1
  Ag  Ag46  1  0.611723  0.501544  0.918605  1
  Ag  Ag47  1  0.111723  0.498456  0.581395  1
  Ag  Ag48  1  0.111583  0.438375  1.000401  1
  Ag  Ag49  1  0.491322  0.614217  0.263319  1
  Ag  Ag50  1  0.628521  0.659342  0.764833  1
  Ag  Ag51  1  0.936354  0.283765  0.488317  1
  Ag  Ag52  1  0.287245  0.281447  0.422734  1
  Ag  Ag53  1  0.484318  0.019393  0.867884  1
  Ag  Ag54  1  0.409833  0.259001  0.669825  1
  Ag  Ag55  1  0.385237  0.834003  0.734495  1
  Ag  Ag56  1  0.871479  0.659342  0.264833  1
  Ag  Ag57  1  0.608287  0.067739  0.000092  1
  Ag  Ag58  1  0.191304  0.733013  0.658770  1
  Ag  Ag59  1  0.063646  0.716235  0.511683  1
  Ag  Ag60  1  0.920479  0.310413  0.021671  1
  Ag  Ag61  1  0.949979  0.833982  0.594969  1
  Ag  Ag62  1  0.388417  0.438375  0.500401  1
  Ag  Ag63  1  0.128521  0.340658  0.735167  1
  Ag  Ag64  1  0.114763  0.834003  0.234495  1
  Ag  Ag65  1  0.808696  0.266987  0.341230  1
  Ag  Ag66  1  0.515682  0.980607  0.132116  1
  Ag  Ag67  1  0.490087  0.867902  0.236774  1
  Ag  Ag68  1  0.611583  0.561625  0.499599  1
  Ag  Ag69  1  0.857779  0.437191  0.682130  1
  Ag  Ag70  1  0.144695  0.067886  0.813485  1
  Ag  Ag71  1  0.308696  0.733013  0.158770  1
  Ag  Ag72  1  0.855305  0.932114  0.186515  1
  Ag  Ag73  1  0.991322  0.385783  0.236681  1
  Ag  Ag74  1  0.888417  0.561625  -0.000401  1
  Ag  Ag75  1  0.391713  0.932261  0.999908  1
  Ag  Ag76  1  0.755624  0.204880  0.591797  1
  Ag  Ag77  1  0.691304  0.266987  0.841230  1
  Ag  Ag78  1  0.550021  0.833982  0.094969  1
  Ag  Ag79  1  0.579521  0.310413  0.521671  1
  Te  Te80  1  0.271225  0.563205  0.958430  1
  Te  Te81  1  0.268024  0.474290  0.214143  1
  Te  Te82  1  0.283716  0.054211  0.459778  1
  Te  Te83  1  0.237492  0.966911  0.221048  1
  Te  Te84  1  0.226207  0.321777  0.562051  1
  Te  Te85  1  0.229003  0.708147  0.295519  1
  Te  Te86  1  0.737492  0.033089  0.278952  1
  Te  Te87  1  0.772533  0.787346  0.204472  1
  Te  Te88  1  0.768024  0.525710  0.285857  1
  Te  Te89  1  0.272533  0.212654  0.295529  1
  Te  Te90  1  0.804137  0.184723  0.949714  1
  Te  Te91  1  0.228775  0.563205  0.458430  1
  Te  Te92  1  0.227467  0.212654  0.795528  1
  Te  Te93  1  0.231976  0.474290  0.714143  1
  Te  Te94  1  0.273793  0.321777  0.062051  1
  Te  Te95  1  0.270997  0.708147  0.795519  1
  Te  Te96  1  0.727467  0.787346  0.704472  1
  Te  Te97  1  0.731976  0.525710  0.785857  1
  Te  Te98  1  0.695863  0.184723  0.449714  1
  Te  Te99  1  0.728775  0.436795  0.041570  1
  Te  Te100  1  0.262508  0.966911  0.721048  1
  Te  Te101  1  0.773793  0.678223  0.437949  1
  Te  Te102  1  0.762508  0.033089  0.778952  1
  Te  Te103  1  0.770997  0.291853  0.704481  1
  Te  Te104  1  0.783716  0.945789  0.040223  1
  Te  Te105  1  0.195863  0.815277  0.050286  1
  Te  Te106  1  0.729003  0.291853  0.204481  1
  Te  Te107  1  0.726207  0.678223  0.937949  1
  Te  Te108  1  0.304137  0.815277  0.550286  1
  Te  Te109  1  0.716284  0.945789  0.540223  1
  Te  Te110  1  0.216284  0.054211  0.959777  1
  Te  Te111  1  0.771225  0.436795  0.541570  1
  Cl  Cl112  1  0.013707  0.630033  0.127618  1
  Cl  Cl113  1  0.013393  0.123169  0.125229  1
  Cl  Cl114  1  0.988133  0.625437  0.623078  1
  Cl  Cl115  1  0.486810  0.121334  0.120778  1
  Cl  Cl116  1  0.513393  0.876831  0.374771  1
  Cl  Cl117  1  0.511867  0.625437  0.123078  1
  Cl  Cl118  1  0.488133  0.374563  0.876922  1
  Cl  Cl119  1  0.513190  0.878666  0.879222  1
  Cl  Cl120  1  0.986293  0.369967  0.872382  1
  Cl  Cl121  1  0.013190  0.121334  0.620778  1
  Cl  Cl122  1  0.486293  0.630033  0.627618  1
  Cl  Cl123  1  0.011867  0.374563  0.376922  1
  Cl  Cl124  1  0.513707  0.369967  0.372382  1
  Cl  Cl125  1  0.986607  0.876831  0.874771  1
  Cl  Cl126  1  0.486607  0.123169  0.625229  1
  Cl  Cl127  1  0.986810  0.878666  0.379222  1
