# generated using pymatgen
data_Ba2LaSbO6
_symmetry_space_group_name_H-M   'P 1'
_cell_length_a   6.15076278
_cell_length_b   6.15075084
_cell_length_c   6.15077643
_cell_angle_alpha   60.41401735
_cell_angle_beta   60.41406339
_cell_angle_gamma   60.41402435
_symmetry_Int_Tables_number   1
_chemical_formula_structural   Ba2LaSbO6
_chemical_formula_sum   'Ba2 La1 Sb1 O6'
_cell_volume   166.08070226
_cell_formula_units_Z   1
loop_
 _symmetry_equiv_pos_site_id
 _symmetry_equiv_pos_as_xyz
  1  'x, y, z'
loop_
 _atom_site_type_symbol
 _atom_site_label
 _atom_site_symmetry_multiplicity
 _atom_site_fract_x
 _atom_site_fract_y
 _atom_site_fract_z
 _atom_site_occupancy
  O  O0  1  0.311717  0.727530  0.227834  1
  O  O1  1  0.272466  0.772171  0.688279  1
  Ba  Ba2  1  0.748462  0.748462  0.748461  1
  O  O3  1  0.227832  0.311721  0.727532  1
  La  La4  1  -0.000001  1.000000  1.000003  1
  O  O5  1  0.772168  0.688279  0.272469  1
  Ba  Ba6  1  0.251540  0.251540  0.251538  1
  O  O7  1  0.727533  0.227831  0.311720  1
  O  O8  1  0.688283  0.272468  0.772166  1
  Sb  Sb9  1  0.499999  0.499999  0.499999  1
