# generated using pymatgen
data_GdCuSe2ClO6
_symmetry_space_group_name_H-M   'P 1'
_cell_length_a   7.12605685
_cell_length_b   9.40420230
_cell_length_c   12.12856660
_cell_angle_alpha   70.45944574
_cell_angle_beta   72.76638021
_cell_angle_gamma   70.39211790
_symmetry_Int_Tables_number   1
_chemical_formula_structural   GdCuSe2ClO6
_chemical_formula_sum   'Gd4 Cu4 Se8 Cl4 O24'
_cell_volume   705.89015458
_cell_formula_units_Z   4
loop_
 _symmetry_equiv_pos_site_id
 _symmetry_equiv_pos_as_xyz
  1  'x, y, z'
loop_
 _atom_site_type_symbol
 _atom_site_label
 _atom_site_symmetry_multiplicity
 _atom_site_fract_x
 _atom_site_fract_y
 _atom_site_fract_z
 _atom_site_occupancy
  Gd  Gd0  1  0.766656  0.388565  0.570204  1
  Gd  Gd1  1  0.233344  0.611435  0.429796  1
  Gd  Gd2  1  0.250193  0.913294  0.085533  1
  Gd  Gd3  1  0.749807  0.086706  0.914467  1
  Cu  Cu4  1  0.578242  0.621358  0.841561  1
  Cu  Cu5  1  0.923712  0.855183  0.651593  1
  Cu  Cu6  1  0.421758  0.378642  0.158439  1
  Cu  Cu7  1  0.076288  0.144817  0.348407  1
  Se  Se8  1  0.530405  0.927846  0.252842  1
  Se  Se9  1  0.917700  0.259138  0.098368  1
  Se  Se10  1  0.440394  0.733169  0.594614  1
  Se  Se11  1  0.559606  0.266831  0.405386  1
  Se  Se12  1  0.031472  0.406139  0.749161  1
  Se  Se13  1  0.469595  0.072154  0.747158  1
  Se  Se14  1  0.968528  0.593861  0.250839  1
  Se  Se15  1  0.082300  0.740862  0.901632  1
  Cl  Cl16  1  0.562819  0.647379  0.029483  1
  Cl  Cl17  1  0.102374  0.126243  0.537616  1
  Cl  Cl18  1  0.437181  0.352621  0.970517  1
  Cl  Cl19  1  0.897626  0.873757  0.462384  1
  O  O20  1  0.985997  0.144486  0.998558  1
  O  O21  1  0.634743  0.184654  0.724407  1
  O  O22  1  0.197434  0.706775  0.619358  1
  O  O23  1  0.111368  0.719952  0.235504  1
  O  O24  1  0.458513  0.357980  0.521566  1
  O  O25  1  0.628280  0.920701  0.687779  1
  O  O26  1  0.014003  0.855514  0.001442  1
  O  O27  1  0.068492  0.114575  0.195161  1
  O  O28  1  0.931508  0.885425  0.804839  1
  O  O29  1  0.316036  0.773753  0.825552  1
  O  O30  1  0.802566  0.293225  0.380642  1
  O  O31  1  0.683964  0.226247  0.174448  1
  O  O32  1  0.437096  0.428942  0.304266  1
  O  O33  1  0.129745  0.464627  0.169953  1
  O  O34  1  0.870255  0.535373  0.830047  1
  O  O35  1  0.009600  0.497667  0.601694  1
  O  O36  1  0.541487  0.642020  0.478434  1
  O  O37  1  0.541233  0.991624  0.098899  1
  O  O38  1  0.458767  0.008376  0.901101  1
  O  O39  1  0.888632  0.280048  0.764497  1
  O  O40  1  0.365257  0.815346  0.275593  1
  O  O41  1  0.371720  0.079299  0.312221  1
  O  O42  1  0.562904  0.571058  0.695734  1
  O  O43  1  0.990400  0.502333  0.398306  1
