# generated using pymatgen
data_SrV2ZnO7
_symmetry_space_group_name_H-M   'P 1'
_cell_length_a   6.77283272
_cell_length_b   7.59732826
_cell_length_c   12.13877975
_cell_angle_alpha   96.05230375
_cell_angle_beta   90.00000000
_cell_angle_gamma   90.00000000
_symmetry_Int_Tables_number   1
_chemical_formula_structural   SrV2ZnO7
_chemical_formula_sum   'Sr4 V8 Zn4 O28'
_cell_volume   621.12465553
_cell_formula_units_Z   4
loop_
 _symmetry_equiv_pos_site_id
 _symmetry_equiv_pos_as_xyz
  1  'x, y, z'
loop_
 _atom_site_type_symbol
 _atom_site_label
 _atom_site_symmetry_multiplicity
 _atom_site_fract_x
 _atom_site_fract_y
 _atom_site_fract_z
 _atom_site_occupancy
  Sr  Sr0  1  0.649407  0.254814  0.023662  1
  Sr  Sr1  1  0.850593  0.754814  0.523662  1
  Sr  Sr2  1  0.149407  0.245186  0.476338  1
  Sr  Sr3  1  0.350593  0.745186  0.976338  1
  V  V4  1  0.588722  0.414367  0.720402  1
  V  V5  1  0.156229  0.255875  0.038460  1
  V  V6  1  0.411278  0.585633  0.279598  1
  V  V7  1  0.343771  0.755875  0.538460  1
  V  V8  1  0.088722  0.085633  0.779598  1
  V  V9  1  0.843771  0.744125  0.961540  1
  V  V10  1  0.656229  0.244125  0.461540  1
  V  V11  1  0.911278  0.914367  0.220402  1
  Zn  Zn12  1  0.607784  0.977454  0.767098  1
  Zn  Zn13  1  0.392216  0.022546  0.232902  1
  Zn  Zn14  1  0.892216  0.477454  0.267098  1
  Zn  Zn15  1  0.107784  0.522546  0.732902  1
  O  O16  1  0.089118  0.053555  0.281949  1
  O  O17  1  0.589118  0.446445  0.218051  1
  O  O18  1  0.697576  0.024317  0.194190  1
  O  O19  1  0.028506  0.668572  0.871026  1
  O  O20  1  0.823947  0.402274  0.419995  1
  O  O21  1  0.131036  0.258291  0.699417  1
  O  O22  1  0.802424  0.524317  0.694190  1
  O  O23  1  0.302424  0.975683  0.805810  1
  O  O24  1  0.506749  0.327716  0.580206  1
  O  O25  1  0.868964  0.741709  0.300583  1
  O  O26  1  0.910882  0.946445  0.718051  1
  O  O27  1  0.323947  0.097726  0.080005  1
  O  O28  1  0.471494  0.168572  0.371026  1
  O  O29  1  0.676053  0.902274  0.919995  1
  O  O30  1  0.993251  0.827716  0.080206  1
  O  O31  1  0.303962  0.420702  0.005581  1
  O  O32  1  0.006750  0.172284  0.919794  1
  O  O33  1  0.197576  0.475683  0.305810  1
  O  O34  1  0.196038  0.920702  0.505581  1
  O  O35  1  0.368964  0.758291  0.199417  1
  O  O36  1  0.971494  0.331428  0.128974  1
  O  O37  1  0.528506  0.831428  0.628974  1
  O  O38  1  0.631036  0.241709  0.800583  1
  O  O39  1  0.696038  0.579298  0.994419  1
  O  O40  1  0.803962  0.079298  0.494419  1
  O  O41  1  0.493250  0.672284  0.419794  1
  O  O42  1  0.410882  0.553555  0.781949  1
  O  O43  1  0.176053  0.597726  0.580005  1
