# generated using pymatgen
data_Na2CuSbS3
_symmetry_space_group_name_H-M   'P 1'
_cell_length_a   5.86719535
_cell_length_b   6.81313710
_cell_length_c   17.24542493
_cell_angle_alpha   90.00000000
_cell_angle_beta   90.00000000
_cell_angle_gamma   113.10604398
_symmetry_Int_Tables_number   1
_chemical_formula_structural   Na2CuSbS3
_chemical_formula_sum   'Na8 Cu4 Sb4 S12'
_cell_volume   634.06763858
_cell_formula_units_Z   4
loop_
 _symmetry_equiv_pos_site_id
 _symmetry_equiv_pos_as_xyz
  1  'x, y, z'
loop_
 _atom_site_type_symbol
 _atom_site_label
 _atom_site_symmetry_multiplicity
 _atom_site_fract_x
 _atom_site_fract_y
 _atom_site_fract_z
 _atom_site_occupancy
  Na  Na0  1  0.844119  0.690341  0.961598  1
  Na  Na1  1  0.655881  0.809659  0.461598  1
  Na  Na2  1  0.552972  0.117639  0.886746  1
  Na  Na3  1  0.947028  0.382361  0.386746  1
  Na  Na4  1  0.447028  0.882361  0.113253  1
  Na  Na5  1  0.052972  0.617639  0.613254  1
  Na  Na6  1  0.155881  0.309659  0.038402  1
  Na  Na7  1  0.344119  0.190341  0.538402  1
  Cu  Cu8  1  0.018363  0.899561  0.787699  1
  Cu  Cu9  1  0.518363  0.399561  0.712301  1
  Cu  Cu10  1  0.981637  0.100439  0.212301  1
  Cu  Cu11  1  0.481637  0.600439  0.287699  1
  Sb  Sb12  1  0.226732  0.481652  0.826069  1
  Sb  Sb13  1  0.773268  0.518348  0.173931  1
  Sb  Sb14  1  0.726732  0.981652  0.673931  1
  Sb  Sb15  1  0.273268  0.018348  0.326069  1
  S  S16  1  0.830293  0.539879  0.804116  1
  S  S17  1  0.647056  0.305087  0.056911  1
  S  S18  1  0.448538  0.373386  0.387203  1
  S  S19  1  0.147056  0.805087  0.443089  1
  S  S20  1  0.330293  0.039879  0.695884  1
  S  S21  1  0.669707  0.960121  0.304116  1
  S  S22  1  0.051462  0.126614  0.887203  1
  S  S23  1  0.352944  0.694913  0.943089  1
  S  S24  1  0.852944  0.194913  0.556911  1
  S  S25  1  0.169707  0.460121  0.195884  1
  S  S26  1  0.948538  0.873386  0.112797  1
  S  S27  1  0.551462  0.626614  0.612797  1
