# generated using pymatgen
data_SiO2
_symmetry_space_group_name_H-M   'P 1'
_cell_length_a   10.48555220
_cell_length_b   11.00833977
_cell_length_c   11.00834006
_cell_angle_alpha   76.89073974
_cell_angle_beta   61.55884809
_cell_angle_gamma   61.55862836
_symmetry_Int_Tables_number   1
_chemical_formula_structural   SiO2
_chemical_formula_sum   'Si16 O32'
_cell_volume   982.45997493
_cell_formula_units_Z   16
loop_
 _symmetry_equiv_pos_site_id
 _symmetry_equiv_pos_as_xyz
  1  'x, y, z'
loop_
 _atom_site_type_symbol
 _atom_site_label
 _atom_site_symmetry_multiplicity
 _atom_site_fract_x
 _atom_site_fract_y
 _atom_site_fract_z
 _atom_site_occupancy
  Si  Si0  1  0.249899  0.646093  0.353995  1
  Si  Si1  1  0.547361  0.500129  0.119889  1
  Si  Si2  1  0.167374  0.499868  0.880114  1
  Si  Si3  1  0.249988  0.353897  0.646015  1
  Si  Si4  1  0.952497  0.880115  0.500146  1
  Si  Si5  1  0.103995  0.646020  0.646106  1
  Si  Si6  1  0.750101  0.353907  0.646005  1
  Si  Si7  1  0.896005  0.353980  0.353894  1
  Si  Si8  1  0.452639  0.499871  0.880111  1
  Si  Si9  1  0.667229  0.880109  0.500149  1
  Si  Si10  1  0.750012  0.646103  0.353985  1
  Si  Si11  1  0.332771  0.119891  0.499851  1
  Si  Si12  1  0.603886  0.646017  0.646110  1
  Si  Si13  1  0.396114  0.353983  0.353890  1
  Si  Si14  1  0.047503  0.119885  0.499854  1
  Si  Si15  1  0.832626  0.500132  0.119886  1
  O  O16  1  0.269306  0.360412  0.782942  1
  O  O17  1  0.912946  0.216996  0.639390  1
  O  O18  1  0.129932  0.639412  0.783012  1
  O  O19  1  0.757182  0.499996  0.650055  1
  O  O20  1  0.907228  0.500005  0.349943  1
  O  O21  1  0.087054  0.783004  0.360610  1
  O  O22  1  0.092772  0.499995  0.650057  1
  O  O23  1  0.407239  0.349943  0.499986  1
  O  O24  1  0.052268  0.217064  0.360403  1
  O  O25  1  0.629719  0.782939  0.639605  1
  O  O26  1  0.587339  0.360421  0.782933  1
  O  O27  1  0.870068  0.360588  0.216988  1
  O  O28  1  0.242818  0.500004  0.349945  1
  O  O29  1  0.776215  0.947135  0.500423  1
  O  O30  1  0.412661  0.639579  0.217067  1
  O  O31  1  0.730694  0.639588  0.217058  1
  O  O32  1  0.000000  0.500000  0.000000  1
  O  O33  1  0.947732  0.782936  0.639597  1
  O  O34  1  0.370281  0.217061  0.360395  1
  O  O35  1  0.276637  0.499586  0.947133  1
  O  O36  1  0.000000  0.000000  0.500000  1
  O  O37  1  0.592761  0.650057  0.500014  1
  O  O38  1  0.257173  0.650055  0.500013  1
  O  O39  1  0.769327  0.783013  0.360603  1
  O  O40  1  0.723363  0.500414  0.052866  1
  O  O41  1  0.742827  0.349945  0.499987  1
  O  O42  1  0.447639  0.639409  0.783006  1
  O  O43  1  0.552361  0.360591  0.216994  1
  O  O44  1  0.230673  0.216987  0.639397  1
  O  O45  1  0.223785  0.052865  0.499577  1
  O  O46  1  0.500000  0.500000  0.000000  1
  O  O47  1  0.500000  0.000000  0.500000  1
