# generated using pymatgen
data_CsCo(CO)4
_symmetry_space_group_name_H-M   'P 1'
_cell_length_a   5.47279712
_cell_length_b   6.68193849
_cell_length_c   6.68193770
_cell_angle_alpha   80.34541169
_cell_angle_beta   65.82520873
_cell_angle_gamma   65.82520390
_symmetry_Int_Tables_number   1
_chemical_formula_structural   CsCo(CO)4
_chemical_formula_sum   'Cs1 Co1 C4 O4'
_cell_volume   203.37143066
_cell_formula_units_Z   1
loop_
 _symmetry_equiv_pos_site_id
 _symmetry_equiv_pos_as_xyz
  1  'x, y, z'
loop_
 _atom_site_type_symbol
 _atom_site_label
 _atom_site_symmetry_multiplicity
 _atom_site_fract_x
 _atom_site_fract_y
 _atom_site_fract_z
 _atom_site_occupancy
  C  C0  1  0.608485  0.296251  0.600845  1
  C  C1  1  0.790670  0.600845  0.703749  1
  C  C2  1  0.505580  0.703750  0.399154  1
  C  C3  1  0.095265  0.399154  0.296251  1
  O  O4  1  0.821499  0.668679  0.839583  1
  O  O5  1  0.329762  0.331320  0.160417  1
  O  O6  1  0.338918  0.839582  0.331322  1
  O  O7  1  0.509823  0.160417  0.668679  1
  Co  Co8  1  0.750000  0.500000  0.500000  1
  Cs  Cs9  1  0.000000  0.000000  0.000000  1
