# generated using pymatgen
data_MgSiO3
_symmetry_space_group_name_H-M   'P 1'
_cell_length_a   5.27875684
_cell_length_b   9.13219137
_cell_length_c   18.35834510
_cell_angle_alpha   90.00000000
_cell_angle_beta   90.00000000
_cell_angle_gamma   90.00000000
_symmetry_Int_Tables_number   1
_chemical_formula_structural   MgSiO3
_chemical_formula_sum   'Mg16 Si16 O48'
_cell_volume   884.99372308
_cell_formula_units_Z   16
loop_
 _symmetry_equiv_pos_site_id
 _symmetry_equiv_pos_as_xyz
  1  'x, y, z'
loop_
 _atom_site_type_symbol
 _atom_site_label
 _atom_site_symmetry_multiplicity
 _atom_site_fract_x
 _atom_site_fract_y
 _atom_site_fract_z
 _atom_site_occupancy
  Mg  Mg0  1  0.644213  0.155458  0.610152  1
  Mg  Mg1  1  0.144213  0.344542  0.610152  1
  Mg  Mg2  1  0.155265  0.494593  0.866515  1
  Mg  Mg3  1  0.855787  0.155458  0.110152  1
  Mg  Mg4  1  0.655265  0.505407  0.633485  1
  Mg  Mg5  1  0.644213  0.655458  0.889848  1
  Mg  Mg6  1  0.844735  0.005407  0.366515  1
  Mg  Mg7  1  0.144213  0.844542  0.889848  1
  Mg  Mg8  1  0.155265  0.994593  0.633485  1
  Mg  Mg9  1  0.655265  0.005407  0.866515  1
  Mg  Mg10  1  0.355787  0.844542  0.389848  1
  Mg  Mg11  1  0.344735  0.494593  0.366515  1
  Mg  Mg12  1  0.344735  0.994593  0.133485  1
  Mg  Mg13  1  0.355787  0.344542  0.110152  1
  Mg  Mg14  1  0.855787  0.655458  0.389848  1
  Mg  Mg15  1  0.844735  0.505407  0.133485  1
  Si  Si16  1  0.577747  0.783001  0.259213  1
  Si  Si17  1  0.577747  0.283001  0.240787  1
  Si  Si18  1  0.201369  0.165908  0.965157  1
  Si  Si19  1  0.298631  0.665908  0.034843  1
  Si  Si20  1  0.922253  0.283001  0.740787  1
  Si  Si21  1  0.922253  0.783001  0.759213  1
  Si  Si22  1  0.077747  0.716999  0.259213  1
  Si  Si23  1  0.077747  0.216999  0.240787  1
  Si  Si24  1  0.798631  0.834092  0.034843  1
  Si  Si25  1  0.701369  0.334092  0.965157  1
  Si  Si26  1  0.422253  0.216999  0.740787  1
  Si  Si27  1  0.798631  0.334092  0.465157  1
  Si  Si28  1  0.298631  0.165908  0.465157  1
  Si  Si29  1  0.701369  0.834092  0.534843  1
  Si  Si30  1  0.422253  0.716999  0.759213  1
  Si  Si31  1  0.201369  0.665908  0.534843  1
  O  O32  1  0.196586  0.655837  0.445840  1
  O  O33  1  0.678589  0.232737  0.793905  1
  O  O34  1  0.680956  0.971891  0.076930  1
  O  O35  1  0.930419  0.441453  0.701329  1
  O  O36  1  0.540162  0.170865  0.172349  1
  O  O37  1  0.178589  0.267263  0.793905  1
  O  O38  1  0.680956  0.471891  0.423070  1
  O  O39  1  0.180956  0.028109  0.423070  1
  O  O40  1  0.040162  0.329135  0.172349  1
  O  O41  1  0.930419  0.941453  0.798671  1
  O  O42  1  0.069581  0.058547  0.201329  1
  O  O43  1  0.319044  0.528109  0.576930  1
  O  O44  1  0.959838  0.670865  0.827651  1
  O  O45  1  0.069581  0.558547  0.298671  1
  O  O46  1  0.821411  0.732737  0.206095  1
  O  O47  1  0.459838  0.829135  0.827651  1
  O  O48  1  0.891972  0.191192  0.941315  1
  O  O49  1  0.696586  0.844163  0.445840  1
  O  O50  1  0.196586  0.155837  0.054160  1
  O  O51  1  0.303414  0.155837  0.554160  1
  O  O52  1  0.891972  0.691192  0.558685  1
  O  O53  1  0.108028  0.808808  0.058685  1
  O  O54  1  0.608028  0.191192  0.441315  1
  O  O55  1  0.821411  0.232737  0.293905  1
  O  O56  1  0.608028  0.691192  0.058685  1
  O  O57  1  0.959838  0.170865  0.672349  1
  O  O58  1  0.678589  0.732737  0.706095  1
  O  O59  1  0.803414  0.844163  0.945840  1
  O  O60  1  0.321411  0.767263  0.206095  1
  O  O61  1  0.569581  0.441453  0.201329  1
  O  O62  1  0.180956  0.528109  0.076930  1
  O  O63  1  0.803414  0.344163  0.554160  1
  O  O64  1  0.696586  0.344163  0.054160  1
  O  O65  1  0.430419  0.058547  0.701329  1
  O  O66  1  0.459838  0.329135  0.672349  1
  O  O67  1  0.040162  0.829135  0.327651  1
  O  O68  1  0.321411  0.267263  0.293905  1
  O  O69  1  0.319044  0.028109  0.923070  1
  O  O70  1  0.391972  0.308808  0.941315  1
  O  O71  1  0.391972  0.808808  0.558685  1
  O  O72  1  0.430419  0.558547  0.798671  1
  O  O73  1  0.178589  0.767263  0.706095  1
  O  O74  1  0.819044  0.971891  0.576930  1
  O  O75  1  0.819044  0.471891  0.923070  1
  O  O76  1  0.540162  0.670865  0.327651  1
  O  O77  1  0.108028  0.308808  0.441315  1
  O  O78  1  0.569581  0.941453  0.298671  1
  O  O79  1  0.303414  0.655837  0.945840  1
