# generated using pymatgen
data_LiMgVO4
_symmetry_space_group_name_H-M   'P 1'
_cell_length_a   5.20729583
_cell_length_b   5.20729529
_cell_length_c   6.32670754
_cell_angle_alpha   90.00000000
_cell_angle_beta   90.00000000
_cell_angle_gamma   113.50222839
_symmetry_Int_Tables_number   1
_chemical_formula_structural   LiMgVO4
_chemical_formula_sum   'Li2 Mg2 V2 O8'
_cell_volume   157.32315876
_cell_formula_units_Z   2
loop_
 _symmetry_equiv_pos_site_id
 _symmetry_equiv_pos_as_xyz
  1  'x, y, z'
loop_
 _atom_site_type_symbol
 _atom_site_label
 _atom_site_symmetry_multiplicity
 _atom_site_fract_x
 _atom_site_fract_y
 _atom_site_fract_z
 _atom_site_occupancy
  Li  Li0  1  0.837150  0.162850  0.250000  1
  Li  Li1  1  0.162850  0.837150  0.750000  1
  Mg  Mg2  1  0.500000  0.500000  0.000000  1
  Mg  Mg3  1  0.500000  0.500000  0.500000  1
  V  V4  1  0.145566  0.854434  0.250000  1
  V  V5  1  0.854434  0.145566  0.750000  1
  O  O6  1  0.259883  0.740117  0.470408  1
  O  O7  1  0.734250  0.773938  0.750000  1
  O  O8  1  0.265750  0.226062  0.250000  1
  O  O9  1  0.740117  0.259883  0.970408  1
  O  O10  1  0.740117  0.259883  0.529592  1
  O  O11  1  0.773938  0.734250  0.250000  1
  O  O12  1  0.226062  0.265750  0.750000  1
  O  O13  1  0.259883  0.740117  0.029592  1
