# generated using pymatgen
data_SbPC3S3N3Cl3O
_symmetry_space_group_name_H-M   'P 1'
_cell_length_a   12.56884709
_cell_length_b   12.56884687
_cell_length_c   12.56884704
_cell_angle_alpha   109.47122273
_cell_angle_beta   109.47122238
_cell_angle_gamma   109.47121926
_symmetry_Int_Tables_number   1
_chemical_formula_structural   SbPC3S3N3Cl3O
_chemical_formula_sum   'Sb4 P4 C12 S12 N12 Cl12 O4'
_cell_volume   1528.49638107
_cell_formula_units_Z   4
loop_
 _symmetry_equiv_pos_site_id
 _symmetry_equiv_pos_as_xyz
  1  'x, y, z'
loop_
 _atom_site_type_symbol
 _atom_site_label
 _atom_site_symmetry_multiplicity
 _atom_site_fract_x
 _atom_site_fract_y
 _atom_site_fract_z
 _atom_site_occupancy
  Sb  Sb0  1  0.785830  0.000000  1.000000  1
  Sb  Sb1  1  0.214170  0.214170  0.214170  1
  Sb  Sb2  1  1.000000  1.000000  0.785830  1
  Sb  Sb3  1  1.000000  0.785830  1.000000  1
  P  P4  1  0.346435  1.000000  0.000000  1
  P  P5  1  0.000000  0.346435  0.000000  1
  P  P6  1  0.000000  0.000000  0.346435  1
  P  P7  1  0.653565  0.653565  0.653565  1
  C  C8  1  0.291548  0.781542  0.781542  1
  C  C9  1  0.781542  0.781542  0.291548  1
  C  C10  1  1.000000  0.218458  0.510006  1
  C  C11  1  0.218458  0.510006  1.000000  1
  C  C12  1  0.781542  0.291548  0.781542  1
  C  C13  1  0.489994  0.708452  0.489994  1
  C  C14  1  0.708452  0.489994  0.489994  1
  C  C15  1  0.510006  0.218458  1.000000  1
  C  C16  1  1.000000  0.510006  0.218458  1
  C  C17  1  0.218458  1.000000  0.510006  1
  C  C18  1  0.510006  1.000000  0.218458  1
  C  C19  1  0.489994  0.489994  0.708452  1
  S  S20  1  0.661107  0.260293  0.661107  1
  S  S21  1  0.338893  1.000000  0.599186  1
  S  S22  1  1.000000  0.338893  0.599186  1
  S  S23  1  0.400814  0.400814  0.739707  1
  S  S24  1  0.338893  0.599186  1.000000  1
  S  S25  1  0.260293  0.661107  0.661107  1
  S  S26  1  0.599186  1.000000  0.338893  1
  S  S27  1  0.739707  0.400814  0.400814  1
  S  S28  1  0.599186  0.338893  1.000000  1
  S  S29  1  0.400814  0.739707  0.400814  1
  S  S30  1  0.661107  0.661107  0.260293  1
  S  S31  1  1.000000  0.599186  0.338893  1
  N  N32  1  0.440180  0.125019  1.000000  1
  N  N33  1  0.315160  0.874981  0.874981  1
  N  N34  1  0.874981  0.874981  0.315160  1
  N  N35  1  0.125019  0.000000  0.440180  1
  N  N36  1  0.125019  0.440180  1.000000  1
  N  N37  1  0.874981  0.315160  0.874981  1
  N  N38  1  0.440180  1.000000  0.125019  1
  N  N39  1  0.000000  0.125019  0.440180  1
  N  N40  1  1.000000  0.440180  0.125019  1
  N  N41  1  0.684840  0.559820  0.559820  1
  N  N42  1  0.559820  0.559820  0.684840  1
  N  N43  1  0.559820  0.684840  0.559820  1
  Cl  Cl44  1  0.000000  0.629313  0.827915  1
  Cl  Cl45  1  0.370687  0.198603  0.370687  1
  Cl  Cl46  1  0.629313  0.000000  0.827915  1
  Cl  Cl47  1  0.198603  0.370687  0.370687  1
  Cl  Cl48  1  0.000000  0.827915  0.629313  1
  Cl  Cl49  1  0.801397  0.172085  0.172085  1
  Cl  Cl50  1  0.172085  0.172085  0.801397  1
  Cl  Cl51  1  0.827915  0.000000  0.629313  1
  Cl  Cl52  1  0.629313  0.827915  0.000000  1
  Cl  Cl53  1  0.172085  0.801397  0.172085  1
  Cl  Cl54  1  0.827915  0.629313  0.000000  1
  Cl  Cl55  1  0.370687  0.370687  0.198603  1
  O  O56  1  0.771977  0.771977  0.771977  1
  O  O57  1  0.000000  0.228023  0.000000  1
  O  O58  1  0.000000  0.000000  0.228023  1
  O  O59  1  0.228023  1.000000  0.000000  1
