# generated using pymatgen
data_Eu3BrO4
_symmetry_space_group_name_H-M   'P 1'
_cell_length_a   4.17905723
_cell_length_b   6.48227072
_cell_length_c   11.91130498
_cell_angle_alpha   90.00000000
_cell_angle_beta   90.00000000
_cell_angle_gamma   108.80480983
_symmetry_Int_Tables_number   1
_chemical_formula_structural   Eu3BrO4
_chemical_formula_sum   'Eu6 Br2 O8'
_cell_volume   305.45097408
_cell_formula_units_Z   2
loop_
 _symmetry_equiv_pos_site_id
 _symmetry_equiv_pos_as_xyz
  1  'x, y, z'
loop_
 _atom_site_type_symbol
 _atom_site_label
 _atom_site_symmetry_multiplicity
 _atom_site_fract_x
 _atom_site_fract_y
 _atom_site_fract_z
 _atom_site_occupancy
  Eu  Eu0  1  0.178819  0.357638  0.400626  1
  Eu  Eu1  1  0.821181  0.642362  0.599374  1
  Eu  Eu2  1  0.821181  0.642362  0.900626  1
  Eu  Eu3  1  0.178819  0.357638  0.099374  1
  Eu  Eu4  1  0.120939  0.241877  0.750000  1
  Eu  Eu5  1  0.879061  0.758123  0.250000  1
  O  O6  1  0.695831  0.391663  0.750000  1
  O  O7  1  0.304169  0.608337  0.250000  1
  O  O8  1  0.932793  0.865585  0.750000  1
  O  O9  1  0.067207  0.134415  0.250000  1
  Br  Br10  1  0.500000  0.000000  0.000000  1
  Br  Br11  1  0.500000  0.000000  0.500000  1
  O  O12  1  0.233672  0.467344  0.912386  1
  O  O13  1  0.766328  0.532656  0.087614  1
  O  O14  1  0.766328  0.532656  0.412386  1
  O  O15  1  0.233672  0.467344  0.587614  1
