# generated using pymatgen
data_VO2
_symmetry_space_group_name_H-M   'P 1'
_cell_length_a   4.62020760
_cell_length_b   7.26698026
_cell_length_c   9.09218598
_cell_angle_alpha   90.00000000
_cell_angle_beta   78.78118643
_cell_angle_gamma   90.00000000
_symmetry_Int_Tables_number   1
_chemical_formula_structural   VO2
_chemical_formula_sum   'V4 O8'
_cell_volume   299.43645637
_cell_formula_units_Z   4
loop_
 _symmetry_equiv_pos_site_id
 _symmetry_equiv_pos_as_xyz
  1  'x, y, z'
loop_
 _atom_site_type_symbol
 _atom_site_label
 _atom_site_symmetry_multiplicity
 _atom_site_fract_x
 _atom_site_fract_y
 _atom_site_fract_z
 _atom_site_occupancy
  V  V0  1  0.655578  0.000000  0.793153  1
  V  V1  1  0.344422  0.000000  0.206846  1
  V  V2  1  0.000000  0.187332  0.000000  1
  V  V3  1  0.000000  0.812667  0.000000  1
  O  O4  1  0.247032  0.000000  0.883607  1
  O  O5  1  0.752968  0.000000  0.116393  1
  O  O6  1  0.236652  0.773815  0.141683  1
  O  O7  1  0.763348  0.773815  0.858317  1
  O  O8  1  0.763348  0.226185  0.858317  1
  O  O9  1  0.236652  0.226185  0.141683  1
  O  O10  1  0.317215  0.000000  0.386537  1
  O  O11  1  0.682785  0.000000  0.613463  1
