# generated using pymatgen
data_U2CuAs2(H4O5)4
_symmetry_space_group_name_H-M   'P 1'
_cell_length_a   7.16610352
_cell_length_b   7.16610352
_cell_length_c   17.68416017
_cell_angle_alpha   90.00000000
_cell_angle_beta   90.00000000
_cell_angle_gamma   90.00000000
_symmetry_Int_Tables_number   1
_chemical_formula_structural   U2CuAs2(H4O5)4
_chemical_formula_sum   'U4 Cu2 As4 H32 O40'
_cell_volume   908.13537855
_cell_formula_units_Z   2
loop_
 _symmetry_equiv_pos_site_id
 _symmetry_equiv_pos_as_xyz
  1  'x, y, z'
loop_
 _atom_site_type_symbol
 _atom_site_label
 _atom_site_symmetry_multiplicity
 _atom_site_fract_x
 _atom_site_fract_y
 _atom_site_fract_z
 _atom_site_occupancy
  U  U0  1  0.250000  0.250000  0.056294  1
  U  U1  1  0.750000  0.750000  0.943706  1
  U  U2  1  0.250000  0.250000  0.555336  1
  U  U3  1  0.750000  0.750000  0.444664  1
  Cu  Cu4  1  0.250000  0.250000  0.310791  1
  Cu  Cu5  1  0.750000  0.750000  0.689209  1
  As  As6  1  0.250000  0.750000  0.000000  1
  As  As7  1  0.750000  0.250000  0.000000  1
  As  As8  1  0.250000  0.750000  0.500000  1
  As  As9  1  0.750000  0.250000  0.500000  1
  O  O10  1  0.250000  0.250000  0.451854  1
  O  O11  1  0.750000  0.750000  0.548146  1
  O  O12  1  0.250000  0.250000  0.953767  1
  O  O13  1  0.750000  0.750000  0.046233  1
  O  O14  1  0.250000  0.250000  0.657602  1
  O  O15  1  0.750000  0.750000  0.342398  1
  O  O16  1  0.250000  0.250000  0.159615  1
  O  O17  1  0.750000  0.750000  0.840385  1
  O  O18  1  0.300915  0.933304  0.059315  1
  O  O19  1  0.566696  0.300915  0.059315  1
  O  O20  1  0.933304  0.199085  0.059315  1
  O  O21  1  0.199085  0.566696  0.059315  1
  O  O22  1  0.699085  0.066696  0.940685  1
  O  O23  1  0.433304  0.699085  0.940685  1
  O  O24  1  0.066696  0.800915  0.940685  1
  O  O25  1  0.800915  0.433304  0.940685  1
  O  O26  1  0.190693  0.932866  0.558415  1
  O  O27  1  0.567134  0.190693  0.558415  1
  O  O28  1  0.932866  0.309307  0.558415  1
  O  O29  1  0.309307  0.567134  0.558415  1
  O  O30  1  0.809307  0.067134  0.441585  1
  O  O31  1  0.432866  0.809307  0.441585  1
  O  O32  1  0.067134  0.690693  0.441585  1
  O  O33  1  0.690693  0.432866  0.441585  1
  O  O34  1  0.525227  0.286024  0.308967  1
  O  O35  1  0.213976  0.525227  0.308967  1
  O  O36  1  0.286024  0.974773  0.308967  1
  O  O37  1  0.974773  0.213976  0.308967  1
  O  O38  1  0.474773  0.713976  0.691033  1
  O  O39  1  0.786024  0.474773  0.691033  1
  O  O40  1  0.713976  0.025227  0.691033  1
  O  O41  1  0.025227  0.786024  0.691033  1
  O  O42  1  0.356071  0.502585  0.804425  1
  O  O43  1  0.997415  0.356071  0.804425  1
  O  O44  1  0.502585  0.143929  0.804425  1
  O  O45  1  0.143929  0.997415  0.804425  1
  O  O46  1  0.643929  0.497415  0.195575  1
  O  O47  1  0.002585  0.643929  0.195575  1
  O  O48  1  0.497415  0.856071  0.195575  1
  O  O49  1  0.856071  0.002585  0.195575  1
  H  H50  1  0.374128  0.568527  0.852985  1
  H  H51  1  0.931473  0.374128  0.852985  1
  H  H52  1  0.568527  0.125872  0.852985  1
  H  H53  1  0.125872  0.931473  0.852985  1
  H  H54  1  0.625872  0.431473  0.147015  1
  H  H55  1  0.068527  0.625872  0.147015  1
  H  H56  1  0.431473  0.874128  0.147015  1
  H  H57  1  0.874128  0.068527  0.147015  1
  H  H58  1  0.575101  0.343320  0.355820  1
  H  H59  1  0.156680  0.575101  0.355820  1
  H  H60  1  0.343320  0.924899  0.355820  1
  H  H61  1  0.924899  0.156680  0.355820  1
  H  H62  1  0.424899  0.656680  0.644180  1
  H  H63  1  0.843320  0.424899  0.644180  1
  H  H64  1  0.656680  0.075101  0.644180  1
  H  H65  1  0.075101  0.843320  0.644180  1
  H  H66  1  0.569866  0.368292  0.266043  1
  H  H67  1  0.131708  0.569866  0.266043  1
  H  H68  1  0.368292  0.930134  0.266043  1
  H  H69  1  0.930134  0.131708  0.266043  1
  H  H70  1  0.430134  0.631708  0.733957  1
  H  H71  1  0.868292  0.430134  0.733957  1
  H  H72  1  0.631708  0.069866  0.733957  1
  H  H73  1  0.069866  0.868292  0.733957  1
  H  H74  1  0.221999  0.464649  0.803074  1
  H  H75  1  0.035351  0.221999  0.803074  1
  H  H76  1  0.464649  0.278001  0.803074  1
  H  H77  1  0.278001  0.035351  0.803074  1
  H  H78  1  0.778001  0.535351  0.196926  1
  H  H79  1  0.964649  0.778001  0.196926  1
  H  H80  1  0.535351  0.721999  0.196926  1
  H  H81  1  0.721999  0.964649  0.196926  1
