# generated using pymatgen
data_B6H21C5N2O
_symmetry_space_group_name_H-M   'P 1'
_cell_length_a   8.72880486
_cell_length_b   8.89402007
_cell_length_c   9.46151770
_cell_angle_alpha   65.52110633
_cell_angle_beta   80.41703494
_cell_angle_gamma   68.11980347
_symmetry_Int_Tables_number   1
_chemical_formula_structural   B6H21C5N2O
_chemical_formula_sum   'B12 H42 C10 N4 O2'
_cell_volume   620.29296996
_cell_formula_units_Z   2
loop_
 _symmetry_equiv_pos_site_id
 _symmetry_equiv_pos_as_xyz
  1  'x, y, z'
loop_
 _atom_site_type_symbol
 _atom_site_label
 _atom_site_symmetry_multiplicity
 _atom_site_fract_x
 _atom_site_fract_y
 _atom_site_fract_z
 _atom_site_occupancy
  B  B0  1  0.831820  0.683868  0.439617  1
  B  B1  1  0.025375  0.669426  0.339585  1
  B  B2  1  0.815107  0.470365  0.521749  1
  B  B3  1  0.910609  0.542213  0.336048  1
  B  B4  1  0.168180  0.316132  0.560383  1
  B  B5  1  0.089391  0.457787  0.663952  1
  B  B6  1  0.871392  0.552914  0.640415  1
  B  B7  1  0.184893  0.529635  0.478251  1
  B  B8  1  0.001288  0.676301  0.527591  1
  B  B9  1  0.128608  0.447086  0.359585  1
  B  B10  1  0.974625  0.330574  0.660415  1
  B  B11  1  0.998712  0.323699  0.472409  1
  H  H12  1  0.370526  0.528884  0.890141  1
  H  H13  1  0.323289  0.994738  0.907080  1
  H  H14  1  0.316800  0.549867  0.463198  1
  H  H15  1  0.540502  0.688888  0.271180  1
  H  H16  1  0.200152  0.966197  0.327268  1
  H  H17  1  0.220731  0.156963  0.986118  1
  H  H18  1  0.080653  0.675800  0.828217  1
  H  H19  1  0.997840  0.198047  0.453671  1
  H  H20  1  0.779269  0.843037  0.013882  1
  H  H21  1  0.712060  0.814974  0.396284  1
  H  H22  1  0.314256  0.112028  0.227326  1
  H  H23  1  0.629474  0.471116  0.109859  1
  H  H24  1  0.919347  0.324200  0.171783  1
  H  H25  1  0.459498  0.311112  0.728820  1
  H  H26  1  0.117815  0.657963  0.017495  1
  H  H27  1  0.499265  0.710874  0.682168  1
  H  H28  1  0.088465  0.862117  0.852724  1
  H  H29  1  0.799848  0.033803  0.672732  1
  H  H30  1  0.676711  0.005262  0.092920  1
  H  H31  1  0.287940  0.185026  0.603716  1
  H  H32  1  0.882185  0.342037  0.982505  1
  H  H33  1  0.142054  0.984553  0.025485  1
  H  H34  1  0.846811  0.572695  0.218869  1
  H  H35  1  0.583026  0.106017  0.640750  1
  H  H36  1  0.416974  0.893983  0.359250  1
  H  H37  1  0.153189  0.427305  0.781131  1
  H  H38  1  0.857946  0.015447  0.974515  1
  H  H39  1  0.219866  0.409987  0.259085  1
  H  H40  1  0.623167  0.306905  0.069846  1
  H  H41  1  0.685744  0.887972  0.772674  1
  H  H42  1  0.911535  0.137883  0.147276  1
  H  H43  1  0.689333  0.105055  0.341981  1
  H  H44  1  0.780134  0.590013  0.740915  1
  H  H45  1  0.957046  0.209563  0.774647  1
  H  H46  1  0.002160  0.801953  0.546329  1
  H  H47  1  0.042954  0.790437  0.225353  1
  H  H48  1  0.310667  0.894945  0.658019  1
  H  H49  1  0.376833  0.693095  0.930154  1
  H  H50  1  0.683200  0.450133  0.536802  1
  H  H51  1  0.314589  0.710349  0.622326  1
  H  H52  1  0.685411  0.289651  0.377674  1
  H  H53  1  0.500735  0.289126  0.317832  1
  C  C54  1  0.364194  0.751967  0.693475  1
  C  C55  1  0.138351  0.718774  0.892051  1
  C  C56  1  0.319679  0.974782  0.272398  1
  C  C57  1  0.529834  0.243665  0.837309  1
  C  C58  1  0.861649  0.281226  0.107949  1
  C  C59  1  0.255132  0.017497  0.008519  1
  C  C60  1  0.470166  0.756335  0.162691  1
  C  C61  1  0.744868  0.982503  0.991481  1
  C  C62  1  0.680321  0.025218  0.727602  1
  C  C63  1  0.635806  0.248033  0.306525  1
  N  N64  1  0.680719  0.334152  0.140814  1
  N  N65  1  0.319281  0.665848  0.859186  1
  N  N66  1  0.357450  0.912290  0.146029  1
  N  N67  1  0.642550  0.087710  0.853971  1
  O  O68  1  0.499082  0.311828  0.937255  1
  O  O69  1  0.500918  0.688172  0.062745  1
