# generated using pymatgen
data_AgBTe4C2(O3F10)2
_symmetry_space_group_name_H-M   'P 1'
_cell_length_a   10.57489101
_cell_length_b   13.47168568
_cell_length_c   16.96342306
_cell_angle_alpha   87.73804995
_cell_angle_beta   76.55582554
_cell_angle_gamma   89.14919823
_symmetry_Int_Tables_number   1
_chemical_formula_structural   AgBTe4C2(O3F10)2
_chemical_formula_sum   'Ag4 B4 Te16 C8 O24 F80'
_cell_volume   2348.54183579
_cell_formula_units_Z   4
loop_
 _symmetry_equiv_pos_site_id
 _symmetry_equiv_pos_as_xyz
  1  'x, y, z'
loop_
 _atom_site_type_symbol
 _atom_site_label
 _atom_site_symmetry_multiplicity
 _atom_site_fract_x
 _atom_site_fract_y
 _atom_site_fract_z
 _atom_site_occupancy
  Ag  Ag0  1  0.000000  0.000000  0.500000  1
  Ag  Ag1  1  0.788373  0.739221  0.941481  1
  Ag  Ag2  1  0.500000  0.500000  0.500000  1
  Ag  Ag3  1  0.211627  0.260779  0.058519  1
  B  B4  1  0.051892  0.499181  0.749365  1
  B  B5  1  0.427131  0.969815  0.260538  1
  B  B6  1  0.572869  0.030185  0.739462  1
  B  B7  1  0.948108  0.500819  0.250635  1
  Te  Te8  1  0.207415  0.552434  0.137448  1
  Te  Te9  1  0.451651  0.173986  0.323441  1
  Te  Te10  1  0.792585  0.447566  0.862552  1
  Te  Te11  1  0.280669  0.482859  0.829006  1
  Te  Te12  1  0.114946  0.373378  0.599340  1
  Te  Te13  1  0.719331  0.517141  0.170994  1
  Te  Te14  1  0.634270  0.178479  0.595392  1
  Te  Te15  1  0.885054  0.626622  0.400660  1
  Te  Te16  1  0.309932  0.071049  0.850946  1
  Te  Te17  1  0.365730  0.821521  0.404608  1
  Te  Te18  1  0.548349  0.826014  0.676559  1
  Te  Te19  1  0.690068  0.928951  0.149054  1
  Te  Te20  1  0.789641  0.053292  0.829442  1
  Te  Te21  1  0.025248  0.713145  0.689951  1
  Te  Te22  1  0.974752  0.286855  0.310049  1
  Te  Te23  1  0.210359  0.946708  0.170558  1
  C  C24  1  0.416505  0.497785  0.399613  1
  C  C25  1  0.589460  0.735719  0.940262  1
  C  C26  1  0.111523  0.037874  0.581037  1
  C  C27  1  0.888477  0.962126  0.418963  1
  C  C28  1  0.583495  0.502215  0.600387  1
  C  C29  1  0.410540  0.264281  0.059738  1
  C  C30  1  0.018921  0.230168  0.054114  1
  C  C31  1  0.981079  0.769832  0.945886  1
  O  O32  1  0.369468  0.498846  0.345883  1
  O  O33  1  0.482859  0.738494  0.938261  1
  O  O34  1  0.358907  0.941067  0.344861  1
  O  O35  1  0.437591  0.068061  0.753089  1
  O  O36  1  0.078675  0.545832  0.234799  1
  O  O37  1  0.117114  0.483432  0.663730  1
  O  O38  1  0.916363  0.209124  0.051662  1
  O  O39  1  0.172298  0.055849  0.625577  1
  O  O40  1  0.629414  0.074496  0.801816  1
  O  O41  1  0.880423  0.549268  0.192026  1
  O  O42  1  0.630532  0.501154  0.654117  1
  O  O43  1  0.119577  0.450732  0.807974  1
  O  O44  1  0.370586  0.925504  0.198184  1
  O  O45  1  0.827702  0.944151  0.374423  1
  O  O46  1  0.416524  0.079300  0.252375  1
  O  O47  1  0.049474  0.608031  0.761639  1
  O  O48  1  0.921325  0.454168  0.765201  1
  O  O49  1  0.562409  0.931939  0.246911  1
  O  O50  1  0.517141  0.261506  0.061739  1
  O  O51  1  0.583476  0.920700  0.747625  1
  O  O52  1  0.083637  0.790875  0.948338  1
  O  O53  1  0.641093  0.058933  0.655139  1
  O  O54  1  0.882886  0.516568  0.336270  1
  O  O55  1  0.950526  0.391969  0.238361  1
  F  F56  1  0.209384  0.587691  0.895739  1
  F  F57  1  0.343461  0.558687  0.043714  1
  F  F58  1  0.880764  0.529158  0.920928  1
  F  F59  1  0.873859  0.754455  0.765086  1
  F  F60  1  0.216500  0.967852  0.820296  1
  F  F61  1  0.881593  0.201854  0.259665  1
  F  F62  1  0.388374  0.792755  0.746464  1
  F  F63  1  0.309114  0.630532  0.186888  1
  F  F64  1  0.392291  0.978721  0.908957  1
  F  F65  1  0.126141  0.245545  0.234914  1
  F  F66  1  0.334154  0.571973  0.739191  1
  F  F67  1  0.734807  0.931043  0.885711  1
  F  F68  1  0.811584  0.201556  0.589803  1
  F  F69  1  0.611626  0.207245  0.253536  1
  F  F70  1  0.711065  0.564257  0.832693  1
  F  F71  1  0.656539  0.441313  0.956286  1
  F  F72  1  0.188416  0.798444  0.410197  1
  F  F73  1  0.372598  0.272470  0.269555  1
  F  F74  1  0.843541  0.542275  0.493952  1
  F  F75  1  0.665846  0.428027  0.260809  1
  F  F76  1  0.790616  0.412309  0.104261  1
  F  F77  1  0.288935  0.435743  0.167307  1
  F  F78  1  0.175400  0.077906  0.946121  1
  F  F79  1  0.131962  0.016193  0.264316  1
  F  F80  1  0.539075  0.836180  0.411235  1
  F  F81  1  0.054978  0.967294  0.136481  1
  F  F82  1  0.878426  0.733412  0.469785  1
  F  F83  1  0.783500  0.032148  0.179704  1
  F  F84  1  0.061935  0.614167  0.399886  1
  F  F85  1  0.156459  0.457725  0.506048  1
  F  F86  1  0.265193  0.068957  0.114289  1
  F  F87  1  0.536878  0.086253  0.383080  1
  F  F88  1  0.481656  0.274651  0.391103  1
  F  F89  1  0.518344  0.725349  0.608897  1
  F  F90  1  0.922609  0.640746  0.636040  1
  F  F91  1  0.273328  0.878776  0.074974  1
  F  F92  1  0.823561  0.312674  0.389426  1
  F  F93  1  0.860719  0.171300  0.776331  1
  F  F94  1  1.000537  0.176165  0.376792  1
  F  F95  1  0.244271  0.392466  0.919355  1
  F  F96  1  0.945022  0.032706  0.863519  1
  F  F97  1  0.755729  0.607534  0.080645  1
  F  F98  1  0.121574  0.266588  0.530215  1
  F  F99  1  0.690886  0.369468  0.813112  1
  F  F100  1  0.938065  0.385833  0.600114  1
  F  F101  1  0.365320  0.703226  0.468238  1
  F  F102  1  0.296418  0.355194  0.587045  1
  F  F103  1  0.586083  0.258954  0.685621  1
  F  F104  1  0.463122  0.913747  0.616920  1
  F  F105  1  0.413917  0.741046  0.314379  1
  F  F106  1  0.460925  0.163820  0.588765  1
  F  F107  1  0.707473  0.847586  0.600544  1
  F  F108  1  0.627402  0.727530  0.730445  1
  F  F109  1  0.136679  0.665751  0.095504  1
  F  F110  1  0.613345  0.823948  0.106072  1
  F  F111  1  0.118407  0.798146  0.740335  1
  F  F112  1  0.310068  0.889857  0.501392  1
  F  F113  1  -0.000537  0.823835  0.623208  1
  F  F114  1  0.083121  0.278699  0.685654  1
  F  F115  1  0.689932  0.110143  0.498608  1
  F  F116  1  0.863321  0.334249  0.904496  1
  F  F117  1  0.367877  0.380492  0.765454  1
  F  F118  1  0.438166  0.508839  0.856973  1
  F  F119  1  0.784993  0.835574  0.196764  1
  F  F120  1  0.386655  0.176052  0.893928  1
  F  F121  1  0.119236  0.470842  0.079072  1
  F  F122  1  0.139281  0.828700  0.223669  1
  F  F123  1  0.176439  0.687326  0.610574  1
  F  F124  1  0.607709  0.021279  0.091043  1
  F  F125  1  0.561834  0.491161  0.143027  1
  F  F126  1  0.215007  0.164426  0.803236  1
  F  F127  1  0.824600  0.922094  0.053879  1
  F  F128  1  0.726672  0.121224  0.925026  1
  F  F129  1  0.703581  0.644806  0.412955  1
  F  F130  1  0.077391  0.359254  0.363960  1
  F  F131  1  0.868038  0.983807  0.735684  1
  F  F132  1  0.632123  0.619508  0.234546  1
  F  F133  1  0.916879  0.721301  0.314346  1
  F  F134  1  0.634680  0.296774  0.531762  1
  F  F135  1  0.292527  0.152414  0.399456  1
