# generated using pymatgen
data_NaSrCrF6
_symmetry_space_group_name_H-M   'P 1'
_cell_length_a   5.67727414
_cell_length_b   9.39917500
_cell_length_c   9.79112385
_cell_angle_alpha   90.00000000
_cell_angle_beta   93.48038400
_cell_angle_gamma   90.00000000
_symmetry_Int_Tables_number   1
_chemical_formula_structural   NaSrCrF6
_chemical_formula_sum   'Na4 Sr4 Cr4 F24'
_cell_volume   521.50732233
_cell_formula_units_Z   4
loop_
 _symmetry_equiv_pos_site_id
 _symmetry_equiv_pos_as_xyz
  1  'x, y, z'
loop_
 _atom_site_type_symbol
 _atom_site_label
 _atom_site_symmetry_multiplicity
 _atom_site_fract_x
 _atom_site_fract_y
 _atom_site_fract_z
 _atom_site_occupancy
  Na  Na0  1  0.721441  0.954873  0.385322  1
  Na  Na1  1  0.278559  0.454873  0.114678  1
  Na  Na2  1  0.278559  0.045127  0.614678  1
  Na  Na3  1  0.721441  0.545127  0.885322  1
  Sr  Sr4  1  0.235124  0.673971  0.490979  1
  Sr  Sr5  1  0.764876  0.173971  0.009021  1
  Sr  Sr6  1  0.764876  0.326030  0.509021  1
  Sr  Sr7  1  0.235124  0.826029  0.990979  1
  Cr  Cr8  1  0.231734  0.082096  0.264453  1
  Cr  Cr9  1  0.768266  0.582096  0.235547  1
  Cr  Cr10  1  0.768266  0.917904  0.735547  1
  Cr  Cr11  1  0.231734  0.417904  0.764453  1
  F  F12  1  0.997634  0.974650  0.150174  1
  F  F13  1  0.002366  0.474650  0.349826  1
  F  F14  1  0.002366  0.025350  0.849826  1
  F  F15  1  0.997634  0.525350  0.650174  1
  F  F16  1  0.473927  0.314536  0.870587  1
  F  F17  1  0.526073  0.814536  0.629413  1
  F  F18  1  0.526073  0.685464  0.129413  1
  F  F19  1  0.473927  0.185464  0.370587  1
  F  F20  1  0.683093  0.085230  0.622535  1
  F  F21  1  0.316907  0.585230  0.877465  1
  F  F22  1  0.316907  0.914770  0.377465  1
  F  F23  1  0.683093  0.414770  0.122535  1
  F  F24  1  0.470025  0.475174  0.638953  1
  F  F25  1  0.529975  0.975174  0.861047  1
  F  F26  1  0.529975  0.524826  0.361047  1
  F  F27  1  0.470025  0.024826  0.138953  1
  F  F28  1  0.858404  0.761292  0.854313  1
  F  F29  1  0.141596  0.261292  0.645687  1
  F  F30  1  0.141596  0.238708  0.145687  1
  F  F31  1  0.858404  0.738708  0.354313  1
  F  F32  1  0.991999  0.368421  0.889707  1
  F  F33  1  0.008001  0.868421  0.610293  1
  F  F34  1  0.008001  0.631579  0.110293  1
  F  F35  1  0.991999  0.131579  0.389707  1
