# generated using pymatgen
data_Cu5As2
_symmetry_space_group_name_H-M   'P 1'
_cell_length_a   5.56577248
_cell_length_b   6.00252810
_cell_length_c   7.08356206
_cell_angle_alpha   115.07111366
_cell_angle_beta   113.12683560
_cell_angle_gamma   90.00162775
_symmetry_Int_Tables_number   1
_chemical_formula_structural   Cu5As2
_chemical_formula_sum   'Cu10 As4'
_cell_volume   193.15349487
_cell_formula_units_Z   2
loop_
 _symmetry_equiv_pos_site_id
 _symmetry_equiv_pos_as_xyz
  1  'x, y, z'
loop_
 _atom_site_type_symbol
 _atom_site_label
 _atom_site_symmetry_multiplicity
 _atom_site_fract_x
 _atom_site_fract_y
 _atom_site_fract_z
 _atom_site_occupancy
  Cu  Cu0  1  0.396446  0.706853  0.793909  1
  Cu  Cu1  1  0.603554  0.293147  0.206091  1
  Cu  Cu2  1  0.102614  0.912805  0.205563  1
  Cu  Cu3  1  0.897386  0.087195  0.794437  1
  Cu  Cu4  1  0.519017  0.269146  0.538576  1
  Cu  Cu5  1  0.980739  0.731577  0.461267  1
  Cu  Cu6  1  0.480983  0.730854  0.461424  1
  Cu  Cu7  1  0.019261  0.268423  0.538733  1
  Cu  Cu8  1  0.250086  0.500015  0.000313  1
  Cu  Cu9  1  0.749914  0.499985  0.999687  1
  As  As10  1  0.116624  0.340707  0.234244  1
  As  As11  1  0.883376  0.659293  0.765756  1
  As  As12  1  0.383312  0.106480  0.766228  1
  As  As13  1  0.616688  0.893520  0.233772  1
