# generated using pymatgen
data_Ba5Co5ClO13
_symmetry_space_group_name_H-M   'P 1'
_cell_length_a   5.78479257
_cell_length_b   5.78479279
_cell_length_c   24.78391236
_cell_angle_alpha   90.00000000
_cell_angle_beta   90.00000000
_cell_angle_gamma   119.99999881
_symmetry_Int_Tables_number   1
_chemical_formula_structural   Ba5Co5ClO13
_chemical_formula_sum   'Ba10 Co10 Cl2 O26'
_cell_volume   718.25076856
_cell_formula_units_Z   2
loop_
 _symmetry_equiv_pos_site_id
 _symmetry_equiv_pos_as_xyz
  1  'x, y, z'
loop_
 _atom_site_type_symbol
 _atom_site_label
 _atom_site_symmetry_multiplicity
 _atom_site_fract_x
 _atom_site_fract_y
 _atom_site_fract_z
 _atom_site_occupancy
  O  O0  1  0.666667  0.333333  0.250000  1
  O  O1  1  0.333333  0.666666  0.750000  1
  O  O2  1  0.148499  0.296998  0.047706  1
  O  O3  1  0.703001  0.851500  0.047706  1
  O  O4  1  0.148499  0.851500  0.047706  1
  O  O5  1  0.851501  0.148500  0.547705  1
  O  O6  1  0.851501  0.148500  0.952294  1
  O  O7  1  0.851501  0.703001  0.547705  1
  O  O8  1  0.296999  0.148500  0.547705  1
  O  O9  1  0.703001  0.851500  0.452294  1
  O  O10  1  0.148499  0.296998  0.452294  1
  O  O11  1  0.851501  0.703001  0.952294  1
  O  O12  1  0.296999  0.148500  0.952294  1
  O  O13  1  0.148499  0.851500  0.452294  1
  O  O14  1  0.837561  0.675122  0.147781  1
  O  O15  1  0.324879  0.162439  0.147781  1
  O  O16  1  0.837560  0.162439  0.147781  1
  O  O17  1  0.162440  0.837561  0.647780  1
  O  O18  1  0.162440  0.837561  0.852219  1
  O  O19  1  0.162439  0.324878  0.647780  1
  O  O20  1  0.675121  0.837561  0.647780  1
  O  O21  1  0.324879  0.162439  0.352220  1
  O  O22  1  0.837560  0.162439  0.352220  1
  O  O23  1  0.675121  0.837561  0.852219  1
  O  O24  1  0.837561  0.675122  0.352220  1
  O  O25  1  0.162439  0.324878  0.852219  1
  Cl  Cl26  1  0.666667  0.333333  0.750000  1
  Cl  Cl27  1  0.333333  0.666666  0.250000  1
  Co  Co28  1  0.666667  0.333333  0.176674  1
  Co  Co29  1  0.000000  0.000000  0.000000  1
  Co  Co30  1  0.333333  0.666666  0.676673  1
  Co  Co31  1  0.000000  0.000000  0.500000  1
  Co  Co32  1  0.666667  0.333333  0.323327  1
  Co  Co33  1  0.333333  0.666666  0.823326  1
  Co  Co34  1  0.000000  0.000000  0.896679  1
  Co  Co35  1  0.000000  0.000000  0.396679  1
  Co  Co36  1  0.000000  0.000000  0.103321  1
  Co  Co37  1  0.000000  0.000000  0.603321  1
  Ba  Ba38  1  0.333333  0.666666  0.539968  1
  Ba  Ba39  1  0.666667  0.333333  0.039968  1
  Ba  Ba40  1  0.666667  0.333333  0.460032  1
  Ba  Ba41  1  0.333333  0.666666  0.960032  1
  Ba  Ba42  1  0.333333  0.666666  0.126797  1
  Ba  Ba43  1  0.666667  0.333333  0.626796  1
  Ba  Ba44  1  0.666667  0.333333  0.873203  1
  Ba  Ba45  1  0.333333  0.666666  0.373204  1
  Ba  Ba46  1  0.000000  0.000000  0.750000  1
  Ba  Ba47  1  0.000000  0.000000  0.250000  1
