# generated using pymatgen
data_Ca4Al6WO16
_symmetry_space_group_name_H-M   'P 1'
_cell_length_a   8.12037727
_cell_length_b   8.12037770
_cell_length_c   26.38825163
_cell_angle_alpha   90.00000000
_cell_angle_beta   90.00000000
_cell_angle_gamma   109.02944144
_symmetry_Int_Tables_number   1
_chemical_formula_structural   Ca4Al6WO16
_chemical_formula_sum   'Ca16 Al24 W4 O64'
_cell_volume   1644.96330260
_cell_formula_units_Z   4
loop_
 _symmetry_equiv_pos_site_id
 _symmetry_equiv_pos_as_xyz
  1  'x, y, z'
loop_
 _atom_site_type_symbol
 _atom_site_label
 _atom_site_symmetry_multiplicity
 _atom_site_fract_x
 _atom_site_fract_y
 _atom_site_fract_z
 _atom_site_occupancy
  Ca  Ca0  1  0.732684  0.759873  0.879856  1
  Ca  Ca1  1  0.986603  0.509955  0.750023  1
  Ca  Ca2  1  0.806057  0.754385  0.638366  1
  Ca  Ca3  1  0.232684  0.259873  0.620144  1
  Ca  Ca4  1  0.759873  0.732684  0.120144  1
  Ca  Ca5  1  0.971721  0.436665  0.483226  1
  Ca  Ca6  1  0.486603  0.009955  0.749977  1
  Ca  Ca7  1  0.471721  0.936665  0.016774  1
  Ca  Ca8  1  0.259873  0.232684  0.379856  1
  Ca  Ca9  1  0.306057  0.254385  0.861634  1
  Ca  Ca10  1  0.936665  0.471721  0.983226  1
  Ca  Ca11  1  0.436665  0.971721  0.516774  1
  Ca  Ca12  1  0.254385  0.306057  0.138366  1
  Ca  Ca13  1  0.754385  0.806057  0.361634  1
  Ca  Ca14  1  0.009955  0.486603  0.250023  1
  Ca  Ca15  1  0.509955  0.986603  0.249977  1
  Al  Al16  1  0.590527  0.362931  0.062846  1
  Al  Al17  1  0.362931  0.590527  0.937154  1
  Al  Al18  1  0.862931  0.090527  0.562846  1
  Al  Al19  1  0.123600  0.874309  0.814652  1
  Al  Al20  1  0.628809  0.360114  0.559509  1
  Al  Al21  1  0.759166  0.753647  0.243389  1
  Al  Al22  1  0.243147  0.243147  0.500000  1
  Al  Al23  1  0.637304  0.385917  0.189968  1
  Al  Al24  1  0.228416  0.228416  0.000000  1
  Al  Al25  1  0.753647  0.759166  0.756611  1
  Al  Al26  1  0.885917  0.137304  0.689968  1
  Al  Al27  1  0.253647  0.259166  0.743389  1
  Al  Al28  1  0.385917  0.637304  0.810032  1
  Al  Al29  1  0.874309  0.123600  0.185348  1
  Al  Al30  1  0.623600  0.374309  0.685348  1
  Al  Al31  1  0.259166  0.253647  0.256611  1
  Al  Al32  1  0.743147  0.743147  0.000000  1
  Al  Al33  1  0.137304  0.885917  0.310032  1
  Al  Al34  1  0.374309  0.623600  0.314652  1
  Al  Al35  1  0.090527  0.862931  0.437154  1
  Al  Al36  1  0.360114  0.628809  0.440491  1
  Al  Al37  1  0.128809  0.860114  0.940491  1
  Al  Al38  1  0.728416  0.728416  0.500000  1
  Al  Al39  1  0.860114  0.128809  0.059509  1
  W  W40  1  0.761593  0.241016  0.863571  1
  W  W41  1  0.741016  0.261593  0.363571  1
  W  W42  1  0.261593  0.741016  0.636429  1
  W  W43  1  0.241016  0.761593  0.136429  1
  O  O44  1  0.266455  0.402782  0.453161  1
  O  O45  1  0.828889  0.924646  0.712346  1
  O  O46  1  0.424646  0.328889  0.212346  1
  O  O47  1  0.022362  0.246651  0.016640  1
  O  O48  1  0.793243  0.862769  0.554314  1
  O  O49  1  0.568761  0.719350  0.280008  1
  O  O50  1  0.522362  0.746651  0.483360  1
  O  O51  1  0.083768  0.294780  0.708884  1
  O  O52  1  0.362769  0.293243  0.054314  1
  O  O53  1  0.657390  0.446046  0.621768  1
  O  O54  1  0.231094  0.729231  0.291217  1
  O  O55  1  0.404849  0.766134  0.088954  1
  O  O56  1  0.431554  0.602855  0.873609  1
  O  O57  1  0.675582  0.196141  0.046374  1
  O  O58  1  0.048326  0.776557  0.105708  1
  O  O59  1  0.794780  0.583768  0.208884  1
  O  O60  1  0.719350  0.568761  0.719992  1
  O  O61  1  0.696141  0.175582  0.546374  1
  O  O62  1  0.825873  0.443720  0.320889  1
  O  O63  1  0.325873  0.943720  0.179111  1
  O  O64  1  0.068761  0.219350  0.219992  1
  O  O65  1  0.901733  0.748859  0.805189  1
  O  O66  1  0.904849  0.266134  0.411046  1
  O  O67  1  0.050997  0.232662  0.532658  1
  O  O68  1  0.175582  0.696141  0.453626  1
  O  O69  1  0.732662  0.550997  0.032658  1
  O  O70  1  0.931554  0.102855  0.626391  1
  O  O71  1  0.729231  0.231094  0.708783  1
  O  O72  1  0.402782  0.266455  0.546839  1
  O  O73  1  0.776557  0.048326  0.894292  1
  O  O74  1  0.229231  0.731094  0.791217  1
  O  O75  1  0.443720  0.825873  0.679111  1
  O  O76  1  0.902782  0.766455  0.953161  1
  O  O77  1  0.102855  0.931554  0.373609  1
  O  O78  1  0.248859  0.401733  0.305189  1
  O  O79  1  0.328889  0.424646  0.787654  1
  O  O80  1  0.746651  0.522362  0.516640  1
  O  O81  1  0.555715  0.189182  0.829142  1
  O  O82  1  0.748859  0.901733  0.194811  1
  O  O83  1  0.946046  0.157390  0.121768  1
  O  O84  1  0.766134  0.404849  0.911046  1
  O  O85  1  0.583768  0.794780  0.791116  1
  O  O86  1  0.446046  0.657390  0.378232  1
  O  O87  1  0.862769  0.793243  0.445686  1
  O  O88  1  0.294780  0.083768  0.291116  1
  O  O89  1  0.731094  0.229231  0.208783  1
  O  O90  1  0.550997  0.732662  0.967342  1
  O  O91  1  0.246651  0.022362  0.983360  1
  O  O92  1  0.924646  0.828889  0.287654  1
  O  O93  1  0.266134  0.904849  0.588954  1
  O  O94  1  0.276557  0.548326  0.605708  1
  O  O95  1  0.602855  0.431554  0.126391  1
  O  O96  1  0.157390  0.946046  0.878232  1
  O  O97  1  0.943720  0.325873  0.820889  1
  O  O98  1  0.293243  0.362769  0.945686  1
  O  O99  1  0.196141  0.675582  0.953626  1
  O  O100  1  0.766455  0.902782  0.046839  1
  O  O101  1  0.232662  0.050997  0.467342  1
  O  O102  1  0.548326  0.276557  0.394292  1
  O  O103  1  0.219350  0.068761  0.780008  1
  O  O104  1  0.689182  0.055715  0.329142  1
  O  O105  1  0.055715  0.689182  0.670858  1
  O  O106  1  0.401733  0.248859  0.694811  1
  O  O107  1  0.189182  0.555715  0.170858  1
