# generated using pymatgen
data_Ti3Co3O
_symmetry_space_group_name_H-M   'P 1'
_cell_length_a   7.87969721
_cell_length_b   7.87969739
_cell_length_c   7.87969808
_cell_angle_alpha   59.99999712
_cell_angle_beta   59.99999636
_cell_angle_gamma   60.00000335
_symmetry_Int_Tables_number   1
_chemical_formula_structural   Ti3Co3O
_chemical_formula_sum   'Ti12 Co12 O4'
_cell_volume   345.95024148
_cell_formula_units_Z   4
loop_
 _symmetry_equiv_pos_site_id
 _symmetry_equiv_pos_as_xyz
  1  'x, y, z'
loop_
 _atom_site_type_symbol
 _atom_site_label
 _atom_site_symmetry_multiplicity
 _atom_site_fract_x
 _atom_site_fract_y
 _atom_site_fract_z
 _atom_site_occupancy
  Co  Co0  1  0.500000  0.500000  0.500000  1
  Co  Co1  1  0.500000  0.500000  0.000000  1
  Co  Co2  1  0.000000  0.500000  0.500000  1
  Co  Co3  1  0.500000  0.000000  0.500000  1
  Co  Co4  1  0.706954  0.706954  0.706954  1
  Co  Co5  1  0.293046  0.293046  0.620861  1
  Co  Co6  1  0.620861  0.293046  0.293046  1
  Co  Co7  1  0.293046  0.620861  0.293046  1
  Co  Co8  1  0.379139  0.706954  0.706954  1
  Co  Co9  1  0.706954  0.379139  0.706954  1
  Co  Co10  1  0.706954  0.706954  0.379139  1
  Co  Co11  1  0.293046  0.293046  0.293046  1
  Ti  Ti12  1  0.684869  0.065131  0.065131  1
  Ti  Ti13  1  0.934869  0.934869  0.315131  1
  Ti  Ti14  1  0.315131  0.315131  0.934869  1
  Ti  Ti15  1  0.934869  0.315131  0.315131  1
  Ti  Ti16  1  0.934869  0.315131  0.934869  1
  Ti  Ti17  1  0.315131  0.934869  0.315131  1
  Ti  Ti18  1  0.065131  0.684869  0.065131  1
  Ti  Ti19  1  0.065131  0.065131  0.684869  1
  Ti  Ti20  1  0.684869  0.684869  0.065131  1
  Ti  Ti21  1  0.684869  0.065131  0.684869  1
  Ti  Ti22  1  0.315131  0.934869  0.934869  1
  Ti  Ti23  1  0.065131  0.684869  0.684869  1
  O  O24  1  0.000000  0.000000  0.000000  1
  O  O25  1  0.000000  0.000000  0.500000  1
  O  O26  1  0.500000  0.000000  0.000000  1
  O  O27  1  0.000000  0.500000  0.000000  1
