# generated using pymatgen
data_CeAg6(NO3)9
_symmetry_space_group_name_H-M   'P 1'
_cell_length_a   10.83501322
_cell_length_b   10.83501236
_cell_length_c   10.83501289
_cell_angle_alpha   100.68433404
_cell_angle_beta   100.68433313
_cell_angle_gamma   100.68433288
_symmetry_Int_Tables_number   1
_chemical_formula_structural   CeAg6(NO3)9
_chemical_formula_sum   'Ce2 Ag12 N18 O54'
_cell_volume   1196.04698225
_cell_formula_units_Z   2
loop_
 _symmetry_equiv_pos_site_id
 _symmetry_equiv_pos_as_xyz
  1  'x, y, z'
loop_
 _atom_site_type_symbol
 _atom_site_label
 _atom_site_symmetry_multiplicity
 _atom_site_fract_x
 _atom_site_fract_y
 _atom_site_fract_z
 _atom_site_occupancy
  Ce  Ce0  1  0.000000  0.000000  0.000000  1
  Ce  Ce1  1  0.500000  0.500000  0.500000  1
  Ag  Ag2  1  0.867280  0.250000  0.632720  1
  Ag  Ag3  1  0.250000  0.458216  0.041784  1
  Ag  Ag4  1  0.632720  0.867280  0.250000  1
  Ag  Ag5  1  0.132720  0.750000  0.367280  1
  Ag  Ag6  1  0.958216  0.750000  0.541784  1
  Ag  Ag7  1  0.458216  0.041784  0.250000  1
  Ag  Ag8  1  0.041784  0.250000  0.458216  1
  Ag  Ag9  1  0.750000  0.367280  0.132720  1
  Ag  Ag10  1  0.541784  0.958216  0.750000  1
  Ag  Ag11  1  0.250000  0.632720  0.867280  1
  Ag  Ag12  1  0.750000  0.541784  0.958216  1
  Ag  Ag13  1  0.367280  0.132720  0.750000  1
  N  N14  1  0.213134  0.506799  0.431457  1
  N  N15  1  0.183822  0.316178  0.750000  1
  N  N16  1  0.493200  0.568543  0.786866  1
  N  N17  1  0.993201  0.286866  0.068543  1
  N  N18  1  0.750000  0.183822  0.316178  1
  N  N19  1  0.713134  0.931457  0.006799  1
  N  N20  1  0.568543  0.786866  0.493200  1
  N  N21  1  0.250000  0.816178  0.683822  1
  N  N22  1  0.683822  0.250000  0.816178  1
  N  N23  1  0.006799  0.713134  0.931457  1
  N  N24  1  0.506799  0.431457  0.213134  1
  N  N25  1  0.068543  0.993201  0.286866  1
  N  N26  1  0.816178  0.683822  0.250000  1
  N  N27  1  0.786866  0.493200  0.568543  1
  N  N28  1  0.286866  0.068543  0.993201  1
  N  N29  1  0.931457  0.006799  0.713134  1
  N  N30  1  0.431457  0.213134  0.506799  1
  N  N31  1  0.316178  0.750000  0.183822  1
  O  O32  1  0.447186  0.247244  0.402107  1
  O  O33  1  0.402107  0.447186  0.247244  1
  O  O34  1  0.511207  0.404240  0.097656  1
  O  O35  1  0.252756  0.052814  0.097893  1
  O  O36  1  0.847411  0.276102  0.329850  1
  O  O37  1  0.652589  0.170150  0.223898  1
  O  O38  1  0.902344  0.488793  0.595760  1
  O  O39  1  0.097656  0.511207  0.404240  1
  O  O40  1  0.152589  0.723898  0.670150  1
  O  O41  1  0.095760  0.988793  0.402344  1
  O  O42  1  0.894025  0.196296  0.054823  1
  O  O43  1  0.829850  0.776102  0.347411  1
  O  O44  1  0.776102  0.347411  0.829850  1
  O  O45  1  0.402344  0.095760  0.988793  1
  O  O46  1  0.054823  0.894025  0.196296  1
  O  O47  1  0.723898  0.670150  0.152589  1
  O  O48  1  0.747244  0.947186  0.902107  1
  O  O49  1  0.445177  0.303704  0.605975  1
  O  O50  1  0.696296  0.394025  0.554823  1
  O  O51  1  0.247244  0.402107  0.447186  1
  O  O52  1  0.052814  0.097893  0.252756  1
  O  O53  1  0.988793  0.402344  0.095760  1
  O  O54  1  0.947186  0.902107  0.747244  1
  O  O55  1  0.329850  0.847411  0.276102  1
  O  O56  1  0.902107  0.747244  0.947186  1
  O  O57  1  0.105975  0.803704  0.945177  1
  O  O58  1  0.404240  0.097656  0.511207  1
  O  O59  1  0.595760  0.902344  0.488793  1
  O  O60  1  0.097893  0.252756  0.052814  1
  O  O61  1  0.597656  0.904240  0.011207  1
  O  O62  1  0.391758  0.750000  0.108242  1
  O  O63  1  0.752756  0.597893  0.552814  1
  O  O64  1  0.552814  0.752756  0.597893  1
  O  O65  1  0.803704  0.945177  0.105975  1
  O  O66  1  0.554823  0.696296  0.394025  1
  O  O67  1  0.670150  0.152589  0.723898  1
  O  O68  1  0.223898  0.652589  0.170150  1
  O  O69  1  0.904240  0.011207  0.597656  1
  O  O70  1  0.488793  0.595760  0.902344  1
  O  O71  1  0.303704  0.605975  0.445177  1
  O  O72  1  0.597893  0.552814  0.752756  1
  O  O73  1  0.945177  0.105975  0.803704  1
  O  O74  1  0.347411  0.829850  0.776102  1
  O  O75  1  0.196296  0.054823  0.894025  1
  O  O76  1  0.891758  0.608242  0.250000  1
  O  O77  1  0.108242  0.391758  0.750000  1
  O  O78  1  0.608242  0.250000  0.891758  1
  O  O79  1  0.276102  0.329850  0.847411  1
  O  O80  1  0.011207  0.597656  0.904240  1
  O  O81  1  0.394025  0.554823  0.696296  1
  O  O82  1  0.605975  0.445177  0.303704  1
  O  O83  1  0.750000  0.108242  0.391758  1
  O  O84  1  0.170150  0.223898  0.652589  1
  O  O85  1  0.250000  0.891758  0.608242  1
