# generated using pymatgen
data_RbInP2O7
_symmetry_space_group_name_H-M   'P 1'
_cell_length_a   7.64976407
_cell_length_b   8.64723038
_cell_length_c   10.57180731
_cell_angle_alpha   90.00000000
_cell_angle_beta   90.00000000
_cell_angle_gamma   105.43809118
_symmetry_Int_Tables_number   1
_chemical_formula_structural   RbInP2O7
_chemical_formula_sum   'Rb4 In4 P8 O28'
_cell_volume   674.08504207
_cell_formula_units_Z   4
loop_
 _symmetry_equiv_pos_site_id
 _symmetry_equiv_pos_as_xyz
  1  'x, y, z'
loop_
 _atom_site_type_symbol
 _atom_site_label
 _atom_site_symmetry_multiplicity
 _atom_site_fract_x
 _atom_site_fract_y
 _atom_site_fract_z
 _atom_site_occupancy
  Rb  Rb0  1  0.313954  0.948139  0.315307  1
  Rb  Rb1  1  0.686046  0.051861  0.684693  1
  Rb  Rb2  1  0.686046  0.551861  0.815307  1
  Rb  Rb3  1  0.313954  0.448139  0.184693  1
  In  In4  1  0.736579  0.756543  0.400117  1
  In  In5  1  0.736579  0.256543  0.099883  1
  In  In6  1  0.263421  0.243457  0.599883  1
  In  In7  1  0.263421  0.743457  0.900117  1
  P  P8  1  0.937635  0.687313  0.135969  1
  P  P9  1  0.367902  0.174648  0.903252  1
  P  P10  1  0.632098  0.825352  0.096748  1
  P  P11  1  0.937635  0.187313  0.364031  1
  P  P12  1  0.062365  0.812687  0.635969  1
  P  P13  1  0.632098  0.325352  0.403252  1
  P  P14  1  0.367902  0.674648  0.596748  1
  P  P15  1  0.062365  0.312687  0.864031  1
  O  O16  1  0.358316  0.498651  0.587683  1
  O  O17  1  0.491903  0.777992  0.496546  1
  O  O18  1  0.046400  0.769315  0.777449  1
  O  O19  1  0.953600  0.230685  0.222551  1
  O  O20  1  0.869866  0.768814  0.581018  1
  O  O21  1  0.869866  0.268814  0.918982  1
  O  O22  1  0.491903  0.277992  0.003454  1
  O  O23  1  0.130134  0.731186  0.081018  1
  O  O24  1  0.824890  0.018426  0.395204  1
  O  O25  1  0.423495  0.745271  0.729202  1
  O  O26  1  0.576505  0.754729  0.229202  1
  O  O27  1  0.953600  0.730685  0.277449  1
  O  O28  1  0.835138  0.807701  0.066394  1
  O  O29  1  0.164862  0.192299  0.933606  1
  O  O30  1  0.358316  0.998651  0.912317  1
  O  O31  1  0.046400  0.269315  0.722551  1
  O  O32  1  0.423495  0.245271  0.770798  1
  O  O33  1  0.835138  0.307701  0.433606  1
  O  O34  1  0.508097  0.722008  0.996546  1
  O  O35  1  0.175110  0.481574  0.895204  1
  O  O36  1  0.641684  0.501349  0.412317  1
  O  O37  1  0.164862  0.692299  0.566394  1
  O  O38  1  0.641684  0.001349  0.087683  1
  O  O39  1  0.175110  0.981574  0.604796  1
  O  O40  1  0.576505  0.254729  0.270798  1
  O  O41  1  0.508097  0.222008  0.503454  1
  O  O42  1  0.824890  0.518426  0.104796  1
  O  O43  1  0.130134  0.231186  0.418982  1
