# generated using pymatgen
data_ZrP2H4O9
_symmetry_space_group_name_H-M   'P 1'
_cell_length_a   5.47876608
_cell_length_b   9.50830811
_cell_length_c   15.64397627
_cell_angle_alpha   106.37572932
_cell_angle_beta   90.00000000
_cell_angle_gamma   90.00000000
_symmetry_Int_Tables_number   1
_chemical_formula_structural   ZrP2H4O9
_chemical_formula_sum   'Zr4 P8 H16 O36'
_cell_volume   781.89426295
_cell_formula_units_Z   4
loop_
 _symmetry_equiv_pos_site_id
 _symmetry_equiv_pos_as_xyz
  1  'x, y, z'
loop_
 _atom_site_type_symbol
 _atom_site_label
 _atom_site_symmetry_multiplicity
 _atom_site_fract_x
 _atom_site_fract_y
 _atom_site_fract_z
 _atom_site_occupancy
  Zr  Zr0  1  0.750253  0.767808  0.526953  1
  Zr  Zr1  1  0.250253  0.732192  0.973047  1
  Zr  Zr2  1  0.249747  0.232192  0.473047  1
  Zr  Zr3  1  0.749747  0.267808  0.026953  1
  P  P4  1  0.262695  0.602310  0.607100  1
  P  P5  1  0.762695  0.897690  0.892900  1
  P  P6  1  0.737305  0.397690  0.392900  1
  P  P7  1  0.237305  0.102310  0.107100  1
  P  P8  1  0.766581  0.186592  0.606339  1
  P  P9  1  0.266581  0.313408  0.893661  1
  P  P10  1  0.233419  0.813408  0.393661  1
  P  P11  1  0.733419  0.686592  0.106339  1
  O  O12  1  0.300124  0.437017  0.571774  1
  O  O13  1  0.800124  0.062983  0.928226  1
  O  O14  1  0.699876  0.562983  0.428226  1
  O  O15  1  0.199876  0.937017  0.071774  1
  O  O16  1  0.498961  0.688353  0.607228  1
  O  O17  1  -0.001039  0.811647  0.892772  1
  O  O18  1  0.501039  0.311647  0.392772  1
  O  O19  1  1.001039  0.188353  0.107228  1
  O  O20  1  0.049746  0.656404  0.562728  1
  O  O21  1  0.549746  0.843596  0.937272  1
  O  O22  1  0.950254  0.343596  0.437272  1
  O  O23  1  0.450254  0.156404  0.062728  1
  O  O24  1  0.174677  0.634049  0.709634  1
  O  O25  1  0.674677  0.865951  0.790366  1
  O  O26  1  0.825323  0.365951  0.290366  1
  O  O27  1  0.325323  0.134049  0.209634  1
  O  O28  1  0.556481  0.179303  0.539423  1
  O  O29  1  0.056481  0.320697  0.960577  1
  O  O30  1  0.443519  0.820697  0.460577  1
  O  O31  1  0.943519  0.679303  0.039423  1
  O  O32  1  0.016170  0.155650  0.556934  1
  O  O33  1  0.516170  0.344350  0.943066  1
  O  O34  1  0.983830  0.844350  0.443066  1
  O  O35  1  0.483830  0.655650  0.056934  1
  O  O36  1  0.868085  0.919667  0.649226  1
  O  O37  1  0.368085  0.580333  0.850774  1
  O  O38  1  0.131915  0.080333  0.350774  1
  O  O39  1  0.631915  0.419667  0.149226  1
  O  O40  1  0.677115  0.006247  0.618679  1
  O  O41  1  0.177115  0.493753  0.881321  1
  O  O42  1  0.322885  0.993753  0.381321  1
  O  O43  1  0.822885  0.506247  0.118679  1
  O  O44  1  0.348973  0.017274  0.742381  1
  O  O45  1  0.848973  0.482726  0.757619  1
  O  O46  1  0.651027  0.982726  0.257619  1
  O  O47  1  0.151027  0.517274  0.242381  1
  H  H48  1  0.960352  0.544805  0.727983  1
  H  H49  1  0.460352  0.955195  0.772017  1
  H  H50  1  0.039648  0.455195  0.272017  1
  H  H51  1  0.539648  0.044805  0.227983  1
  H  H52  1  0.814952  0.380192  0.714509  1
  H  H53  1  0.314952  0.119808  0.785491  1
  H  H54  1  0.185048  0.619808  0.285491  1
  H  H55  1  0.685048  0.880192  0.214509  1
  H  H56  1  0.787418  0.884684  0.742617  1
  H  H57  1  0.287418  0.615316  0.757383  1
  H  H58  1  0.212582  0.115316  0.257383  1
  H  H59  1  0.712582  0.384684  0.242617  1
  H  H60  1  0.450918  0.024693  0.688945  1
  H  H61  1  0.950918  0.475307  0.811055  1
  H  H62  1  0.549082  0.975307  0.311055  1
  H  H63  1  0.049082  0.524693  0.188945  1
