# generated using pymatgen
data_U(NiGe)2
_symmetry_space_group_name_H-M   'P 1'
_cell_length_a   4.09543661
_cell_length_b   4.05067037
_cell_length_c   5.63520666
_cell_angle_alpha   111.12625135
_cell_angle_beta   111.18631319
_cell_angle_gamma   90.01006896
_symmetry_Int_Tables_number   1
_chemical_formula_structural   U(NiGe)2
_chemical_formula_sum   'U1 Ni2 Ge2'
_cell_volume   80.38733432
_cell_formula_units_Z   1
loop_
 _symmetry_equiv_pos_site_id
 _symmetry_equiv_pos_as_xyz
  1  'x, y, z'
loop_
 _atom_site_type_symbol
 _atom_site_label
 _atom_site_symmetry_multiplicity
 _atom_site_fract_x
 _atom_site_fract_y
 _atom_site_fract_z
 _atom_site_occupancy
  U  U0  1  -0.000001  -0.000000  -0.000004  1
  Ni  Ni1  1  0.249687  0.749496  0.499428  1
  Ni  Ni2  1  0.750315  0.250507  0.500576  1
  Ge  Ge3  1  0.625806  0.625663  0.251463  1
  Ge  Ge4  1  0.374193  0.374334  0.748537  1
