# generated using pymatgen
data_FeSe2NCl6
_symmetry_space_group_name_H-M   'P 1'
_cell_length_a   10.21905988
_cell_length_b   10.93136589
_cell_length_c   11.82470965
_cell_angle_alpha   90.00000000
_cell_angle_beta   90.00000000
_cell_angle_gamma   114.39162665
_symmetry_Int_Tables_number   1
_chemical_formula_structural   FeSe2NCl6
_chemical_formula_sum   'Fe4 Se8 N4 Cl24'
_cell_volume   1203.01818011
_cell_formula_units_Z   4
loop_
 _symmetry_equiv_pos_site_id
 _symmetry_equiv_pos_as_xyz
  1  'x, y, z'
loop_
 _atom_site_type_symbol
 _atom_site_label
 _atom_site_symmetry_multiplicity
 _atom_site_fract_x
 _atom_site_fract_y
 _atom_site_fract_z
 _atom_site_occupancy
  Fe  Fe0  1  0.326681  0.012189  0.806662  1
  Fe  Fe1  1  0.326681  0.512189  0.693338  1
  Fe  Fe2  1  0.673319  0.487811  0.306662  1
  Fe  Fe3  1  0.673319  0.987811  0.193338  1
  Se  Se4  1  0.711888  0.377176  0.683089  1
  Se  Se5  1  0.288112  0.622824  0.316911  1
  Se  Se6  1  0.773053  0.451948  0.954935  1
  Se  Se7  1  0.711888  0.877176  0.816911  1
  Se  Se8  1  0.773053  0.951948  0.545065  1
  Se  Se9  1  0.226947  0.048052  0.454935  1
  Se  Se10  1  0.288112  0.122824  0.183089  1
  Se  Se11  1  0.226947  0.548052  0.045065  1
  N  N12  1  0.286740  0.129754  0.328889  1
  N  N13  1  0.286740  0.629754  0.171111  1
  N  N14  1  0.713260  0.370246  0.828889  1
  N  N15  1  0.713260  0.870246  0.671111  1
  Cl  Cl16  1  0.333995  0.177361  0.917015  1
  Cl  Cl17  1  0.333995  0.677361  0.582985  1
  Cl  Cl18  1  0.647702  0.647202  0.404723  1
  Cl  Cl19  1  0.647702  0.147202  0.095277  1
  Cl  Cl20  1  0.076342  0.839886  0.421836  1
  Cl  Cl21  1  0.878028  0.066224  0.287888  1
  Cl  Cl22  1  0.352298  0.852798  0.904723  1
  Cl  Cl23  1  0.878028  0.566224  0.212112  1
  Cl  Cl24  1  0.076342  0.339886  0.078164  1
  Cl  Cl25  1  0.133129  0.421433  0.366051  1
  Cl  Cl26  1  0.666005  0.822639  0.082985  1
  Cl  Cl27  1  0.923658  0.660114  0.921836  1
  Cl  Cl28  1  0.133129  0.921433  0.133949  1
  Cl  Cl29  1  0.923658  0.160114  0.578164  1
  Cl  Cl30  1  0.495304  0.912818  0.321016  1
  Cl  Cl31  1  0.121972  0.433776  0.787888  1
  Cl  Cl32  1  0.495304  0.412818  0.178984  1
  Cl  Cl33  1  0.504696  0.087182  0.678984  1
  Cl  Cl34  1  0.666005  0.322639  0.417015  1
  Cl  Cl35  1  0.504696  0.587182  0.821016  1
  Cl  Cl36  1  0.352298  0.352798  0.595277  1
  Cl  Cl37  1  0.866871  0.078567  0.866051  1
  Cl  Cl38  1  0.866871  0.578567  0.633949  1
  Cl  Cl39  1  0.121972  0.933776  0.712112  1
