# generated using pymatgen
data_Na2W(OF2)2
_symmetry_space_group_name_H-M   'P 1'
_cell_length_a   5.13826754
_cell_length_b   5.53865879
_cell_length_c   18.70332819
_cell_angle_alpha   90.00000000
_cell_angle_beta   90.00000000
_cell_angle_gamma   90.00000000
_symmetry_Int_Tables_number   1
_chemical_formula_structural   Na2W(OF2)2
_chemical_formula_sum   'Na8 W4 O8 F16'
_cell_volume   532.28008696
_cell_formula_units_Z   4
loop_
 _symmetry_equiv_pos_site_id
 _symmetry_equiv_pos_as_xyz
  1  'x, y, z'
loop_
 _atom_site_type_symbol
 _atom_site_label
 _atom_site_symmetry_multiplicity
 _atom_site_fract_x
 _atom_site_fract_y
 _atom_site_fract_z
 _atom_site_occupancy
  W  W0  1  0.000000  0.750000  0.892817  1
  W  W1  1  0.500000  0.250000  0.607183  1
  W  W2  1  0.000000  0.250000  0.107183  1
  W  W3  1  0.500000  0.750000  0.392817  1
  Na  Na4  1  0.000000  0.750000  0.229381  1
  Na  Na5  1  0.500000  0.250000  0.270619  1
  Na  Na6  1  0.000000  0.250000  0.770619  1
  Na  Na7  1  0.500000  0.750000  0.729381  1
  Na  Na8  1  0.000000  0.750000  0.551396  1
  Na  Na9  1  0.500000  0.250000  0.948604  1
  Na  Na10  1  0.000000  0.250000  0.448604  1
  Na  Na11  1  0.500000  0.750000  0.051396  1
  O  O12  1  0.771611  0.884598  0.952061  1
  O  O13  1  0.271611  0.115402  0.547939  1
  O  O14  1  0.728389  0.384598  0.547939  1
  O  O15  1  0.228389  0.615402  0.952061  1
  O  O16  1  0.228389  0.115402  0.047939  1
  O  O17  1  0.728389  0.884598  0.452061  1
  O  O18  1  0.271611  0.615402  0.452061  1
  O  O19  1  0.771611  0.384598  0.047939  1
  F  F20  1  0.710200  0.959264  0.625836  1
  F  F21  1  0.210200  0.040736  0.874164  1
  F  F22  1  0.789800  0.459264  0.874164  1
  F  F23  1  0.289800  0.540736  0.625836  1
  F  F24  1  0.289800  0.040736  0.374164  1
  F  F25  1  0.789800  0.959264  0.125836  1
  F  F26  1  0.210200  0.540736  0.125836  1
  F  F27  1  0.710200  0.459264  0.374164  1
  F  F28  1  0.801569  0.894461  0.805835  1
  F  F29  1  0.301569  0.105539  0.694165  1
  F  F30  1  0.698431  0.394461  0.694165  1
  F  F31  1  0.198431  0.605539  0.805835  1
  F  F32  1  0.198431  0.105539  0.194165  1
  F  F33  1  0.698431  0.894461  0.305835  1
  F  F34  1  0.301569  0.605539  0.305835  1
  F  F35  1  0.801569  0.394461  0.194165  1
