# generated using pymatgen
data_Co2SiO4
_symmetry_space_group_name_H-M   'P 1'
_cell_length_a   4.81870812
_cell_length_b   6.04262709
_cell_length_c   10.41287979
_cell_angle_alpha   90.20148344
_cell_angle_beta   90.20349355
_cell_angle_gamma   90.39187648
_symmetry_Int_Tables_number   1
_chemical_formula_structural   Co2SiO4
_chemical_formula_sum   'Co8 Si4 O16'
_cell_volume   303.18774973
_cell_formula_units_Z   4
loop_
 _symmetry_equiv_pos_site_id
 _symmetry_equiv_pos_as_xyz
  1  'x, y, z'
loop_
 _atom_site_type_symbol
 _atom_site_label
 _atom_site_symmetry_multiplicity
 _atom_site_fract_x
 _atom_site_fract_y
 _atom_site_fract_z
 _atom_site_occupancy
  Co  Co0  1  0.993000  0.248764  0.274943  1
  Co  Co1  1  0.500307  0.000167  0.500152  1
  Co  Co2  1  0.494693  0.752553  0.221801  1
  Co  Co3  1  0.505703  0.247580  0.778187  1
  Co  Co4  1  0.000425  0.499969  0.999546  1
  Co  Co5  1  0.009055  0.750045  0.722118  1
  Co  Co6  1  0.499761  0.499445  0.499679  1
  Co  Co7  1  0.000232  0.000015  0.999546  1
  Si  Si8  1  0.071573  0.250518  0.594108  1
  Si  Si9  1  0.927306  0.749344  0.406179  1
  Si  Si10  1  0.573941  0.751760  0.905072  1
  Si  Si11  1  0.426057  0.248563  0.094955  1
  O  O12  1  0.766013  0.251081  0.091996  1
  O  O13  1  0.721752  0.967014  0.834433  1
  O  O14  1  0.724834  0.760005  0.051294  1
  O  O15  1  0.275822  0.240717  0.948880  1
  O  O16  1  0.277227  0.032926  0.165151  1
  O  O17  1  0.213606  0.251285  0.447617  1
  O  O18  1  0.284758  0.469229  0.162497  1
  O  O19  1  0.717324  0.531108  0.838498  1
  O  O20  1  0.731808  0.250142  0.592412  1
  O  O21  1  0.220321  0.033782  0.662735  1
  O  O22  1  0.779075  0.967152  0.338571  1
  O  O23  1  0.784560  0.748584  0.552454  1
  O  O24  1  0.219345  0.467230  0.664981  1
  O  O25  1  0.234667  0.748514  0.908416  1
  O  O26  1  0.267149  0.750143  0.408233  1
  O  O27  1  0.779685  0.532369  0.335545  1
