# generated using pymatgen
data_RbBi3S5
_symmetry_space_group_name_H-M   'P 1'
_cell_length_a   4.22804765
_cell_length_b   12.72809196
_cell_length_c   19.05364256
_cell_angle_alpha   90.00000000
_cell_angle_beta   90.00000000
_cell_angle_gamma   90.00000000
_symmetry_Int_Tables_number   1
_chemical_formula_structural   RbBi3S5
_chemical_formula_sum   'Rb4 Bi12 S20'
_cell_volume   1025.37137996
_cell_formula_units_Z   4
loop_
 _symmetry_equiv_pos_site_id
 _symmetry_equiv_pos_as_xyz
  1  'x, y, z'
loop_
 _atom_site_type_symbol
 _atom_site_label
 _atom_site_symmetry_multiplicity
 _atom_site_fract_x
 _atom_site_fract_y
 _atom_site_fract_z
 _atom_site_occupancy
  Bi  Bi0  1  0.000000  0.050935  0.150686  1
  Bi  Bi1  1  0.000000  0.949065  0.849314  1
  Bi  Bi2  1  0.500000  0.550935  0.349314  1
  Bi  Bi3  1  0.500000  0.449065  0.650686  1
  Bi  Bi4  1  0.000000  0.274025  0.814396  1
  Bi  Bi5  1  0.000000  0.725975  0.185604  1
  Bi  Bi6  1  0.500000  0.774025  0.685604  1
  Bi  Bi7  1  0.500000  0.225975  0.314396  1
  Bi  Bi8  1  0.000000  0.330799  0.478068  1
  Bi  Bi9  1  0.000000  0.669201  0.521932  1
  Bi  Bi10  1  0.500000  0.830799  0.021932  1
  Bi  Bi11  1  0.500000  0.169201  0.978068  1
  Rb  Rb12  1  0.000000  0.398022  0.148894  1
  Rb  Rb13  1  0.000000  0.601978  0.851106  1
  Rb  Rb14  1  0.500000  0.898022  0.351106  1
  Rb  Rb15  1  0.500000  0.101978  0.648894  1
  S  S16  1  0.000000  0.676627  0.045809  1
  S  S17  1  0.000000  0.323373  0.954191  1
  S  S18  1  0.500000  0.176627  0.454191  1
  S  S19  1  0.500000  0.823373  0.545809  1
  S  S20  1  0.000000  0.308527  0.628470  1
  S  S21  1  0.000000  0.691473  0.371530  1
  S  S22  1  0.500000  0.808527  0.871530  1
  S  S23  1  0.500000  0.191473  0.128470  1
  S  S24  1  0.000000  0.389429  0.332586  1
  S  S25  1  0.000000  0.610571  0.667414  1
  S  S26  1  0.500000  0.889429  0.167414  1
  S  S27  1  0.500000  0.110571  0.832586  1
  S  S28  1  0.000000  0.089124  0.293123  1
  S  S29  1  0.000000  0.910876  0.706877  1
  S  S30  1  0.500000  0.589124  0.206877  1
  S  S31  1  0.500000  0.410876  0.793123  1
  S  S32  1  0.000000  0.000000  0.000000  1
  S  S33  1  0.500000  0.500000  0.500000  1
  S  S34  1  0.500000  0.000000  0.500000  1
  S  S35  1  0.000000  0.500000  0.000000  1
