# generated using pymatgen
data_KZrP2HO8
_symmetry_space_group_name_H-M   'P 1'
_cell_length_a   5.42298389
_cell_length_b   9.36340784
_cell_length_c   15.56051315
_cell_angle_alpha   98.94436481
_cell_angle_beta   90.00000000
_cell_angle_gamma   90.00000000
_symmetry_Int_Tables_number   1
_chemical_formula_structural   KZrP2HO8
_chemical_formula_sum   'K4 Zr4 P8 H4 O32'
_cell_volume   780.51756075
_cell_formula_units_Z   4
loop_
 _symmetry_equiv_pos_site_id
 _symmetry_equiv_pos_as_xyz
  1  'x, y, z'
loop_
 _atom_site_type_symbol
 _atom_site_label
 _atom_site_symmetry_multiplicity
 _atom_site_fract_x
 _atom_site_fract_y
 _atom_site_fract_z
 _atom_site_occupancy
  Zr  Zr0  1  0.777773  0.253404  0.001071  1
  Zr  Zr1  1  0.777773  0.246596  0.498929  1
  Zr  Zr2  1  0.222227  0.746596  0.998929  1
  Zr  Zr3  1  0.222227  0.753404  0.501071  1
  K  K4  1  0.056592  0.750000  0.250000  1
  K  K5  1  0.943408  0.250000  0.750000  1
  K  K6  1  0.960973  0.250000  0.250000  1
  K  K7  1  0.039027  0.750000  0.750000  1
  P  P8  1  0.724326  0.947084  0.111356  1
  P  P9  1  0.724326  0.552916  0.388644  1
  P  P10  1  0.275674  0.052916  0.888644  1
  P  P11  1  0.275674  0.447084  0.611356  1
  P  P12  1  0.278469  0.447938  0.114580  1
  P  P13  1  0.278469  0.052062  0.385420  1
  P  P14  1  0.721531  0.552062  0.885420  1
  P  P15  1  0.721531  0.947938  0.614580  1
  O  O16  1  0.762830  0.099867  0.088443  1
  O  O17  1  0.762830  0.400133  0.411557  1
  O  O18  1  0.237170  0.900133  0.911557  1
  O  O19  1  0.237170  0.599867  0.588443  1
  O  O20  1  0.492481  0.874119  0.069034  1
  O  O21  1  0.492481  0.625881  0.430966  1
  O  O22  1  0.507519  0.125881  0.930966  1
  O  O23  1  0.507519  0.374119  0.569034  1
  O  O24  1  0.956370  0.855153  0.087203  1
  O  O25  1  0.956370  0.644847  0.412797  1
  O  O26  1  0.043630  0.144847  0.912797  1
  O  O27  1  0.043630  0.355153  0.587203  1
  O  O28  1  0.520405  0.382216  0.073274  1
  O  O29  1  0.520405  0.117784  0.426726  1
  O  O30  1  0.479595  0.617784  0.926726  1
  O  O31  1  0.479595  0.882216  0.573274  1
  O  O32  1  0.771684  0.403179  0.914571  1
  O  O33  1  0.771684  0.096821  0.585429  1
  O  O34  1  0.228316  0.596821  0.085429  1
  O  O35  1  0.228316  0.903179  0.414571  1
  O  O36  1  0.060598  0.345765  0.082538  1
  O  O37  1  0.060598  0.154235  0.417462  1
  O  O38  1  0.939402  0.654235  0.917462  1
  O  O39  1  0.939402  0.845765  0.582538  1
  O  O40  1  0.698301  0.961098  0.213417  1
  O  O41  1  0.698301  0.538902  0.286583  1
  O  O42  1  0.301699  0.038902  0.786583  1
  O  O43  1  0.301699  0.461098  0.713417  1
  O  O44  1  0.294987  0.032667  0.285808  1
  O  O45  1  0.294987  0.467333  0.214192  1
  O  O46  1  0.705013  0.967333  0.714192  1
  O  O47  1  0.705013  0.532667  0.785808  1
  H  H48  1  0.522949  0.991797  0.242771  1
  H  H49  1  0.522949  0.508203  0.257229  1
  H  H50  1  0.477051  0.008203  0.757229  1
  H  H51  1  0.477051  0.491797  0.742771  1
