# generated using pymatgen
data_Na2Al2Si3(HO3)4
_symmetry_space_group_name_H-M   'P 1'
_cell_length_a   6.77769520
_cell_length_b   10.57126518
_cell_length_c   9.99842565
_cell_angle_alpha   83.74398057
_cell_angle_beta   70.17121211
_cell_angle_gamma   71.31390000
_symmetry_Int_Tables_number   1
_chemical_formula_structural   Na2Al2Si3(HO3)4
_chemical_formula_sum   'Na4 Al4 Si6 H8 O24'
_cell_volume   638.37904011
_cell_formula_units_Z   2
loop_
 _symmetry_equiv_pos_site_id
 _symmetry_equiv_pos_as_xyz
  1  'x, y, z'
loop_
 _atom_site_type_symbol
 _atom_site_label
 _atom_site_symmetry_multiplicity
 _atom_site_fract_x
 _atom_site_fract_y
 _atom_site_fract_z
 _atom_site_occupancy
  Si  Si0  1  0.403426  1.000073  0.999889  1
  Si  Si1  1  0.153328  0.499982  0.500102  1
  Si  Si2  1  0.909688  0.167402  0.068795  1
  Si  Si3  1  0.145980  0.832649  0.931224  1
  Si  Si4  1  0.827014  0.332630  0.568843  1
  Si  Si5  1  0.728541  0.667345  0.431141  1
  Al  Al6  1  0.708906  0.932334  0.196424  1
  Al  Al7  1  0.837845  0.067668  0.803655  1
  Al  Al8  1  0.391259  0.567627  0.696431  1
  Al  Al9  1  0.655418  0.432325  0.303638  1
  Na  Na10  1  0.880668  0.608026  0.061157  1
  Na  Na11  1  0.549928  0.392039  0.938893  1
  Na  Na12  1  0.238832  0.891962  0.561049  1
  Na  Na13  1  0.691750  0.107880  0.438870  1
  O  O14  1  0.172209  0.124628  0.041480  1
  O  O15  1  0.338561  0.875357  0.958387  1
  O  O16  1  0.046793  0.375321  0.541737  1
  O  O17  1  0.963750  0.624518  0.458456  1
  O  O18  1  0.492090  0.951884  0.132828  1
  O  O19  1  0.576726  0.048376  0.866908  1
  O  O20  1  0.193646  0.548231  0.633058  1
  O  O21  1  0.374979  0.451786  0.367224  1
  O  O22  1  0.742586  0.822000  0.359402  1
  O  O23  1  0.923443  0.177895  0.640687  1
  O  O24  1  0.314318  0.677959  0.859408  1
  O  O25  1  0.851700  0.322088  0.140579  1
  O  O26  1  0.945720  0.817150  0.070104  1
  O  O27  1  0.832803  0.182941  0.929981  1
  O  O28  1  0.512743  0.682851  0.569960  1
  O  O29  1  0.765812  0.317114  0.429968  1
  O  O30  1  0.792496  0.077005  0.192518  1
  O  O31  1  0.062160  0.923057  0.807537  1
  O  O32  1  0.619455  0.422967  0.692519  1
  O  O33  1  0.735011  0.577033  0.307445  1
  O  O34  1  0.231808  0.556338  0.894512  1
  O  O35  1  0.682620  0.443672  0.105551  1
  O  O36  1  0.538356  0.943534  0.394399  1
  O  O37  1  0.876546  0.056227  0.605399  1
  H  H38  1  0.331085  0.327516  0.173774  1
  H  H39  1  0.832452  0.672513  0.826179  1
  H  H40  1  0.408585  0.172525  0.673782  1
  H  H41  1  0.254897  0.827521  0.326198  1
  H  H42  1  0.339436  0.215905  0.630851  1
  H  H43  1  0.186175  0.784112  0.369099  1
  H  H44  1  0.305319  0.284137  0.130850  1
  H  H45  1  0.720379  0.715894  0.869110  1
