# generated using pymatgen
data_CePu4Co3
_symmetry_space_group_name_H-M   'P 1'
_cell_length_a   5.73658093
_cell_length_b   7.91806190
_cell_length_c   7.91806116
_cell_angle_alpha   91.90014088
_cell_angle_beta   68.94602316
_cell_angle_gamma   68.94602433
_symmetry_Int_Tables_number   1
_chemical_formula_structural   CePu4Co3
_chemical_formula_sum   'Ce2 Pu8 Co6'
_cell_volume   307.76064613
_cell_formula_units_Z   2
loop_
 _symmetry_equiv_pos_site_id
 _symmetry_equiv_pos_as_xyz
  1  'x, y, z'
loop_
 _atom_site_type_symbol
 _atom_site_label
 _atom_site_symmetry_multiplicity
 _atom_site_fract_x
 _atom_site_fract_y
 _atom_site_fract_z
 _atom_site_occupancy
  Ce  Ce0  1  0.250000  0.499848  0.500152  1
  Ce  Ce1  1  0.750000  0.500152  0.499848  1
  Co  Co2  1  0.250000  -0.000061  1.000061  1
  Co  Co3  1  0.750000  1.000061  -0.000061  1
  Co  Co4  1  0.158991  0.507964  0.175259  1
  Co  Co5  1  0.341009  0.824741  0.492036  1
  Co  Co6  1  0.658991  0.175259  0.507964  1
  Co  Co7  1  0.841009  0.492036  0.824741  1
  Pu  Pu8  1  0.093544  0.136259  0.676050  1
  Pu  Pu9  1  0.787193  0.294156  0.134472  1
  Pu  Pu10  1  0.212807  0.705844  0.865528  1
  Pu  Pu11  1  0.906456  0.863741  0.323950  1
  Pu  Pu12  1  0.287193  0.134472  0.294156  1
  Pu  Pu13  1  0.712807  0.865528  0.705844  1
  Pu  Pu14  1  0.406456  0.323950  0.863741  1
  Pu  Pu15  1  0.593544  0.676050  0.136259  1
