# generated using pymatgen
data_Na5Fe3F14
_symmetry_space_group_name_H-M   'P 1'
_cell_length_a   7.74013703
_cell_length_b   7.74013703
_cell_length_c   10.24011626
_cell_angle_alpha   90.00000000
_cell_angle_beta   90.00000000
_cell_angle_gamma   90.00000000
_symmetry_Int_Tables_number   1
_chemical_formula_structural   Na5Fe3F14
_chemical_formula_sum   'Na10 Fe6 F28'
_cell_volume   613.48251063
_cell_formula_units_Z   2
loop_
 _symmetry_equiv_pos_site_id
 _symmetry_equiv_pos_as_xyz
  1  'x, y, z'
loop_
 _atom_site_type_symbol
 _atom_site_label
 _atom_site_symmetry_multiplicity
 _atom_site_fract_x
 _atom_site_fract_y
 _atom_site_fract_z
 _atom_site_occupancy
  Na  Na0  1  0.500000  0.500000  0.000000  1
  Na  Na1  1  0.000000  0.000000  0.500000  1
  Na  Na2  1  0.267745  0.734756  0.740181  1
  Na  Na3  1  0.732255  0.265244  0.740181  1
  Na  Na4  1  0.734756  0.267745  0.259819  1
  Na  Na5  1  0.234756  0.232255  0.240181  1
  Na  Na6  1  0.765244  0.767745  0.240181  1
  Na  Na7  1  0.232255  0.234756  0.759819  1
  Na  Na8  1  0.767745  0.765244  0.759819  1
  Na  Na9  1  0.265244  0.732255  0.259819  1
  Fe  Fe10  1  0.500000  0.500000  0.500000  1
  Fe  Fe11  1  0.000000  0.000000  0.000000  1
  Fe  Fe12  1  0.500000  0.000000  0.500873  1
  Fe  Fe13  1  0.500000  0.000000  0.000873  1
  Fe  Fe14  1  0.000000  0.500000  0.999127  1
  Fe  Fe15  1  0.000000  0.500000  0.499127  1
  F  F16  1  0.000000  0.000000  0.812389  1
  F  F17  1  0.500000  0.500000  0.312389  1
  F  F18  1  0.500000  0.500000  0.687611  1
  F  F19  1  0.000000  0.000000  0.187611  1
  F  F20  1  0.497414  0.749181  0.503716  1
  F  F21  1  0.502586  0.250819  0.503716  1
  F  F22  1  0.749181  0.497414  0.496284  1
  F  F23  1  0.249181  0.002586  0.003716  1
  F  F24  1  0.750819  0.997414  0.003716  1
  F  F25  1  0.002586  0.249181  0.996284  1
  F  F26  1  0.997414  0.750819  0.996284  1
  F  F27  1  0.250819  0.502586  0.496284  1
  F  F28  1  0.002817  0.685362  0.629473  1
  F  F29  1  0.997183  0.314638  0.629473  1
  F  F30  1  0.685362  0.002817  0.370527  1
  F  F31  1  0.185362  0.497183  0.129473  1
  F  F32  1  0.999426  0.311530  0.370874  1
  F  F33  1  0.188470  0.499426  0.870874  1
  F  F34  1  0.811530  0.500574  0.870874  1
  F  F35  1  0.499426  0.188470  0.129126  1
  F  F36  1  0.500574  0.811530  0.129126  1
  F  F37  1  0.000574  0.688470  0.370874  1
  F  F38  1  0.311530  0.999426  0.629126  1
  F  F39  1  0.688470  0.000574  0.629126  1
  F  F40  1  0.314638  0.997183  0.370527  1
  F  F41  1  0.502817  0.814638  0.870527  1
  F  F42  1  0.497183  0.185362  0.870527  1
  F  F43  1  0.814638  0.502817  0.129473  1
