# generated using pymatgen
data_KMo(PO4)2
_symmetry_space_group_name_H-M   'P 1'
_cell_length_a   5.18376087
_cell_length_b   11.71134791
_cell_length_c   11.97077130
_cell_angle_alpha   90.00000000
_cell_angle_beta   90.00000000
_cell_angle_gamma   91.20748509
_symmetry_Int_Tables_number   1
_chemical_formula_structural   KMo(PO4)2
_chemical_formula_sum   'K4 Mo4 P8 O32'
_cell_volume   726.57010582
_cell_formula_units_Z   4
loop_
 _symmetry_equiv_pos_site_id
 _symmetry_equiv_pos_as_xyz
  1  'x, y, z'
loop_
 _atom_site_type_symbol
 _atom_site_label
 _atom_site_symmetry_multiplicity
 _atom_site_fract_x
 _atom_site_fract_y
 _atom_site_fract_z
 _atom_site_occupancy
  Mo  Mo0  1  0.740118  0.835409  0.879977  1
  Mo  Mo1  1  0.759882  0.664591  0.379977  1
  Mo  Mo2  1  0.259882  0.164591  0.120023  1
  Mo  Mo3  1  0.240118  0.335409  0.620023  1
  K  K4  1  0.725974  0.052678  0.630782  1
  K  K5  1  0.774026  0.447322  0.130782  1
  K  K6  1  0.274026  0.947322  0.369218  1
  K  K7  1  0.225974  0.552678  0.869218  1
  P  P8  1  0.735553  0.352155  0.806939  1
  P  P9  1  0.764447  0.147845  0.306939  1
  P  P10  1  0.264447  0.647845  0.193061  1
  P  P11  1  0.235553  0.852155  0.693061  1
  P  P12  1  0.746679  0.136176  0.937026  1
  P  P13  1  0.753321  0.363824  0.437026  1
  P  P14  1  0.253321  0.863824  0.062974  1
  P  P15  1  0.246679  0.636176  0.562974  1
  O  O16  1  0.808307  0.017910  0.894804  1
  O  O17  1  0.691693  0.482090  0.394804  1
  O  O18  1  0.191693  0.982090  0.105196  1
  O  O19  1  0.308307  0.517910  0.605196  1
  O  O20  1  0.068969  0.816724  0.973546  1
  O  O21  1  0.431031  0.683276  0.473546  1
  O  O22  1  0.931031  0.183276  0.026454  1
  O  O23  1  0.568969  0.316724  0.526454  1
  O  O24  1  0.955476  0.859238  0.737526  1
  O  O25  1  0.544524  0.640762  0.237526  1
  O  O26  1  0.044524  0.140762  0.262474  1
  O  O27  1  0.455476  0.359238  0.762474  1
  O  O28  1  0.779898  0.215299  0.826644  1
  O  O29  1  0.720102  0.284701  0.326644  1
  O  O30  1  0.220102  0.784701  0.173356  1
  O  O31  1  0.279898  0.715299  0.673356  1
  O  O32  1  0.535619  0.851955  0.026119  1
  O  O33  1  0.964381  0.648045  0.526119  1
  O  O34  1  0.464381  0.148045  0.973881  1
  O  O35  1  0.035619  0.351955  0.473881  1
  O  O36  1  0.772800  0.418934  0.912225  1
  O  O37  1  0.727200  0.081066  0.412225  1
  O  O38  1  0.227200  0.581066  0.087775  1
  O  O39  1  0.272800  0.918934  0.587775  1
  O  O40  1  0.685187  0.691150  0.864646  1
  O  O41  1  0.814813  0.808850  0.364646  1
  O  O42  1  0.314813  0.308850  0.135354  1
  O  O43  1  0.185187  0.191150  0.635354  1
  O  O44  1  0.429082  0.883979  0.786308  1
  O  O45  1  0.070918  0.616021  0.286308  1
  O  O46  1  0.570918  0.116021  0.213692  1
  O  O47  1  0.929082  0.383979  0.713692  1
