# generated using pymatgen
data_S4N3O2F
_symmetry_space_group_name_H-M   'P 1'
_cell_length_a   5.74016784
_cell_length_b   8.30292404
_cell_length_c   15.86447039
_cell_angle_alpha   95.55967408
_cell_angle_beta   90.00000000
_cell_angle_gamma   90.00000000
_symmetry_Int_Tables_number   1
_chemical_formula_structural   S4N3O2F
_chemical_formula_sum   'S16 N12 O8 F4'
_cell_volume   752.54663917
_cell_formula_units_Z   4
loop_
 _symmetry_equiv_pos_site_id
 _symmetry_equiv_pos_as_xyz
  1  'x, y, z'
loop_
 _atom_site_type_symbol
 _atom_site_label
 _atom_site_symmetry_multiplicity
 _atom_site_fract_x
 _atom_site_fract_y
 _atom_site_fract_z
 _atom_site_occupancy
  S  S0  1  0.206990  0.528103  0.734828  1
  S  S1  1  0.053653  0.461370  0.114248  1
  S  S2  1  0.241619  0.287631  0.453492  1
  S  S3  1  0.230760  0.342852  0.869321  1
  S  S4  1  0.706990  0.971897  0.765172  1
  S  S5  1  0.758381  0.712369  0.546508  1
  S  S6  1  0.553653  0.038630  0.385752  1
  S  S7  1  0.946347  0.538630  0.885752  1
  S  S8  1  0.269240  0.842852  0.369321  1
  S  S9  1  0.293010  0.028103  0.234828  1
  S  S10  1  0.730760  0.157148  0.630679  1
  S  S11  1  0.793010  0.471897  0.265172  1
  S  S12  1  0.741619  0.212369  0.046508  1
  S  S13  1  0.769240  0.657148  0.130679  1
  S  S14  1  0.258381  0.787631  0.953492  1
  S  S15  1  0.446347  0.961370  0.614248  1
  N  N16  1  0.835196  0.104606  0.718231  1
  N  N17  1  0.335196  0.395394  0.781769  1
  N  N18  1  0.520075  0.083138  0.288345  1
  N  N19  1  0.473735  0.178530  0.456384  1
  N  N20  1  0.664804  0.604606  0.218231  1
  N  N21  1  0.164804  0.895394  0.281769  1
  N  N22  1  0.026265  0.678530  0.956384  1
  N  N23  1  0.973735  0.321470  0.043616  1
  N  N24  1  0.526265  0.821470  0.543616  1
  N  N25  1  0.020075  0.416862  0.211655  1
  N  N26  1  0.979925  0.583138  0.788345  1
  N  N27  1  0.479925  0.916862  0.711655  1
  O  O28  1  0.932303  0.777497  0.605766  1
  O  O29  1  0.820798  0.652856  0.461845  1
  O  O30  1  0.432303  0.722503  0.894234  1
  O  O31  1  0.679202  0.152856  0.961845  1
  O  O32  1  0.567697  0.277497  0.105766  1
  O  O33  1  0.320798  0.847144  0.038155  1
  O  O34  1  0.067697  0.222503  0.394234  1
  O  O35  1  0.179202  0.347144  0.538155  1
  F  F36  1  0.344216  0.442494  0.411615  1
  F  F37  1  0.155784  0.942494  0.911615  1
  F  F38  1  0.655784  0.557506  0.588385  1
  F  F39  1  0.844216  0.057506  0.088385  1
