# generated using pymatgen
data_Na4CO4
_symmetry_space_group_name_H-M   'P 1'
_cell_length_a   5.35388904
_cell_length_b   5.15949728
_cell_length_c   5.15952084
_cell_angle_alpha   84.60423900
_cell_angle_beta   77.74719541
_cell_angle_gamma   102.25135406
_symmetry_Int_Tables_number   1
_chemical_formula_structural   Na4CO4
_chemical_formula_sum   'Na4 C1 O4'
_cell_volume   134.65398272
_cell_formula_units_Z   1
loop_
 _symmetry_equiv_pos_site_id
 _symmetry_equiv_pos_as_xyz
  1  'x, y, z'
loop_
 _atom_site_type_symbol
 _atom_site_label
 _atom_site_symmetry_multiplicity
 _atom_site_fract_x
 _atom_site_fract_y
 _atom_site_fract_z
 _atom_site_occupancy
  O  O0  1  0.685341  0.160508  0.145930  1
  O  O1  1  0.287787  0.821377  0.178624  1
  O  O2  1  0.442809  0.177146  0.822857  1
  Na  Na3  1  0.446580  0.899904  0.531141  1
  Na  Na4  1  0.965319  0.035614  0.392245  1
  Na  Na5  1  0.446589  0.468865  0.100097  1
  O  O6  1  0.685343  0.854069  0.839487  1
  Na  Na7  1  0.965318  0.607753  0.964385  1
  C  C8  1  0.536484  0.015005  0.984994  1
