# generated using pymatgen
data_Sr3(SnP2)2
_symmetry_space_group_name_H-M   'P 1'
_cell_length_a   12.72159016
_cell_length_b   14.19851497
_cell_length_c   18.90317884
_cell_angle_alpha   90.00000000
_cell_angle_beta   90.00000000
_cell_angle_gamma   116.61480804
_symmetry_Int_Tables_number   1
_chemical_formula_structural   Sr3(SnP2)2
_chemical_formula_sum   'Sr36 Sn24 P48'
_cell_volume   3052.63852286
_cell_formula_units_Z   12
loop_
 _symmetry_equiv_pos_site_id
 _symmetry_equiv_pos_as_xyz
  1  'x, y, z'
loop_
 _atom_site_type_symbol
 _atom_site_label
 _atom_site_symmetry_multiplicity
 _atom_site_fract_x
 _atom_site_fract_y
 _atom_site_fract_z
 _atom_site_occupancy
  Sr  Sr0  1  0.126641  0.833674  0.368086  1
  Sr  Sr1  1  0.935565  0.000000  0.271327  1
  Sr  Sr2  1  0.619195  0.337414  0.240610  1
  Sr  Sr3  1  0.119195  0.337414  0.259390  1
  Sr  Sr4  1  0.965971  0.511690  0.127359  1
  Sr  Sr5  1  0.380805  0.662586  0.759390  1
  Sr  Sr6  1  0.792968  0.166326  0.131914  1
  Sr  Sr7  1  0.873359  0.166326  0.631914  1
  Sr  Sr8  1  0.718219  0.337414  0.759390  1
  Sr  Sr9  1  0.064435  0.000000  0.728673  1
  Sr  Sr10  1  0.435565  0.000000  0.228673  1
  Sr  Sr11  1  0.218219  0.337414  0.740610  1
  Sr  Sr12  1  0.034029  0.488310  0.872641  1
  Sr  Sr13  1  0.292968  0.166326  0.368086  1
  Sr  Sr14  1  0.373359  0.166326  0.868086  1
  Sr  Sr15  1  0.000000  0.000000  0.000000  1
  Sr  Sr16  1  0.465971  0.511690  0.372641  1
  Sr  Sr17  1  0.824675  0.649350  0.500000  1
  Sr  Sr18  1  0.545719  0.511690  0.872641  1
  Sr  Sr19  1  0.781781  0.662586  0.259390  1
  Sr  Sr20  1  0.281781  0.662586  0.240610  1
  Sr  Sr21  1  0.626641  0.833674  0.131914  1
  Sr  Sr22  1  0.045719  0.511690  0.627359  1
  Sr  Sr23  1  0.175325  0.350650  0.500000  1
  Sr  Sr24  1  0.534029  0.488310  0.627359  1
  Sr  Sr25  1  0.207032  0.833674  0.868086  1
  Sr  Sr26  1  0.454281  0.488310  0.127359  1
  Sr  Sr27  1  0.564435  0.000000  0.771327  1
  Sr  Sr28  1  0.500000  0.000000  0.000000  1
  Sr  Sr29  1  0.500000  0.000000  0.500000  1
  Sr  Sr30  1  0.707032  0.833674  0.631914  1
  Sr  Sr31  1  0.324675  0.649350  0.000000  1
  Sr  Sr32  1  0.954281  0.488310  0.372641  1
  Sr  Sr33  1  0.675325  0.350650  0.000000  1
  Sr  Sr34  1  0.880805  0.662586  0.740610  1
  Sr  Sr35  1  0.000000  0.000000  0.500000  1
  Sn  Sn36  1  0.765644  0.829375  0.821668  1
  Sn  Sn37  1  0.063730  0.829375  0.178332  1
  Sn  Sn38  1  0.627503  0.835827  0.935410  1
  Sn  Sn39  1  0.903702  0.676134  0.939011  1
  Sn  Sn40  1  0.372497  0.164173  0.064590  1
  Sn  Sn41  1  0.291676  0.164173  0.564590  1
  Sn  Sn42  1  0.272432  0.676134  0.439011  1
  Sn  Sn43  1  0.265644  0.829375  0.678332  1
  Sn  Sn44  1  0.436270  0.170625  0.678332  1
  Sn  Sn45  1  0.734356  0.170625  0.321668  1
  Sn  Sn46  1  0.234356  0.170625  0.178332  1
  Sn  Sn47  1  0.872497  0.164173  0.435410  1
  Sn  Sn48  1  0.208324  0.835827  0.064590  1
  Sn  Sn49  1  0.791676  0.164173  0.935410  1
  Sn  Sn50  1  0.772432  0.676134  0.060989  1
  Sn  Sn51  1  0.127503  0.835827  0.564590  1
  Sn  Sn52  1  0.227568  0.323866  0.939011  1
  Sn  Sn53  1  0.563730  0.829375  0.321668  1
  Sn  Sn54  1  0.708324  0.835827  0.435410  1
  Sn  Sn55  1  0.096298  0.323866  0.060989  1
  Sn  Sn56  1  0.727568  0.323866  0.560989  1
  Sn  Sn57  1  0.936270  0.170625  0.821668  1
  Sn  Sn58  1  0.596298  0.323866  0.439011  1
  Sn  Sn59  1  0.403702  0.676134  0.560989  1
  P  P60  1  0.213810  0.508320  0.373238  1
  P  P61  1  0.619324  0.154037  0.635460  1
  P  P62  1  0.205491  0.491680  0.126762  1
  P  P63  1  0.286190  0.491680  0.873238  1
  P  P64  1  0.380676  0.845963  0.364540  1
  P  P65  1  0.884323  0.826192  0.384373  1
  P  P66  1  0.294509  0.508320  0.626762  1
  P  P67  1  0.941870  0.826192  0.615627  1
  P  P68  1  0.441870  0.826192  0.884373  1
  P  P69  1  0.588850  0.669338  0.510321  1
  P  P70  1  0.749905  0.000000  0.012852  1
  P  P71  1  0.713810  0.508320  0.126762  1
  P  P72  1  0.815925  0.000000  0.749450  1
  P  P73  1  0.411150  0.330662  0.489679  1
  P  P74  1  0.464960  0.328670  0.751524  1
  P  P75  1  0.580488  0.669338  0.010321  1
  P  P76  1  0.363710  0.328670  0.251524  1
  P  P77  1  0.115677  0.173808  0.615627  1
  P  P78  1  0.035040  0.671330  0.251524  1
  P  P79  1  0.705491  0.491680  0.373238  1
  P  P80  1  0.880676  0.845963  0.135460  1
  P  P81  1  0.184075  0.000000  0.250550  1
  P  P82  1  0.249905  0.000000  0.487148  1
  P  P83  1  0.964960  0.328670  0.748476  1
  P  P84  1  0.911150  0.330662  0.010321  1
  P  P85  1  0.534713  0.154037  0.364540  1
  P  P86  1  0.794509  0.508320  0.873238  1
  P  P87  1  0.684075  0.000000  0.249450  1
  P  P88  1  0.315925  0.000000  0.750550  1
  P  P89  1  0.636290  0.671330  0.748476  1
  P  P90  1  0.250095  0.000000  0.987148  1
  P  P91  1  0.535040  0.671330  0.248476  1
  P  P92  1  0.863710  0.328670  0.248476  1
  P  P93  1  0.750095  0.000000  0.512852  1
  P  P94  1  0.615677  0.173808  0.884373  1
  P  P95  1  0.058130  0.173808  0.384373  1
  P  P96  1  0.136290  0.671330  0.751524  1
  P  P97  1  0.965287  0.845963  0.864540  1
  P  P98  1  0.919512  0.330662  0.510321  1
  P  P99  1  0.465287  0.845963  0.635460  1
  P  P100  1  0.119324  0.154037  0.864540  1
  P  P101  1  0.558130  0.173808  0.115627  1
  P  P102  1  0.786190  0.491680  0.626762  1
  P  P103  1  0.034713  0.154037  0.135460  1
  P  P104  1  0.088850  0.669338  0.989679  1
  P  P105  1  0.384323  0.826192  0.115627  1
  P  P106  1  0.080488  0.669338  0.489679  1
  P  P107  1  0.419512  0.330662  0.989679  1
