# generated using pymatgen
data_Rb5Tl3O
_symmetry_space_group_name_H-M   'P 1'
_cell_length_a   8.89600038
_cell_length_b   9.43854426
_cell_length_c   17.85418151
_cell_angle_alpha   90.00000000
_cell_angle_beta   104.42599677
_cell_angle_gamma   90.00000000
_symmetry_Int_Tables_number   1
_chemical_formula_structural   Rb5Tl3O
_chemical_formula_sum   'Rb20 Tl12 O4'
_cell_volume   1451.86430279
_cell_formula_units_Z   4
loop_
 _symmetry_equiv_pos_site_id
 _symmetry_equiv_pos_as_xyz
  1  'x, y, z'
loop_
 _atom_site_type_symbol
 _atom_site_label
 _atom_site_symmetry_multiplicity
 _atom_site_fract_x
 _atom_site_fract_y
 _atom_site_fract_z
 _atom_site_occupancy
  Rb  Rb0  1  0.448042  0.534126  0.896084  1
  Rb  Rb1  1  0.041826  0.250000  0.533597  1
  Rb  Rb2  1  0.448042  0.965874  0.896084  1
  Rb  Rb3  1  0.120517  0.250000  0.748874  1
  Rb  Rb4  1  0.958174  0.750000  0.466403  1
  Rb  Rb5  1  0.551958  0.465874  0.103916  1
  Rb  Rb6  1  0.208228  0.750000  0.014007  1
  Rb  Rb7  1  0.371643  0.750000  0.251126  1
  Rb  Rb8  1  0.194221  0.250000  0.985993  1
  Rb  Rb9  1  0.551958  0.034126  0.103916  1
  Rb  Rb10  1  0.320117  0.533512  0.640233  1
  Rb  Rb11  1  0.679883  0.466488  0.359767  1
  Rb  Rb12  1  0.628357  0.250000  0.748874  1
  Rb  Rb13  1  0.679883  0.033512  0.359767  1
  Rb  Rb14  1  0.508229  0.750000  0.466403  1
  Rb  Rb15  1  0.879483  0.750000  0.251126  1
  Rb  Rb16  1  0.805779  0.750000  0.014007  1
  Rb  Rb17  1  0.320117  0.966488  0.640233  1
  Rb  Rb18  1  0.791772  0.250000  0.985993  1
  Rb  Rb19  1  0.491771  0.250000  0.533597  1
  Tl  Tl20  1  0.076639  0.750000  0.745135  1
  Tl  Tl21  1  0.816228  0.562605  0.632456  1
  Tl  Tl22  1  0.923361  0.250000  0.254865  1
  Tl  Tl23  1  0.078364  0.451399  0.156728  1
  Tl  Tl24  1  0.331504  0.250000  0.254865  1
  Tl  Tl25  1  0.183772  0.062605  0.367544  1
  Tl  Tl26  1  0.183772  0.437395  0.367544  1
  Tl  Tl27  1  0.921636  0.951399  0.843272  1
  Tl  Tl28  1  0.078364  0.048601  0.156728  1
  Tl  Tl29  1  0.921636  0.548601  0.843272  1
  Tl  Tl30  1  0.816228  0.937395  0.632456  1
  Tl  Tl31  1  0.668496  0.750000  0.745135  1
  O  O32  1  0.673965  0.750000  0.347931  1
  O  O33  1  0.486288  0.250000  0.972576  1
  O  O34  1  0.326035  0.250000  0.652069  1
  O  O35  1  0.513712  0.750000  0.027424  1
