# generated using pymatgen
data_CaBi2(CO4)2
_symmetry_space_group_name_H-M   'P 1'
_cell_length_a   3.38088262
_cell_length_b   4.59585074
_cell_length_c   11.46772822
_cell_angle_alpha   101.56021078
_cell_angle_beta   98.47926231
_cell_angle_gamma   89.99720929
_symmetry_Int_Tables_number   1
_chemical_formula_structural   CaBi2(CO4)2
_chemical_formula_sum   'Ca1 Bi2 C2 O8'
_cell_volume   172.58314285
_cell_formula_units_Z   1
loop_
 _symmetry_equiv_pos_site_id
 _symmetry_equiv_pos_as_xyz
  1  'x, y, z'
loop_
 _atom_site_type_symbol
 _atom_site_label
 _atom_site_symmetry_multiplicity
 _atom_site_fract_x
 _atom_site_fract_y
 _atom_site_fract_z
 _atom_site_occupancy
  Ca  Ca0  1  0.500000  0.500000  0.000000  1
  Bi  Bi1  1  0.309156  0.309138  0.618414  1
  Bi  Bi2  1  0.690844  0.690862  0.381586  1
  C  C3  1  0.908552  0.908661  0.817061  1
  C  C4  1  0.091448  0.091339  0.182939  1
  O  O5  1  0.253802  0.753804  0.507579  1
  O  O6  1  0.936122  0.180027  0.872419  1
  O  O7  1  0.151029  0.150809  0.302202  1
  O  O8  1  0.063838  0.307665  0.127731  1
  O  O9  1  0.936162  0.692335  0.872269  1
  O  O10  1  0.063878  0.819973  0.127581  1
  O  O11  1  0.746198  0.246196  0.492421  1
  O  O12  1  0.848971  0.849191  0.697798  1
