# generated using pymatgen
data_Bi
_symmetry_space_group_name_H-M   'P 1'
_cell_length_a   4.13126322
_cell_length_b   6.62324357
_cell_length_c   6.62324327
_cell_angle_alpha   84.41820556
_cell_angle_beta   71.82766352
_cell_angle_gamma   71.82766994
_symmetry_Int_Tables_number   1
_chemical_formula_structural   Bi
_chemical_formula_sum   Bi4
_cell_volume   163.60016706
_cell_formula_units_Z   4
loop_
 _symmetry_equiv_pos_site_id
 _symmetry_equiv_pos_as_xyz
  1  'x, y, z'
loop_
 _atom_site_type_symbol
 _atom_site_label
 _atom_site_symmetry_multiplicity
 _atom_site_fract_x
 _atom_site_fract_y
 _atom_site_fract_z
 _atom_site_occupancy
  Bi  Bi0  1  0.854344  0.500000  0.791311  1
  Bi  Bi1  1  0.145656  0.500000  0.208689  1
  Bi  Bi2  1  0.645656  0.208689  0.500000  1
  Bi  Bi3  1  0.354344  0.791311  0.500000  1
