# generated using pymatgen
data_Na4MoO5
_symmetry_space_group_name_H-M   'P 1'
_cell_length_a   5.72892789
_cell_length_b   10.12541570
_cell_length_c   10.15651140
_cell_angle_alpha   113.34433594
_cell_angle_beta   96.54182961
_cell_angle_gamma   96.29815821
_symmetry_Int_Tables_number   1
_chemical_formula_structural   Na4MoO5
_chemical_formula_sum   'Na16 Mo4 O20'
_cell_volume   529.60620414
_cell_formula_units_Z   4
loop_
 _symmetry_equiv_pos_site_id
 _symmetry_equiv_pos_as_xyz
  1  'x, y, z'
loop_
 _atom_site_type_symbol
 _atom_site_label
 _atom_site_symmetry_multiplicity
 _atom_site_fract_x
 _atom_site_fract_y
 _atom_site_fract_z
 _atom_site_occupancy
  O  O0  1  0.805546  0.397161  0.811513  1
  O  O1  1  0.936766  0.644023  0.651188  1
  O  O2  1  0.063232  0.355976  0.348812  1
  O  O3  1  0.194453  0.602839  0.188488  1
  O  O4  1  0.886743  0.042384  0.226574  1
  O  O5  1  0.113257  0.957616  0.773426  1
  O  O6  1  0.864560  0.228042  0.069037  1
  O  O7  1  0.135440  0.771957  0.930963  1
  O  O8  1  0.405473  0.464405  0.711110  1
  O  O9  1  0.594528  0.535595  0.288890  1
  O  O10  1  0.197409  0.188263  0.597203  1
  O  O11  1  0.802592  0.811738  0.402797  1
  O  O12  1  0.375268  0.320458  0.908415  1
  O  O13  1  0.624732  0.679542  0.091585  1
  O  O14  1  0.667966  0.270792  0.424066  1
  O  O15  1  0.332033  0.729207  0.575933  1
  O  O16  1  0.600734  0.116587  0.682425  1
  O  O17  1  0.539844  0.848607  0.851218  1
  O  O18  1  0.460157  0.151394  0.148782  1
  O  O19  1  0.399267  0.883414  0.317575  1
  Na  Na20  1  0.734116  0.643640  0.841969  1
  Na  Na21  1  0.781927  0.451503  0.066892  1
  Na  Na22  1  0.218073  0.548497  0.933108  1
  Na  Na23  1  0.755822  0.054389  0.462438  1
  Na  Na24  1  0.000000  0.000000  0.000000  1
  Na  Na25  1  0.500000  0.500000  0.500000  1
  Na  Na26  1  0.509556  0.102762  0.910899  1
  Na  Na27  1  0.490444  0.897237  0.089100  1
  Na  Na28  1  0.002071  0.398014  0.598433  1
  Na  Na29  1  0.997929  0.601986  0.401567  1
  Na  Na30  1  0.284674  0.155614  0.360447  1
  Na  Na31  1  0.715326  0.844386  0.639553  1
  Na  Na32  1  0.983334  0.194657  0.804673  1
  Na  Na33  1  0.016666  0.805343  0.195327  1
  Na  Na34  1  0.265884  0.356360  0.158031  1
  Na  Na35  1  0.244178  0.945612  0.537562  1
  Mo  Mo36  1  0.520523  0.701782  0.261969  1
  Mo  Mo37  1  0.479478  0.298218  0.738031  1
  Mo  Mo38  1  0.213016  0.784749  0.753519  1
  Mo  Mo39  1  0.786985  0.215252  0.246481  1
