# generated using pymatgen
data_AlH15(NF)6
_symmetry_space_group_name_H-M   'P 1'
_cell_length_a   9.06823611
_cell_length_b   9.23626634
_cell_length_c   10.62345304
_cell_angle_alpha   90.00000000
_cell_angle_beta   90.00000000
_cell_angle_gamma   90.00000000
_symmetry_Int_Tables_number   1
_chemical_formula_structural   AlH15(NF)6
_chemical_formula_sum   'Al4 H60 N24 F24'
_cell_volume   889.78477375
_cell_formula_units_Z   4
loop_
 _symmetry_equiv_pos_site_id
 _symmetry_equiv_pos_as_xyz
  1  'x, y, z'
loop_
 _atom_site_type_symbol
 _atom_site_label
 _atom_site_symmetry_multiplicity
 _atom_site_fract_x
 _atom_site_fract_y
 _atom_site_fract_z
 _atom_site_occupancy
  Al  Al0  1  0.455765  0.513512  0.550371  1
  Al  Al1  1  0.955765  0.986488  0.449629  1
  Al  Al2  1  0.544235  0.013512  0.949629  1
  Al  Al3  1  0.044235  0.486488  0.050371  1
  F  F4  1  0.642926  0.436004  0.533896  1
  F  F5  1  0.142926  0.063996  0.466104  1
  F  F6  1  0.357075  0.936004  0.966104  1
  F  F7  1  0.857074  0.563996  0.033896  1
  F  F8  1  0.482736  0.539519  0.723169  1
  F  F9  1  0.982736  0.960481  0.276831  1
  F  F10  1  0.517264  0.039519  0.776831  1
  F  F11  1  0.017264  0.460481  0.223169  1
  F  F12  1  0.269953  0.582402  0.564443  1
  F  F13  1  0.769953  0.917598  0.435557  1
  F  F14  1  0.730047  0.082402  0.935557  1
  F  F15  1  0.230047  0.417598  0.064443  1
  F  F16  1  0.425438  0.488969  0.379201  1
  F  F17  1  0.925438  0.011031  0.620799  1
  F  F18  1  0.574562  0.988969  0.120799  1
  F  F19  1  0.074562  0.511031  0.879201  1
  F  F20  1  0.389244  0.328264  0.578798  1
  F  F21  1  0.889244  0.171736  0.421202  1
  F  F22  1  0.610756  0.828264  0.921202  1
  F  F23  1  0.110756  0.671736  0.078798  1
  F  F24  1  0.530102  0.696999  0.525664  1
  F  F25  1  0.030102  0.803001  0.474336  1
  F  F26  1  0.469898  0.196999  0.974336  1
  F  F27  1  0.969898  0.303001  0.025664  1
  N  N28  1  0.261917  0.286944  0.801957  1
  N  N29  1  0.761917  0.213056  0.198043  1
  N  N30  1  0.738083  0.786944  0.698043  1
  N  N31  1  0.238083  0.713056  0.301957  1
  N  N32  1  0.172997  0.157821  0.785529  1
  N  N33  1  0.672997  0.342179  0.214471  1
  N  N34  1  0.827003  0.657821  0.714471  1
  N  N35  1  0.327003  0.842179  0.285529  1
  N  N36  1  0.241332  0.267722  0.301041  1
  N  N37  1  0.741332  0.232278  0.698959  1
  N  N38  1  0.758668  0.767722  0.198959  1
  N  N39  1  0.258668  0.732278  0.801041  1
  N  N40  1  0.306913  0.166637  0.213584  1
  N  N41  1  0.806913  0.333363  0.786416  1
  N  N42  1  0.693087  0.666637  0.286416  1
  N  N43  1  0.193087  0.833363  0.713584  1
  N  N44  1  0.576514  0.484253  0.970854  1
  N  N45  1  0.076514  0.015747  0.029146  1
  N  N46  1  0.423486  0.984253  0.529146  1
  N  N47  1  0.923486  0.515747  0.470854  1
  N  N48  1  0.492647  0.583833  0.048635  1
  N  N49  1  0.992647  0.916167  0.951365  1
  N  N50  1  0.507353  0.083833  0.451365  1
  N  N51  1  0.007353  0.416167  0.548635  1
  H  H52  1  0.193480  0.371200  0.831796  1
  H  H53  1  0.693480  0.128800  0.168204  1
  H  H54  1  0.806520  0.871200  0.668204  1
  H  H55  1  0.306520  0.628800  0.331796  1
  H  H56  1  0.337525  0.263927  0.873631  1
  H  H57  1  0.837525  0.236073  0.126369  1
  H  H58  1  0.662475  0.763927  0.626369  1
  H  H59  1  0.162475  0.736073  0.373631  1
  H  H60  1  0.319084  0.315220  0.719202  1
  H  H61  1  0.819084  0.184780  0.280798  1
  H  H62  1  0.680916  0.815220  0.780798  1
  H  H63  1  0.180916  0.684780  0.219202  1
  H  H64  1  0.118292  0.167047  0.701492  1
  H  H65  1  0.618292  0.332953  0.298508  1
  H  H66  1  0.881708  0.667047  0.798508  1
  H  H67  1  0.381708  0.832953  0.201492  1
  H  H68  1  0.246132  0.074176  0.772796  1
  H  H69  1  0.746132  0.425824  0.227204  1
  H  H70  1  0.753868  0.574176  0.727204  1
  H  H71  1  0.253868  0.925824  0.272796  1
  H  H72  1  0.195654  0.205222  0.373407  1
  H  H73  1  0.695654  0.294778  0.626593  1
  H  H74  1  0.804346  0.705222  0.126593  1
  H  H75  1  0.304346  0.794778  0.873407  1
  H  H76  1  0.316056  0.344022  0.337195  1
  H  H77  1  0.816056  0.155978  0.662805  1
  H  H78  1  0.683944  0.844022  0.162805  1
  H  H79  1  0.183944  0.655978  0.837195  1
  H  H80  1  0.157961  0.325788  0.255989  1
  H  H81  1  0.657961  0.174212  0.744011  1
  H  H82  1  0.842039  0.825788  0.244011  1
  H  H83  1  0.342039  0.674212  0.755989  1
  H  H84  1  0.342203  0.224557  0.136778  1
  H  H85  1  0.842203  0.275443  0.863222  1
  H  H86  1  0.657797  0.724557  0.363222  1
  H  H87  1  0.157797  0.775443  0.636778  1
  H  H88  1  0.397437  0.123939  0.258896  1
  H  H89  1  0.897437  0.376061  0.741104  1
  H  H90  1  0.602563  0.623939  0.241104  1
  H  H91  1  0.102563  0.876061  0.758896  1
  H  H92  1  0.688834  0.503479  0.986043  1
  H  H93  1  0.188834  0.996521  0.013957  1
  H  H94  1  0.311166  0.003479  0.513957  1
  H  H95  1  0.811166  0.496521  0.486043  1
  H  H96  1  0.553807  0.378605  0.998772  1
  H  H97  1  0.053807  0.121395  0.001228  1
  H  H98  1  0.446193  0.878605  0.501228  1
  H  H99  1  0.946193  0.621395  0.498772  1
  H  H100  1  0.552527  0.494458  0.874988  1
  H  H101  1  0.052527  0.005542  0.125012  1
  H  H102  1  0.447473  0.994458  0.625012  1
  H  H103  1  0.947473  0.505542  0.374988  1
  H  H104  1  0.385891  0.544809  0.049771  1
  H  H105  1  0.885891  0.955191  0.950229  1
  H  H106  1  0.614109  0.044809  0.450229  1
  H  H107  1  0.114109  0.455191  0.549771  1
  H  H108  1  0.498665  0.681721  0.002699  1
  H  H109  1  0.998665  0.818279  0.997301  1
  H  H110  1  0.501335  0.181721  0.497301  1
  H  H111  1  0.001335  0.318279  0.502699  1
