# generated using pymatgen
data_Ca18Nd2Si3P9(O16F)3
_symmetry_space_group_name_H-M   'P 1'
_cell_length_a   9.57261935
_cell_length_b   9.53460266
_cell_length_c   13.89632850
_cell_angle_alpha   90.00000000
_cell_angle_beta   90.00000000
_cell_angle_gamma   119.80574890
_symmetry_Int_Tables_number   1
_chemical_formula_structural   Ca18Nd2Si3P9(O16F)3
_chemical_formula_sum   'Ca18 Nd2 Si3 P9 O48 F3'
_cell_volume   1100.55273767
_cell_formula_units_Z   1
loop_
 _symmetry_equiv_pos_site_id
 _symmetry_equiv_pos_as_xyz
  1  'x, y, z'
loop_
 _atom_site_type_symbol
 _atom_site_label
 _atom_site_symmetry_multiplicity
 _atom_site_fract_x
 _atom_site_fract_y
 _atom_site_fract_z
 _atom_site_occupancy
  Ca  Ca0  1  0.245682  1.002083  0.125329  1
  Ca  Ca1  1  0.245682  1.002083  0.624671  1
  Ca  Ca2  1  -0.000805  0.242208  0.125188  1
  Ca  Ca3  1  -0.000805  0.242208  0.624812  1
  Ca  Ca4  1  0.325850  0.661268  0.000136  1
  Ca  Ca5  1  0.329998  0.666347  0.498976  1
  Ca  Ca6  1  0.329998  0.666347  0.251024  1
  Ca  Ca7  1  0.325850  0.661268  0.749864  1
  Ca  Ca8  1  0.274170  0.276980  0.875000  1
  Ca  Ca9  1  0.754142  0.755276  0.124853  1
  Ca  Ca10  1  0.754142  0.755276  0.625147  1
  Ca  Ca11  1  0.667739  0.326289  0.252998  1
  Ca  Ca12  1  0.667195  0.330094  0.750461  1
  Ca  Ca13  1  0.667739  0.326289  0.497002  1
  Ca  Ca14  1  0.667195  0.330094  0.999539  1
  Ca  Ca15  1  0.994013  0.715822  0.875000  1
  Ca  Ca16  1  0.740612  0.005189  0.375000  1
  Ca  Ca17  1  0.727941  0.014027  0.875000  1
  F  F18  1  0.999532  0.996750  0.123498  1
  F  F19  1  0.999532  0.996750  0.626502  1
  F  F20  1  0.991155  0.999807  0.375000  1
  Nd  Nd21  1  0.246944  0.240647  0.375000  1
  Nd  Nd22  1  0.998241  0.749552  0.375000  1
  O  O23  1  0.238433  0.919311  0.467311  1
  O  O24  1  0.240403  0.919615  0.963902  1
  O  O25  1  0.238433  0.919311  0.282689  1
  O  O26  1  0.240403  0.919615  0.786098  1
  O  O27  1  0.154661  0.667239  0.123701  1
  O  O28  1  0.154661  0.667239  0.626299  1
  O  O29  1  0.126122  0.593663  0.375000  1
  O  O30  1  0.129709  0.581642  0.875000  1
  O  O31  1  0.095730  0.336290  0.281714  1
  O  O32  1  0.085104  0.317852  0.782125  1
  O  O33  1  0.095730  0.336290  0.468286  1
  O  O34  1  0.085104  0.317852  0.967875  1
  O  O35  1  0.460764  0.873131  0.375000  1
  O  O36  1  0.448359  0.876983  0.875000  1
  O  O37  1  0.341020  0.495013  0.122539  1
  O  O38  1  0.341020  0.495013  0.627461  1
  O  O39  1  0.510009  0.841077  0.123766  1
  O  O40  1  0.510009  0.841077  0.626234  1
  O  O41  1  0.422062  0.535473  0.375000  1
  O  O42  1  0.431397  0.556551  0.875000  1
  O  O43  1  0.355056  0.265738  0.033243  1
  O  O44  1  0.343278  0.262196  0.537736  1
  O  O45  1  0.355056  0.265738  0.716757  1
  O  O46  1  0.343278  0.262196  0.212264  1
  O  O47  1  0.667197  0.746975  0.464827  1
  O  O48  1  0.682194  0.762021  0.963699  1
  O  O49  1  0.667197  0.746975  0.285173  1
  O  O50  1  0.682194  0.762021  0.786301  1
  O  O51  1  0.594487  0.468738  0.127051  1
  O  O52  1  0.594487  0.468738  0.622949  1
  O  O53  1  0.481264  0.172066  0.375000  1
  O  O54  1  0.475722  0.156091  0.875000  1
  O  O55  1  0.683857  0.522797  0.375000  1
  O  O56  1  0.678998  0.523018  0.875000  1
  O  O57  1  0.530266  0.120039  0.126226  1
  O  O58  1  0.530266  0.120039  0.623774  1
  O  O59  1  0.913530  0.652929  0.034510  1
  O  O60  1  0.915900  0.655597  0.536446  1
  O  O61  1  0.915900  0.655597  0.213554  1
  O  O62  1  0.913530  0.652929  0.715490  1
  O  O63  1  0.877939  0.408754  0.624936  1
  O  O64  1  0.877939  0.408754  0.125064  1
  O  O65  1  0.834101  0.318192  0.375000  1
  O  O66  1  0.830532  0.317647  0.875000  1
  O  O67  1  0.738568  0.080022  0.213710  1
  O  O68  1  0.735222  0.083070  0.715454  1
  O  O69  1  0.735222  0.083070  0.034546  1
  O  O70  1  0.738568  0.080022  0.536290  1
  P  P71  1  0.353672  0.972163  0.875000  1
  P  P72  1  0.406923  0.376555  0.123189  1
  P  P73  1  0.406923  0.376555  0.626811  1
  P  P74  1  0.610484  0.636196  0.375000  1
  P  P75  1  0.620256  0.648310  0.875000  1
  P  P76  1  0.625460  0.026262  0.124928  1
  P  P77  1  0.625460  0.026262  0.625072  1
  P  P78  1  0.970081  0.596765  0.123687  1
  P  P79  1  0.970081  0.596765  0.626313  1
  Si  Si80  1  0.028720  0.393056  0.375000  1
  Si  Si81  1  0.024671  0.381164  0.875000  1
  Si  Si82  1  0.364645  0.975088  0.375000  1
