# generated using pymatgen
data_Sr13Al6Si8O
_symmetry_space_group_name_H-M   'P 1'
_cell_length_a   4.84016064
_cell_length_b   11.70158676
_cell_length_c   14.60456243
_cell_angle_alpha   82.96742170
_cell_angle_beta   80.46353180
_cell_angle_gamma   78.06484684
_symmetry_Int_Tables_number   1
_chemical_formula_structural   Sr13Al6Si8O
_chemical_formula_sum   'Sr13 Al6 Si8 O1'
_cell_volume   794.76193122
_cell_formula_units_Z   1
loop_
 _symmetry_equiv_pos_site_id
 _symmetry_equiv_pos_as_xyz
  1  'x, y, z'
loop_
 _atom_site_type_symbol
 _atom_site_label
 _atom_site_symmetry_multiplicity
 _atom_site_fract_x
 _atom_site_fract_y
 _atom_site_fract_z
 _atom_site_occupancy
  Sr  Sr0  1  0.806036  0.240920  0.146960  1
  Sr  Sr1  1  0.002279  0.354562  0.640916  1
  Sr  Sr2  1  0.001464  0.117624  0.879421  1
  Sr  Sr3  1  0.806553  0.995825  0.391136  1
  Sr  Sr4  1  0.815167  0.478263  0.891430  1
  Sr  Sr5  1  0.845450  0.692063  0.617097  1
  Sr  Sr6  1  0.500000  0.500000  0.500000  1
  Sr  Sr7  1  0.154550  0.307937  0.382903  1
  Sr  Sr8  1  0.193447  0.004175  0.608864  1
  Sr  Sr9  1  0.184833  0.521737  0.108570  1
  Sr  Sr10  1  0.193964  0.759080  0.853040  1
  Sr  Sr11  1  0.998536  0.882376  0.120579  1
  Sr  Sr12  1  0.997721  0.645438  0.359084  1
  Al  Al13  1  0.566039  0.676912  0.190873  1
  Al  Al14  1  0.430745  0.086171  0.052500  1
  Al  Al15  1  0.572485  0.149946  0.705117  1
  Al  Al16  1  0.433961  0.323088  0.809127  1
  Al  Al17  1  0.427515  0.850054  0.294883  1
  Al  Al18  1  0.569255  0.913829  0.947500  1
  Si  Si19  1  0.360819  0.294480  0.983773  1
  Si  Si20  1  0.355264  0.060942  0.228568  1
  Si  Si21  1  0.644736  0.939058  0.771432  1
  Si  Si22  1  0.630642  0.472375  0.266129  1
  Si  Si23  1  0.632890  0.200006  0.534155  1
  Si  Si24  1  0.367110  0.799994  0.465845  1
  Si  Si25  1  0.369358  0.527625  0.733871  1
  Si  Si26  1  0.639181  0.705520  0.016227  1
  O  O27  1  0.000000  0.500000  0.500000  1
