# generated using pymatgen
data_LiLa5Ti8O24
_symmetry_space_group_name_H-M   'P 1'
_cell_length_a   7.87643124
_cell_length_b   7.82501141
_cell_length_c   7.79476410
_cell_angle_alpha   90.00000000
_cell_angle_beta   90.00000000
_cell_angle_gamma   90.24195130
_symmetry_Int_Tables_number   1
_chemical_formula_structural   LiLa5Ti8O24
_chemical_formula_sum   'Li1 La5 Ti8 O24'
_cell_volume   480.41169309
_cell_formula_units_Z   1
loop_
 _symmetry_equiv_pos_site_id
 _symmetry_equiv_pos_as_xyz
  1  'x, y, z'
loop_
 _atom_site_type_symbol
 _atom_site_label
 _atom_site_symmetry_multiplicity
 _atom_site_fract_x
 _atom_site_fract_y
 _atom_site_fract_z
 _atom_site_occupancy
  Li  Li0  1  0.755849  0.755321  0.000000  1
  La  La1  1  0.243036  0.028328  0.500000  1
  La  La2  1  0.746344  0.499092  0.500000  1
  La  La3  1  0.742222  1.004486  0.500000  1
  La  La4  1  0.258133  0.504767  0.000000  1
  La  La5  1  0.245291  0.005438  0.000000  1
  Ti  Ti6  1  0.001544  0.751759  0.251430  1
  Ti  Ti7  1  0.502128  0.260115  0.755732  1
  Ti  Ti8  1  0.502128  0.260115  0.244268  1
  Ti  Ti9  1  0.991847  0.261190  0.754398  1
  Ti  Ti10  1  0.991847  0.261190  0.245602  1
  Ti  Ti11  1  0.498604  0.751003  0.749229  1
  Ti  Ti12  1  0.498604  0.751003  0.250771  1
  Ti  Ti13  1  0.001544  0.751759  0.748570  1
  O  O14  1  0.257997  0.739623  0.774315  1
  O  O15  1  0.037883  0.272495  0.000000  1
  O  O16  1  0.521074  0.265306  0.500000  1
  O  O17  1  0.030007  0.995648  0.769184  1
  O  O18  1  1.010058  0.786983  0.500000  1
  O  O19  1  -0.006540  0.496380  0.719557  1
  O  O20  1  0.258102  0.243155  0.745336  1
  O  O21  1  0.758867  0.757529  0.261677  1
  O  O22  1  0.006386  0.723042  0.000000  1
  O  O23  1  0.756148  0.235698  0.266701  1
  O  O24  1  0.258102  0.243155  0.254664  1
  O  O25  1  0.511295  0.495995  0.222086  1
  O  O26  1  0.756148  0.235698  0.733299  1
  O  O27  1  0.511295  0.495995  0.777914  1
  O  O28  1  0.509462  0.775481  0.000000  1
  O  O29  1  0.522325  0.718679  0.500000  1
  O  O30  1  0.489629  0.992459  0.292275  1
  O  O31  1  0.257997  0.739623  0.225685  1
  O  O32  1  0.478446  0.218711  0.000000  1
  O  O33  1  0.489629  0.992459  0.707725  1
  O  O34  1  -0.006540  0.496380  0.280443  1
  O  O35  1  0.997365  0.209574  0.500000  1
  O  O36  1  0.758867  0.757529  0.738323  1
  O  O37  1  0.030007  0.995648  0.230816  1
