# generated using pymatgen
data_Mn(SbS2)2
_symmetry_space_group_name_H-M   'P 1'
_cell_length_a   3.83749717
_cell_length_b   11.50733149
_cell_length_c   14.69260003
_cell_angle_alpha   90.00000000
_cell_angle_beta   90.00000000
_cell_angle_gamma   90.00000000
_symmetry_Int_Tables_number   1
_chemical_formula_structural   Mn(SbS2)2
_chemical_formula_sum   'Mn4 Sb8 S16'
_cell_volume   648.81569692
_cell_formula_units_Z   4
loop_
 _symmetry_equiv_pos_site_id
 _symmetry_equiv_pos_as_xyz
  1  'x, y, z'
loop_
 _atom_site_type_symbol
 _atom_site_label
 _atom_site_symmetry_multiplicity
 _atom_site_fract_x
 _atom_site_fract_y
 _atom_site_fract_z
 _atom_site_occupancy
  S  S0  1  0.750000  0.275420  0.011588  1
  S  S1  1  0.250000  0.042754  0.096675  1
  S  S2  1  0.750000  0.957246  0.903325  1
  S  S3  1  0.250000  0.542754  0.403325  1
  S  S4  1  0.750000  0.198783  0.730053  1
  S  S5  1  0.250000  0.801217  0.269947  1
  S  S6  1  0.750000  0.698783  0.769947  1
  S  S7  1  0.250000  0.301217  0.230053  1
  S  S8  1  0.750000  0.576467  0.183206  1
  S  S9  1  0.250000  0.423533  0.816794  1
  S  S10  1  0.750000  0.076467  0.316794  1
  S  S11  1  0.250000  0.923533  0.683206  1
  S  S12  1  0.750000  0.775420  0.488412  1
  S  S13  1  0.250000  0.224580  0.511588  1
  S  S14  1  0.250000  0.724580  0.988412  1
  S  S15  1  0.750000  0.457246  0.596675  1
  Mn  Mn16  1  0.750000  0.682210  0.333774  1
  Mn  Mn17  1  0.250000  0.817790  0.833774  1
  Mn  Mn18  1  0.750000  0.182210  0.166226  1
  Mn  Mn19  1  0.250000  0.317790  0.666226  1
  Sb  Sb20  1  0.750000  0.857801  0.056129  1
  Sb  Sb21  1  0.250000  0.142199  0.943871  1
  Sb  Sb22  1  0.750000  0.357801  0.443871  1
  Sb  Sb23  1  0.250000  0.642199  0.556129  1
  Sb  Sb24  1  0.750000  0.043080  0.616383  1
  Sb  Sb25  1  0.250000  0.956920  0.383617  1
  Sb  Sb26  1  0.750000  0.543080  0.883617  1
  Sb  Sb27  1  0.250000  0.456920  0.116383  1
