# generated using pymatgen
data_Bi5IO7
_symmetry_space_group_name_H-M   'P 1'
_cell_length_a   5.49089365
_cell_length_b   14.73707740
_cell_length_c   14.73707725
_cell_angle_alpha   68.75222502
_cell_angle_beta   79.26334534
_cell_angle_gamma   79.26334732
_symmetry_Int_Tables_number   1
_chemical_formula_structural   Bi5IO7
_chemical_formula_sum   'Bi20 I4 O28'
_cell_volume   1082.77164691
_cell_formula_units_Z   4
loop_
 _symmetry_equiv_pos_site_id
 _symmetry_equiv_pos_as_xyz
  1  'x, y, z'
loop_
 _atom_site_type_symbol
 _atom_site_label
 _atom_site_symmetry_multiplicity
 _atom_site_fract_x
 _atom_site_fract_y
 _atom_site_fract_z
 _atom_site_occupancy
  Bi  Bi0  1  0.230307  0.382795  0.736957  1
  Bi  Bi1  1  0.480912  0.482665  0.138492  1
  Bi  Bi2  1  0.649941  0.882795  0.236957  1
  Bi  Bi3  1  0.149941  0.736957  0.382795  1
  Bi  Bi4  1  0.269693  0.763043  0.117205  1
  Bi  Bi5  1  0.602069  0.861508  0.517335  1
  Bi  Bi6  1  0.350059  0.117205  0.763043  1
  Bi  Bi7  1  0.980912  0.638492  0.982665  1
  Bi  Bi8  1  0.702546  0.547454  0.547454  1
  Bi  Bi9  1  0.850059  0.263043  0.617205  1
  Bi  Bi10  1  0.769693  0.617205  0.263043  1
  Bi  Bi11  1  0.797454  0.952546  0.952546  1
  Bi  Bi12  1  0.897931  0.982665  0.638492  1
  Bi  Bi13  1  0.102069  0.017335  0.361508  1
  Bi  Bi14  1  0.519088  0.517335  0.861508  1
  Bi  Bi15  1  0.730307  0.236957  0.882795  1
  Bi  Bi16  1  0.202546  0.047454  0.047454  1
  Bi  Bi17  1  0.019088  0.361508  0.017335  1
  Bi  Bi18  1  0.397931  0.138492  0.482665  1
  Bi  Bi19  1  0.297454  0.452546  0.452546  1
  I  I20  1  0.406784  0.843216  0.843216  1
  I  I21  1  0.093216  0.656784  0.656784  1
  I  I22  1  0.906784  0.343216  0.343216  1
  I  I23  1  0.593216  0.156784  0.156784  1
  O  O24  1  0.476195  0.423426  0.584377  1
  O  O25  1  0.976195  0.084377  0.923427  1
  O  O26  1  0.724962  0.790493  0.409328  1
  O  O27  1  0.966846  0.906090  0.494424  1
  O  O28  1  0.924782  0.709507  0.090672  1
  O  O29  1  0.275038  0.209507  0.590672  1
  O  O30  1  0.516001  0.923427  0.084377  1
  O  O31  1  0.466846  0.994424  0.406090  1
  O  O32  1  0.775038  0.090672  0.709507  1
  O  O33  1  0.867360  0.505576  0.093910  1
  O  O34  1  0.501352  0.250000  0.750000  1
  O  O35  1  0.523805  0.576573  0.415623  1
  O  O36  1  0.075218  0.290493  0.909328  1
  O  O37  1  0.132640  0.494424  0.906090  1
  O  O38  1  0.367360  0.593910  0.005576  1
  O  O39  1  0.575218  0.409328  0.790493  1
  O  O40  1  0.001352  0.250000  0.750000  1
  O  O41  1  0.424782  0.590672  0.209507  1
  O  O42  1  0.483999  0.076574  0.915623  1
  O  O43  1  0.016001  0.584377  0.423426  1
  O  O44  1  0.033154  0.093910  0.505576  1
  O  O45  1  0.533154  0.005576  0.593910  1
  O  O46  1  0.998648  0.750000  0.250000  1
  O  O47  1  0.632640  0.406090  0.994424  1
  O  O48  1  0.498648  0.750000  0.250000  1
  O  O49  1  0.983999  0.415623  0.576573  1
  O  O50  1  0.224962  0.909328  0.290493  1
  O  O51  1  0.023805  0.915623  0.076574  1
