# generated using pymatgen
data_NbFeF6
_symmetry_space_group_name_H-M   'P 1'
_cell_length_a   5.69964446
_cell_length_b   5.69964412
_cell_length_c   5.69964419
_cell_angle_alpha   57.49047857
_cell_angle_beta   57.49048086
_cell_angle_gamma   57.49047472
_symmetry_Int_Tables_number   1
_chemical_formula_structural   NbFeF6
_chemical_formula_sum   'Nb1 Fe1 F6'
_cell_volume   123.36955244
_cell_formula_units_Z   1
loop_
 _symmetry_equiv_pos_site_id
 _symmetry_equiv_pos_as_xyz
  1  'x, y, z'
loop_
 _atom_site_type_symbol
 _atom_site_label
 _atom_site_symmetry_multiplicity
 _atom_site_fract_x
 _atom_site_fract_y
 _atom_site_fract_z
 _atom_site_occupancy
  F  F0  1  0.334660  0.164436  0.750594  1
  F  F1  1  0.750594  0.334660  0.164436  1
  F  F2  1  0.164436  0.750594  0.334660  1
  F  F3  1  0.665340  0.835564  0.249406  1
  F  F4  1  0.249406  0.665340  0.835564  1
  F  F5  1  0.835564  0.249406  0.665340  1
  Fe  Fe6  1  0.000000  0.000000  0.000000  1
  Nb  Nb7  1  0.500000  0.500000  0.500000  1
