# generated using pymatgen
data_Ca12Al14O33
_symmetry_space_group_name_H-M   'P 1'
_cell_length_a   10.46679236
_cell_length_b   10.46679184
_cell_length_c   10.46604203
_cell_angle_alpha   109.23618381
_cell_angle_beta   109.23926915
_cell_angle_gamma   109.94210461
_symmetry_Int_Tables_number   1
_chemical_formula_structural   Ca12Al14O33
_chemical_formula_sum   'Ca12 Al14 O33'
_cell_volume   882.57263202
_cell_formula_units_Z   1
loop_
 _symmetry_equiv_pos_site_id
 _symmetry_equiv_pos_as_xyz
  1  'x, y, z'
loop_
 _atom_site_type_symbol
 _atom_site_label
 _atom_site_symmetry_multiplicity
 _atom_site_fract_x
 _atom_site_fract_y
 _atom_site_fract_z
 _atom_site_occupancy
  Al  Al0  1  0.125540  0.875540  0.250000  1
  Al  Al1  1  0.375628  0.625628  0.750000  1
  Al  Al2  1  0.251581  0.125417  0.874223  1
  Al  Al3  1  0.037727  0.036098  0.036974  1
  Al  Al4  1  0.501553  0.998895  0.963847  1
  Al  Al5  1  0.535049  0.537706  0.536153  1
  Al  Al6  1  0.623693  0.749176  0.373676  1
  Al  Al7  1  0.463404  0.499643  0.997288  1
  Al  Al8  1  0.499124  0.000753  0.463026  1
  Al  Al9  1  0.751194  0.377358  0.625777  1
  Al  Al10  1  0.000518  0.963303  0.498316  1
  Al  Al11  1  0.002355  0.466115  0.502712  1
  Al  Al12  1  0.875500  0.250017  0.126324  1
  Al  Al13  1  0.964987  0.502202  0.001684  1
  Ca  Ca14  1  0.054211  0.304211  0.750000  1
  Ca  Ca15  1  0.252104  0.860653  0.614630  1
  Ca  Ca16  1  0.140554  0.255115  0.391034  1
  Ca  Ca17  1  0.244978  0.383871  0.130986  1
  Ca  Ca18  1  0.364081  0.749520  0.108966  1
  Ca  Ca19  1  0.699226  0.949226  0.750000  1
  Ca  Ca20  1  0.746023  0.637474  0.885370  1
  Ca  Ca21  1  0.616873  0.248912  0.861705  1
  Ca  Ca22  1  0.389451  0.139451  0.250000  1
  Ca  Ca23  1  0.887207  0.755169  0.638295  1
  Ca  Ca24  1  0.861797  0.611797  0.250000  1
  Ca  Ca25  1  0.752886  0.113992  0.369014  1
  O  O26  1  0.101587  0.977792  0.682829  1
  O  O27  1  0.091824  0.881934  0.404817  1
  O  O28  1  0.190002  0.486224  0.583363  1
  O  O29  1  0.394385  0.811151  0.796424  1
  O  O30  1  0.291543  0.313828  0.906448  1
  O  O31  1  0.402862  0.606640  0.916637  1
  O  O32  1  0.314229  0.909503  0.290486  1
  O  O33  1  0.022728  0.205812  0.123284  1
  O  O34  1  0.138152  0.512512  0.013998  1
  O  O35  1  0.119017  0.023743  0.209514  1
  O  O36  1  0.514727  0.597961  0.703576  1
  O  O37  1  0.411800  0.097672  0.890746  1
  O  O38  1  0.371570  0.370622  0.365092  1
  O  O39  1  0.209087  0.114325  0.021061  1
  O  O40  1  0.582528  0.899444  0.376716  1
  O  O41  1  0.616682  0.709715  0.522531  1
  O  O42  1  0.479772  0.589151  0.185702  1
  O  O43  1  0.489697  0.003261  0.626357  1
  O  O44  1  0.876904  0.863340  0.873643  1
  O  O45  1  0.706926  0.521054  0.609254  1
  O  O46  1  0.687185  0.094152  0.977469  1
  O  O47  1  0.593264  0.188027  0.478939  1
  O  O48  1  0.794963  0.418758  0.817171  1
  O  O49  1  0.813054  0.791995  0.404850  1
  O  O50  1  0.505530  0.006478  0.134908  1
  O  O51  1  0.630562  0.495909  0.001078  1
  O  O52  1  0.907380  0.385095  0.593552  1
  O  O53  1  0.876741  0.126741  0.750000  1
  O  O54  1  0.994831  0.629484  0.498922  1
  O  O55  1  0.903449  0.294070  0.314298  1
  O  O56  1  0.887145  0.408204  0.095150  1
  O  O57  1  0.977116  0.687006  0.095183  1
  O  O58  1  0.998514  0.124154  0.486002  1
