# generated using pymatgen
data_TeC8(OF3)4
_symmetry_space_group_name_H-M   'P 1'
_cell_length_a   10.20033951
_cell_length_b   11.21584024
_cell_length_c   14.90575604
_cell_angle_alpha   69.32482590
_cell_angle_beta   87.70051856
_cell_angle_gamma   69.08997753
_symmetry_Int_Tables_number   1
_chemical_formula_structural   TeC8(OF3)4
_chemical_formula_sum   'Te4 C32 O16 F48'
_cell_volume   1483.18374238
_cell_formula_units_Z   4
loop_
 _symmetry_equiv_pos_site_id
 _symmetry_equiv_pos_as_xyz
  1  'x, y, z'
loop_
 _atom_site_type_symbol
 _atom_site_label
 _atom_site_symmetry_multiplicity
 _atom_site_fract_x
 _atom_site_fract_y
 _atom_site_fract_z
 _atom_site_occupancy
  Te  Te0  1  0.408322  0.375531  0.658106  1
  Te  Te1  1  0.591678  0.624469  0.341894  1
  Te  Te2  1  0.444644  0.383928  0.165444  1
  Te  Te3  1  0.555356  0.616072  0.834556  1
  C  C4  1  0.594838  0.768153  0.961791  1
  C  C5  1  0.431580  0.208907  0.613096  1
  C  C6  1  0.568420  0.791093  0.386904  1
  C  C7  1  0.237832  0.598269  0.003344  1
  C  C8  1  0.758024  0.127671  0.893535  1
  C  C9  1  0.226979  0.231013  0.797584  1
  C  C10  1  0.905954  0.332406  0.060262  1
  C  C11  1  0.822999  0.132610  0.373682  1
  C  C12  1  0.573989  0.777748  0.871056  1
  C  C13  1  0.446149  0.889281  0.388067  1
  C  C14  1  0.777484  0.696254  0.698450  1
  C  C15  1  0.241976  0.872329  0.106465  1
  C  C16  1  0.755603  0.416039  0.526490  1
  C  C17  1  0.303293  0.747381  0.696505  1
  C  C18  1  0.696707  0.252619  0.303495  1
  C  C19  1  0.892397  0.336144  0.598168  1
  C  C20  1  0.177001  0.867390  0.626318  1
  C  C21  1  0.642142  0.250916  0.816455  1
  C  C22  1  0.405162  0.231847  0.038209  1
  C  C23  1  0.773021  0.768987  0.202416  1
  C  C24  1  0.667043  0.655967  0.710435  1
  C  C25  1  0.107603  0.663856  0.401832  1
  C  C26  1  0.759916  0.650325  0.256376  1
  C  C27  1  0.222516  0.303746  0.301550  1
  C  C28  1  0.762168  0.401731  0.996656  1
  C  C29  1  0.357858  0.749084  0.183545  1
  C  C30  1  0.094046  0.667594  0.939738  1
  C  C31  1  0.426011  0.222252  0.128944  1
  C  C32  1  0.332957  0.344033  0.289565  1
  C  C33  1  0.240084  0.349675  0.743624  1
  C  C34  1  0.244397  0.583961  0.473510  1
  C  C35  1  0.553851  0.110719  0.611933  1
  O  O36  1  0.771228  0.513541  0.452386  1
  O  O37  1  0.555416  0.211947  0.782765  1
  O  O38  1  0.660996  0.368763  0.026719  1
  O  O39  1  0.324079  0.627124  0.708608  1
  O  O40  1  0.228772  0.486459  0.547614  1
  O  O41  1  0.339004  0.631237  0.973281  1
  O  O42  1  0.764679  0.497323  0.916363  1
  O  O43  1  0.379301  0.791057  0.735623  1
  O  O44  1  0.360073  0.631769  0.204588  1
  O  O45  1  0.620699  0.208943  0.264377  1
  O  O46  1  0.650488  0.385228  0.542982  1
  O  O47  1  0.444584  0.788053  0.217235  1
  O  O48  1  0.639927  0.368231  0.795412  1
  O  O49  1  0.675921  0.372876  0.291392  1
  O  O50  1  0.235321  0.502677  0.083637  1
  O  O51  1  0.349512  0.614772  0.457018  1
  F  F52  1  0.610928  0.643596  0.634469  1
  F  F53  1  0.679030  0.891615  0.191900  1
  F  F54  1  0.161676  0.284346  0.233874  1
  F  F55  1  0.227218  0.941495  0.548993  1
  F  F56  1  0.393560  0.342969  0.961527  1
  F  F57  1  0.392564  0.133713  0.013577  1
  F  F58  1  0.981971  0.696422  0.990972  1
  F  F59  1  0.993804  0.710362  0.447189  1
  F  F60  1  0.563917  0.895019  0.798238  1
  F  F61  1  0.117109  0.223473  0.846531  1
  F  F62  1  0.087093  0.784970  0.867991  1
  F  F63  1  0.320970  0.108385  0.808100  1
  F  F64  1  0.880636  0.227370  0.670727  1
  F  F65  1  0.298948  0.910877  0.021243  1
  F  F66  1  0.902191  0.046930  0.330475  1
  F  F67  1  0.559973  0.010150  0.582559  1
  F  F68  1  0.119364  0.772630  0.329273  1
  F  F69  1  0.135726  0.468353  0.737736  1
  F  F70  1  0.907436  0.180602  0.406917  1
  F  F71  1  0.083603  0.580430  0.361904  1
  F  F72  1  0.836829  0.722948  0.616859  1
  F  F73  1  0.838324  0.715654  0.766126  1
  F  F74  1  0.440027  0.989850  0.417441  1
  F  F75  1  0.189247  0.982169  0.133501  1
  F  F76  1  0.133954  0.837171  0.090080  1
  F  F77  1  0.006196  0.289638  0.552811  1
  F  F78  1  0.882891  0.776527  0.153469  1
  F  F79  1  0.310795  0.204711  0.582706  1
  F  F80  1  0.097809  0.953070  0.669525  1
  F  F81  1  0.689205  0.795289  0.417294  1
  F  F82  1  0.083051  0.579631  0.898983  1
  F  F83  1  0.389072  0.356404  0.365531  1
  F  F84  1  0.916949  0.420369  0.101017  1
  F  F85  1  0.320147  0.900297  0.359536  1
  F  F86  1  0.772782  0.058505  0.451007  1
  F  F87  1  0.606440  0.657031  0.038473  1
  F  F88  1  0.679853  0.099703  0.640464  1
  F  F89  1  0.866046  0.162829  0.909920  1
  F  F90  1  0.163171  0.277052  0.383141  1
  F  F91  1  0.912907  0.215030  0.132009  1
  F  F92  1  0.607436  0.866287  0.986423  1
  F  F93  1  0.018029  0.303578  0.009028  1
  F  F94  1  0.701052  0.089123  0.978757  1
  F  F95  1  0.436083  0.104981  0.201762  1
  F  F96  1  0.092564  0.819398  0.593083  1
  F  F97  1  0.864274  0.531647  0.262264  1
  F  F98  1  0.916397  0.419570  0.638096  1
  F  F99  1  0.810753  0.017831  0.866499  1
