# generated using pymatgen
data_K2Mo15S19
_symmetry_space_group_name_H-M   'P 1'
_cell_length_a   19.70164903
_cell_length_b   19.70164883
_cell_length_c   19.70164922
_cell_angle_alpha   27.87907054
_cell_angle_beta   27.87907160
_cell_angle_gamma   27.87906984
_symmetry_Int_Tables_number   1
_chemical_formula_structural   K2Mo15S19
_chemical_formula_sum   'K4 Mo30 S38'
_cell_volume   1476.64629330
_cell_formula_units_Z   2
loop_
 _symmetry_equiv_pos_site_id
 _symmetry_equiv_pos_as_xyz
  1  'x, y, z'
loop_
 _atom_site_type_symbol
 _atom_site_label
 _atom_site_symmetry_multiplicity
 _atom_site_fract_x
 _atom_site_fract_y
 _atom_site_fract_z
 _atom_site_occupancy
  K  K0  1  0.387442  0.387442  0.387442  1
  K  K1  1  0.887442  0.887442  0.887442  1
  K  K2  1  0.612558  0.612558  0.612558  1
  K  K3  1  0.112558  0.112558  0.112558  1
  Mo  Mo4  1  0.306490  0.633833  0.498044  1
  Mo  Mo5  1  0.459310  0.281125  0.130846  1
  Mo  Mo6  1  0.806490  0.998044  0.133833  1
  Mo  Mo7  1  0.040690  0.369154  0.218875  1
  Mo  Mo8  1  0.085339  0.250000  0.414661  1
  Mo  Mo9  1  0.414661  0.085339  0.250000  1
  Mo  Mo10  1  0.501956  0.693510  0.366167  1
  Mo  Mo11  1  0.781125  0.959310  0.630846  1
  Mo  Mo12  1  0.498044  0.306490  0.633833  1
  Mo  Mo13  1  0.869154  0.540690  0.718875  1
  Mo  Mo14  1  0.130846  0.459310  0.281125  1
  Mo  Mo15  1  0.133833  0.806490  0.998044  1
  Mo  Mo16  1  0.585339  0.914661  0.750000  1
  Mo  Mo17  1  0.250000  0.414661  0.085339  1
  Mo  Mo18  1  0.914661  0.750000  0.585339  1
  Mo  Mo19  1  0.366167  0.501956  0.693510  1
  Mo  Mo20  1  0.866167  0.193510  0.001956  1
  Mo  Mo21  1  0.369154  0.218875  0.040690  1
  Mo  Mo22  1  0.218875  0.040690  0.369154  1
  Mo  Mo23  1  0.630846  0.781125  0.959310  1
  Mo  Mo24  1  0.193510  0.001956  0.866167  1
  Mo  Mo25  1  0.540690  0.718875  0.869154  1
  Mo  Mo26  1  0.998044  0.133833  0.806490  1
  Mo  Mo27  1  0.281125  0.130846  0.459310  1
  Mo  Mo28  1  0.001956  0.866167  0.193510  1
  Mo  Mo29  1  0.718875  0.869154  0.540690  1
  Mo  Mo30  1  0.693510  0.366167  0.501956  1
  Mo  Mo31  1  0.750000  0.585339  0.914661  1
  Mo  Mo32  1  0.633833  0.498044  0.306490  1
  Mo  Mo33  1  0.959310  0.630846  0.781125  1
  S  S34  1  0.021229  0.693355  0.427216  1
  S  S35  1  0.306645  0.572784  0.978771  1
  S  S36  1  0.693355  0.427216  0.021229  1
  S  S37  1  0.050808  0.449192  0.750000  1
  S  S38  1  0.072784  0.806645  0.478771  1
  S  S39  1  0.297453  0.950933  0.702406  1
  S  S40  1  0.053408  0.053408  0.053408  1
  S  S41  1  0.446592  0.446592  0.446592  1
  S  S42  1  0.202406  0.450933  0.797453  1
  S  S43  1  0.297594  0.702547  0.049067  1
  S  S44  1  0.823103  0.823103  0.823103  1
  S  S45  1  0.676897  0.676897  0.676897  1
  S  S46  1  0.323103  0.323103  0.323103  1
  S  S47  1  0.797453  0.202406  0.450933  1
  S  S48  1  0.978771  0.306645  0.572784  1
  S  S49  1  0.450933  0.797453  0.202406  1
  S  S50  1  0.478771  0.072784  0.806645  1
  S  S51  1  0.797594  0.549067  0.202547  1
  S  S52  1  0.549067  0.202547  0.797594  1
  S  S53  1  0.521229  0.927216  0.193355  1
  S  S54  1  0.427216  0.021229  0.693355  1
  S  S55  1  0.927216  0.193355  0.521229  1
  S  S56  1  0.750000  0.050808  0.449192  1
  S  S57  1  0.250000  0.949192  0.550808  1
  S  S58  1  0.449192  0.750000  0.050808  1
  S  S59  1  0.702547  0.049067  0.297594  1
  S  S60  1  0.049067  0.297594  0.702547  1
  S  S61  1  0.702406  0.297453  0.950933  1
  S  S62  1  0.553408  0.553408  0.553408  1
  S  S63  1  0.193355  0.521229  0.927216  1
  S  S64  1  0.806645  0.478771  0.072784  1
  S  S65  1  0.572784  0.978771  0.306645  1
  S  S66  1  0.949192  0.550808  0.250000  1
  S  S67  1  0.202547  0.797594  0.549067  1
  S  S68  1  0.950933  0.702406  0.297453  1
  S  S69  1  0.176897  0.176897  0.176897  1
  S  S70  1  0.550808  0.250000  0.949192  1
  S  S71  1  0.946592  0.946592  0.946592  1
