# generated using pymatgen
data_Rb2SiP4O13
_symmetry_space_group_name_H-M   'P 1'
_cell_length_a   4.92582350
_cell_length_b   7.87630566
_cell_length_c   15.45794040
_cell_angle_alpha   83.85823593
_cell_angle_beta   83.67138977
_cell_angle_gamma   81.83166559
_symmetry_Int_Tables_number   1
_chemical_formula_structural   Rb2SiP4O13
_chemical_formula_sum   'Rb4 Si2 P8 O26'
_cell_volume   587.47663511
_cell_formula_units_Z   2
loop_
 _symmetry_equiv_pos_site_id
 _symmetry_equiv_pos_as_xyz
  1  'x, y, z'
loop_
 _atom_site_type_symbol
 _atom_site_label
 _atom_site_symmetry_multiplicity
 _atom_site_fract_x
 _atom_site_fract_y
 _atom_site_fract_z
 _atom_site_occupancy
  Rb  Rb0  1  0.725451  0.696457  0.972180  1
  Rb  Rb1  1  0.274549  0.303543  0.027820  1
  Rb  Rb2  1  0.321965  0.257271  0.510695  1
  Rb  Rb3  1  0.678035  0.742729  0.489305  1
  Si  Si4  1  0.455190  0.056926  0.758423  1
  Si  Si5  1  0.544810  0.943074  0.241577  1
  P  P6  1  0.682755  0.319106  0.210770  1
  P  P7  1  0.317245  0.680894  0.789230  1
  P  P8  1  0.106661  0.794224  0.150043  1
  P  P9  1  0.327968  0.597654  0.305571  1
  P  P10  1  0.980015  0.089326  0.336585  1
  P  P11  1  0.019985  0.910674  0.663415  1
  P  P12  1  0.893339  0.205776  0.849957  1
  P  P13  1  0.672032  0.402346  0.694429  1
  O  O14  1  0.805529  0.276635  0.935703  1
  O  O15  1  0.289784  0.017807  0.327535  1
  O  O16  1  0.512443  0.590664  0.711541  1
  O  O17  1  0.487557  0.409336  0.288459  1
  O  O18  1  0.459445  0.274788  0.710751  1
  O  O19  1  0.798693  0.870846  0.156889  1
  O  O20  1  0.549396  0.161720  0.194477  1
  O  O21  1  0.194471  0.723365  0.064297  1
  O  O22  1  0.283727  0.928752  0.172712  1
  O  O23  1  0.716273  0.071248  0.827288  1
  O  O24  1  0.738137  0.437612  0.132010  1
  O  O25  1  0.450604  0.838280  0.805523  1
  O  O26  1  0.201307  0.129154  0.843111  1
  O  O27  1  0.710216  0.982193  0.672465  1
  O  O28  1  0.182534  0.580886  0.394615  1
  O  O29  1  0.115697  0.846922  0.576648  1
  O  O30  1  0.869860  0.362162  0.771009  1
  O  O31  1  0.046077  0.751463  0.741807  1
  O  O32  1  0.817466  0.419114  0.605385  1
  O  O33  1  0.540555  0.725212  0.289249  1
  O  O34  1  0.261863  0.562388  0.867990  1
  O  O35  1  0.953923  0.248537  0.258193  1
  O  O36  1  0.884303  0.153078  0.423352  1
  O  O37  1  0.806168  0.955996  0.310828  1
  O  O38  1  0.193832  0.044004  0.689172  1
  O  O39  1  0.130140  0.637838  0.228991  1
