# generated using pymatgen
data_Sr14MnAs11
_symmetry_space_group_name_H-M   'P 1'
_cell_length_a   16.18146322
_cell_length_b   16.18146323
_cell_length_c   16.18146360
_cell_angle_alpha   93.57391612
_cell_angle_beta   117.97324909
_cell_angle_gamma   117.94375276
_symmetry_Int_Tables_number   1
_chemical_formula_structural   Sr14MnAs11
_chemical_formula_sum   'Sr56 Mn4 As44'
_cell_volume   3081.93802411
_cell_formula_units_Z   4
loop_
 _symmetry_equiv_pos_site_id
 _symmetry_equiv_pos_as_xyz
  1  'x, y, z'
loop_
 _atom_site_type_symbol
 _atom_site_label
 _atom_site_symmetry_multiplicity
 _atom_site_fract_x
 _atom_site_fract_y
 _atom_site_fract_z
 _atom_site_occupancy
  As  As0  1  0.121624  0.931702  0.818224  1
  As  As1  1  0.156865  0.584674  0.980112  1
  As  As2  1  0.249981  0.861981  0.637892  1
  As  As3  1  0.250054  0.744933  0.754607  1
  As  As4  1  0.102291  0.427226  0.582744  1
  As  As5  1  0.115439  0.183764  0.805737  1
  As  As6  1  0.121973  0.690298  0.305737  1
  As  As7  1  0.009674  0.755067  0.005121  1
  As  As8  1  0.343192  0.521519  0.915244  1
  As  As9  1  0.113575  0.431168  0.309989  1
  As  As10  1  0.103718  0.176176  0.521096  1
  As  As11  1  0.393725  0.978481  0.321673  1
  As  As12  1  0.379376  0.680701  0.568850  1
  As  As13  1  0.615439  0.809702  0.931674  1
  As  As14  1  0.478948  0.489247  0.739144  1
  As  As15  1  0.378821  0.196414  0.809989  1
  As  As16  1  0.386522  0.696600  0.318224  1
  As  As17  1  0.395438  0.915326  0.072191  1
  As  As18  1  0.344920  0.323824  0.427542  1
  As  As19  1  0.249897  0.010753  0.489701  1
  As  As20  1  0.843192  0.927948  0.821673  1
  As  As21  1  0.275911  0.387911  0.137892  1
  As  As22  1  0.155518  0.072774  0.175065  1
  As  As23  1  0.750054  0.995447  0.505121  1
  As  As24  1  0.775911  0.638019  0.888000  1
  As  As25  1  0.656865  0.676753  0.572191  1
  As  As26  1  0.603718  0.082622  0.927542  1
  As  As27  1  0.613575  0.303586  0.682407  1
  As  As28  1  0.621624  0.803400  0.189922  1
  As  As29  1  0.509674  0.504553  0.254607  1
  As  As30  1  0.388149  0.189474  0.068850  1
  As  As31  1  0.621973  0.316236  0.431674  1
  As  As32  1  0.602291  0.019547  0.675065  1
  As  As33  1  0.895438  0.823247  0.480112  1
  As  As34  1  0.886522  0.568298  0.689922  1
  As  As35  1  0.655518  0.480453  0.082744  1
  As  As36  1  0.978948  0.239804  0.989701  1
  As  As37  1  0.879376  0.310526  0.698675  1
  As  As38  1  0.888149  0.819299  0.198675  1
  As  As39  1  0.893725  0.572052  0.415244  1
  As  As40  1  0.749981  0.112089  0.388000  1
  As  As41  1  0.749897  0.260196  0.239144  1
  As  As42  1  0.844920  0.417378  0.021096  1
  As  As43  1  0.878821  0.068832  0.182407  1
  Mn  Mn44  1  0.250898  0.125299  0.875629  1
  Mn  Mn45  1  0.250330  0.624730  0.375629  1
  Mn  Mn46  1  0.750330  0.374701  0.625600  1
  Mn  Mn47  1  0.750898  0.875270  0.125600  1
  Sr  Sr48  1  0.148328  0.750000  0.898328  1
  Sr  Sr49  1  0.024089  0.742042  0.627235  1
  Sr  Sr50  1  0.034537  0.787365  0.406501  1
  Sr  Sr51  1  0.083799  0.521639  0.748980  1
  Sr  Sr52  1  0.355390  0.975049  0.876348  1
  Sr  Sr53  1  0.119136  0.371963  0.906501  1
  Sr  Sr54  1  0.100444  0.128281  0.981065  1
  Sr  Sr55  1  0.145011  0.624079  0.525341  1
  Sr  Sr56  1  0.419988  0.753564  0.976067  1
  Sr  Sr57  1  0.149095  0.901043  0.253238  1
  Sr  Sr58  1  0.475514  0.871561  0.756958  1
  Sr  Sr59  1  0.352783  0.880621  0.481065  1
  Sr  Sr60  1  0.352196  0.598957  0.748053  1
  Sr  Sr61  1  0.227341  0.978361  0.062159  1
  Sr  Sr62  1  0.275486  0.334728  0.751524  1
  Sr  Sr63  1  0.222503  0.746436  0.166424  1
  Sr  Sr64  1  0.270902  0.434904  0.521600  1
  Sr  Sr65  1  0.100415  0.471719  0.119342  1
  Sr  Sr66  1  0.147623  0.018927  0.619342  1
  Sr  Sr67  1  0.600444  0.619379  0.972162  1
  Sr  Sr68  1  0.086696  0.065096  0.335998  1
  Sr  Sr69  1  0.119116  0.248015  0.213221  1
  Sr  Sr70  1  0.583799  0.834818  0.562159  1
  Sr  Sr71  1  0.619136  0.712635  0.747172  1
  Sr  Sr72  1  0.351618  0.250000  0.601618  1
  Sr  Sr73  1  0.524089  0.896854  0.282047  1
  Sr  Sr74  1  0.401299  0.520958  0.376348  1
  Sr  Sr75  1  0.619116  0.405895  0.871101  1
  Sr  Sr76  1  0.385193  0.603146  0.127235  1
  Sr  Sr77  1  0.600415  0.481073  0.628696  1
  Sr  Sr78  1  0.465206  0.094105  0.713221  1
  Sr  Sr79  1  0.648328  0.750000  0.398328  1
  Sr  Sr80  1  0.385397  0.281445  0.256958  1
  Sr  Sr81  1  0.416796  0.165272  0.440758  1
  Sr  Sr82  1  0.885193  0.757958  0.782047  1
  Sr  Sr83  1  0.919988  0.943921  0.666424  1
  Sr  Sr84  1  0.401262  0.380331  0.025341  1
  Sr  Sr85  1  0.855390  0.979042  0.380341  1
  Sr  Sr86  1  0.901299  0.524951  0.880341  1
  Sr  Sr87  1  0.722503  0.556079  0.476067  1
  Sr  Sr88  1  0.770902  0.249302  0.835998  1
  Sr  Sr89  1  0.727341  0.665182  0.248980  1
  Sr  Sr90  1  0.775486  0.023962  0.940758  1
  Sr  Sr91  1  0.649095  0.395857  0.248053  1
  Sr  Sr92  1  0.645011  0.119669  0.520931  1
  Sr  Sr93  1  0.534537  0.128037  0.247172  1
  Sr  Sr94  1  0.852196  0.104143  0.753238  1
  Sr  Sr95  1  0.586696  0.250698  0.021600  1
  Sr  Sr96  1  0.852783  0.371719  0.472162  1
  Sr  Sr97  1  0.901262  0.875921  0.020931  1
  Sr  Sr98  1  0.885397  0.628439  0.103953  1
  Sr  Sr99  1  0.647623  0.028281  0.128696  1
  Sr  Sr100  1  0.916796  0.476038  0.251524  1
  Sr  Sr101  1  0.975514  0.218555  0.603953  1
  Sr  Sr102  1  0.965206  0.251985  0.371101  1
  Sr  Sr103  1  0.851618  0.250000  0.101618  1
