# generated using pymatgen
data_ZnS
_symmetry_space_group_name_H-M   'P 1'
_cell_length_a   3.85335844
_cell_length_b   3.85335834
_cell_length_c   75.58751076
_cell_angle_alpha   90.00000000
_cell_angle_beta   90.00000000
_cell_angle_gamma   120.00000088
_symmetry_Int_Tables_number   1
_chemical_formula_structural   ZnS
_chemical_formula_sum   'Zn24 S24'
_cell_volume   971.98480958
_cell_formula_units_Z   24
loop_
 _symmetry_equiv_pos_site_id
 _symmetry_equiv_pos_as_xyz
  1  'x, y, z'
loop_
 _atom_site_type_symbol
 _atom_site_label
 _atom_site_symmetry_multiplicity
 _atom_site_fract_x
 _atom_site_fract_y
 _atom_site_fract_z
 _atom_site_occupancy
  Zn  Zn0  1  0.000000  0.000000  0.916668  1
  Zn  Zn1  1  0.666667  0.333333  0.833342  1
  Zn  Zn2  1  0.666667  0.333333  0.333333  1
  Zn  Zn3  1  0.000000  0.000000  0.291671  1
  Zn  Zn4  1  0.000000  0.000000  0.541668  1
  Zn  Zn5  1  0.666667  0.333333  0.083333  1
  Zn  Zn6  1  0.333333  0.666667  0.458342  1
  Zn  Zn7  1  0.000000  0.000000  0.791668  1
  Zn  Zn8  1  0.666667  0.333333  0.583342  1
  Zn  Zn9  1  0.333333  0.666667  0.250011  1
  Zn  Zn10  1  0.666667  0.333333  0.208330  1
  Zn  Zn11  1  0.666667  0.333333  0.749998  1
  Zn  Zn12  1  0.000000  0.000000  0.666668  1
  Zn  Zn13  1  0.333333  0.666667  0.041672  1
  Zn  Zn14  1  0.000000  0.000000  0.125001  1
  Zn  Zn15  1  0.333333  0.666667  0.166668  1
  Zn  Zn16  1  0.666667  0.333333  0.958330  1
  Zn  Zn17  1  0.333333  0.666667  0.374998  1
  Zn  Zn18  1  0.000000  0.000000  0.416668  1
  Zn  Zn19  1  0.333333  0.666667  0.624998  1
  Zn  Zn20  1  0.333333  0.666667  0.708342  1
  Zn  Zn21  1  0.000000  0.000000  0.000010  1
  Zn  Zn22  1  0.666667  0.333333  0.499998  1
  Zn  Zn23  1  0.333333  0.666667  0.875001  1
  S  S24  1  0.333333  0.666667  0.656225  1
  S  S25  1  0.333333  0.666667  0.197893  1
  S  S26  1  0.666667  0.333333  0.531225  1
  S  S27  1  0.666667  0.333333  0.781225  1
  S  S28  1  0.333333  0.666667  0.906248  1
  S  S29  1  0.333333  0.666667  0.406226  1
  S  S30  1  0.000000  0.000000  0.697939  1
  S  S31  1  0.666667  0.333333  0.864578  1
  S  S32  1  0.666667  0.333333  0.239602  1
  S  S33  1  0.333333  0.666667  0.739578  1
  S  S34  1  0.666667  0.333333  0.114579  1
  S  S35  1  0.333333  0.666667  0.281247  1
  S  S36  1  0.666667  0.333333  0.614578  1
  S  S37  1  0.666667  0.333333  0.989602  1
  S  S38  1  0.666667  0.333333  0.364579  1
  S  S39  1  0.000000  0.000000  0.322915  1
  S  S40  1  0.333333  0.666667  0.072916  1
  S  S41  1  0.333333  0.666667  0.489578  1
  S  S42  1  0.000000  0.000000  0.156248  1
  S  S43  1  0.000000  0.000000  0.822938  1
  S  S44  1  0.000000  0.000000  0.572939  1
  S  S45  1  0.000000  0.000000  0.447939  1
  S  S46  1  0.000000  0.000000  0.947893  1
  S  S47  1  0.000000  0.000000  0.031247  1
