# generated using pymatgen
data_SrCd11
_symmetry_space_group_name_H-M   'P 1'
_cell_length_a   7.84158374
_cell_length_b   9.46390173
_cell_length_c   9.46390193
_cell_angle_alpha   80.11707650
_cell_angle_beta   65.52544313
_cell_angle_gamma   65.52544387
_symmetry_Int_Tables_number   1
_chemical_formula_structural   SrCd11
_chemical_formula_sum   'Sr2 Cd22'
_cell_volume   581.78930424
_cell_formula_units_Z   2
loop_
 _symmetry_equiv_pos_site_id
 _symmetry_equiv_pos_as_xyz
  1  'x, y, z'
loop_
 _atom_site_type_symbol
 _atom_site_label
 _atom_site_symmetry_multiplicity
 _atom_site_fract_x
 _atom_site_fract_y
 _atom_site_fract_z
 _atom_site_occupancy
  Sr  Sr0  1  0.375000  0.250000  0.750000  1
  Sr  Sr1  1  0.625000  0.750000  0.250000  1
  Cd  Cd2  1  0.720284  0.834358  0.574869  1
  Cd  Cd3  1  0.000000  0.000000  0.000000  1
  Cd  Cd4  1  0.204848  0.074869  0.165642  1
  Cd  Cd5  1  0.129511  0.425131  0.165642  1
  Cd  Cd6  1  0.204848  0.665642  0.574869  1
  Cd  Cd7  1  0.870489  0.574869  0.834358  1
  Cd  Cd8  1  0.129511  0.665642  0.925131  1
  Cd  Cd9  1  0.125000  0.750000  0.250000  1
  Cd  Cd10  1  0.870489  0.334358  0.074869  1
  Cd  Cd11  1  0.875000  0.250000  0.750000  1
  Cd  Cd12  1  0.554642  0.574869  0.665642  1
  Cd  Cd13  1  0.500000  0.500000  0.000000  1
  Cd  Cd14  1  0.279716  0.165642  0.425131  1
  Cd  Cd15  1  0.795152  0.334358  0.425131  1
  Cd  Cd16  1  0.720284  0.074869  0.334358  1
  Cd  Cd17  1  0.445358  0.425131  0.334358  1
  Cd  Cd18  1  0.554642  0.165642  0.074869  1
  Cd  Cd19  1  0.279716  0.925131  0.665642  1
  Cd  Cd20  1  0.795152  0.925131  0.834358  1
  Cd  Cd21  1  0.445358  0.834358  0.925131  1
  Cd  Cd22  1  0.000000  0.000000  0.500000  1
  Cd  Cd23  1  0.000000  0.500000  0.500000  1
