# generated using pymatgen
data_Sm4MgRh
_symmetry_space_group_name_H-M   'P 1'
_cell_length_a   9.89934858
_cell_length_b   9.89934815
_cell_length_c   9.89934868
_cell_angle_alpha   59.99999822
_cell_angle_beta   59.99999966
_cell_angle_gamma   60.00000026
_symmetry_Int_Tables_number   1
_chemical_formula_structural   Sm4MgRh
_chemical_formula_sum   'Sm16 Mg4 Rh4'
_cell_volume   685.96954164
_cell_formula_units_Z   4
loop_
 _symmetry_equiv_pos_site_id
 _symmetry_equiv_pos_as_xyz
  1  'x, y, z'
loop_
 _atom_site_type_symbol
 _atom_site_label
 _atom_site_symmetry_multiplicity
 _atom_site_fract_x
 _atom_site_fract_y
 _atom_site_fract_z
 _atom_site_occupancy
  Sm  Sm0  1  0.564238  0.564238  0.935762  1
  Sm  Sm1  1  0.935762  0.564238  0.564238  1
  Sm  Sm2  1  0.187907  0.187907  0.812093  1
  Sm  Sm3  1  0.187907  0.812093  0.187907  1
  Sm  Sm4  1  0.564238  0.935762  0.564238  1
  Sm  Sm5  1  0.346842  0.959474  0.346842  1
  Sm  Sm6  1  0.564238  0.935762  0.935762  1
  Sm  Sm7  1  0.935762  0.564238  0.935762  1
  Sm  Sm8  1  0.812093  0.812093  0.187907  1
  Sm  Sm9  1  0.812093  0.187907  0.187907  1
  Sm  Sm10  1  0.935762  0.935762  0.564238  1
  Sm  Sm11  1  0.187907  0.812093  0.812093  1
  Sm  Sm12  1  0.959474  0.346842  0.346842  1
  Sm  Sm13  1  0.346842  0.346842  0.959474  1
  Sm  Sm14  1  0.346842  0.346842  0.346842  1
  Sm  Sm15  1  0.812093  0.187907  0.812093  1
  Mg  Mg16  1  0.262169  0.579277  0.579277  1
  Mg  Mg17  1  0.579277  0.579277  0.262169  1
  Mg  Mg18  1  0.579277  0.579277  0.579277  1
  Mg  Mg19  1  0.579277  0.262169  0.579277  1
  Rh  Rh20  1  0.574171  0.141943  0.141943  1
  Rh  Rh21  1  0.141943  0.574171  0.141943  1
  Rh  Rh22  1  0.141943  0.141943  0.141943  1
  Rh  Rh23  1  0.141943  0.141943  0.574171  1
