# generated using pymatgen
data_FeP(H2O3)2
_symmetry_space_group_name_H-M   'P 1'
_cell_length_a   5.36378385
_cell_length_b   8.83344966
_cell_length_c   9.92273441
_cell_angle_alpha   90.00000000
_cell_angle_beta   90.00000000
_cell_angle_gamma   90.45500940
_symmetry_Int_Tables_number   1
_chemical_formula_structural   FeP(H2O3)2
_chemical_formula_sum   'Fe4 P4 H16 O24'
_cell_volume   470.13142209
_cell_formula_units_Z   4
loop_
 _symmetry_equiv_pos_site_id
 _symmetry_equiv_pos_as_xyz
  1  'x, y, z'
loop_
 _atom_site_type_symbol
 _atom_site_label
 _atom_site_symmetry_multiplicity
 _atom_site_fract_x
 _atom_site_fract_y
 _atom_site_fract_z
 _atom_site_occupancy
  Fe  Fe0  1  0.907347  0.809251  0.173493  1
  Fe  Fe1  1  0.592653  0.690749  0.673493  1
  Fe  Fe2  1  0.092653  0.190749  0.826507  1
  Fe  Fe3  1  0.407347  0.309251  0.326507  1
  P  P4  1  0.088554  0.815355  0.850901  1
  P  P5  1  0.411446  0.684645  0.350901  1
  P  P6  1  0.911446  0.184645  0.149099  1
  P  P7  1  0.588554  0.315355  0.649099  1
  O  O8  1  0.200042  0.783701  0.293692  1
  O  O9  1  0.299958  0.716299  0.793692  1
  O  O10  1  0.799958  0.216299  0.706308  1
  O  O11  1  0.700042  0.283701  0.206308  1
  O  O12  1  0.122397  0.831212  0.006195  1
  O  O13  1  0.377603  0.668788  0.506195  1
  O  O14  1  0.877603  0.168788  0.993805  1
  O  O15  1  0.622397  0.331212  0.493805  1
  O  O16  1  0.666194  0.766728  0.325852  1
  O  O17  1  0.833806  0.733272  0.825852  1
  O  O18  1  0.333806  0.233272  0.674148  1
  O  O19  1  0.166194  0.266728  0.174148  1
  O  O20  1  0.908772  0.028575  0.220271  1
  O  O21  1  0.591228  0.471425  0.720271  1
  O  O22  1  0.091228  0.971425  0.779729  1
  O  O23  1  0.408772  0.528575  0.279729  1
  O  O24  1  0.592995  0.925599  0.633996  1
  O  O25  1  0.907005  0.574401  0.133996  1
  O  O26  1  0.407005  0.074401  0.366004  1
  O  O27  1  0.092995  0.425599  0.866004  1
  O  O28  1  0.611292  0.820949  0.046682  1
  O  O29  1  0.888708  0.679051  0.546682  1
  O  O30  1  0.388708  0.179051  0.953318  1
  O  O31  1  0.111292  0.320949  0.453318  1
  H  H32  1  0.074497  0.672167  0.550373  1
  H  H33  1  0.425503  0.827833  0.050373  1
  H  H34  1  0.925503  0.327833  0.449627  1
  H  H35  1  0.574497  0.172167  0.949627  1
  H  H36  1  0.731512  0.988274  0.668745  1
  H  H37  1  0.768488  0.511726  0.168745  1
  H  H38  1  0.268488  0.011726  0.331255  1
  H  H39  1  0.231512  0.488274  0.831255  1
  H  H40  1  0.840359  0.717690  0.455604  1
  H  H41  1  0.659641  0.782310  0.955604  1
  H  H42  1  0.159641  0.282310  0.544396  1
  H  H43  1  0.340359  0.217690  0.044396  1
  H  H44  1  0.439848  0.982176  0.652444  1
  H  H45  1  0.060151  0.517824  0.152444  1
  H  H46  1  0.560152  0.017824  0.347556  1
  H  H47  1  0.939848  0.482176  0.847556  1
