# generated using pymatgen
data_BaNpPH2O7
_symmetry_space_group_name_H-M   'P 1'
_cell_length_a   6.97876671
_cell_length_b   7.11851456
_cell_length_c   13.65916048
_cell_angle_alpha   90.00000000
_cell_angle_beta   107.72012138
_cell_angle_gamma   90.00000000
_symmetry_Int_Tables_number   1
_chemical_formula_structural   BaNpPH2O7
_chemical_formula_sum   'Ba4 Np4 P4 H8 O28'
_cell_volume   646.37115503
_cell_formula_units_Z   4
loop_
 _symmetry_equiv_pos_site_id
 _symmetry_equiv_pos_as_xyz
  1  'x, y, z'
loop_
 _atom_site_type_symbol
 _atom_site_label
 _atom_site_symmetry_multiplicity
 _atom_site_fract_x
 _atom_site_fract_y
 _atom_site_fract_z
 _atom_site_occupancy
  Ba  Ba0  1  0.217672  0.447776  0.147000  1
  Ba  Ba1  1  0.282328  0.947776  0.353000  1
  Ba  Ba2  1  0.782328  0.552224  0.853000  1
  Ba  Ba3  1  0.717672  0.052224  0.647000  1
  Np  Np4  1  0.704221  0.769322  0.178589  1
  Np  Np5  1  0.795779  0.269322  0.321411  1
  Np  Np6  1  0.295779  0.230678  0.821411  1
  Np  Np7  1  0.204221  0.730678  0.678589  1
  P  P8  1  0.840175  0.783506  0.422615  1
  P  P9  1  0.659825  0.283506  0.077385  1
  P  P10  1  0.159825  0.216494  0.577385  1
  P  P11  1  0.340175  0.716494  0.922615  1
  O  O12  1  0.715637  0.104220  0.146607  1
  O  O13  1  0.784363  0.604220  0.353393  1
  O  O14  1  0.284363  0.895780  0.853393  1
  O  O15  1  0.215637  0.395780  0.646607  1
  O  O16  1  0.635647  0.435503  0.158911  1
  O  O17  1  0.864353  0.935503  0.341089  1
  O  O18  1  0.364353  0.564497  0.841089  1
  O  O19  1  0.135647  0.064497  0.658911  1
  O  O20  1  0.823357  0.344535  0.031007  1
  O  O21  1  0.676643  0.844535  0.468993  1
  O  O22  1  0.176643  0.655465  0.968993  1
  O  O23  1  0.323357  0.155465  0.531007  1
  O  O24  1  0.944619  0.704063  0.695537  1
  O  O25  1  0.555381  0.204063  0.804463  1
  O  O26  1  0.055381  0.295937  0.304463  1
  O  O27  1  0.444619  0.795937  0.195537  1
  O  O28  1  0.550061  0.739709  1.002362  1
  O  O29  1  0.949939  0.239709  0.497638  1
  O  O30  1  0.449939  0.260291  -0.002362  1
  O  O31  1  0.050061  0.760291  0.502362  1
  O  O32  1  0.966055  0.732260  0.171833  1
  O  O33  1  0.533945  0.232260  0.328167  1
  O  O34  1  0.033945  0.267740  0.828167  1
  O  O35  1  0.466055  0.767740  0.671833  1
  O  O36  1  0.179881  0.066660  0.104642  1
  O  O37  1  0.320119  0.566660  0.395358  1
  O  O38  1  0.820119  0.933340  0.895358  1
  O  O39  1  0.679881  0.433340  0.604642  1
  H  H40  1  0.278731  0.962128  0.124577  1
  H  H41  1  0.221269  0.462128  0.375423  1
  H  H42  1  0.721269  0.037872  0.875423  1
  H  H43  1  0.778731  0.537872  0.624577  1
  H  H44  1  0.136492  0.066466  0.029716  1
  H  H45  1  0.363508  0.566466  0.470284  1
  H  H46  1  0.863508  0.933534  0.970284  1
  H  H47  1  0.636492  0.433534  0.529716  1
