# generated using pymatgen
data_TeH20C6(NCl3)2
_symmetry_space_group_name_H-M   'P 1'
_cell_length_a   12.55800460
_cell_length_b   12.55800460
_cell_length_c   12.55800460
_cell_angle_alpha   90.00000000
_cell_angle_beta   90.00000000
_cell_angle_gamma   90.00000000
_symmetry_Int_Tables_number   1
_chemical_formula_structural   TeH20C6(NCl3)2
_chemical_formula_sum   'Te4 H80 C24 N8 Cl24'
_cell_volume   1980.44102142
_cell_formula_units_Z   4
loop_
 _symmetry_equiv_pos_site_id
 _symmetry_equiv_pos_as_xyz
  1  'x, y, z'
loop_
 _atom_site_type_symbol
 _atom_site_label
 _atom_site_symmetry_multiplicity
 _atom_site_fract_x
 _atom_site_fract_y
 _atom_site_fract_z
 _atom_site_occupancy
  Te  Te0  1  0.000000  0.000000  0.000000  1
  Te  Te1  1  0.000000  0.500000  0.500000  1
  Te  Te2  1  0.500000  0.500000  0.000000  1
  Te  Te3  1  0.500000  0.000000  0.500000  1
  H  H4  1  0.927329  0.758142  0.696955  1
  H  H5  1  0.264246  0.360765  0.200826  1
  H  H6  1  0.846261  0.348456  0.869814  1
  H  H7  1  0.758142  0.803045  0.427329  1
  H  H8  1  0.741858  0.196955  0.927329  1
  H  H9  1  0.799174  0.735754  0.639235  1
  H  H10  1  0.630186  0.346261  0.348456  1
  H  H11  1  0.639235  0.799174  0.735754  1
  H  H12  1  0.630186  0.153739  0.848456  1
  H  H13  1  0.130186  0.153739  0.651544  1
  H  H14  1  0.348456  0.869814  0.846261  1
  H  H15  1  0.803045  0.427329  0.758142  1
  H  H16  1  0.369814  0.653739  0.651544  1
  H  H17  1  0.151544  0.130186  0.346261  1
  H  H18  1  0.241858  0.303045  0.072671  1
  H  H19  1  0.235754  0.639235  0.700826  1
  H  H20  1  0.656288  0.343712  0.843712  1
  H  H21  1  0.843712  0.656288  0.343712  1
  H  H22  1  0.258142  0.696955  0.572671  1
  H  H23  1  0.741858  0.303045  0.427329  1
  H  H24  1  0.196955  0.572671  0.241858  1
  H  H25  1  0.846261  0.151544  0.369814  1
  H  H26  1  0.346261  0.151544  0.130186  1
  H  H27  1  0.343712  0.656288  0.156288  1
  H  H28  1  0.651544  0.130186  0.153739  1
  H  H29  1  0.241858  0.196955  0.572671  1
  H  H30  1  0.653739  0.848456  0.869814  1
  H  H31  1  0.299174  0.764246  0.360765  1
  H  H32  1  0.427329  0.741858  0.303045  1
  H  H33  1  0.139235  0.700826  0.264246  1
  H  H34  1  0.869814  0.653739  0.848456  1
  H  H35  1  0.758142  0.696955  0.927329  1
  H  H36  1  0.196955  0.927329  0.741858  1
  H  H37  1  0.156288  0.343712  0.656288  1
  H  H38  1  0.656288  0.156288  0.343712  1
  H  H39  1  0.572671  0.258142  0.696955  1
  H  H40  1  0.258142  0.803045  0.072671  1
  H  H41  1  0.151544  0.369814  0.846261  1
  H  H42  1  0.346261  0.348456  0.630186  1
  H  H43  1  0.848456  0.869814  0.653739  1
  H  H44  1  0.153739  0.651544  0.130186  1
  H  H45  1  0.700826  0.235754  0.639235  1
  H  H46  1  0.264246  0.139235  0.700826  1
  H  H47  1  0.572671  0.241858  0.196955  1
  H  H48  1  0.360765  0.299174  0.764246  1
  H  H49  1  0.869814  0.846261  0.348456  1
  H  H50  1  0.130186  0.346261  0.151544  1
  H  H51  1  0.764246  0.360765  0.299174  1
  H  H52  1  0.735754  0.860765  0.299174  1
  H  H53  1  0.803045  0.072671  0.258142  1
  H  H54  1  0.651544  0.369814  0.653739  1
  H  H55  1  0.200826  0.235754  0.860765  1
  H  H56  1  0.764246  0.139235  0.799174  1
  H  H57  1  0.700826  0.264246  0.139235  1
  H  H58  1  0.799174  0.764246  0.139235  1
  H  H59  1  0.303045  0.427329  0.741858  1
  H  H60  1  0.696955  0.572671  0.258142  1
  H  H61  1  0.235754  0.860765  0.200826  1
  H  H62  1  0.860765  0.200826  0.235754  1
  H  H63  1  0.696955  0.927329  0.758142  1
  H  H64  1  0.848456  0.630186  0.153739  1
  H  H65  1  0.653739  0.651544  0.369814  1
  H  H66  1  0.843712  0.843712  0.843712  1
  H  H67  1  0.639235  0.700826  0.235754  1
  H  H68  1  0.200826  0.264246  0.360765  1
  H  H69  1  0.343712  0.843712  0.656288  1
  H  H70  1  0.927329  0.741858  0.196955  1
  H  H71  1  0.303045  0.072671  0.241858  1
  H  H72  1  0.153739  0.848456  0.630186  1
  H  H73  1  0.427329  0.758142  0.803045  1
  H  H74  1  0.299174  0.735754  0.860765  1
  H  H75  1  0.072671  0.258142  0.803045  1
  H  H76  1  0.860765  0.299174  0.735754  1
  H  H77  1  0.735754  0.639235  0.799174  1
  H  H78  1  0.369814  0.846261  0.151544  1
  H  H79  1  0.072671  0.241858  0.303045  1
  H  H80  1  0.139235  0.799174  0.764246  1
  H  H81  1  0.348456  0.630186  0.346261  1
  H  H82  1  0.360765  0.200826  0.264246  1
  H  H83  1  0.156288  0.156288  0.156288  1
  C  C84  1  0.710084  0.188455  0.846662  1
  C  C85  1  0.210084  0.188455  0.653338  1
  C  C86  1  0.311545  0.346662  0.710084  1
  C  C87  1  0.153338  0.210084  0.311545  1
  C  C88  1  0.346662  0.789916  0.811545  1
  C  C89  1  0.710084  0.311545  0.346662  1
  C  C90  1  0.188455  0.846662  0.710084  1
  C  C91  1  0.653338  0.210084  0.188455  1
  C  C92  1  0.210084  0.311545  0.153338  1
  C  C93  1  0.688455  0.653338  0.289916  1
  C  C94  1  0.188455  0.653338  0.210084  1
  C  C95  1  0.846662  0.710084  0.188455  1
  C  C96  1  0.289916  0.811545  0.153338  1
  C  C97  1  0.688455  0.846662  0.789916  1
  C  C98  1  0.289916  0.688455  0.653338  1
  C  C99  1  0.811545  0.346662  0.789916  1
  C  C100  1  0.811545  0.153338  0.289916  1
  C  C101  1  0.311545  0.153338  0.210084  1
  C  C102  1  0.789916  0.688455  0.846662  1
  C  C103  1  0.846662  0.789916  0.688455  1
  C  C104  1  0.153338  0.289916  0.811545  1
  C  C105  1  0.653338  0.289916  0.688455  1
  C  C106  1  0.789916  0.811545  0.346662  1
  C  C107  1  0.346662  0.710084  0.311545  1
  N  N108  1  0.203950  0.296050  0.703950  1
  N  N109  1  0.703950  0.203950  0.296050  1
  N  N110  1  0.203950  0.203950  0.203950  1
  N  N111  1  0.296050  0.796050  0.703950  1
  N  N112  1  0.703950  0.296050  0.796050  1
  N  N113  1  0.296050  0.703950  0.203950  1
  N  N114  1  0.796050  0.703950  0.296050  1
  N  N115  1  0.796050  0.796050  0.796050  1
  Cl  Cl116  1  0.034857  0.525697  0.700485  1
  Cl  Cl117  1  0.025697  0.799515  0.965143  1
  Cl  Cl118  1  0.474303  0.299515  0.965143  1
  Cl  Cl119  1  0.534857  0.974303  0.299515  1
  Cl  Cl120  1  0.974303  0.299515  0.534857  1
  Cl  Cl121  1  0.799515  0.534857  0.525697  1
  Cl  Cl122  1  0.525697  0.799515  0.534857  1
  Cl  Cl123  1  0.700485  0.465143  0.025697  1
  Cl  Cl124  1  0.799515  0.965143  0.025697  1
  Cl  Cl125  1  0.299515  0.965143  0.474303  1
  Cl  Cl126  1  0.965143  0.025697  0.799515  1
  Cl  Cl127  1  0.474303  0.200485  0.465143  1
  Cl  Cl128  1  0.534857  0.525697  0.799515  1
  Cl  Cl129  1  0.299515  0.534857  0.974303  1
  Cl  Cl130  1  0.700485  0.034857  0.525697  1
  Cl  Cl131  1  0.525697  0.700485  0.034857  1
  Cl  Cl132  1  0.965143  0.474303  0.299515  1
  Cl  Cl133  1  0.200485  0.034857  0.974303  1
  Cl  Cl134  1  0.465143  0.025697  0.700485  1
  Cl  Cl135  1  0.200485  0.465143  0.474303  1
  Cl  Cl136  1  0.034857  0.974303  0.200485  1
  Cl  Cl137  1  0.974303  0.200485  0.034857  1
  Cl  Cl138  1  0.465143  0.474303  0.200485  1
  Cl  Cl139  1  0.025697  0.700485  0.465143  1
