# generated using pymatgen
data_RbNd2I5
_symmetry_space_group_name_H-M   'P 1'
_cell_length_a   8.78844519
_cell_length_b   9.88391416
_cell_length_c   14.35507357
_cell_angle_alpha   90.50136867
_cell_angle_beta   90.00000000
_cell_angle_gamma   90.00000000
_symmetry_Int_Tables_number   1
_chemical_formula_structural   RbNd2I5
_chemical_formula_sum   'Rb4 Nd8 I20'
_cell_volume   1246.89478553
_cell_formula_units_Z   4
loop_
 _symmetry_equiv_pos_site_id
 _symmetry_equiv_pos_as_xyz
  1  'x, y, z'
loop_
 _atom_site_type_symbol
 _atom_site_label
 _atom_site_symmetry_multiplicity
 _atom_site_fract_x
 _atom_site_fract_y
 _atom_site_fract_z
 _atom_site_occupancy
  Rb  Rb0  1  0.061048  0.503913  0.831391  1
  Rb  Rb1  1  0.561048  0.496087  0.668609  1
  Rb  Rb2  1  0.938952  0.496087  0.168609  1
  Rb  Rb3  1  0.438952  0.503913  0.331391  1
  Nd  Nd4  1  0.062558  0.005713  0.825508  1
  Nd  Nd5  1  0.937442  0.994287  0.174492  1
  Nd  Nd6  1  0.414035  0.230205  0.997036  1
  Nd  Nd7  1  0.562558  0.994287  0.674492  1
  Nd  Nd8  1  0.585965  0.769795  0.002964  1
  Nd  Nd9  1  0.437442  0.005713  0.325508  1
  Nd  Nd10  1  0.085965  0.230205  0.497036  1
  Nd  Nd11  1  0.914035  0.769795  0.502964  1
  I  I12  1  0.353282  0.788845  0.819339  1
  I  I13  1  0.667672  0.045033  0.894854  1
  I  I14  1  0.823722  0.772106  0.720955  1
  I  I15  1  0.039918  0.211637  0.004078  1
  I  I16  1  0.960082  0.788363  0.995922  1
  I  I17  1  0.170122  0.533715  0.578589  1
  I  I18  1  0.829878  0.466285  0.421411  1
  I  I19  1  0.146718  0.788845  0.319339  1
  I  I20  1  0.176278  0.227894  0.279045  1
  I  I21  1  0.670122  0.466285  0.921411  1
  I  I22  1  0.646718  0.211155  0.180661  1
  I  I23  1  0.329878  0.533715  0.078589  1
  I  I24  1  0.332328  0.954967  0.105146  1
  I  I25  1  0.323722  0.227894  0.779045  1
  I  I26  1  0.853282  0.211155  0.680661  1
  I  I27  1  0.676278  0.772106  0.220955  1
  I  I28  1  0.460082  0.211637  0.504078  1
  I  I29  1  0.539918  0.788363  0.495922  1
  I  I30  1  0.167672  0.954967  0.605146  1
  I  I31  1  0.832328  0.045033  0.394854  1
