# generated using pymatgen
data_Cs2NaCrF6
_symmetry_space_group_name_H-M   'P 1'
_cell_length_a   10.96131159
_cell_length_b   10.96131159
_cell_length_c   10.96131159
_cell_angle_alpha   33.71692006
_cell_angle_beta   33.71692005
_cell_angle_gamma   33.71692003
_symmetry_Int_Tables_number   1
_chemical_formula_structural   Cs2NaCrF6
_chemical_formula_sum   'Cs4 Na2 Cr2 F12'
_cell_volume   361.55276423
_cell_formula_units_Z   2
loop_
 _symmetry_equiv_pos_site_id
 _symmetry_equiv_pos_as_xyz
  1  'x, y, z'
loop_
 _atom_site_type_symbol
 _atom_site_label
 _atom_site_symmetry_multiplicity
 _atom_site_fract_x
 _atom_site_fract_y
 _atom_site_fract_z
 _atom_site_occupancy
  F  F0  1  0.183128  0.183128  0.742099  1
  F  F1  1  0.183128  0.742099  0.183128  1
  F  F2  1  0.742099  0.183128  0.183128  1
  F  F3  1  0.257901  0.816872  0.816872  1
  F  F4  1  0.816872  0.816872  0.257901  1
  F  F5  1  0.816872  0.257901  0.816872  1
  F  F6  1  0.396138  0.396138  0.822055  1
  F  F7  1  0.396138  0.822055  0.396138  1
  F  F8  1  0.603862  0.177945  0.603862  1
  F  F9  1  0.603862  0.603862  0.177945  1
  F  F10  1  0.177945  0.603862  0.603862  1
  F  F11  1  0.822055  0.396138  0.396138  1
  Na  Na12  1  0.403211  0.403211  0.403211  1
  Na  Na13  1  0.596789  0.596789  0.596789  1
  Cr  Cr14  1  0.000000  0.000000  0.000000  1
  Cr  Cr15  1  0.500000  0.500000  0.500000  1
  Cs  Cs16  1  0.718061  0.718061  0.718061  1
  Cs  Cs17  1  0.281939  0.281939  0.281939  1
  Cs  Cs18  1  0.871955  0.871955  0.871955  1
  Cs  Cs19  1  0.128045  0.128045  0.128045  1
