# generated using pymatgen
data_Na4Ni3P4O15
_symmetry_space_group_name_H-M   'P 1'
_cell_length_a   6.56616985
_cell_length_b   10.50862578
_cell_length_c   18.23815719
_cell_angle_alpha   90.00000000
_cell_angle_beta   90.00000000
_cell_angle_gamma   90.00000000
_symmetry_Int_Tables_number   1
_chemical_formula_structural   Na4Ni3P4O15
_chemical_formula_sum   'Na16 Ni12 P16 O60'
_cell_volume   1258.45877642
_cell_formula_units_Z   4
loop_
 _symmetry_equiv_pos_site_id
 _symmetry_equiv_pos_as_xyz
  1  'x, y, z'
loop_
 _atom_site_type_symbol
 _atom_site_label
 _atom_site_symmetry_multiplicity
 _atom_site_fract_x
 _atom_site_fract_y
 _atom_site_fract_z
 _atom_site_occupancy
  Na  Na0  1  0.337418  0.458664  0.461458  1
  Na  Na1  1  0.589487  0.736161  0.390514  1
  Na  Na2  1  0.653641  0.750878  0.202571  1
  Na  Na3  1  0.189952  0.475463  0.993529  1
  Na  Na4  1  0.837418  0.541336  0.538542  1
  Na  Na5  1  0.089487  0.263839  0.609486  1
  Na  Na6  1  0.189952  0.024537  0.493529  1
  Na  Na7  1  0.689952  0.524537  0.006471  1
  Na  Na8  1  0.153641  0.249122  0.797429  1
  Na  Na9  1  0.089487  0.236161  0.109486  1
  Na  Na10  1  0.589487  0.763839  0.890514  1
  Na  Na11  1  0.837418  0.958664  0.038542  1
  Na  Na12  1  0.689952  0.975463  0.506471  1
  Na  Na13  1  0.153641  0.250878  0.297429  1
  Na  Na14  1  0.653641  0.749122  0.702571  1
  Na  Na15  1  0.337418  0.041336  0.961458  1
  Ni  Ni16  1  0.414409  0.504678  0.138626  1
  Ni  Ni17  1  0.903448  0.003616  0.830006  1
  Ni  Ni18  1  0.403448  0.996384  0.169994  1
  Ni  Ni19  1  0.678861  0.244321  0.739114  1
  Ni  Ni20  1  0.914409  0.495322  0.861374  1
  Ni  Ni21  1  0.178861  0.755679  0.260886  1
  Ni  Ni22  1  0.903448  0.496384  0.330006  1
  Ni  Ni23  1  0.178861  0.744321  0.760886  1
  Ni  Ni24  1  0.914409  0.004678  0.361374  1
  Ni  Ni25  1  0.678861  0.255679  0.239114  1
  Ni  Ni26  1  0.403448  0.503616  0.669994  1
  Ni  Ni27  1  0.414409  0.995322  0.638626  1
  P  P28  1  0.421411  0.011316  0.320909  1
  P  P29  1  0.868160  0.274000  0.450418  1
  P  P30  1  0.056517  0.765514  0.929338  1
  P  P31  1  0.556517  0.265514  0.570662  1
  P  P32  1  0.921411  0.511316  0.179091  1
  P  P33  1  0.910778  0.997424  0.210342  1
  P  P34  1  0.868160  0.226000  0.950418  1
  P  P35  1  0.056517  0.734486  0.429338  1
  P  P36  1  0.921411  0.988684  0.679091  1
  P  P37  1  0.410778  0.497424  0.289658  1
  P  P38  1  0.910778  0.502576  0.710342  1
  P  P39  1  0.421411  0.488684  0.820909  1
  P  P40  1  0.368160  0.726000  0.549582  1
  P  P41  1  0.410778  0.002576  0.789658  1
  P  P42  1  0.368160  0.774000  0.049582  1
  P  P43  1  0.556517  0.234486  0.070662  1
  O  O44  1  0.230875  0.740877  0.374366  1
  O  O45  1  0.222915  0.462824  0.336581  1
  O  O46  1  0.449212  0.113660  0.732874  1
  O  O47  1  0.023495  0.349518  0.494256  1
  O  O48  1  0.592384  0.975241  0.839740  1
  O  O49  1  0.092384  0.475241  0.660260  1
  O  O50  1  0.949212  0.886340  0.267126  1
  O  O51  1  0.379046  0.614886  0.236854  1
  O  O52  1  0.592384  0.524759  0.339740  1
  O  O53  1  0.023495  0.150482  0.994256  1
  O  O54  1  0.446777  0.137423  0.559160  1
  O  O55  1  0.879046  0.385114  0.763146  1
  O  O56  1  0.955044  0.875759  0.735163  1
  O  O57  1  0.101186  0.016379  0.626986  1
  O  O58  1  0.405486  0.126836  0.086135  1
  O  O59  1  0.222915  0.037176  0.836581  1
  O  O60  1  0.523495  0.650482  0.505744  1
  O  O61  1  0.955044  0.624241  0.235163  1
  O  O62  1  0.405486  0.373164  0.586135  1
  O  O63  1  0.230875  0.759123  0.874366  1
  O  O64  1  0.730875  0.259123  0.625634  1
  O  O65  1  0.645309  0.194146  0.989811  1
  O  O66  1  0.343841  0.818533  0.128679  1
  O  O67  1  0.379046  0.885114  0.736854  1
  O  O68  1  0.523495  0.849518  0.005744  1
  O  O69  1  0.449212  0.386340  0.232874  1
  O  O70  1  0.730875  0.240877  0.125634  1
  O  O71  1  0.843841  0.318533  0.371321  1
  O  O72  1  0.879046  0.114886  0.263146  1
  O  O73  1  0.397367  0.871060  0.545778  1
  O  O74  1  0.601186  0.516379  0.873014  1
  O  O75  1  0.905486  0.873164  0.913865  1
  O  O76  1  0.645309  0.305854  0.489811  1
  O  O77  1  0.946777  0.637423  0.940840  1
  O  O78  1  0.722915  0.537176  0.663419  1
  O  O79  1  0.343841  0.681467  0.628679  1
  O  O80  1  0.897368  0.371060  0.954222  1
  O  O81  1  0.446777  0.362577  0.059160  1
  O  O82  1  0.227690  0.043439  0.365102  1
  O  O83  1  0.722915  0.962824  0.163419  1
  O  O84  1  0.092384  0.024759  0.160260  1
  O  O85  1  0.455044  0.124241  0.264837  1
  O  O86  1  0.101186  0.483621  0.126986  1
  O  O87  1  0.946777  0.862577  0.440840  1
  O  O88  1  0.843841  0.181467  0.871321  1
  O  O89  1  0.397367  0.628940  0.045778  1
  O  O90  1  0.905486  0.626836  0.413865  1
  O  O91  1  0.396489  0.893520  0.267905  1
  O  O92  1  0.601186  0.983621  0.373014  1
  O  O93  1  0.727690  0.956561  0.634898  1
  O  O94  1  0.949212  0.613660  0.767126  1
  O  O95  1  0.145309  0.694146  0.510189  1
  O  O96  1  0.227690  0.456561  0.865102  1
  O  O97  1  0.896489  0.106480  0.732095  1
  O  O98  1  0.396489  0.606480  0.767905  1
  O  O99  1  0.145309  0.805854  0.010189  1
  O  O100  1  0.896489  0.393520  0.232095  1
  O  O101  1  0.727690  0.543439  0.134898  1
  O  O102  1  0.455044  0.375759  0.764837  1
  O  O103  1  0.897368  0.128940  0.454222  1
