# generated using pymatgen
data_Cs7O
_symmetry_space_group_name_H-M   'P 1'
_cell_length_a   16.52753657
_cell_length_b   16.52753618
_cell_length_c   9.31130644
_cell_angle_alpha   90.00000000
_cell_angle_beta   90.00000000
_cell_angle_gamma   120.00000080
_symmetry_Int_Tables_number   1
_chemical_formula_structural   Cs7O
_chemical_formula_sum   'Cs21 O3'
_cell_volume   2202.71085142
_cell_formula_units_Z   3
loop_
 _symmetry_equiv_pos_site_id
 _symmetry_equiv_pos_as_xyz
  1  'x, y, z'
loop_
 _atom_site_type_symbol
 _atom_site_label
 _atom_site_symmetry_multiplicity
 _atom_site_fract_x
 _atom_site_fract_y
 _atom_site_fract_z
 _atom_site_occupancy
  Cs  Cs0  1  0.776346  0.888173  0.500000  1
  Cs  Cs1  1  0.812743  0.187257  0.780530  1
  Cs  Cs2  1  0.111827  0.888173  0.500000  1
  Cs  Cs3  1  0.812743  0.187257  0.219470  1
  Cs  Cs4  1  0.215995  0.431991  0.000000  1
  Cs  Cs5  1  0.449365  0.898731  0.500000  1
  Cs  Cs6  1  0.812743  0.625486  0.780530  1
  Cs  Cs7  1  0.897644  0.448822  0.000000  1
  Cs  Cs8  1  0.812743  0.625486  0.219470  1
  Cs  Cs9  1  0.551178  0.102356  0.000000  1
  Cs  Cs10  1  0.666667  0.333333  0.795583  1
  Cs  Cs11  1  0.111827  0.223654  0.500000  1
  Cs  Cs12  1  0.000000  0.000000  0.000000  1
  Cs  Cs13  1  0.101269  0.550635  0.500000  1
  Cs  Cs14  1  0.215995  0.784005  0.000000  1
  Cs  Cs15  1  0.568009  0.784005  0.000000  1
  Cs  Cs16  1  0.666667  0.333333  0.204417  1
  Cs  Cs17  1  0.374514  0.187257  0.780530  1
  Cs  Cs18  1  0.449365  0.550635  0.500000  1
  Cs  Cs19  1  0.551178  0.448822  0.000000  1
  Cs  Cs20  1  0.374514  0.187257  0.219470  1
  O  O21  1  0.747365  0.252635  0.000000  1
  O  O22  1  0.505270  0.252635  0.000000  1
  O  O23  1  0.747365  0.494730  0.000000  1
