# generated using pymatgen
data_VS2N3Cl2
_symmetry_space_group_name_H-M   'P 1'
_cell_length_a   5.79601758
_cell_length_b   7.65972224
_cell_length_c   8.12700941
_cell_angle_alpha   90.13460234
_cell_angle_beta   98.15238943
_cell_angle_gamma   107.58655443
_symmetry_Int_Tables_number   1
_chemical_formula_structural   VS2N3Cl2
_chemical_formula_sum   'V2 S4 N6 Cl4'
_cell_volume   340.07581246
_cell_formula_units_Z   2
loop_
 _symmetry_equiv_pos_site_id
 _symmetry_equiv_pos_as_xyz
  1  'x, y, z'
loop_
 _atom_site_type_symbol
 _atom_site_label
 _atom_site_symmetry_multiplicity
 _atom_site_fract_x
 _atom_site_fract_y
 _atom_site_fract_z
 _atom_site_occupancy
  V  V0  1  0.248786  0.005394  0.136684  1
  V  V1  1  0.751214  0.994606  0.863316  1
  S  S2  1  0.220655  0.299994  0.801082  1
  S  S3  1  0.227570  0.731509  0.418433  1
  S  S4  1  0.779345  0.700006  0.198918  1
  S  S5  1  0.772430  0.268491  0.581567  1
  N  N6  1  0.941661  0.642221  0.350107  1
  N  N7  1  0.655126  0.103813  0.692127  1
  N  N8  1  0.344874  0.896187  0.307873  1
  N  N9  1  0.927238  0.872119  0.106501  1
  N  N10  1  0.058339  0.357779  0.649893  1
  N  N11  1  0.072762  0.127881  0.893499  1
  Cl  Cl12  1  0.739872  0.731416  0.732419  1
  Cl  Cl13  1  0.657781  0.193209  0.061701  1
  Cl  Cl14  1  0.260128  0.268584  0.267581  1
  Cl  Cl15  1  0.342219  0.806791  0.938299  1
