# generated using pymatgen
data_SiBr4
_symmetry_space_group_name_H-M   'P 1'
_cell_length_a   7.34015055
_cell_length_b   11.23145649
_cell_length_c   11.38112792
_cell_angle_alpha   102.71647068
_cell_angle_beta   90.00000000
_cell_angle_gamma   90.00000000
_symmetry_Int_Tables_number   1
_chemical_formula_structural   SiBr4
_chemical_formula_sum   'Si4 Br16'
_cell_volume   915.25234454
_cell_formula_units_Z   4
loop_
 _symmetry_equiv_pos_site_id
 _symmetry_equiv_pos_as_xyz
  1  'x, y, z'
loop_
 _atom_site_type_symbol
 _atom_site_label
 _atom_site_symmetry_multiplicity
 _atom_site_fract_x
 _atom_site_fract_y
 _atom_site_fract_z
 _atom_site_occupancy
  Si  Si0  1  0.078145  0.751900  0.858453  1
  Si  Si1  1  0.421855  0.751900  0.358453  1
  Si  Si2  1  0.921855  0.248100  0.141547  1
  Si  Si3  1  0.578145  0.248100  0.641547  1
  Br  Br4  1  0.441435  0.093137  0.696216  1
  Br  Br5  1  0.432691  0.293835  0.486935  1
  Br  Br6  1  0.076237  0.591208  0.705753  1
  Br  Br7  1  0.637361  0.196138  0.089221  1
  Br  Br8  1  0.067309  0.293835  0.986935  1
  Br  Br9  1  0.576237  0.408792  0.794247  1
  Br  Br10  1  0.362639  0.803862  0.910779  1
  Br  Br11  1  0.558565  0.906863  0.303784  1
  Br  Br12  1  0.941435  0.906863  0.803784  1
  Br  Br13  1  0.923763  0.408792  0.294247  1
  Br  Br14  1  0.567309  0.706165  0.513065  1
  Br  Br15  1  0.137361  0.803862  0.410779  1
  Br  Br16  1  0.932691  0.706165  0.013065  1
  Br  Br17  1  0.862639  0.196138  0.589221  1
  Br  Br18  1  0.058565  0.093137  0.196216  1
  Br  Br19  1  0.423763  0.591208  0.205753  1
