# generated using pymatgen
data_Ba8(CoO3)7
_symmetry_space_group_name_H-M   'P 1'
_cell_length_a   10.56717094
_cell_length_b   10.56717116
_cell_length_c   11.63777171
_cell_angle_alpha   106.03376076
_cell_angle_beta   106.03376107
_cell_angle_gamma   113.05571618
_symmetry_Int_Tables_number   1
_chemical_formula_structural   Ba8(CoO3)7
_chemical_formula_sum   'Ba16 Co14 O42'
_cell_volume   1034.98555458
_cell_formula_units_Z   2
loop_
 _symmetry_equiv_pos_site_id
 _symmetry_equiv_pos_as_xyz
  1  'x, y, z'
loop_
 _atom_site_type_symbol
 _atom_site_label
 _atom_site_symmetry_multiplicity
 _atom_site_fract_x
 _atom_site_fract_y
 _atom_site_fract_z
 _atom_site_occupancy
  O  O0  1  0.217999  0.493026  0.928423  1
  O  O1  1  0.710424  0.435398  0.928423  1
  O  O2  1  0.185398  0.960424  0.428423  1
  O  O3  1  0.243026  0.467999  0.428423  1
  O  O4  1  0.436030  0.706493  0.927914  1
  O  O5  1  0.491886  0.221423  0.927914  1
  O  O6  1  0.971423  0.741886  0.427914  1
  O  O7  1  0.456493  0.686030  0.427914  1
  O  O8  1  0.769438  0.935784  0.927133  1
  O  O9  1  0.157695  0.991348  0.927133  1
  O  O10  1  0.741348  0.407695  0.427133  1
  O  O11  1  0.685784  0.019438  0.427133  1
  O  O12  1  0.988363  0.155773  0.927540  1
  O  O13  1  0.939177  0.771767  0.927540  1
  O  O14  1  0.521767  0.189177  0.427540  1
  O  O15  1  0.905773  0.238363  0.427540  1
  O  O16  1  0.457577  0.684781  0.644741  1
  O  O17  1  0.453097  0.402728  0.352676  1
  O  O18  1  0.187165  0.959959  0.644741  1
  O  O19  1  0.434781  0.707577  0.144741  1
  O  O20  1  0.906186  0.238012  0.644918  1
  O  O21  1  0.738733  0.406906  0.644918  1
  O  O22  1  0.156906  0.988733  0.144918  1
  O  O23  1  0.988012  0.156186  0.144918  1
  O  O24  1  0.394373  0.898332  0.573870  1
  O  O25  1  0.179499  0.675538  0.573870  1
  O  O26  1  0.425538  0.429499  0.073870  1
  O  O27  1  0.648332  0.644373  0.073870  1
  O  O28  1  0.699947  0.149578  0.852676  1
  O  O29  1  0.152728  0.703097  0.852676  1
  O  O30  1  0.427579  0.427579  0.855160  1
  O  O31  1  0.177579  0.677579  0.355160  1
  O  O32  1  0.115385  0.173873  0.571900  1
  O  O33  1  0.456516  0.398027  0.571900  1
  O  O34  1  0.148027  0.706516  0.071900  1
  O  O35  1  0.923873  0.365385  0.071900  1
  O  O36  1  0.900969  0.951086  0.571244  1
  O  O37  1  0.670276  0.620159  0.571244  1
  O  O38  1  0.370159  0.920276  0.071244  1
  O  O39  1  0.701086  0.150969  0.071244  1
  O  O40  1  0.899578  0.949947  0.352676  1
  O  O41  1  0.709959  0.437165  0.144741  1
  Co  Co42  1  0.181658  0.820281  0.500992  1
  Co  Co43  1  0.319334  0.680711  0.500992  1
  Co  Co44  1  0.430711  0.569334  0.000992  1
  Co  Co45  1  0.570281  0.431658  0.000992  1
  Co  Co46  1  0.041331  0.958740  0.499161  1
  Co  Co47  1  0.457830  0.540421  0.499161  1
  Co  Co48  1  0.290421  0.707830  0.999161  1
  Co  Co49  1  0.708740  0.291331  0.999161  1
  Co  Co50  1  0.897783  0.099080  0.499147  1
  Co  Co51  1  0.601365  0.400068  0.499147  1
  Co  Co52  1  0.150068  0.851365  0.999147  1
  Co  Co53  1  0.849080  0.147783  0.999147  1
  Co  Co54  1  0.750760  0.250760  0.501521  1
  Co  Co55  1  0.000760  0.000760  0.001521  1
  Ba  Ba56  1  0.200490  0.467783  0.669741  1
  Ba  Ba57  1  0.469251  0.201958  0.669741  1
  Ba  Ba58  1  0.951958  0.719251  0.169741  1
  Ba  Ba59  1  0.217783  0.450490  0.169741  1
  Ba  Ba60  1  0.704210  0.949324  0.666109  1
  Ba  Ba61  1  0.961901  0.716785  0.666109  1
  Ba  Ba62  1  0.466785  0.211901  0.166109  1
  Ba  Ba63  1  0.699324  0.954210  0.166109  1
  Ba  Ba64  1  0.931423  0.423795  0.319912  1
  Ba  Ba65  1  0.388489  0.896116  0.319912  1
  Ba  Ba66  1  0.646116  0.638489  0.819912  1
  Ba  Ba67  1  0.173795  0.181423  0.819912  1
  Ba  Ba68  1  0.417255  0.917255  0.834511  1
  Ba  Ba69  1  0.667255  0.667255  0.334511  1
  Ba  Ba70  1  0.928880  0.428880  0.857761  1
  Ba  Ba71  1  0.178880  0.178880  0.357761  1
