# generated using pymatgen
data_CsPd2F5
_symmetry_space_group_name_H-M   'P 1'
_cell_length_a   6.69779041
_cell_length_b   7.56533199
_cell_length_c   7.56533199
_cell_angle_alpha   63.33061502
_cell_angle_beta   63.72606275
_cell_angle_gamma   63.72606277
_symmetry_Int_Tables_number   1
_chemical_formula_structural   CsPd2F5
_chemical_formula_sum   'Cs2 Pd4 F10'
_cell_volume   292.58422328
_cell_formula_units_Z   2
loop_
 _symmetry_equiv_pos_site_id
 _symmetry_equiv_pos_as_xyz
  1  'x, y, z'
loop_
 _atom_site_type_symbol
 _atom_site_label
 _atom_site_symmetry_multiplicity
 _atom_site_fract_x
 _atom_site_fract_y
 _atom_site_fract_z
 _atom_site_occupancy
  F  F0  1  0.872120  0.451049  0.307468  1
  F  F1  1  0.630637  0.548951  0.692532  1
  F  F2  1  0.127880  0.192532  0.048951  1
  F  F3  1  0.369363  0.807468  0.951049  1
  F  F4  1  0.127880  0.548951  0.692532  1
  F  F5  1  0.369363  0.451049  0.307468  1
  F  F6  1  0.912831  0.837169  0.337169  1
  F  F7  1  0.087169  0.162831  0.662831  1
  F  F8  1  0.630637  0.192532  0.048951  1
  F  F9  1  0.872120  0.807468  0.951049  1
  Pd  Pd10  1  0.500000  0.500000  0.000000  1
  Pd  Pd11  1  0.000000  0.500000  0.000000  1
  Pd  Pd12  1  0.000000  0.500000  0.500000  1
  Pd  Pd13  1  0.000000  0.000000  0.000000  1
  Cs  Cs14  1  0.388395  0.861605  0.361605  1
  Cs  Cs15  1  0.611605  0.138395  0.638395  1
