# generated using pymatgen
data_Sm7BP2O17
_symmetry_space_group_name_H-M   'P 1'
_cell_length_a   6.82481729
_cell_length_b   12.29134435
_cell_length_c   17.62250168
_cell_angle_alpha   90.00000000
_cell_angle_beta   90.00000000
_cell_angle_gamma   97.15701459
_symmetry_Int_Tables_number   1
_chemical_formula_structural   Sm7BP2O17
_chemical_formula_sum   'Sm28 B4 P8 O68'
_cell_volume   1466.76621490
_cell_formula_units_Z   4
loop_
 _symmetry_equiv_pos_site_id
 _symmetry_equiv_pos_as_xyz
  1  'x, y, z'
loop_
 _atom_site_type_symbol
 _atom_site_label
 _atom_site_symmetry_multiplicity
 _atom_site_fract_x
 _atom_site_fract_y
 _atom_site_fract_z
 _atom_site_occupancy
  Sm  Sm0  1  0.975662  0.179949  0.275694  1
  Sm  Sm1  1  0.210540  0.431934  0.134936  1
  Sm  Sm2  1  0.312682  0.594684  0.774553  1
  Sm  Sm3  1  0.289460  0.068066  0.634936  1
  Sm  Sm4  1  0.486962  0.288789  0.981157  1
  Sm  Sm5  1  0.760426  0.574039  0.653465  1
  Sm  Sm6  1  0.991238  0.301724  0.894394  1
  Sm  Sm7  1  0.739574  0.925961  0.153465  1
  Sm  Sm8  1  0.524338  0.320051  0.775694  1
  Sm  Sm9  1  0.224441  0.506937  0.554388  1
  Sm  Sm10  1  0.013038  0.211211  0.481157  1
  Sm  Sm11  1  0.187318  0.905316  0.274553  1
  Sm  Sm12  1  0.687318  0.405317  0.225447  1
  Sm  Sm13  1  0.986962  0.788789  0.518843  1
  Sm  Sm14  1  0.239574  0.425961  0.346535  1
  Sm  Sm15  1  0.260426  0.074039  0.846535  1
  Sm  Sm16  1  0.789460  0.568066  0.865064  1
  Sm  Sm17  1  0.513038  0.711211  0.018843  1
  Sm  Sm18  1  0.775559  0.493063  0.445612  1
  Sm  Sm19  1  0.710540  0.931934  0.365064  1
  Sm  Sm20  1  0.812682  0.094684  0.725447  1
  Sm  Sm21  1  0.508762  0.198276  0.394394  1
  Sm  Sm22  1  0.491238  0.801724  0.605606  1
  Sm  Sm23  1  0.008762  0.698276  0.105606  1
  Sm  Sm24  1  0.724441  0.006937  0.945612  1
  Sm  Sm25  1  0.275559  0.993063  0.054388  1
  Sm  Sm26  1  0.024338  0.820051  0.724306  1
  Sm  Sm27  1  0.475662  0.679949  0.224306  1
  B  B28  1  0.751622  0.500724  0.067740  1
  B  B29  1  0.248378  0.499276  0.932260  1
  B  B30  1  0.748378  -0.000724  0.567740  1
  B  B31  1  0.251622  1.000724  0.432260  1
  P  P32  1  0.448824  0.164512  0.198595  1
  P  P33  1  0.037331  0.817293  0.937355  1
  P  P34  1  0.962669  0.182707  0.062645  1
  P  P35  1  0.051176  0.335488  0.698595  1
  P  P36  1  0.537331  0.317293  0.562645  1
  P  P37  1  0.551176  0.835488  0.801405  1
  P  P38  1  0.948824  0.664512  0.301405  1
  P  P39  1  0.462669  0.682707  0.437355  1
  O  O40  1  0.915136  0.118721  0.856396  1
  O  O41  1  0.996517  0.625392  0.742493  1
  O  O42  1  0.695330  0.739961  0.132288  1
  O  O43  1  0.496517  0.125392  0.757507  1
  O  O44  1  0.382186  0.807506  0.741485  1
  O  O45  1  0.415136  0.618721  0.643604  1
  O  O46  1  0.451999  0.737861  0.360182  1
  O  O47  1  0.602426  0.722575  0.827633  1
  O  O48  1  0.220500  0.417643  0.987373  1
  O  O49  1  0.480263  0.905440  0.866193  1
  O  O50  1  0.048001  0.762139  0.860182  1
  O  O51  1  0.279500  0.082357  0.487373  1
  O  O52  1  0.264953  0.097973  0.235243  1
  O  O53  1  0.735047  0.902027  0.764757  1
  O  O54  1  0.097318  0.499133  0.877094  1
  O  O55  1  0.195330  0.239961  0.367712  1
  O  O56  1  0.584864  0.381279  0.356396  1
  O  O57  1  0.897574  0.777425  0.327633  1
  O  O58  1  0.535055  0.902215  0.042762  1
  O  O59  1  0.882186  0.307506  0.758515  1
  O  O60  1  0.617814  0.192494  0.258515  1
  O  O61  1  0.914032  0.073256  0.579147  1
  O  O62  1  0.807632  0.124514  0.390797  1
  O  O63  1  0.675999  0.696903  0.469023  1
  O  O64  1  0.951999  0.237861  0.139818  1
  O  O65  1  0.692368  0.375486  0.890797  1
  O  O66  1  0.103996  0.007164  0.734784  1
  O  O67  1  0.720500  0.917643  0.512627  1
  O  O68  1  0.896004  0.992836  0.265216  1
  O  O69  1  0.414032  0.573256  0.920853  1
  O  O70  1  0.406053  0.555236  0.435444  1
  O  O71  1  0.402682  1.000867  0.377094  1
  O  O72  1  0.019737  0.594560  0.366193  1
  O  O73  1  0.824001  0.803097  0.969023  1
  O  O74  1  0.003483  0.374608  0.257507  1
  O  O75  1  0.906053  0.055236  0.064556  1
  O  O76  1  0.585968  0.426744  0.079147  1
  O  O77  1  0.964945  0.597785  0.542762  1
  O  O78  1  0.307632  0.624514  0.109203  1
  O  O79  1  0.117814  0.692494  0.241485  1
  O  O80  1  0.304670  0.260039  0.867712  1
  O  O81  1  0.597318  -0.000867  0.622906  1
  O  O82  1  0.322068  0.728867  0.495553  1
  O  O83  1  0.822068  0.228867  0.004447  1
  O  O84  1  0.593947  0.444764  0.564556  1
  O  O85  1  0.804670  0.760039  0.632288  1
  O  O86  1  0.192368  0.875486  0.609203  1
  O  O87  1  0.902682  0.500867  0.122906  1
  O  O88  1  0.085968  0.926744  0.420853  1
  O  O89  1  0.548001  0.262139  0.639818  1
  O  O90  1  0.779500  0.582357  0.012627  1
  O  O91  1  0.177932  0.771133  0.995553  1
  O  O92  1  0.175999  0.196903  0.030977  1
  O  O93  1  0.519737  0.094560  0.133807  1
  O  O94  1  0.324001  0.303097  0.530977  1
  O  O95  1  0.396004  0.492836  0.234784  1
  O  O96  1  0.397574  0.277425  0.172367  1
  O  O97  1  0.677932  0.271133  0.504447  1
  O  O98  1  0.102426  0.222575  0.672367  1
  O  O99  1  0.980263  0.405440  0.633807  1
  O  O100  1  0.764953  0.597973  0.264757  1
  O  O101  1  0.464945  0.097785  0.957238  1
  O  O102  1  0.035055  0.402215  0.457238  1
  O  O103  1  0.503483  0.874608  0.242493  1
  O  O104  1  0.093947  0.944764  0.935444  1
  O  O105  1  0.084864  0.881279  0.143604  1
  O  O106  1  0.235047  0.402027  0.735243  1
  O  O107  1  0.603996  0.507164  0.765216  1
