# generated using pymatgen
data_SrC4S4N2(O2F3)4
_symmetry_space_group_name_H-M   'P 1'
_cell_length_a   6.66735732
_cell_length_b   11.47634363
_cell_length_c   12.73186141
_cell_angle_alpha   103.72277366
_cell_angle_beta   90.00000000
_cell_angle_gamma   90.00000000
_symmetry_Int_Tables_number   1
_chemical_formula_structural   SrC4S4N2(O2F3)4
_chemical_formula_sum   'Sr2 C8 S8 N4 O16 F24'
_cell_volume   946.39366048
_cell_formula_units_Z   2
loop_
 _symmetry_equiv_pos_site_id
 _symmetry_equiv_pos_as_xyz
  1  'x, y, z'
loop_
 _atom_site_type_symbol
 _atom_site_label
 _atom_site_symmetry_multiplicity
 _atom_site_fract_x
 _atom_site_fract_y
 _atom_site_fract_z
 _atom_site_occupancy
  Sr  Sr0  1  0.403540  0.500000  0.250000  1
  Sr  Sr1  1  0.596460  0.500000  0.750000  1
  C  C2  1  0.495360  0.829101  0.063315  1
  C  C3  1  0.055140  0.843388  0.835749  1
  C  C4  1  0.504640  0.170899  0.936685  1
  C  C5  1  0.944860  0.843388  0.335749  1
  C  C6  1  0.055140  0.156612  0.664251  1
  C  C7  1  0.495360  0.170899  0.436685  1
  C  C8  1  0.944860  0.156612  0.164251  1
  C  C9  1  0.504640  0.829101  0.563315  1
  S  S10  1  0.366538  0.679644  0.022946  1
  S  S11  1  0.895643  0.314132  0.149792  1
  S  S12  1  0.633462  0.320356  0.977054  1
  S  S13  1  0.104357  0.314132  0.649792  1
  S  S14  1  0.895643  0.685868  0.350208  1
  S  S15  1  0.104357  0.685868  0.850208  1
  S  S16  1  0.633462  0.679644  0.522946  1
  S  S17  1  0.366538  0.320356  0.477054  1
  N  N18  1  0.157163  0.295451  0.525379  1
  N  N19  1  0.842837  0.704549  0.474621  1
  N  N20  1  0.842837  0.295451  0.025379  1
  N  N21  1  0.157163  0.704549  0.974621  1
  O  O22  1  0.333225  0.353254  0.375373  1
  O  O23  1  0.090323  0.371190  0.169865  1
  O  O24  1  0.333225  0.646746  0.124627  1
  O  O25  1  0.505424  0.606684  0.946923  1
  O  O26  1  0.666775  0.646746  0.624627  1
  O  O27  1  0.735557  0.639822  0.273986  1
  O  O28  1  0.494576  0.606684  0.446923  1
  O  O29  1  0.264443  0.360178  0.726014  1
  O  O30  1  0.909677  0.371190  0.669865  1
  O  O31  1  0.909677  0.628810  0.830135  1
  O  O32  1  0.735557  0.360178  0.226014  1
  O  O33  1  0.264443  0.639822  0.773986  1
  O  O34  1  0.505424  0.393316  0.553077  1
  O  O35  1  0.494576  0.393316  0.053077  1
  O  O36  1  0.090323  0.628810  0.330135  1
  O  O37  1  0.666775  0.353254  0.875373  1
  F  F38  1  0.076943  0.101562  0.088712  1
  F  F39  1  0.531386  0.130328  0.526006  1
  F  F40  1  0.328703  0.814834  0.610725  1
  F  F41  1  0.671297  0.814834  0.110725  1
  F  F42  1  0.226648  0.092609  0.653048  1
  F  F43  1  0.021835  0.837519  0.236854  1
  F  F44  1  0.021835  0.162481  0.263146  1
  F  F45  1  0.773352  0.092609  0.153048  1
  F  F46  1  0.382013  0.090493  0.367393  1
  F  F47  1  0.382013  0.909507  0.132607  1
  F  F48  1  0.531386  0.869672  0.973994  1
  F  F49  1  0.978165  0.837519  0.736854  1
  F  F50  1  0.617987  0.090493  0.867393  1
  F  F51  1  0.617987  0.909507  0.632607  1
  F  F52  1  0.923057  0.101562  0.588712  1
  F  F53  1  0.468614  0.869672  0.473994  1
  F  F54  1  0.923057  0.898438  0.911288  1
  F  F55  1  0.468614  0.130328  0.026006  1
  F  F56  1  0.328703  0.185166  0.889275  1
  F  F57  1  0.671297  0.185166  0.389275  1
  F  F58  1  0.226648  0.907391  0.846952  1
  F  F59  1  0.773352  0.907391  0.346952  1
  F  F60  1  0.076943  0.898438  0.411288  1
  F  F61  1  0.978165  0.162481  0.763146  1
