# generated using pymatgen
data_ZnS
_symmetry_space_group_name_H-M   'P 1'
_cell_length_a   37.83798865
_cell_length_b   37.83798863
_cell_length_c   37.83798932
_cell_angle_alpha   5.84502688
_cell_angle_beta   5.84502719
_cell_angle_gamma   5.84502626
_symmetry_Int_Tables_number   1
_chemical_formula_structural   ZnS
_chemical_formula_sum   'Zn12 S12'
_cell_volume   486.98086194
_cell_formula_units_Z   12
loop_
 _symmetry_equiv_pos_site_id
 _symmetry_equiv_pos_as_xyz
  1  'x, y, z'
loop_
 _atom_site_type_symbol
 _atom_site_label
 _atom_site_symmetry_multiplicity
 _atom_site_fract_x
 _atom_site_fract_y
 _atom_site_fract_z
 _atom_site_occupancy
  Zn  Zn0  1  0.083336  0.083336  0.083336  1
  Zn  Zn1  1  0.527786  0.527786  0.527786  1
  Zn  Zn2  1  0.166674  0.166674  0.166674  1
  Zn  Zn3  1  0.388887  0.388887  0.388887  1
  Zn  Zn4  1  0.916670  0.916670  0.916670  1
  Zn  Zn5  1  0.444459  0.444459  0.444459  1
  Zn  Zn6  1  0.277793  0.277793  0.277793  1
  Zn  Zn7  1  0.805550  0.805550  0.805550  1
  Zn  Zn8  1  0.000004  0.000004  0.000004  1
  Zn  Zn9  1  0.638888  0.638888  0.638888  1
  Zn  Zn10  1  0.222229  0.222229  0.222229  1
  Zn  Zn11  1  0.694460  0.694460  0.694460  1
  S  S12  1  0.298606  0.298606  0.298606  1
  S  S13  1  0.548622  0.548622  0.548622  1
  S  S14  1  0.243035  0.243035  0.243035  1
  S  S15  1  0.937512  0.937512  0.937512  1
  S  S16  1  0.659700  0.659700  0.659700  1
  S  S17  1  0.020845  0.020845  0.020845  1
  S  S18  1  0.826379  0.826379  0.826379  1
  S  S19  1  0.104178  0.104178  0.104178  1
  S  S20  1  0.409700  0.409700  0.409700  1
  S  S21  1  0.187484  0.187484  0.187484  1
  S  S22  1  0.465269  0.465269  0.465269  1
  S  S23  1  0.715274  0.715274  0.715274  1
