# generated using pymatgen
data_UCo5
_symmetry_space_group_name_H-M   'P 1'
_cell_length_a   12.26487984
_cell_length_b   12.26487979
_cell_length_c   12.26487976
_cell_angle_alpha   22.38729908
_cell_angle_beta   22.38729957
_cell_angle_gamma   22.38729942
_symmetry_Int_Tables_number   1
_chemical_formula_structural   UCo5
_chemical_formula_sum   'U3 Co15'
_cell_volume   234.72088839
_cell_formula_units_Z   3
loop_
 _symmetry_equiv_pos_site_id
 _symmetry_equiv_pos_as_xyz
  1  'x, y, z'
loop_
 _atom_site_type_symbol
 _atom_site_label
 _atom_site_symmetry_multiplicity
 _atom_site_fract_x
 _atom_site_fract_y
 _atom_site_fract_z
 _atom_site_occupancy
  Co  Co0  1  0.221463  0.221463  0.221463  1
  Co  Co1  1  0.778537  0.778537  0.778537  1
  Co  Co2  1  0.332519  0.332519  0.332519  1
  Co  Co3  1  0.667481  0.667481  0.667481  1
  Co  Co4  1  0.464033  0.464033  0.464033  1
  Co  Co5  1  0.535967  0.535967  0.535967  1
  Co  Co6  1  0.000000  0.000000  0.500000  1
  Co  Co7  1  0.500000  0.000000  0.000000  1
  Co  Co8  1  0.000000  0.500000  0.000000  1
  Co  Co9  1  0.554158  0.062726  0.554158  1
  Co  Co10  1  0.554158  0.554158  0.062726  1
  Co  Co11  1  0.062726  0.554158  0.554158  1
  Co  Co12  1  0.937274  0.445842  0.445842  1
  Co  Co13  1  0.445842  0.937274  0.445842  1
  Co  Co14  1  0.445842  0.445842  0.937274  1
  U  U15  1  0.000000  0.000000  0.000000  1
  U  U16  1  0.099454  0.099454  0.099454  1
  U  U17  1  0.900546  0.900546  0.900546  1
