# generated using pymatgen
data_B2PdO4
_symmetry_space_group_name_H-M   'P 1'
_cell_length_a   5.76839376
_cell_length_b   8.82644064
_cell_length_c   8.82644066
_cell_angle_alpha   83.87043281
_cell_angle_beta   70.92728283
_cell_angle_gamma   70.92728806
_symmetry_Int_Tables_number   1
_chemical_formula_structural   B2PdO4
_chemical_formula_sum   'B12 Pd6 O24'
_cell_volume   401.40787971
_cell_formula_units_Z   6
loop_
 _symmetry_equiv_pos_site_id
 _symmetry_equiv_pos_as_xyz
  1  'x, y, z'
loop_
 _atom_site_type_symbol
 _atom_site_label
 _atom_site_symmetry_multiplicity
 _atom_site_fract_x
 _atom_site_fract_y
 _atom_site_fract_z
 _atom_site_occupancy
  Pd  Pd0  1  0.500000  0.000000  0.000000  1
  Pd  Pd1  1  0.750000  0.500000  0.500000  1
  Pd  Pd2  1  0.205236  0.169764  0.669764  1
  Pd  Pd3  1  0.125000  0.669764  0.830236  1
  Pd  Pd4  1  0.625000  0.330236  0.169764  1
  Pd  Pd5  1  0.044764  0.830236  0.330236  1
  O  O6  1  0.661201  0.906887  0.767029  1
  O  O7  1  0.571770  0.767029  0.093113  1
  O  O8  1  0.431912  0.232971  0.906887  1
  O  O9  1  0.335117  0.093113  0.232971  1
  O  O10  1  0.588799  0.732971  0.593113  1
  O  O11  1  0.914883  0.267029  0.406887  1
  O  O12  1  0.818088  0.593113  0.267029  1
  O  O13  1  0.678230  0.406887  0.732971  1
  O  O14  1  0.873446  0.001554  0.501554  1
  O  O15  1  0.625000  0.501554  0.998446  1
  O  O16  1  0.125000  0.498446  0.001554  1
  O  O17  1  0.376554  0.998446  0.498446  1
  O  O18  1  0.125000  0.839909  0.660091  1
  O  O19  1  0.214909  0.660091  0.160091  1
  O  O20  1  0.035091  0.339909  0.839909  1
  O  O21  1  0.625000  0.160091  0.339909  1
  O  O22  1  0.863902  0.113348  0.739681  1
  O  O23  1  0.396417  0.739681  0.886652  1
  O  O24  1  0.022751  0.260319  0.113348  1
  O  O25  1  0.716931  0.886652  0.260319  1
  O  O26  1  0.386098  0.760319  0.386652  1
  O  O27  1  0.533069  0.239681  0.613348  1
  O  O28  1  0.227249  0.386652  0.239681  1
  O  O29  1  0.853583  0.613348  0.760319  1
  B  B30  1  0.881319  0.963751  0.666901  1
  B  B31  1  0.451781  0.666901  0.036249  1
  B  B32  1  0.154930  0.333099  0.963751  1
  B  B33  1  0.511970  0.036249  0.333099  1
  B  B34  1  0.368681  0.833099  0.536249  1
  B  B35  1  0.738030  0.166901  0.463751  1
  B  B36  1  0.095070  0.536249  0.166901  1
  B  B37  1  0.798219  0.463751  0.833099  1
  B  B38  1  0.624174  0.250826  0.750826  1
  B  B39  1  0.625000  0.750826  0.749174  1
  B  B40  1  0.125000  0.249174  0.250826  1
  B  B41  1  0.625826  0.749174  0.249174  1
