# generated using pymatgen
data_Li2U3V2O15
_symmetry_space_group_name_H-M   'P 1'
_cell_length_a   7.44859882
_cell_length_b   7.44859940
_cell_length_c   13.55250880
_cell_angle_alpha   105.95040162
_cell_angle_beta   105.95040291
_cell_angle_gamma   90.00000142
_symmetry_Int_Tables_number   1
_chemical_formula_structural   Li2U3V2O15
_chemical_formula_sum   'Li4 U6 V4 O30'
_cell_volume   692.80913341
_cell_formula_units_Z   2
loop_
 _symmetry_equiv_pos_site_id
 _symmetry_equiv_pos_as_xyz
  1  'x, y, z'
loop_
 _atom_site_type_symbol
 _atom_site_label
 _atom_site_symmetry_multiplicity
 _atom_site_fract_x
 _atom_site_fract_y
 _atom_site_fract_z
 _atom_site_occupancy
  Li  Li0  1  0.719411  0.469411  0.938821  1
  Li  Li1  1  0.280589  0.530589  0.061179  1
  Li  Li2  1  0.969411  0.219411  0.438821  1
  Li  Li3  1  0.030589  0.780589  0.561179  1
  U  U4  1  0.290004  0.040004  0.080008  1
  U  U5  1  0.709996  0.959996  0.919992  1
  U  U6  1  0.459996  0.209996  0.419992  1
  U  U7  1  0.540004  0.790004  0.580008  1
  U  U8  1  0.875000  0.625000  0.250000  1
  U  U9  1  0.125000  0.375000  0.750000  1
  V  V10  1  0.157295  0.907295  0.814590  1
  V  V11  1  0.842705  0.092705  0.185410  1
  V  V12  1  0.407295  0.657295  0.314590  1
  V  V13  1  0.592705  0.342705  0.685410  1
  O  O14  1  0.974790  0.047248  0.094495  1
  O  O15  1  0.216121  0.211847  0.423694  1
  O  O16  1  0.051352  0.301352  0.602705  1
  O  O17  1  0.711847  0.716121  0.923694  1
  O  O18  1  0.174617  0.618371  0.236741  1
  O  O19  1  0.547248  0.119706  0.594495  1
  O  O20  1  0.288153  0.792427  0.076306  1
  O  O21  1  0.288153  0.283879  0.076306  1
  O  O22  1  0.198648  0.448648  0.897295  1
  O  O23  1  0.619706  0.047248  0.094495  1
  O  O24  1  0.380294  0.952752  0.905505  1
  O  O25  1  0.452752  0.525210  0.405505  1
  O  O26  1  0.292427  0.788153  0.576306  1
  O  O27  1  0.118371  0.674617  0.736741  1
  O  O28  1  0.783879  0.788153  0.576306  1
  O  O29  1  0.707573  0.211847  0.423694  1
  O  O30  1  0.881629  0.325383  0.263259  1
  O  O31  1  0.948648  0.698648  0.397295  1
  O  O32  1  0.711847  0.207573  0.923694  1
  O  O33  1  0.625000  0.875000  0.750000  1
  O  O34  1  0.881629  0.937876  0.263259  1
  O  O35  1  0.547248  0.474790  0.594495  1
  O  O36  1  0.452752  0.880294  0.405505  1
  O  O37  1  0.437876  0.381629  0.763259  1
  O  O38  1  0.118371  0.062124  0.736741  1
  O  O39  1  0.562124  0.618371  0.236741  1
  O  O40  1  0.025210  0.952752  0.905505  1
  O  O41  1  0.825383  0.381629  0.763259  1
  O  O42  1  0.375000  0.125000  0.250000  1
  O  O43  1  0.801352  0.551352  0.102705  1
