# generated using pymatgen
data_Eu(Al4Fe)2
_symmetry_space_group_name_H-M   'P 1'
_cell_length_a   4.00113543
_cell_length_b   12.50420098
_cell_length_c   14.50118699
_cell_angle_alpha   90.00000000
_cell_angle_beta   90.00000000
_cell_angle_gamma   90.00000000
_symmetry_Int_Tables_number   1
_chemical_formula_structural   Eu(Al4Fe)2
_chemical_formula_sum   'Eu4 Al32 Fe8'
_cell_volume   725.50890899
_cell_formula_units_Z   4
loop_
 _symmetry_equiv_pos_site_id
 _symmetry_equiv_pos_as_xyz
  1  'x, y, z'
loop_
 _atom_site_type_symbol
 _atom_site_label
 _atom_site_symmetry_multiplicity
 _atom_site_fract_x
 _atom_site_fract_y
 _atom_site_fract_z
 _atom_site_occupancy
  Eu  Eu0  1  0.000000  0.340003  0.318166  1
  Eu  Eu1  1  0.000000  0.659997  0.681834  1
  Eu  Eu2  1  0.000000  0.840003  0.181834  1
  Eu  Eu3  1  0.000000  0.159997  0.818166  1
  Fe  Fe4  1  0.000000  0.035629  0.409870  1
  Fe  Fe5  1  0.000000  0.964371  0.590130  1
  Fe  Fe6  1  0.000000  0.535629  0.090130  1
  Fe  Fe7  1  0.000000  0.464371  0.909870  1
  Fe  Fe8  1  0.000000  0.148892  0.098953  1
  Fe  Fe9  1  0.000000  0.851108  0.901047  1
  Fe  Fe10  1  0.000000  0.648892  0.401047  1
  Fe  Fe11  1  0.000000  0.351108  0.598953  1
  Al  Al12  1  0.000000  0.000000  0.000000  1
  Al  Al13  1  0.000000  0.500000  0.500000  1
  Al  Al14  1  0.500000  0.000000  0.500000  1
  Al  Al15  1  0.500000  0.500000  0.000000  1
  Al  Al16  1  0.500000  0.234973  0.171020  1
  Al  Al17  1  0.500000  0.765027  0.828980  1
  Al  Al18  1  0.500000  0.734973  0.328980  1
  Al  Al19  1  0.500000  0.265027  0.671020  1
  Al  Al20  1  0.500000  0.452931  0.178515  1
  Al  Al21  1  0.500000  0.547069  0.821485  1
  Al  Al22  1  0.500000  0.952931  0.321485  1
  Al  Al23  1  0.500000  0.047069  0.678515  1
  Al  Al24  1  0.500000  0.158850  0.380460  1
  Al  Al25  1  0.500000  0.841150  0.619540  1
  Al  Al26  1  0.500000  0.658850  0.119540  1
  Al  Al27  1  0.500000  0.341150  0.880460  1
  Al  Al28  1  0.000000  0.336908  0.046630  1
  Al  Al29  1  0.000000  0.663092  0.953370  1
  Al  Al30  1  0.000000  0.836908  0.453370  1
  Al  Al31  1  0.000000  0.163092  0.546630  1
  Al  Al32  1  0.000000  0.094043  0.254497  1
  Al  Al33  1  0.000000  0.905957  0.745503  1
  Al  Al34  1  0.000000  0.594043  0.245503  1
  Al  Al35  1  0.000000  0.405957  0.754497  1
  Al  Al36  1  0.500000  0.333428  0.493181  1
  Al  Al37  1  0.500000  0.666572  0.506819  1
  Al  Al38  1  0.500000  0.833428  0.006819  1
  Al  Al39  1  0.500000  0.166572  0.993181  1
  Al  Al40  1  0.500000  0.025939  0.132698  1
  Al  Al41  1  0.500000  0.974061  0.867302  1
  Al  Al42  1  0.500000  0.525939  0.367302  1
  Al  Al43  1  0.500000  0.474061  0.632698  1
