# generated using pymatgen
data_K3Bi2(PO4)3
_symmetry_space_group_name_H-M   'P 1'
_cell_length_a   6.93213825
_cell_length_b   9.73002166
_cell_length_c   9.73002182
_cell_angle_alpha   88.81496426
_cell_angle_beta   72.46930075
_cell_angle_gamma   72.46930044
_symmetry_Int_Tables_number   1
_chemical_formula_structural   K3Bi2(PO4)3
_chemical_formula_sum   'K6 Bi4 P6 O24'
_cell_volume   594.96896595
_cell_formula_units_Z   2
loop_
 _symmetry_equiv_pos_site_id
 _symmetry_equiv_pos_as_xyz
  1  'x, y, z'
loop_
 _atom_site_type_symbol
 _atom_site_label
 _atom_site_symmetry_multiplicity
 _atom_site_fract_x
 _atom_site_fract_y
 _atom_site_fract_z
 _atom_site_occupancy
  K  K0  1  0.750000  0.987047  0.012953  1
  K  K1  1  0.000000  0.500000  0.500000  1
  K  K2  1  0.250000  0.012953  0.987047  1
  K  K3  1  0.750000  0.725781  0.274219  1
  K  K4  1  0.500000  0.500000  0.500000  1
  K  K5  1  0.250000  0.274219  0.725781  1
  Bi  Bi6  1  0.169600  0.909611  0.614033  1
  Bi  Bi7  1  0.669600  0.614033  0.909611  1
  Bi  Bi8  1  0.330400  0.385967  0.090389  1
  Bi  Bi9  1  0.830400  0.090389  0.385967  1
  P  P10  1  0.362795  0.138063  0.347358  1
  P  P11  1  0.750000  0.245584  0.754416  1
  P  P12  1  0.250000  0.754416  0.245584  1
  P  P13  1  0.137205  0.652642  0.861937  1
  P  P14  1  0.637205  0.861937  0.652642  1
  P  P15  1  0.862795  0.347358  0.138063  1
  O  O16  1  0.318389  0.759023  0.382496  1
  O  O17  1  0.923692  0.665122  0.985703  1
  O  O18  1  0.558888  0.240348  0.890160  1
  O  O19  1  0.941112  0.109840  0.759652  1
  O  O20  1  0.828962  0.911391  0.556260  1
  O  O21  1  0.058888  0.890160  0.240348  1
  O  O22  1  0.839841  0.193203  0.156473  1
  O  O23  1  0.160159  0.806797  0.843527  1
  O  O24  1  0.867020  0.415203  0.278247  1
  O  O25  1  0.423692  0.985703  0.665122  1
  O  O26  1  0.367020  0.278247  0.415203  1
  O  O27  1  0.671038  0.443740  0.088609  1
  O  O28  1  0.339841  0.156473  0.193203  1
  O  O29  1  0.681611  0.240977  0.617504  1
  O  O30  1  0.576308  0.014297  0.334878  1
  O  O31  1  0.076308  0.334878  0.014297  1
  O  O32  1  0.818389  0.382496  0.759023  1
  O  O33  1  0.660159  0.843527  0.806797  1
  O  O34  1  0.171038  0.088609  0.443740  1
  O  O35  1  0.632980  0.721753  0.584797  1
  O  O36  1  0.328962  0.556260  0.911391  1
  O  O37  1  0.132980  0.584797  0.721753  1
  O  O38  1  0.181611  0.617504  0.240977  1
  O  O39  1  0.441112  0.759652  0.109840  1
