# generated using pymatgen
data_SiO2
_symmetry_space_group_name_H-M   'P 1'
_cell_length_a   5.67579804
_cell_length_b   5.67579445
_cell_length_c   6.93885387
_cell_angle_alpha   114.14138409
_cell_angle_beta   114.14145594
_cell_angle_gamma   90.00744802
_symmetry_Int_Tables_number   1
_chemical_formula_structural   SiO2
_chemical_formula_sum   'Si4 O8'
_cell_volume   182.34175792
_cell_formula_units_Z   4
loop_
 _symmetry_equiv_pos_site_id
 _symmetry_equiv_pos_as_xyz
  1  'x, y, z'
loop_
 _atom_site_type_symbol
 _atom_site_label
 _atom_site_symmetry_multiplicity
 _atom_site_fract_x
 _atom_site_fract_y
 _atom_site_fract_z
 _atom_site_occupancy
  Si  Si0  1  0.986392  0.375053  0.250032  1
  O  O1  1  0.282102  0.717899  0.000000  1
  O  O2  1  0.717942  0.282058  0.000001  1
  O  O3  1  0.366259  0.866297  0.732621  1
  Si  Si4  1  0.124948  0.736355  0.750017  1
  Si  Si5  1  0.624948  0.013608  0.749969  1
  O  O6  1  0.883579  0.883555  0.767315  1
  O  O7  1  0.116444  0.116423  0.232686  1
  O  O8  1  0.532113  0.032073  0.499959  1
  Si  Si9  1  0.263645  0.875052  0.249983  1
  O  O10  1  0.967927  0.467887  0.500040  1
  O  O11  1  0.133703  0.633740  0.267378  1
