# generated using pymatgen
data_Tl2TeO3
_symmetry_space_group_name_H-M   'P 1'
_cell_length_a   5.44088963
_cell_length_b   11.47296485
_cell_length_c   17.07386435
_cell_angle_alpha   90.00000000
_cell_angle_beta   90.00000000
_cell_angle_gamma   90.00000000
_symmetry_Int_Tables_number   1
_chemical_formula_structural   Tl2TeO3
_chemical_formula_sum   'Tl16 Te8 O24'
_cell_volume   1065.80414745
_cell_formula_units_Z   8
loop_
 _symmetry_equiv_pos_site_id
 _symmetry_equiv_pos_as_xyz
  1  'x, y, z'
loop_
 _atom_site_type_symbol
 _atom_site_label
 _atom_site_symmetry_multiplicity
 _atom_site_fract_x
 _atom_site_fract_y
 _atom_site_fract_z
 _atom_site_occupancy
  Tl  Tl0  1  0.251260  0.883491  0.670581  1
  Tl  Tl1  1  0.251260  0.616509  0.829419  1
  Tl  Tl2  1  0.748740  0.883491  0.829419  1
  Tl  Tl3  1  0.748740  0.616509  0.670581  1
  Tl  Tl4  1  0.748740  0.116509  0.329419  1
  Tl  Tl5  1  0.748740  0.383491  0.170581  1
  Tl  Tl6  1  0.251260  0.116509  0.170581  1
  Tl  Tl7  1  0.251260  0.383491  0.329419  1
  Tl  Tl8  1  0.752705  0.865808  0.500919  1
  Tl  Tl9  1  0.752705  0.634192  0.999081  1
  Tl  Tl10  1  0.247295  0.865808  0.999081  1
  Tl  Tl11  1  0.247295  0.634192  0.500919  1
  Tl  Tl12  1  0.247295  0.134192  0.499081  1
  Tl  Tl13  1  0.247295  0.365808  0.000919  1
  Tl  Tl14  1  0.752705  0.134192  0.000919  1
  Tl  Tl15  1  0.752705  0.365808  0.499081  1
  Te  Te16  1  0.230993  0.890350  0.338769  1
  Te  Te17  1  0.230993  0.609650  0.161231  1
  Te  Te18  1  0.769007  0.890350  0.161231  1
  Te  Te19  1  0.769007  0.609650  0.338769  1
  Te  Te20  1  0.769007  0.109650  0.661231  1
  Te  Te21  1  0.769007  0.390350  0.838769  1
  Te  Te22  1  0.230993  0.109650  0.838769  1
  Te  Te23  1  0.230993  0.390350  0.661231  1
  O  O24  1  0.715501  0.949929  0.686795  1
  O  O25  1  0.715501  0.550071  0.813205  1
  O  O26  1  0.284499  0.949929  0.813205  1
  O  O27  1  0.284499  0.550071  0.686795  1
  O  O28  1  0.284499  0.050071  0.313205  1
  O  O29  1  0.284499  0.449929  0.186795  1
  O  O30  1  0.715501  0.050071  0.186795  1
  O  O31  1  0.715501  0.449929  0.313205  1
  O  O32  1  0.689246  0.102041  0.553074  1
  O  O33  1  0.689246  0.397959  0.946926  1
  O  O34  1  0.310754  0.102041  0.946926  1
  O  O35  1  0.310754  0.397959  0.553074  1
  O  O36  1  0.310754  0.897959  0.446926  1
  O  O37  1  0.310754  0.602041  0.053074  1
  O  O38  1  0.689246  0.897959  0.053074  1
  O  O39  1  0.689246  0.602041  0.446926  1
  O  O40  1  0.117962  0.103422  0.653050  1
  O  O41  1  0.117962  0.396578  0.846950  1
  O  O42  1  0.882038  0.103422  0.846950  1
  O  O43  1  0.882038  0.396578  0.653050  1
  O  O44  1  0.882038  0.896578  0.346950  1
  O  O45  1  0.882038  0.603422  0.153050  1
  O  O46  1  0.117962  0.896578  0.153050  1
  O  O47  1  0.117962  0.603422  0.346950  1
