# generated using pymatgen
data_SrTa2Bi2O9
_symmetry_space_group_name_H-M   'P 1'
_cell_length_a   5.59382368
_cell_length_b   5.61560131
_cell_length_c   13.05977052
_cell_angle_alpha   102.41530526
_cell_angle_beta   90.00000000
_cell_angle_gamma   90.00000000
_symmetry_Int_Tables_number   1
_chemical_formula_structural   SrTa2Bi2O9
_chemical_formula_sum   'Sr2 Ta4 Bi4 O18'
_cell_volume   400.64887075
_cell_formula_units_Z   2
loop_
 _symmetry_equiv_pos_site_id
 _symmetry_equiv_pos_as_xyz
  1  'x, y, z'
loop_
 _atom_site_type_symbol
 _atom_site_label
 _atom_site_symmetry_multiplicity
 _atom_site_fract_x
 _atom_site_fract_y
 _atom_site_fract_z
 _atom_site_occupancy
  Sr  Sr0  1  0.000000  0.019135  0.000000  1
  Sr  Sr1  1  0.500000  0.519135  0.000000  1
  Ta  Ta2  1  0.497059  0.098727  0.166662  1
  Ta  Ta3  1  0.502941  0.932065  0.833338  1
  Ta  Ta4  1  0.002941  0.598727  0.166662  1
  Ta  Ta5  1  0.997059  0.432065  0.833338  1
  Bi  Bi6  1  0.021649  0.119677  0.400827  1
  Bi  Bi7  1  0.978351  0.718850  0.599173  1
  Bi  Bi8  1  0.521649  0.218850  0.599173  1
  Bi  Bi9  1  0.478351  0.619677  0.400827  1
  O  O10  1  0.535835  0.882157  0.685061  1
  O  O11  1  0.739365  0.460873  0.497870  1
  O  O12  1  0.260635  0.963003  0.502130  1
  O  O13  1  0.964165  0.382157  0.685061  1
  O  O14  1  0.000000  0.525612  0.000000  1
  O  O15  1  0.500000  0.025612  0.000000  1
  O  O16  1  0.731687  0.831322  0.155674  1
  O  O17  1  0.268313  0.675649  0.844326  1
  O  O18  1  0.268481  0.364512  0.146488  1
  O  O19  1  0.239365  0.463003  0.502130  1
  O  O20  1  0.231519  0.864512  0.146488  1
  O  O21  1  0.231687  0.175649  0.844326  1
  O  O22  1  0.768481  0.718023  0.853512  1
  O  O23  1  0.768313  0.331322  0.155674  1
  O  O24  1  0.035835  0.697096  0.314939  1
  O  O25  1  0.731519  0.218023  0.853512  1
  O  O26  1  0.464165  0.197096  0.314939  1
  O  O27  1  0.760635  0.960873  0.497870  1
