# generated using pymatgen
data_K2(ReS2)3
_symmetry_space_group_name_H-M   'P 1'
_cell_length_a   9.71259743
_cell_length_b   9.71259729
_cell_length_c   12.03462063
_cell_angle_alpha   88.80829256
_cell_angle_beta   88.80829251
_cell_angle_gamma   61.08937314
_symmetry_Int_Tables_number   1
_chemical_formula_structural   K2(ReS2)3
_chemical_formula_sum   'K8 Re12 S24'
_cell_volume   993.50620351
_cell_formula_units_Z   4
loop_
 _symmetry_equiv_pos_site_id
 _symmetry_equiv_pos_as_xyz
  1  'x, y, z'
loop_
 _atom_site_type_symbol
 _atom_site_label
 _atom_site_symmetry_multiplicity
 _atom_site_fract_x
 _atom_site_fract_y
 _atom_site_fract_z
 _atom_site_occupancy
  Re  Re0  1  0.309000  0.003380  0.525483  1
  Re  Re1  1  0.996620  0.691000  0.974517  1
  Re  Re2  1  0.691000  0.996620  0.474517  1
  Re  Re3  1  0.003380  0.309000  0.025483  1
  Re  Re4  1  0.469350  0.115647  0.630202  1
  Re  Re5  1  0.884353  0.530650  0.869798  1
  Re  Re6  1  0.530650  0.884353  0.369798  1
  Re  Re7  1  0.115647  0.469350  0.130202  1
  Re  Re8  1  0.603132  0.812142  0.583322  1
  Re  Re9  1  0.187858  0.396868  0.916678  1
  Re  Re10  1  0.396868  0.187858  0.416678  1
  Re  Re11  1  0.812142  0.603132  0.083322  1
  S  S12  1  0.257238  0.071446  0.331520  1
  S  S13  1  0.928554  0.742762  0.168480  1
  S  S14  1  0.742762  0.928554  0.668480  1
  S  S15  1  0.071446  0.257238  0.831520  1
  S  S16  1  0.719444  0.795427  0.931656  1
  S  S17  1  0.204573  0.280556  0.568344  1
  S  S18  1  0.280556  0.204573  0.068344  1
  S  S19  1  0.795427  0.719444  0.431656  1
  S  S20  1  0.610901  0.060923  0.282940  1
  S  S21  1  0.939077  0.389099  0.217060  1
  S  S22  1  0.389099  0.939077  0.717060  1
  S  S23  1  0.060923  0.610901  0.782940  1
  S  S24  1  0.554271  0.276376  0.520043  1
  S  S25  1  0.723624  0.445729  0.979957  1
  S  S26  1  0.445729  0.723624  0.479957  1
  S  S27  1  0.276376  0.554271  0.020043  1
  S  S28  1  0.999236  0.060640  0.073366  1
  S  S29  1  0.939360  0.000764  0.426634  1
  S  S30  1  0.000764  0.939360  0.926634  1
  S  S31  1  0.060640  0.999236  0.573366  1
  S  S32  1  0.437814  0.265277  0.804319  1
  S  S33  1  0.734723  0.562186  0.695681  1
  S  S34  1  0.562186  0.734723  0.195681  1
  S  S35  1  0.265277  0.437814  0.304319  1
  K  K36  1  0.399053  0.600947  0.750000  1
  K  K37  1  0.600947  0.399053  0.250000  1
  K  K38  1  0.790330  0.209670  0.750000  1
  K  K39  1  0.209670  0.790330  0.250000  1
  K  K40  1  0.643680  0.121276  0.019994  1
  K  K41  1  0.878724  0.356320  0.480006  1
  K  K42  1  0.356320  0.878724  0.980006  1
  K  K43  1  0.121276  0.643680  0.519994  1
