# generated using pymatgen
data_Fe2Pb3F12
_symmetry_space_group_name_H-M   'P 1'
_cell_length_a   7.54554881
_cell_length_b   7.82099746
_cell_length_c   10.04706460
_cell_angle_alpha   110.20935230
_cell_angle_beta   107.90148668
_cell_angle_gamma   96.55108314
_symmetry_Int_Tables_number   1
_chemical_formula_structural   Fe2Pb3F12
_chemical_formula_sum   'Fe4 Pb6 F24'
_cell_volume   513.11430965
_cell_formula_units_Z   2
loop_
 _symmetry_equiv_pos_site_id
 _symmetry_equiv_pos_as_xyz
  1  'x, y, z'
loop_
 _atom_site_type_symbol
 _atom_site_label
 _atom_site_symmetry_multiplicity
 _atom_site_fract_x
 _atom_site_fract_y
 _atom_site_fract_z
 _atom_site_occupancy
  F  F0  1  0.859275  0.318303  0.203306  1
  F  F1  1  0.140725  0.681697  0.796694  1
  F  F2  1  0.516392  0.888192  0.859461  1
  F  F3  1  0.483608  0.111808  0.140539  1
  F  F4  1  0.568042  0.898022  0.342177  1
  F  F5  1  0.431958  0.101978  0.657823  1
  F  F6  1  0.821117  0.584428  0.530897  1
  F  F7  1  0.178883  0.415572  0.469103  1
  F  F8  1  0.487315  0.289048  0.454070  1
  F  F9  1  0.512685  0.710952  0.545930  1
  F  F10  1  0.106890  0.848696  0.075782  1
  F  F11  1  0.893110  0.151304  0.924218  1
  F  F12  1  0.192662  0.418977  0.969158  1
  F  F13  1  0.807338  0.581023  0.030842  1
  F  F14  1  0.202677  0.065118  0.832808  1
  F  F15  1  0.797323  0.934882  0.167192  1
  F  F16  1  0.168579  0.649954  0.267593  1
  F  F17  1  0.831421  0.350046  0.732407  1
  F  F18  1  0.157783  0.036918  0.376426  1
  F  F19  1  0.842217  0.963082  0.623574  1
  F  F20  1  0.108182  0.241795  0.637001  1
  F  F21  1  0.891818  0.758205  0.362999  1
  F  F22  1  0.476475  0.484781  0.747470  1
  F  F23  1  0.523525  0.515219  0.252530  1
  Fe  Fe24  1  0.673780  0.735810  0.435050  1
  Fe  Fe25  1  0.326220  0.264190  0.564950  1
  Fe  Fe26  1  0.011789  0.205047  0.790289  1
  Fe  Fe27  1  0.988211  0.794953  0.209711  1
  Pb  Pb28  1  0.596221  0.231602  0.969264  1
  Pb  Pb29  1  0.403779  0.768398  0.030736  1
  Pb  Pb30  1  0.237329  0.781365  0.619568  1
  Pb  Pb31  1  0.762671  0.218635  0.380432  1
  Pb  Pb32  1  0.810131  0.666689  0.797509  1
  Pb  Pb33  1  0.189869  0.333311  0.202491  1
