# generated using pymatgen
data_ErPS4
_symmetry_space_group_name_H-M   'P 1'
_cell_length_a   10.74732942
_cell_length_b   10.74732943
_cell_length_c   12.17213771
_cell_angle_alpha   116.19787360
_cell_angle_beta   116.19787362
_cell_angle_gamma   90.00000000
_symmetry_Int_Tables_number   1
_chemical_formula_structural   ErPS4
_chemical_formula_sum   'Er8 P8 S32'
_cell_volume   1098.26082731
_cell_formula_units_Z   8
loop_
 _symmetry_equiv_pos_site_id
 _symmetry_equiv_pos_as_xyz
  1  'x, y, z'
loop_
 _atom_site_type_symbol
 _atom_site_label
 _atom_site_symmetry_multiplicity
 _atom_site_fract_x
 _atom_site_fract_y
 _atom_site_fract_z
 _atom_site_occupancy
  P  P0  1  0.288038  0.250000  0.500000  1
  P  P1  1  0.788038  0.250000  0.500000  1
  P  P2  1  0.750000  0.788038  0.000000  1
  P  P3  1  0.250000  0.711962  0.000000  1
  P  P4  1  0.711962  0.750000  0.500000  1
  P  P5  1  0.211962  0.750000  0.500000  1
  P  P6  1  0.250000  0.211962  0.000000  1
  P  P7  1  0.750000  0.288038  0.000000  1
  S  S8  1  0.083072  0.610952  0.993579  1
  S  S9  1  0.910507  0.882627  0.993579  1
  S  S10  1  0.610952  0.910507  0.493579  1
  S  S11  1  0.882627  0.083072  0.493579  1
  S  S12  1  0.416928  0.617373  0.006421  1
  S  S13  1  0.589493  0.889048  0.006421  1
  S  S14  1  0.889048  0.416928  0.506421  1
  S  S15  1  0.617373  0.589493  0.506421  1
  S  S16  1  0.344802  0.404774  0.181053  1
  S  S17  1  0.276279  0.344802  0.681053  1
  S  S18  1  0.404774  0.836251  0.681053  1
  S  S19  1  0.663749  0.095226  0.818947  1
  S  S20  1  0.155198  0.223721  0.818947  1
  S  S21  1  0.223721  0.663749  0.318947  1
  S  S22  1  0.095226  0.155198  0.318947  1
  S  S23  1  0.836251  0.276279  0.181053  1
  S  S24  1  0.655198  0.595226  0.818947  1
  S  S25  1  0.723721  0.655198  0.318947  1
  S  S26  1  0.595226  0.163749  0.318947  1
  S  S27  1  0.336251  0.904774  0.181053  1
  S  S28  1  0.844802  0.776279  0.181053  1
  S  S29  1  0.776279  0.336251  0.681053  1
  S  S30  1  0.904774  0.844802  0.681053  1
  S  S31  1  0.163749  0.723721  0.818947  1
  S  S32  1  0.089493  0.117373  0.006421  1
  S  S33  1  0.389048  0.089493  0.506421  1
  S  S34  1  0.117373  0.916928  0.506421  1
  S  S35  1  0.583072  0.382627  0.993579  1
  S  S36  1  0.410507  0.110952  0.993579  1
  S  S37  1  0.110952  0.583072  0.493579  1
  S  S38  1  0.382627  0.410507  0.493579  1
  S  S39  1  0.916928  0.389048  0.006421  1
  Er  Er40  1  0.875000  0.125000  0.750000  1
  Er  Er41  1  0.125000  0.875000  0.250000  1
  Er  Er42  1  0.625000  0.375000  0.250000  1
  Er  Er43  1  0.375000  0.625000  0.750000  1
  Er  Er44  1  0.625000  0.875000  0.250000  1
  Er  Er45  1  0.875000  0.625000  0.750000  1
  Er  Er46  1  0.375000  0.125000  0.750000  1
  Er  Er47  1  0.125000  0.375000  0.250000  1
