# generated using pymatgen
data_GeBr4
_symmetry_space_group_name_H-M   'P 1'
_cell_length_a   12.07375677
_cell_length_b   12.07375677
_cell_length_c   12.07375677
_cell_angle_alpha   90.00000000
_cell_angle_beta   90.00000000
_cell_angle_gamma   90.00000000
_symmetry_Int_Tables_number   1
_chemical_formula_structural   GeBr4
_chemical_formula_sum   'Ge8 Br32'
_cell_volume   1760.05916808
_cell_formula_units_Z   8
loop_
 _symmetry_equiv_pos_site_id
 _symmetry_equiv_pos_as_xyz
  1  'x, y, z'
loop_
 _atom_site_type_symbol
 _atom_site_label
 _atom_site_symmetry_multiplicity
 _atom_site_fract_x
 _atom_site_fract_y
 _atom_site_fract_z
 _atom_site_occupancy
  Ge  Ge0  1  0.868472  0.631528  0.368472  1
  Ge  Ge1  1  0.131528  0.368472  0.631528  1
  Ge  Ge2  1  0.368472  0.868472  0.631528  1
  Ge  Ge3  1  0.631528  0.368472  0.868472  1
  Ge  Ge4  1  0.631528  0.131528  0.368472  1
  Ge  Ge5  1  0.368472  0.631528  0.131528  1
  Ge  Ge6  1  0.131528  0.131528  0.131528  1
  Ge  Ge7  1  0.868472  0.868472  0.868472  1
  Br  Br8  1  0.485761  0.757998  0.528502  1
  Br  Br9  1  0.242002  0.028502  0.014239  1
  Br  Br10  1  0.757998  0.528502  0.485761  1
  Br  Br11  1  0.242002  0.471498  0.514239  1
  Br  Br12  1  0.471498  0.985761  0.742002  1
  Br  Br13  1  0.014239  0.242002  0.028502  1
  Br  Br14  1  0.514239  0.242002  0.471498  1
  Br  Br15  1  0.742002  0.471498  0.985761  1
  Br  Br16  1  0.258332  0.758332  0.741668  1
  Br  Br17  1  0.028502  0.485761  0.742002  1
  Br  Br18  1  0.528502  0.485761  0.757998  1
  Br  Br19  1  0.971498  0.985761  0.757998  1
  Br  Br20  1  0.758332  0.758332  0.758332  1
  Br  Br21  1  0.971498  0.514239  0.257998  1
  Br  Br22  1  0.241668  0.241668  0.241668  1
  Br  Br23  1  0.528502  0.014239  0.257998  1
  Br  Br24  1  0.985761  0.742002  0.471498  1
  Br  Br25  1  0.028502  0.014239  0.242002  1
  Br  Br26  1  0.741668  0.258332  0.758332  1
  Br  Br27  1  0.514239  0.257998  0.971498  1
  Br  Br28  1  0.758332  0.741668  0.258332  1
  Br  Br29  1  0.257998  0.971498  0.514239  1
  Br  Br30  1  0.742002  0.028502  0.485761  1
  Br  Br31  1  0.741668  0.241668  0.258332  1
  Br  Br32  1  0.985761  0.757998  0.971498  1
  Br  Br33  1  0.257998  0.528502  0.014239  1
  Br  Br34  1  0.757998  0.971498  0.985761  1
  Br  Br35  1  0.471498  0.514239  0.242002  1
  Br  Br36  1  0.241668  0.258332  0.741668  1
  Br  Br37  1  0.258332  0.741668  0.241668  1
  Br  Br38  1  0.485761  0.742002  0.028502  1
  Br  Br39  1  0.014239  0.257998  0.528502  1
