# generated using pymatgen
data_Rb(SnSe2)2
_symmetry_space_group_name_H-M   'P 1'
_cell_length_a   7.79091459
_cell_length_b   13.03976389
_cell_length_c   20.04669185
_cell_angle_alpha   90.00000000
_cell_angle_beta   90.00000000
_cell_angle_gamma   94.81107207
_symmetry_Int_Tables_number   1
_chemical_formula_structural   Rb(SnSe2)2
_chemical_formula_sum   'Rb8 Sn16 Se32'
_cell_volume   2029.40170475
_cell_formula_units_Z   8
loop_
 _symmetry_equiv_pos_site_id
 _symmetry_equiv_pos_as_xyz
  1  'x, y, z'
loop_
 _atom_site_type_symbol
 _atom_site_label
 _atom_site_symmetry_multiplicity
 _atom_site_fract_x
 _atom_site_fract_y
 _atom_site_fract_z
 _atom_site_occupancy
  Rb  Rb0  1  0.756807  0.419201  0.441271  1
  Rb  Rb1  1  0.243193  0.580799  0.558729  1
  Rb  Rb2  1  0.826644  0.416493  0.800190  1
  Rb  Rb3  1  0.673356  0.083507  0.300190  1
  Rb  Rb4  1  0.326644  0.916493  0.699810  1
  Rb  Rb5  1  0.256807  0.919201  0.058729  1
  Rb  Rb6  1  0.173356  0.583507  0.199810  1
  Rb  Rb7  1  0.743193  0.080799  0.941271  1
  Sn  Sn8  1  0.319219  0.174757  0.464240  1
  Sn  Sn9  1  0.862707  0.757534  0.361299  1
  Sn  Sn10  1  0.168906  0.289788  0.321071  1
  Sn  Sn11  1  0.860750  0.307319  0.124179  1
  Sn  Sn12  1  0.637293  0.742466  0.861299  1
  Sn  Sn13  1  0.360750  0.807319  0.375821  1
  Sn  Sn14  1  0.180781  0.325243  0.964240  1
  Sn  Sn15  1  0.137293  0.242466  0.638701  1
  Sn  Sn16  1  0.139250  0.692681  0.875821  1
  Sn  Sn17  1  0.680781  0.825243  0.535760  1
  Sn  Sn18  1  0.639250  0.192681  0.624179  1
  Sn  Sn19  1  0.331094  0.210212  0.821071  1
  Sn  Sn20  1  0.819219  0.674757  0.035760  1
  Sn  Sn21  1  0.668906  0.789788  0.178929  1
  Sn  Sn22  1  0.362707  0.257534  0.138701  1
  Sn  Sn23  1  0.831094  0.710212  0.678929  1
  Se  Se24  1  0.882591  0.336136  0.283406  1
  Se  Se25  1  0.135598  0.662816  0.021563  1
  Se  Se26  1  0.752819  0.864259  0.060537  1
  Se  Se27  1  0.923662  0.850226  0.866561  1
  Se  Se28  1  0.389583  0.856608  0.877992  1
  Se  Se29  1  0.870642  0.912266  0.442231  1
  Se  Se30  1  0.572850  0.637675  0.751796  1
  Se  Se31  1  0.617409  0.163864  0.783406  1
  Se  Se32  1  0.252819  0.364259  0.439463  1
  Se  Se33  1  0.576338  0.649774  0.366561  1
  Se  Se34  1  0.370642  0.412266  0.057769  1
  Se  Se35  1  0.364402  0.837184  0.521563  1
  Se  Se36  1  0.117409  0.663864  0.716594  1
  Se  Se37  1  0.423662  0.350226  0.633439  1
  Se  Se38  1  0.708741  0.597741  0.149780  1
  Se  Se39  1  0.247181  0.135741  0.939463  1
  Se  Se40  1  0.129358  0.087734  0.557769  1
  Se  Se41  1  0.927150  0.862325  0.251796  1
  Se  Se42  1  0.635598  0.162816  0.478437  1
  Se  Se43  1  0.291259  0.402259  0.850220  1
  Se  Se44  1  0.208741  0.097741  0.350220  1
  Se  Se45  1  0.864402  0.337184  0.978437  1
  Se  Se46  1  0.747181  0.635741  0.560537  1
  Se  Se47  1  0.629358  0.587734  0.942231  1
  Se  Se48  1  0.791259  0.902259  0.649780  1
  Se  Se49  1  0.072850  0.137675  0.748204  1
  Se  Se50  1  0.427150  0.362325  0.248204  1
  Se  Se51  1  0.076338  0.149774  0.133439  1
  Se  Se52  1  0.382591  0.836136  0.216594  1
  Se  Se53  1  0.889583  0.356608  0.622008  1
  Se  Se54  1  0.610417  0.143392  0.122008  1
  Se  Se55  1  0.110417  0.643392  0.377992  1
