# generated using pymatgen
data_KMo2P3O13
_symmetry_space_group_name_H-M   'P 1'
_cell_length_a   9.02546579
_cell_length_b   9.02633715
_cell_length_c   9.02633665
_cell_angle_alpha   105.44874573
_cell_angle_beta   111.01636915
_cell_angle_gamma   111.01637401
_symmetry_Int_Tables_number   1
_chemical_formula_structural   KMo2P3O13
_chemical_formula_sum   'K2 Mo4 P6 O26'
_cell_volume   571.15450283
_cell_formula_units_Z   2
loop_
 _symmetry_equiv_pos_site_id
 _symmetry_equiv_pos_as_xyz
  1  'x, y, z'
loop_
 _atom_site_type_symbol
 _atom_site_label
 _atom_site_symmetry_multiplicity
 _atom_site_fract_x
 _atom_site_fract_y
 _atom_site_fract_z
 _atom_site_occupancy
  K  K0  1  0.000000  0.000000  0.500000  1
  K  K1  1  0.500000  0.500000  0.000000  1
  Mo  Mo2  1  0.831780  0.673291  0.838660  1
  Mo  Mo3  1  0.331780  0.838660  0.673291  1
  Mo  Mo4  1  0.668220  0.161340  0.326709  1
  Mo  Mo5  1  0.168220  0.326709  0.161340  1
  P  P6  1  0.750000  0.988327  0.011673  1
  P  P7  1  0.437149  0.760516  0.350215  1
  P  P8  1  0.937149  0.350215  0.760516  1
  P  P9  1  0.062851  0.649785  0.239484  1
  P  P10  1  0.250000  0.011673  0.988327  1
  P  P11  1  0.562851  0.239484  0.649785  1
  O  O12  1  0.917554  0.103804  0.003664  1
  O  O13  1  0.288946  0.206750  0.056555  1
  O  O14  1  0.033919  0.461557  0.198316  1
  O  O15  1  0.788946  0.056555  0.206750  1
  O  O16  1  0.092114  0.346944  0.896202  1
  O  O17  1  0.769917  0.696918  0.648695  1
  O  O18  1  0.899609  0.252899  0.569900  1
  O  O19  1  0.082446  0.896196  0.996336  1
  O  O20  1  0.269917  0.648695  0.696918  1
  O  O21  1  0.230083  0.303082  0.351305  1
  O  O22  1  0.582446  0.996336  0.896196  1
  O  O23  1  0.592114  0.896202  0.346944  1
  O  O24  1  0.100391  0.747101  0.430100  1
  O  O25  1  0.711054  0.793250  0.943445  1
  O  O26  1  0.600391  0.430100  0.747101  1
  O  O27  1  0.211054  0.943445  0.793250  1
  O  O28  1  0.533919  0.198316  0.461557  1
  O  O29  1  0.907886  0.653056  0.103798  1
  O  O30  1  0.417554  0.003664  0.103804  1
  O  O31  1  0.466081  0.801684  0.538443  1
  O  O32  1  0.407886  0.103798  0.653056  1
  O  O33  1  0.966081  0.538443  0.801684  1
  O  O34  1  0.250000  0.760607  0.239393  1
  O  O35  1  0.399609  0.569900  0.252899  1
  O  O36  1  0.730083  0.351305  0.303082  1
  O  O37  1  0.750000  0.239393  0.760607  1
