# generated using pymatgen
data_MgAl2O4
_symmetry_space_group_name_H-M   'P 1'
_cell_length_a   5.77217263
_cell_length_b   5.77217316
_cell_length_c   34.67309655
_cell_angle_alpha   60.03821143
_cell_angle_beta   60.03820840
_cell_angle_gamma   60.00000402
_symmetry_Int_Tables_number   1
_chemical_formula_structural   MgAl2O4
_chemical_formula_sum   'Mg12 Al24 O48'
_cell_volume   817.34778360
_cell_formula_units_Z   12
loop_
 _symmetry_equiv_pos_site_id
 _symmetry_equiv_pos_as_xyz
  1  'x, y, z'
loop_
 _atom_site_type_symbol
 _atom_site_label
 _atom_site_symmetry_multiplicity
 _atom_site_fract_x
 _atom_site_fract_y
 _atom_site_fract_z
 _atom_site_occupancy
  Al  Al0  1  0.495445  0.495445  0.083246  1
  Al  Al1  1  0.495445  0.009631  0.083246  1
  Al  Al2  1  0.009631  0.495445  0.083246  1
  Al  Al3  1  0.496550  0.496550  0.250297  1
  Al  Al4  1  0.500819  0.500819  0.332924  1
  Al  Al5  1  0.496550  0.005120  0.250297  1
  Al  Al6  1  0.880013  0.880013  0.143326  1
  Al  Al7  1  0.005120  0.496550  0.250297  1
  Al  Al8  1  0.500655  0.500655  0.416298  1
  Al  Al9  1  0.500783  0.500783  0.499609  1
  Al  Al10  1  0.500655  0.000905  0.416298  1
  Al  Al11  1  0.000905  0.500655  0.416298  1
  Al  Al12  1  0.500305  0.500305  0.583111  1
  Al  Al13  1  0.500724  0.500724  0.666305  1
  Al  Al14  1  0.500305  0.000723  0.583111  1
  Al  Al15  1  0.000723  0.500305  0.583111  1
  Al  Al16  1  0.500147  0.500147  0.749760  1
  Al  Al17  1  0.006017  0.498112  0.916294  1
  Al  Al18  1  0.501797  0.501797  0.832435  1
  Al  Al19  1  0.500147  0.001146  0.749760  1
  Al  Al20  1  0.001146  0.500147  0.749760  1
  Al  Al21  1  0.498112  0.498112  0.916294  1
  Al  Al22  1  0.498112  0.006017  0.916294  1
  Al  Al23  1  0.876296  0.876296  0.978519  1
  Mg  Mg24  1  0.120718  0.120718  0.022974  1
  Mg  Mg25  1  0.120070  0.120070  0.189965  1
  Mg  Mg26  1  0.496591  0.496591  0.168372  1
  Mg  Mg27  1  0.124024  0.124024  0.354655  1
  Mg  Mg28  1  0.125862  0.125862  0.520402  1
  Mg  Mg29  1  0.125677  0.125677  0.687162  1
  Mg  Mg30  1  0.878759  0.878759  0.310620  1
  Mg  Mg31  1  0.125019  0.125019  0.854158  1
  Mg  Mg32  1  0.875550  0.875550  0.478892  1
  Mg  Mg33  1  0.875450  0.875450  0.645608  1
  Mg  Mg34  1  0.498321  0.498321  0.000840  1
  Mg  Mg35  1  0.873850  0.873850  0.813075  1
  O  O36  1  0.254163  0.254163  0.046586  1
  O  O37  1  0.260252  0.260252  0.119874  1
  O  O38  1  0.254163  0.712161  0.046586  1
  O  O39  1  0.712161  0.254163  0.046586  1
  O  O40  1  0.250516  0.250516  0.214526  1
  O  O41  1  0.272112  0.752143  0.120600  1
  O  O42  1  0.745496  0.745496  0.043919  1
  O  O43  1  0.260325  0.260325  0.286504  1
  O  O44  1  0.250516  0.711813  0.214526  1
  O  O45  1  0.752143  0.272112  0.120600  1
  O  O46  1  0.711813  0.250516  0.214526  1
  O  O47  1  0.752143  0.752143  0.120600  1
  O  O48  1  0.263182  0.263182  0.377517  1
  O  O49  1  0.297154  0.734632  0.288931  1
  O  O50  1  0.263505  0.263505  0.451580  1
  O  O51  1  0.263182  0.708535  0.377517  1
  O  O52  1  0.734632  0.297154  0.288931  1
  O  O53  1  0.750388  0.750388  0.208139  1
  O  O54  1  0.708535  0.263182  0.377517  1
  O  O55  1  0.734632  0.734632  0.288931  1
  O  O56  1  0.262973  0.262973  0.544163  1
  O  O57  1  0.291009  0.735949  0.456182  1
  O  O58  1  0.263483  0.263483  0.618258  1
  O  O59  1  0.735949  0.291009  0.456182  1
  O  O60  1  0.737519  0.737519  0.381240  1
  O  O61  1  0.262973  0.709076  0.544163  1
  O  O62  1  0.709076  0.262973  0.544163  1
  O  O63  1  0.735949  0.735949  0.456182  1
  O  O64  1  0.263064  0.263064  0.710820  1
  O  O65  1  0.290565  0.735769  0.622983  1
  O  O66  1  0.263251  0.263251  0.785042  1
  O  O67  1  0.735769  0.290565  0.622983  1
  O  O68  1  0.736167  0.736167  0.548584  1
  O  O69  1  0.263064  0.708952  0.710820  1
  O  O70  1  0.708952  0.263064  0.710820  1
  O  O71  1  0.735769  0.735769  0.622983  1
  O  O72  1  0.265820  0.265820  0.876646  1
  O  O73  1  0.289718  0.736421  0.789574  1
  O  O74  1  0.736421  0.289718  0.789574  1
  O  O75  1  0.735976  0.735976  0.715345  1
  O  O76  1  0.262808  0.262808  0.951929  1
  O  O77  1  0.265820  0.708481  0.876646  1
  O  O78  1  0.708481  0.265820  0.876646  1
  O  O79  1  0.736421  0.736421  0.789574  1
  O  O80  1  0.263671  0.755107  0.954352  1
  O  O81  1  0.731817  0.731817  0.884091  1
  O  O82  1  0.755107  0.263671  0.954352  1
  O  O83  1  0.755107  0.755107  0.954352  1
