# generated using pymatgen
data_HoGa3
_symmetry_space_group_name_H-M   'P 1'
_cell_length_a   6.14470646
_cell_length_b   6.14470686
_cell_length_c   14.18723256
_cell_angle_alpha   90.00000000
_cell_angle_beta   90.00000000
_cell_angle_gamma   119.99999787
_symmetry_Int_Tables_number   1
_chemical_formula_structural   HoGa3
_chemical_formula_sum   'Ho6 Ga18'
_cell_volume   463.90669341
_cell_formula_units_Z   6
loop_
 _symmetry_equiv_pos_site_id
 _symmetry_equiv_pos_as_xyz
  1  'x, y, z'
loop_
 _atom_site_type_symbol
 _atom_site_label
 _atom_site_symmetry_multiplicity
 _atom_site_fract_x
 _atom_site_fract_y
 _atom_site_fract_z
 _atom_site_occupancy
  Ho  Ho0  1  0.666667  0.333333  0.907988  1
  Ho  Ho1  1  0.333333  0.666667  0.407988  1
  Ho  Ho2  1  0.333333  0.666667  0.092012  1
  Ho  Ho3  1  0.666667  0.333333  0.592012  1
  Ho  Ho4  1  0.000000  0.000000  0.750000  1
  Ho  Ho5  1  0.000000  0.000000  0.250000  1
  Ga  Ga6  1  0.521548  0.043095  0.250000  1
  Ga  Ga7  1  0.832077  0.167923  0.418702  1
  Ga  Ga8  1  0.335847  0.167923  0.081298  1
  Ga  Ga9  1  0.832077  0.664153  0.418702  1
  Ga  Ga10  1  0.167923  0.335847  0.581298  1
  Ga  Ga11  1  0.478452  0.956905  0.750000  1
  Ga  Ga12  1  0.167923  0.832077  0.918702  1
  Ga  Ga13  1  0.335847  0.167923  0.418702  1
  Ga  Ga14  1  0.832077  0.664153  0.081298  1
  Ga  Ga15  1  0.043095  0.521548  0.750000  1
  Ga  Ga16  1  0.664153  0.832077  0.581298  1
  Ga  Ga17  1  0.664153  0.832077  0.918702  1
  Ga  Ga18  1  0.956905  0.478452  0.250000  1
  Ga  Ga19  1  0.521548  0.478452  0.250000  1
  Ga  Ga20  1  0.167923  0.832077  0.581298  1
  Ga  Ga21  1  0.832077  0.167923  0.081298  1
  Ga  Ga22  1  0.167923  0.335847  0.918702  1
  Ga  Ga23  1  0.478452  0.521548  0.750000  1
