# generated using pymatgen
data_Ba2Ca(BO3)2
_symmetry_space_group_name_H-M   'P 1'
_cell_length_a   5.49259025
_cell_length_b   5.60702251
_cell_length_c   6.68078947
_cell_angle_alpha   66.13042297
_cell_angle_beta   65.72635886
_cell_angle_gamma   60.67306330
_symmetry_Int_Tables_number   1
_chemical_formula_structural   Ba2Ca(BO3)2
_chemical_formula_sum   'Ba2 Ca1 B2 O6'
_cell_volume   158.08065785
_cell_formula_units_Z   1
loop_
 _symmetry_equiv_pos_site_id
 _symmetry_equiv_pos_as_xyz
  1  'x, y, z'
loop_
 _atom_site_type_symbol
 _atom_site_label
 _atom_site_symmetry_multiplicity
 _atom_site_fract_x
 _atom_site_fract_y
 _atom_site_fract_z
 _atom_site_occupancy
  O  O0  1  0.722457  0.379014  0.176064  1
  O  O1  1  0.736899  0.237307  0.727982  1
  B  B2  1  0.563002  0.630188  0.243795  1
  O  O3  1  0.702178  0.762690  0.272018  1
  Ba  Ba4  1  0.211359  0.261874  0.315409  1
  Ba  Ba5  1  0.788641  0.738126  0.684591  1
  Ca  Ca6  1  1.000000  0.000000  1.000000  1
  B  B7  1  0.436998  0.369812  0.756205  1
  O  O8  1  0.277543  0.620986  0.823936  1
  O  O9  1  0.297822  0.237310  0.727982  1
  O  O10  1  0.263101  0.762693  0.272017  1
