# generated using pymatgen
data_SnH16C4(Br3N)2
_symmetry_space_group_name_H-M   'P 1'
_cell_length_a   7.74246793
_cell_length_b   7.77723559
_cell_length_c   15.13975953
_cell_angle_alpha   90.00000000
_cell_angle_beta   90.00000000
_cell_angle_gamma   90.00000000
_symmetry_Int_Tables_number   1
_chemical_formula_structural   SnH16C4(Br3N)2
_chemical_formula_sum   'Sn2 H32 C8 Br12 N4'
_cell_volume   911.64057679
_cell_formula_units_Z   2
loop_
 _symmetry_equiv_pos_site_id
 _symmetry_equiv_pos_as_xyz
  1  'x, y, z'
loop_
 _atom_site_type_symbol
 _atom_site_label
 _atom_site_symmetry_multiplicity
 _atom_site_fract_x
 _atom_site_fract_y
 _atom_site_fract_z
 _atom_site_occupancy
  Sn  Sn0  1  0.500000  0.500000  0.500000  1
  Sn  Sn1  1  0.000000  0.000000  0.000000  1
  H  H2  1  0.615528  0.854423  0.739065  1
  H  H3  1  0.606324  0.138433  0.100472  1
  H  H4  1  0.615528  0.145577  0.260935  1
  H  H5  1  0.000000  0.919031  0.432035  1
  H  H6  1  0.893676  0.361567  0.600472  1
  H  H7  1  0.884003  0.081361  0.670548  1
  H  H8  1  0.500000  0.037073  0.781875  1
  H  H9  1  0.500000  0.962927  0.218125  1
  H  H10  1  0.500000  0.419031  0.067965  1
  H  H11  1  0.115997  0.918639  0.329452  1
  H  H12  1  0.384003  0.418639  0.170548  1
  H  H13  1  0.893676  0.638433  0.399528  1
  H  H14  1  0.115528  0.645577  0.239065  1
  H  H15  1  0.393676  0.861567  0.899528  1
  H  H16  1  0.000000  0.462927  0.281875  1
  H  H17  1  0.615997  0.418639  0.170548  1
  H  H18  1  0.384472  0.145577  0.260935  1
  H  H19  1  0.115997  0.081361  0.670548  1
  H  H20  1  0.106324  0.638433  0.399528  1
  H  H21  1  0.500000  0.580969  0.932035  1
  H  H22  1  0.615997  0.581361  0.829452  1
  H  H23  1  0.384472  0.854423  0.739065  1
  H  H24  1  0.000000  0.080969  0.567965  1
  H  H25  1  0.884472  0.354423  0.760935  1
  H  H26  1  0.393676  0.138433  0.100472  1
  H  H27  1  0.106324  0.361567  0.600472  1
  H  H28  1  0.884003  0.918639  0.329452  1
  H  H29  1  0.115528  0.354423  0.760935  1
  H  H30  1  0.000000  0.537073  0.718125  1
  H  H31  1  0.384003  0.581361  0.829452  1
  H  H32  1  0.606324  0.861567  0.899528  1
  H  H33  1  0.884472  0.645577  0.239065  1
  C  C34  1  0.500000  0.897111  0.774551  1
  C  C35  1  0.000000  0.873704  0.363690  1
  C  C36  1  0.000000  0.126296  0.636310  1
  C  C37  1  0.000000  0.397111  0.725449  1
  C  C38  1  0.500000  0.373704  0.136310  1
  C  C39  1  0.500000  0.626296  0.863690  1
  C  C40  1  0.500000  0.102889  0.225449  1
  C  C41  1  0.000000  0.602889  0.274551  1
  Br  Br42  1  0.000000  0.183271  0.147897  1
  Br  Br43  1  0.253027  0.699477  0.565932  1
  Br  Br44  1  0.746973  0.300523  0.434068  1
  Br  Br45  1  0.500000  0.316729  0.647897  1
  Br  Br46  1  0.246973  0.199477  0.934068  1
  Br  Br47  1  0.500000  0.683271  0.352103  1
  Br  Br48  1  0.753027  0.199477  0.934068  1
  Br  Br49  1  0.246973  0.800523  0.065932  1
  Br  Br50  1  0.753027  0.800523  0.065932  1
  Br  Br51  1  0.000000  0.816729  0.852103  1
  Br  Br52  1  0.253027  0.300523  0.434068  1
  Br  Br53  1  0.746973  0.699477  0.565932  1
  N  N54  1  0.000000  0.681871  0.364350  1
  N  N55  1  0.000000  0.318129  0.635650  1
  N  N56  1  0.500000  0.818129  0.864350  1
  N  N57  1  0.500000  0.181871  0.135650  1
