# generated using pymatgen
data_CrBiO3
_symmetry_space_group_name_H-M   'P 1'
_cell_length_a   5.46711689
_cell_length_b   5.68390563
_cell_length_c   7.83808603
_cell_angle_alpha   90.00000000
_cell_angle_beta   90.00000000
_cell_angle_gamma   90.00000000
_symmetry_Int_Tables_number   1
_chemical_formula_structural   CrBiO3
_chemical_formula_sum   'Cr4 Bi4 O12'
_cell_volume   243.56520373
_cell_formula_units_Z   4
loop_
 _symmetry_equiv_pos_site_id
 _symmetry_equiv_pos_as_xyz
  1  'x, y, z'
loop_
 _atom_site_type_symbol
 _atom_site_label
 _atom_site_symmetry_multiplicity
 _atom_site_fract_x
 _atom_site_fract_y
 _atom_site_fract_z
 _atom_site_occupancy
  Cr  Cr0  1  0.000000  0.500000  0.500000  1
  Cr  Cr1  1  0.000000  0.500000  0.000000  1
  Cr  Cr2  1  0.500000  0.000000  0.000000  1
  Cr  Cr3  1  0.500000  0.000000  0.500000  1
  Bi  Bi4  1  0.009980  0.947440  0.750000  1
  Bi  Bi5  1  0.990020  0.052560  0.250000  1
  Bi  Bi6  1  0.509980  0.552560  0.250000  1
  Bi  Bi7  1  0.490020  0.447440  0.750000  1
  O  O8  1  0.905664  0.528410  0.750000  1
  O  O9  1  0.803518  0.799474  0.454265  1
  O  O10  1  0.696482  0.299474  0.045735  1
  O  O11  1  0.696482  0.299474  0.454265  1
  O  O12  1  0.405664  0.971590  0.250000  1
  O  O13  1  0.303518  0.700526  0.545735  1
  O  O14  1  0.803518  0.799474  0.045735  1
  O  O15  1  0.196482  0.200526  0.545735  1
  O  O16  1  0.196482  0.200526  0.954265  1
  O  O17  1  0.094336  0.471590  0.250000  1
  O  O18  1  0.594336  0.028410  0.750000  1
  O  O19  1  0.303518  0.700526  0.954265  1
