# generated using pymatgen
data_CuAs2S8N8(OF7)4
_symmetry_space_group_name_H-M   'P 1'
_cell_length_a   12.90929273
_cell_length_b   12.90929231
_cell_length_c   12.90929235
_cell_angle_alpha   89.53376684
_cell_angle_beta   120.26954567
_cell_angle_gamma   120.26954282
_symmetry_Int_Tables_number   1
_chemical_formula_structural   CuAs2S8N8(OF7)4
_chemical_formula_sum   'Cu2 As4 S16 N16 O8 F56'
_cell_volume   1514.96896893
_cell_formula_units_Z   2
loop_
 _symmetry_equiv_pos_site_id
 _symmetry_equiv_pos_as_xyz
  1  'x, y, z'
loop_
 _atom_site_type_symbol
 _atom_site_label
 _atom_site_symmetry_multiplicity
 _atom_site_fract_x
 _atom_site_fract_y
 _atom_site_fract_z
 _atom_site_occupancy
  Cu  Cu0  1  0.750000  0.625000  0.875000  1
  Cu  Cu1  1  0.250000  0.375000  0.125000  1
  As  As2  1  0.250000  0.126978  0.876978  1
  As  As3  1  0.750000  0.873022  0.123022  1
  As  As4  1  0.250000  0.623022  0.373022  1
  As  As5  1  0.750000  0.376978  0.626978  1
  S  S6  1  0.754797  0.251365  0.149115  1
  S  S7  1  0.914686  0.152586  0.905104  1
  S  S8  1  0.414686  0.509582  0.762100  1
  S  S9  1  0.585314  0.490418  0.237900  1
  S  S10  1  0.397750  0.003432  0.248635  1
  S  S11  1  0.897750  0.649115  0.394318  1
  S  S12  1  0.085314  0.847414  0.094896  1
  S  S13  1  0.745203  0.894318  0.496568  1
  S  S14  1  0.102250  0.350885  0.605682  1
  S  S15  1  0.245203  0.748635  0.850885  1
  S  S16  1  0.254797  0.105682  0.503432  1
  S  S17  1  0.247482  0.594896  0.009582  1
  S  S18  1  0.752518  0.405104  0.990418  1
  S  S19  1  0.602250  0.996568  0.751365  1
  S  S20  1  0.252518  0.262100  0.347414  1
  S  S21  1  0.747482  0.737900  0.652586  1
  N  N22  1  0.244288  0.637502  0.891693  1
  N  N23  1  0.755712  0.362498  0.108307  1
  N  N24  1  0.033532  0.262364  0.016154  1
  N  N25  1  0.466468  0.482623  0.228832  1
  N  N26  1  0.744288  0.852596  0.606787  1
  N  N27  1  0.245809  0.893213  0.137502  1
  N  N28  1  0.533532  0.517377  0.771168  1
  N  N29  1  0.246210  0.483846  0.017377  1
  N  N30  1  0.254191  0.391693  0.647404  1
  N  N31  1  0.753790  0.516154  0.982623  1
  N  N32  1  0.253790  0.271168  0.237636  1
  N  N33  1  0.754191  0.106787  0.862498  1
  N  N34  1  0.966468  0.737636  0.983846  1
  N  N35  1  0.745809  0.608307  0.352596  1
  N  N36  1  0.746210  0.728832  0.762364  1
  N  N37  1  0.255712  0.147404  0.393213  1
  O  O38  1  0.482274  0.982800  0.741839  1
  O  O39  1  0.259039  0.999474  0.517200  1
  O  O40  1  0.982274  0.240434  0.499474  1
  O  O41  1  0.240961  0.758161  0.740434  1
  O  O42  1  0.759039  0.241839  0.259566  1
  O  O43  1  0.517726  0.017200  0.258161  1
  O  O44  1  0.017726  0.759566  0.500526  1
  O  O45  1  0.740961  0.000526  0.482800  1
  F  F46  1  0.903648  0.024132  0.900445  1
  F  F47  1  0.123901  0.087321  0.499764  1
  F  F48  1  0.622911  0.780489  0.370039  1
  F  F49  1  0.377600  0.724623  0.125870  1
  F  F50  1  0.596352  0.496797  0.120484  1
  F  F51  1  0.123687  0.599555  0.003203  1
  F  F52  1  0.750000  0.474667  0.724667  1
  F  F53  1  0.888371  0.516110  0.627565  1
  F  F54  1  0.410450  0.129961  0.252872  1
  F  F55  1  0.612286  0.734478  0.122570  1
  F  F56  1  0.750000  0.280405  0.530405  1
  F  F57  1  0.750000  0.775333  0.025333  1
  F  F58  1  0.112286  0.989716  0.877808  1
  F  F59  1  0.622400  0.275377  0.874130  1
  F  F60  1  0.912443  0.536580  0.412679  1
  F  F61  1  0.877600  0.751730  0.652976  1
  F  F62  1  0.388371  0.760806  0.372261  1
  F  F63  1  0.623687  0.620484  0.524132  1
  F  F64  1  0.122400  0.248270  0.347024  1
  F  F65  1  0.611629  0.239194  0.627739  1
  F  F66  1  0.098753  0.847024  0.224623  1
  F  F67  1  0.250000  0.224667  0.974667  1
  F  F68  1  0.388545  0.127739  0.016110  1
  F  F69  1  0.377089  0.219511  0.629961  1
  F  F70  1  0.587557  1.000236  0.624137  1
  F  F71  1  0.376099  0.875863  0.963420  1
  F  F72  1  0.589550  0.870039  0.747128  1
  F  F73  1  0.403648  0.503203  0.879516  1
  F  F74  1  0.376313  0.379516  0.475868  1
  F  F75  1  0.901247  0.152976  0.775377  1
  F  F76  1  0.089550  0.342422  0.719511  1
  F  F77  1  0.250000  0.525333  0.275333  1
  F  F78  1  0.412443  -0.000236  0.375863  1
  F  F79  1  0.111455  0.127565  0.739194  1
  F  F80  1  0.876313  0.400445  0.996797  1
  F  F81  1  0.387714  0.265522  0.877430  1
  F  F82  1  0.910450  0.657578  0.280489  1
  F  F83  1  0.087557  0.463420  0.587321  1
  F  F84  1  0.876099  0.912679  0.500236  1
  F  F85  1  0.598753  0.374130  0.251730  1
  F  F86  1  0.611455  0.872261  0.983890  1
  F  F87  1  0.750000  0.969595  0.219595  1
  F  F88  1  0.887714  0.010284  0.122192  1
  F  F89  1  0.611908  0.377430  0.489716  1
  F  F90  1  0.250000  0.030405  0.780405  1
  F  F91  1  0.111629  0.483890  0.372435  1
  F  F92  1  0.401247  0.625870  0.748270  1
  F  F93  1  0.877089  0.247128  0.157578  1
  F  F94  1  0.388092  0.622570  0.510284  1
  F  F95  1  0.096352  0.975868  0.099555  1
  F  F96  1  0.122911  0.752872  0.842422  1
  F  F97  1  0.111908  0.622192  0.234478  1
  F  F98  1  0.888545  0.872435  0.260806  1
  F  F99  1  0.250000  0.719595  0.469595  1
  F  F100  1  0.623901  0.124137  0.036580  1
  F  F101  1  0.888092  0.377808  0.765522  1
