# generated using pymatgen
data_P2Pb3O8
_symmetry_space_group_name_H-M   'P 1'
_cell_length_a   5.64109991
_cell_length_b   7.58583701
_cell_length_c   9.54364493
_cell_angle_alpha   101.86721812
_cell_angle_beta   90.00000000
_cell_angle_gamma   111.82777542
_symmetry_Int_Tables_number   1
_chemical_formula_structural   P2Pb3O8
_chemical_formula_sum   'P4 Pb6 O16'
_cell_volume   369.69701897
_cell_formula_units_Z   2
loop_
 _symmetry_equiv_pos_site_id
 _symmetry_equiv_pos_as_xyz
  1  'x, y, z'
loop_
 _atom_site_type_symbol
 _atom_site_label
 _atom_site_symmetry_multiplicity
 _atom_site_fract_x
 _atom_site_fract_y
 _atom_site_fract_z
 _atom_site_occupancy
  P  P0  1  0.354139  0.208279  0.449909  1
  P  P1  1  0.645861  0.791721  0.550091  1
  P  P2  1  0.854139  0.208279  0.949909  1
  P  P3  1  0.145861  0.791721  0.050091  1
  Pb  Pb4  1  0.929136  0.358272  0.651191  1
  Pb  Pb5  1  0.070864  0.641728  0.348809  1
  Pb  Pb6  1  0.570864  0.641728  0.848809  1
  Pb  Pb7  1  0.429136  0.358272  0.151191  1
  Pb  Pb8  1  0.750000  0.000000  0.250000  1
  Pb  Pb9  1  0.250000  0.000000  0.750000  1
  O  O10  1  0.883908  0.716797  0.117824  1
  O  O11  1  0.616092  0.283203  0.382176  1
  O  O12  1  0.116092  0.283203  0.882176  1
  O  O13  1  0.667111  0.283203  0.882176  1
  O  O14  1  0.383908  0.716797  0.617824  1
  O  O15  1  0.332889  0.716797  0.117824  1
  O  O16  1  0.105713  0.711425  0.883976  1
  O  O17  1  0.394287  0.288575  0.616024  1
  O  O18  1  0.741313  0.982626  0.917272  1
  O  O19  1  0.167111  0.283203  0.382176  1
  O  O20  1  0.605713  0.711425  0.383976  1
  O  O21  1  0.832889  0.716797  0.617824  1
  O  O22  1  0.258687  0.017374  0.082728  1
  O  O23  1  0.894287  0.288575  0.116024  1
  O  O24  1  0.758687  0.017374  0.582728  1
  O  O25  1  0.241313  0.982626  0.417272  1
