# generated using pymatgen
data_Zr2Si4Ru3
_symmetry_space_group_name_H-M   'P 1'
_cell_length_a   5.39080870
_cell_length_b   9.91847063
_cell_length_c   10.99964377
_cell_angle_alpha   79.38082458
_cell_angle_beta   75.81552225
_cell_angle_gamma   74.23120930
_symmetry_Int_Tables_number   1
_chemical_formula_structural   Zr2Si4Ru3
_chemical_formula_sum   'Zr8 Si16 Ru12'
_cell_volume   544.36229926
_cell_formula_units_Z   4
loop_
 _symmetry_equiv_pos_site_id
 _symmetry_equiv_pos_as_xyz
  1  'x, y, z'
loop_
 _atom_site_type_symbol
 _atom_site_label
 _atom_site_symmetry_multiplicity
 _atom_site_fract_x
 _atom_site_fract_y
 _atom_site_fract_z
 _atom_site_occupancy
  Ru  Ru0  1  0.868408  0.627984  0.414948  1
  Ru  Ru1  1  0.911340  0.872016  0.085052  1
  Ru  Ru2  1  0.131592  0.372015  0.585052  1
  Ru  Ru3  1  0.088660  0.127985  0.914948  1
  Si  Si4  1  0.746202  0.120311  0.105109  1
  Si  Si5  1  0.971622  0.379689  0.394891  1
  Si  Si6  1  0.253798  0.879689  0.894891  1
  Si  Si7  1  0.028378  0.620311  0.605109  1
  Zr  Zr8  1  0.706431  0.970120  0.362821  1
  Zr  Zr9  1  0.039372  0.529880  0.137179  1
  Zr  Zr10  1  0.293569  0.029880  0.637179  1
  Zr  Zr11  1  0.960628  0.470120  0.862821  1
  Ru  Ru12  1  0.352917  0.255322  0.220509  1
  Ru  Ru13  1  0.828748  0.244678  0.279491  1
  Ru  Ru14  1  0.647083  0.744678  0.779491  1
  Ru  Ru15  1  0.171252  0.755322  0.720509  1
  Si  Si16  1  0.611536  0.425507  0.104478  1
  Si  Si17  1  0.141520  0.074493  0.395522  1
  Si  Si18  1  0.388464  0.574493  0.895522  1
  Si  Si19  1  0.858480  0.925507  0.604478  1
  Si  Si20  1  0.427328  0.224622  0.435018  1
  Si  Si21  1  0.086969  0.275378  0.064982  1
  Si  Si22  1  0.572672  0.775378  0.564982  1
  Si  Si23  1  0.913031  0.724622  0.935018  1
  Ru  Ru24  1  0.482999  0.686976  0.065812  1
  Ru  Ru25  1  0.235787  0.813024  0.434188  1
  Ru  Ru26  1  0.517001  0.313024  0.934188  1
  Ru  Ru27  1  0.764213  0.186976  0.565812  1
  Zr  Zr28  1  0.446569  0.501672  0.351647  1
  Zr  Zr29  1  0.299888  0.998328  0.148353  1
  Zr  Zr30  1  0.553431  0.498328  0.648353  1
  Zr  Zr31  1  0.700112  0.001672  0.851647  1
  Si  Si32  1  0.619872  0.750000  0.250000  1
  Si  Si33  1  0.380128  0.250000  0.750000  1
  Si  Si34  1  0.130108  0.750000  0.250000  1
  Si  Si35  1  0.869892  0.250000  0.750000  1
