# generated using pymatgen
data_SbS7IF6
_symmetry_space_group_name_H-M   'P 1'
_cell_length_a   9.42226040
_cell_length_b   12.22649018
_cell_length_c   12.77359792
_cell_angle_alpha   90.00000000
_cell_angle_beta   90.00000000
_cell_angle_gamma   90.00000000
_symmetry_Int_Tables_number   1
_chemical_formula_structural   SbS7IF6
_chemical_formula_sum   'Sb4 S28 I4 F24'
_cell_volume   1471.53347983
_cell_formula_units_Z   4
loop_
 _symmetry_equiv_pos_site_id
 _symmetry_equiv_pos_as_xyz
  1  'x, y, z'
loop_
 _atom_site_type_symbol
 _atom_site_label
 _atom_site_symmetry_multiplicity
 _atom_site_fract_x
 _atom_site_fract_y
 _atom_site_fract_z
 _atom_site_occupancy
  Sb  Sb0  1  0.071075  0.595929  0.364084  1
  Sb  Sb1  1  0.571075  0.404071  0.135916  1
  Sb  Sb2  1  0.428925  0.095929  0.635916  1
  Sb  Sb3  1  0.928925  0.904071  0.864084  1
  S  S4  1  0.532622  0.743827  0.709304  1
  S  S5  1  0.942480  0.111609  0.184784  1
  S  S6  1  0.467378  0.756173  0.209304  1
  S  S7  1  0.706359  0.691027  0.570881  1
  S  S8  1  0.293641  0.808973  0.070881  1
  S  S9  1  0.096090  0.370775  0.038992  1
  S  S10  1  0.993293  0.525995  0.753722  1
  S  S11  1  0.596090  0.629225  0.461008  1
  S  S12  1  0.006707  0.974005  0.253722  1
  S  S13  1  0.057520  0.388391  0.684784  1
  S  S14  1  0.206359  0.308973  0.929119  1
  S  S15  1  0.656544  0.432400  0.633056  1
  S  S16  1  0.793641  0.191027  0.429119  1
  S  S17  1  0.403910  0.870775  0.961008  1
  S  S18  1  0.156544  0.567600  0.866944  1
  S  S19  1  0.032622  0.256173  0.790696  1
  S  S20  1  0.903910  0.129225  0.538992  1
  S  S21  1  0.967378  0.243827  0.290696  1
  S  S22  1  0.433671  0.048391  0.996206  1
  S  S23  1  0.843456  0.932400  0.366944  1
  S  S24  1  0.343456  0.067600  0.133056  1
  S  S25  1  0.557520  0.611609  0.815216  1
  S  S26  1  0.506707  0.025995  0.246278  1
  S  S27  1  0.442480  0.888391  0.315216  1
  S  S28  1  0.566329  0.451609  0.496206  1
  S  S29  1  0.493293  0.474005  0.746278  1
  S  S30  1  0.933671  0.951609  0.503794  1
  S  S31  1  0.066329  0.548391  0.003794  1
  I  I32  1  0.321179  0.717670  0.614164  1
  I  I33  1  0.178821  0.217670  0.385836  1
  I  I34  1  0.821179  0.282330  0.885836  1
  I  I35  1  0.678821  0.782330  0.114164  1
  F  F36  1  0.327946  0.208613  0.711370  1
  F  F37  1  0.172054  0.708613  0.288630  1
  F  F38  1  0.574267  0.497547  0.256586  1
  F  F39  1  0.072049  0.690001  0.487399  1
  F  F40  1  0.827946  0.791387  0.788630  1
  F  F41  1  0.895633  0.659727  0.320111  1
  F  F42  1  0.251790  0.036703  0.588432  1
  F  F43  1  0.529734  0.986424  0.557576  1
  F  F44  1  0.748210  0.463297  0.088432  1
  F  F45  1  0.751790  0.963297  0.911568  1
  F  F46  1  0.927951  0.809999  0.987399  1
  F  F47  1  0.074267  0.502453  0.243414  1
  F  F48  1  0.104367  0.840273  0.820111  1
  F  F49  1  0.572049  0.309999  0.012601  1
  F  F50  1  0.672054  0.291387  0.211370  1
  F  F51  1  0.395633  0.340273  0.179889  1
  F  F52  1  0.425733  1.002453  0.756586  1
  F  F53  1  0.029734  0.013576  0.942424  1
  F  F54  1  0.427951  0.190001  0.512601  1
  F  F55  1  0.970266  0.486424  0.442424  1
  F  F56  1  0.470266  0.513576  0.057576  1
  F  F57  1  0.604367  0.159727  0.679889  1
  F  F58  1  0.248210  0.536703  0.411568  1
  F  F59  1  0.925733  -0.002453  0.743414  1
