# generated using pymatgen
data_SbBr(OF3)2
_symmetry_space_group_name_H-M   'P 1'
_cell_length_a   5.96119936
_cell_length_b   7.28053242
_cell_length_c   7.65430897
_cell_angle_alpha   92.99034563
_cell_angle_beta   90.00000000
_cell_angle_gamma   90.00000000
_symmetry_Int_Tables_number   1
_chemical_formula_structural   SbBr(OF3)2
_chemical_formula_sum   'Sb2 Br2 O4 F12'
_cell_volume   331.75006007
_cell_formula_units_Z   2
loop_
 _symmetry_equiv_pos_site_id
 _symmetry_equiv_pos_as_xyz
  1  'x, y, z'
loop_
 _atom_site_type_symbol
 _atom_site_label
 _atom_site_symmetry_multiplicity
 _atom_site_fract_x
 _atom_site_fract_y
 _atom_site_fract_z
 _atom_site_occupancy
  Sb  Sb0  1  0.466840  0.250000  0.250000  1
  Sb  Sb1  1  0.533160  0.750000  0.750000  1
  Br  Br2  1  0.145128  0.250000  0.750000  1
  Br  Br3  1  0.854872  0.750000  0.250000  1
  O  O4  1  0.991768  0.282408  0.923331  1
  O  O5  1  0.008232  0.717592  0.076669  1
  O  O6  1  0.991768  0.217592  0.576669  1
  O  O7  1  0.008232  0.782408  0.423331  1
  F  F8  1  0.475724  0.283900  1.003048  1
  F  F9  1  0.705662  0.068015  0.218584  1
  F  F10  1  0.705662  0.431985  0.281416  1
  F  F11  1  0.524276  0.716100  -0.003048  1
  F  F12  1  0.246854  0.437340  0.285158  1
  F  F13  1  0.475724  0.216100  0.496952  1
  F  F14  1  0.294338  0.568015  0.718584  1
  F  F15  1  0.753146  0.937340  0.785158  1
  F  F16  1  0.524276  0.783900  0.503048  1
  F  F17  1  0.246854  0.062660  0.214842  1
  F  F18  1  0.294338  0.931985  0.781416  1
  F  F19  1  0.753146  0.562660  0.714842  1
