# generated using pymatgen
data_K4Na2TeO6
_symmetry_space_group_name_H-M   'P 1'
_cell_length_a   6.77673788
_cell_length_b   6.76621733
_cell_length_c   10.06244559
_cell_angle_alpha   90.00000000
_cell_angle_beta   90.00000000
_cell_angle_gamma   114.38485761
_symmetry_Int_Tables_number   1
_chemical_formula_structural   K4Na2TeO6
_chemical_formula_sum   'K8 Na4 Te2 O12'
_cell_volume   420.23262673
_cell_formula_units_Z   2
loop_
 _symmetry_equiv_pos_site_id
 _symmetry_equiv_pos_as_xyz
  1  'x, y, z'
loop_
 _atom_site_type_symbol
 _atom_site_label
 _atom_site_symmetry_multiplicity
 _atom_site_fract_x
 _atom_site_fract_y
 _atom_site_fract_z
 _atom_site_occupancy
  K  K0  1  0.066682  0.753922  0.512193  1
  K  K1  1  0.514190  0.012625  0.677205  1
  K  K2  1  0.433318  0.746078  0.012193  1
  K  K3  1  0.485810  0.987375  0.322795  1
  K  K4  1  0.014190  0.512625  0.822795  1
  K  K5  1  0.566682  0.253922  0.987807  1
  K  K6  1  0.985810  0.487375  0.177205  1
  K  K7  1  0.933318  0.246078  0.487807  1
  Na  Na8  1  0.214292  0.226370  0.742010  1
  Na  Na9  1  0.785708  0.773630  0.257990  1
  Na  Na10  1  0.285708  0.273630  0.242010  1
  Na  Na11  1  0.714292  0.726370  0.757990  1
  Te  Te12  1  0.000000  0.000000  0.000000  1
  Te  Te13  1  0.500000  0.500000  0.500000  1
  O  O14  1  0.843537  0.065724  0.849609  1
  O  O15  1  0.197499  0.946454  0.870817  1
  O  O16  1  0.697499  0.446454  0.629183  1
  O  O17  1  0.201461  0.313180  0.008252  1
  O  O18  1  0.701461  0.813180  0.491748  1
  O  O19  1  0.343537  0.565724  0.650391  1
  O  O20  1  0.798539  0.686820  0.991748  1
  O  O21  1  0.302501  0.553546  0.370817  1
  O  O22  1  0.156463  0.934276  0.150391  1
  O  O23  1  0.656463  0.434276  0.349609  1
  O  O24  1  0.298539  0.186820  0.508252  1
  O  O25  1  0.802501  0.053546  0.129183  1
