# generated using pymatgen
data_NaVBP2H3O10
_symmetry_space_group_name_H-M   'P 1'
_cell_length_a   6.72806852
_cell_length_b   6.72806810
_cell_length_c   9.27107016
_cell_angle_alpha   70.00080776
_cell_angle_beta   70.00080913
_cell_angle_gamma   77.18130455
_symmetry_Int_Tables_number   1
_chemical_formula_structural   NaVBP2H3O10
_chemical_formula_sum   'Na2 V2 B2 P4 H6 O20'
_cell_volume   367.95997712
_cell_formula_units_Z   2
loop_
 _symmetry_equiv_pos_site_id
 _symmetry_equiv_pos_as_xyz
  1  'x, y, z'
loop_
 _atom_site_type_symbol
 _atom_site_label
 _atom_site_symmetry_multiplicity
 _atom_site_fract_x
 _atom_site_fract_y
 _atom_site_fract_z
 _atom_site_occupancy
  V  V0  1  0.500000  0.000000  0.000000  1
  V  V1  1  0.000000  0.500000  0.500000  1
  P  P2  1  0.345366  0.208043  0.676985  1
  P  P3  1  0.791957  0.654634  0.823015  1
  P  P4  1  0.654634  0.791957  0.323015  1
  P  P5  1  0.208043  0.345366  0.176985  1
  O  O6  1  0.814853  0.066273  0.898316  1
  O  O7  1  0.933727  0.185147  0.601684  1
  O  O8  1  0.185147  0.933727  0.101684  1
  O  O9  1  0.066273  0.814853  0.398316  1
  O  O10  1  0.429401  0.220873  0.807753  1
  O  O11  1  0.779127  0.570599  0.692247  1
  O  O12  1  0.570599  0.779127  0.192247  1
  O  O13  1  0.220873  0.429401  0.307753  1
  O  O14  1  0.190157  0.031467  0.750431  1
  O  O15  1  0.968533  0.809843  0.749569  1
  O  O16  1  0.809843  0.968533  0.249569  1
  O  O17  1  0.031467  0.190157  0.250431  1
  O  O18  1  0.571809  0.770558  0.887993  1
  O  O19  1  0.229442  0.428191  0.612007  1
  O  O20  1  0.428191  0.229442  0.112007  1
  O  O21  1  0.770558  0.571809  0.387993  1
  O  O22  1  0.533402  0.138093  0.542453  1
  O  O23  1  0.861907  0.466598  0.957547  1
  O  O24  1  0.466598  0.861907  0.457547  1
  O  O25  1  0.138093  0.533402  0.042453  1
  B  B26  1  0.972556  0.027444  0.750000  1
  B  B27  1  0.027444  0.972556  0.250000  1
  Na  Na28  1  0.630343  0.369657  0.250000  1
  Na  Na29  1  0.369657  0.630343  0.750000  1
  H  H30  1  0.840262  0.186781  0.924461  1
  H  H31  1  0.813219  0.159738  0.575539  1
  H  H32  1  0.159738  0.813219  0.075539  1
  H  H33  1  0.186781  0.840262  0.424461  1
  H  H34  1  0.500000  0.000000  0.500000  1
  H  H35  1  0.000000  0.500000  0.000000  1
