# generated using pymatgen
data_Cs2SnS14
_symmetry_space_group_name_H-M   'P 1'
_cell_length_a   7.30526482
_cell_length_b   15.28458706
_cell_length_c   19.24467728
_cell_angle_alpha   90.00000000
_cell_angle_beta   90.00000000
_cell_angle_gamma   99.30692750
_symmetry_Int_Tables_number   1
_chemical_formula_structural   Cs2SnS14
_chemical_formula_sum   'Cs8 Sn4 S56'
_cell_volume   2120.53461314
_cell_formula_units_Z   4
loop_
 _symmetry_equiv_pos_site_id
 _symmetry_equiv_pos_as_xyz
  1  'x, y, z'
loop_
 _atom_site_type_symbol
 _atom_site_label
 _atom_site_symmetry_multiplicity
 _atom_site_fract_x
 _atom_site_fract_y
 _atom_site_fract_z
 _atom_site_occupancy
  Cs  Cs0  1  0.080897  0.522860  0.201341  1
  Cs  Cs1  1  0.419103  0.977140  0.701341  1
  Cs  Cs2  1  0.919103  0.477140  0.798659  1
  Cs  Cs3  1  0.580897  0.022860  0.298659  1
  Cs  Cs4  1  0.369735  0.164465  0.049119  1
  Cs  Cs5  1  0.130265  0.335535  0.549119  1
  Cs  Cs6  1  0.630265  0.835535  0.950881  1
  Cs  Cs7  1  0.869735  0.664465  0.450881  1
  Sn  Sn8  1  0.964761  0.830505  0.175460  1
  Sn  Sn9  1  0.535239  0.669495  0.675460  1
  Sn  Sn10  1  0.035239  0.169495  0.824540  1
  Sn  Sn11  1  0.464761  0.330505  0.324540  1
  S  S12  1  0.740647  0.677082  0.183046  1
  S  S13  1  0.759353  0.822918  0.683046  1
  S  S14  1  0.259353  0.322918  0.816954  1
  S  S15  1  0.240647  0.177082  0.316954  1
  S  S16  1  0.599257  0.644525  0.092976  1
  S  S17  1  0.900743  0.855475  0.592976  1
  S  S18  1  0.400743  0.355475  0.907024  1
  S  S19  1  0.099257  0.144525  0.407024  1
  S  S20  1  0.738295  0.561389  0.035500  1
  S  S21  1  0.761705  0.938611  0.535500  1
  S  S22  1  0.261705  0.438611  0.964500  1
  S  S23  1  0.238295  0.061389  0.464500  1
  S  S24  1  0.917298  0.639469  0.967596  1
  S  S25  1  0.582702  0.860531  0.467596  1
  S  S26  1  0.082702  0.360531  0.032404  1
  S  S27  1  0.417298  0.139469  0.532404  1
  S  S28  1  0.146144  0.695653  0.025624  1
  S  S29  1  0.353856  0.804347  0.525624  1
  S  S30  1  0.853856  0.304347  0.974376  1
  S  S31  1  0.646144  0.195653  0.474376  1
  S  S32  1  0.115451  0.821870  0.050943  1
  S  S33  1  0.384549  0.678130  0.550943  1
  S  S34  1  0.884549  0.178130  0.949057  1
  S  S35  1  0.615451  0.321870  0.449057  1
  S  S36  1  0.675760  0.903286  0.135314  1
  S  S37  1  0.824240  0.596714  0.635314  1
  S  S38  1  0.324240  0.096714  0.864686  1
  S  S39  1  0.175760  0.403286  0.364686  1
  S  S40  1  0.801953  0.020787  0.091410  1
  S  S41  1  0.698047  0.479213  0.591410  1
  S  S42  1  0.198047  0.979213  0.908590  1
  S  S43  1  0.301953  0.520787  0.408590  1
  S  S44  1  0.985766  0.074868  0.168177  1
  S  S45  1  0.514234  0.425132  0.668177  1
  S  S46  1  0.014234  0.925132  0.831823  1
  S  S47  1  0.485766  0.574868  0.331823  1
  S  S48  1  0.175453  0.988591  0.170494  1
  S  S49  1  0.324547  0.511409  0.670494  1
  S  S50  1  0.824547  0.011409  0.829506  1
  S  S51  1  0.675453  0.488591  0.329506  1
  S  S52  1  0.860934  0.837752  0.306247  1
  S  S53  1  0.639066  0.662248  0.806247  1
  S  S54  1  0.139066  0.162248  0.693753  1
  S  S55  1  0.360934  0.337752  0.193753  1
  S  S56  1  0.114426  0.864594  0.354543  1
  S  S57  1  0.385574  0.635406  0.854543  1
  S  S58  1  0.885574  0.135406  0.645457  1
  S  S59  1  0.614426  0.364594  0.145457  1
  S  S60  1  0.243314  0.759486  0.323932  1
  S  S61  1  0.256686  0.740514  0.823932  1
  S  S62  1  0.756686  0.240514  0.676068  1
  S  S63  1  0.743314  0.259486  0.176068  1
  S  S64  1  0.271595  0.774545  0.217997  1
  S  S65  1  0.228405  0.725455  0.717997  1
  S  S66  1  0.728405  0.225455  0.782003  1
  S  S67  1  0.771595  0.274545  0.282003  1
