# generated using pymatgen
data_NbBi4BrO8
_symmetry_space_group_name_H-M   'P 1'
_cell_length_a   5.58037330
_cell_length_b   5.64904261
_cell_length_c   29.78132492
_cell_angle_alpha   90.00000000
_cell_angle_beta   90.00000000
_cell_angle_gamma   90.00000000
_symmetry_Int_Tables_number   1
_chemical_formula_structural   NbBi4BrO8
_chemical_formula_sum   'Nb4 Bi16 Br4 O32'
_cell_volume   938.81953437
_cell_formula_units_Z   4
loop_
 _symmetry_equiv_pos_site_id
 _symmetry_equiv_pos_as_xyz
  1  'x, y, z'
loop_
 _atom_site_type_symbol
 _atom_site_label
 _atom_site_symmetry_multiplicity
 _atom_site_fract_x
 _atom_site_fract_y
 _atom_site_fract_z
 _atom_site_occupancy
  Nb  Nb0  1  0.497604  0.258113  0.249973  1
  Nb  Nb1  1  0.497604  0.241887  0.749973  1
  Nb  Nb2  1  0.997604  0.758113  0.250027  1
  Nb  Nb3  1  0.997604  0.741887  0.750027  1
  Bi  Bi4  1  0.985499  0.756650  0.572547  1
  Bi  Bi5  1  0.985499  0.743350  0.072547  1
  Bi  Bi6  1  0.018842  0.196067  0.159245  1
  Bi  Bi7  1  0.505105  0.242510  0.072582  1
  Bi  Bi8  1  0.005105  0.757490  0.927418  1
  Bi  Bi9  1  0.018842  0.303933  0.659245  1
  Bi  Bi10  1  0.518842  0.696067  0.340755  1
  Bi  Bi11  1  0.518842  0.803933  0.840755  1
  Bi  Bi12  1  0.485499  0.256650  0.927453  1
  Bi  Bi13  1  0.474153  0.695244  0.159040  1
  Bi  Bi14  1  0.485499  0.243350  0.427453  1
  Bi  Bi15  1  0.005105  0.742510  0.427418  1
  Bi  Bi16  1  0.974153  0.195244  0.340960  1
  Bi  Bi17  1  0.505105  0.257490  0.572582  1
  Bi  Bi18  1  0.974153  0.304756  0.840960  1
  Bi  Bi19  1  0.474153  0.804756  0.659040  1
  Br  Br20  1  0.494889  0.750102  0.999569  1
  Br  Br21  1  0.494889  0.749898  0.499569  1
  Br  Br22  1  0.994889  0.249898  0.000431  1
  Br  Br23  1  0.994889  0.250102  0.500431  1
  O  O24  1  0.749167  0.550122  0.233129  1
  O  O25  1  0.246350  0.003403  0.107983  1
  O  O26  1  0.102300  0.830323  0.186994  1
  O  O27  1  0.893232  0.673274  0.813281  1
  O  O28  1  0.893232  0.826726  0.313281  1
  O  O29  1  0.250655  0.004171  0.889927  1
  O  O30  1  0.249511  0.551267  0.266023  1
  O  O31  1  0.249167  0.050122  0.266871  1
  O  O32  1  0.393232  0.326726  0.186719  1
  O  O33  1  0.750655  0.995829  0.110073  1
  O  O34  1  0.244130  0.503726  0.108039  1
  O  O35  1  0.739564  1.003633  0.609741  1
  O  O36  1  0.744130  0.003726  0.391961  1
  O  O37  1  0.239564  0.503633  0.890259  1
  O  O38  1  0.749167  0.949878  0.733129  1
  O  O39  1  0.249511  0.948733  0.766023  1
  O  O40  1  0.250655  0.495829  0.389927  1
  O  O41  1  0.249167  0.449878  0.766871  1
  O  O42  1  0.244130  0.996274  0.608039  1
  O  O43  1  0.744130  0.496274  0.891961  1
  O  O44  1  0.602300  0.169677  0.813006  1
  O  O45  1  0.749511  0.448733  0.733977  1
  O  O46  1  0.393232  0.173274  0.686719  1
  O  O47  1  0.239564  -0.003633  0.390259  1
  O  O48  1  0.602300  0.330323  0.313006  1
  O  O49  1  0.749511  0.051267  0.233977  1
  O  O50  1  0.102300  0.669677  0.686994  1
  O  O51  1  0.246350  0.496597  0.607983  1
  O  O52  1  0.739564  0.496367  0.109741  1
  O  O53  1  0.746350  0.503403  0.392017  1
  O  O54  1  0.746350  0.996597  0.892017  1
  O  O55  1  0.750655  0.504171  0.610073  1
