# generated using pymatgen
data_LaZnRh
_symmetry_space_group_name_H-M   'P 1'
_cell_length_a   4.08381314
_cell_length_b   7.43751626
_cell_length_c   16.63971933
_cell_angle_alpha   90.00000000
_cell_angle_beta   90.00000000
_cell_angle_gamma   90.00000000
_symmetry_Int_Tables_number   1
_chemical_formula_structural   LaZnRh
_chemical_formula_sum   'La8 Zn8 Rh8'
_cell_volume   505.40529424
_cell_formula_units_Z   8
loop_
 _symmetry_equiv_pos_site_id
 _symmetry_equiv_pos_as_xyz
  1  'x, y, z'
loop_
 _atom_site_type_symbol
 _atom_site_label
 _atom_site_symmetry_multiplicity
 _atom_site_fract_x
 _atom_site_fract_y
 _atom_site_fract_z
 _atom_site_occupancy
  La  La0  1  0.750000  0.830219  0.940175  1
  La  La1  1  0.250000  0.546393  0.217425  1
  La  La2  1  0.250000  0.046393  0.282575  1
  La  La3  1  0.250000  0.169781  0.059825  1
  La  La4  1  0.750000  0.330219  0.559825  1
  La  La5  1  0.250000  0.669781  0.440175  1
  La  La6  1  0.750000  0.953607  0.717425  1
  La  La7  1  0.750000  0.453607  0.782575  1
  Zn  Zn8  1  0.250000  0.629185  0.648987  1
  Zn  Zn9  1  0.250000  0.497982  0.940009  1
  Zn  Zn10  1  0.750000  0.370815  0.351013  1
  Zn  Zn11  1  0.750000  0.502018  0.059991  1
  Zn  Zn12  1  0.250000  0.997982  0.559991  1
  Zn  Zn13  1  0.750000  0.870815  0.148987  1
  Zn  Zn14  1  0.750000  0.002018  0.440009  1
  Zn  Zn15  1  0.250000  0.129185  0.851013  1
  Rh  Rh16  1  0.750000  0.751523  0.314817  1
  Rh  Rh17  1  0.250000  0.748477  0.814817  1
  Rh  Rh18  1  0.250000  0.240307  0.434571  1
  Rh  Rh19  1  0.250000  0.740307  0.065429  1
  Rh  Rh20  1  0.250000  0.248477  0.685183  1
  Rh  Rh21  1  0.750000  0.259693  0.934571  1
  Rh  Rh22  1  0.750000  0.759693  0.565429  1
  Rh  Rh23  1  0.750000  0.251523  0.185183  1
