# generated using pymatgen
data_Cs2U(SiO4)2
_symmetry_space_group_name_H-M   'P 1'
_cell_length_a   13.71429459
_cell_length_b   13.71429406
_cell_length_c   13.71429373
_cell_angle_alpha   105.52022700
_cell_angle_beta   110.97577958
_cell_angle_gamma   111.99021213
_symmetry_Int_Tables_number   1
_chemical_formula_structural   Cs2U(SiO4)2
_chemical_formula_sum   'Cs16 U8 Si16 O64'
_cell_volume   1978.44553875
_cell_formula_units_Z   8
loop_
 _symmetry_equiv_pos_site_id
 _symmetry_equiv_pos_as_xyz
  1  'x, y, z'
loop_
 _atom_site_type_symbol
 _atom_site_label
 _atom_site_symmetry_multiplicity
 _atom_site_fract_x
 _atom_site_fract_y
 _atom_site_fract_z
 _atom_site_occupancy
  Cs  Cs0  1  0.750000  0.900680  0.650680  1
  Cs  Cs1  1  0.750000  0.148042  0.898042  1
  Cs  Cs2  1  0.379679  0.750000  0.629679  1
  Cs  Cs3  1  0.250000  0.351958  0.601958  1
  Cs  Cs4  1  0.750000  0.400680  0.150680  1
  Cs  Cs5  1  0.250000  0.599320  0.849320  1
  Cs  Cs6  1  0.106338  0.856338  0.750000  1
  Cs  Cs7  1  0.250000  0.851958  0.101958  1
  Cs  Cs8  1  0.120321  0.250000  0.870321  1
  Cs  Cs9  1  0.250000  0.099320  0.349320  1
  Cs  Cs10  1  0.879679  0.750000  0.129679  1
  Cs  Cs11  1  0.893662  0.143662  0.250000  1
  Cs  Cs12  1  0.606338  0.356338  0.750000  1
  Cs  Cs13  1  0.750000  0.648042  0.398042  1
  Cs  Cs14  1  0.620321  0.250000  0.370321  1
  Cs  Cs15  1  0.393662  0.643662  0.250000  1
  U  U16  1  0.000000  0.500000  0.500000  1
  U  U17  1  0.500000  0.000000  0.500000  1
  U  U18  1  0.500000  0.000000  0.000000  1
  U  U19  1  0.500000  0.500000  0.000000  1
  U  U20  1  0.000000  0.000000  0.000000  1
  U  U21  1  0.000000  0.500000  0.000000  1
  U  U22  1  0.500000  0.500000  0.500000  1
  U  U23  1  0.000000  0.000000  0.500000  1
  Si  Si24  1  0.439481  0.193305  0.892235  1
  Si  Si25  1  0.815134  0.288239  0.692525  1
  Si  Si26  1  0.184866  0.711761  0.307475  1
  Si  Si27  1  0.301070  0.047246  0.607765  1
  Si  Si28  1  0.404286  0.377390  0.192525  1
  Si  Si29  1  0.095714  0.788239  0.473104  1
  Si  Si30  1  0.560519  0.806695  0.107765  1
  Si  Si31  1  0.684866  0.877390  0.973104  1
  Si  Si32  1  0.904286  0.211761  0.526896  1
  Si  Si33  1  0.198930  0.306695  0.246176  1
  Si  Si34  1  0.939481  0.547246  0.746176  1
  Si  Si35  1  0.698930  0.952754  0.392235  1
  Si  Si36  1  0.060519  0.452754  0.253824  1
  Si  Si37  1  0.595714  0.622610  0.807475  1
  Si  Si38  1  0.801070  0.693305  0.753824  1
  Si  Si39  1  0.315134  0.122610  0.026896  1
  O  O40  1  0.126397  0.675653  0.167556  1
  O  O41  1  0.550667  0.968958  0.628409  1
  O  O42  1  0.825100  0.406899  0.675878  1
  O  O43  1  0.617112  0.867112  0.250000  1
  O  O44  1  0.012297  0.569200  0.675037  1
  O  O45  1  0.605837  0.930800  0.443096  1
  O  O46  1  0.882888  0.632888  0.750000  1
  O  O47  1  0.050667  0.922258  0.081708  1
  O  O48  1  0.873603  0.324347  0.832444  1
  O  O49  1  0.449333  0.031042  0.371591  1
  O  O50  1  0.487703  0.662741  0.056904  1
  O  O51  1  0.899552  0.250000  0.649552  1
  O  O52  1  0.328718  0.816782  0.388401  1
  O  O53  1  0.071619  0.683218  0.511936  1
  O  O54  1  0.512297  0.337259  0.943096  1
  O  O55  1  0.987703  0.430800  0.324963  1
  O  O56  1  0.571619  0.559683  0.888401  1
  O  O57  1  0.199020  0.080338  0.548261  1
  O  O58  1  0.828718  0.940317  0.011936  1
  O  O59  1  0.840549  0.468958  0.418292  1
  O  O60  1  0.268980  0.350779  0.175878  1
  O  O61  1  0.467923  0.849242  0.048261  1
  O  O62  1  0.134873  0.485195  0.022425  1
  O  O63  1  0.928381  0.316782  0.488064  1
  O  O64  1  0.532077  0.150758  0.951739  1
  O  O65  1  0.008097  0.175653  0.549256  1
  O  O66  1  0.394163  0.069200  0.556904  1
  O  O67  1  0.037230  0.014805  0.649678  1
  O  O68  1  0.300980  0.349242  0.381318  1
  O  O69  1  0.671282  0.183218  0.611599  1
  O  O70  1  0.325100  0.149221  0.918201  1
  O  O71  1  0.967923  0.419662  0.118682  1
  O  O72  1  0.105837  0.162741  0.175037  1
  O  O73  1  0.865127  0.514805  0.977575  1
  O  O74  1  0.373603  0.041159  0.049256  1
  O  O75  1  0.600448  0.750000  0.850448  1
  O  O76  1  0.991903  0.824347  0.450744  1
  O  O77  1  0.462770  0.612448  0.477575  1
  O  O78  1  0.032077  0.580338  0.881318  1
  O  O79  1  0.659451  0.577742  0.128409  1
  O  O80  1  0.699020  0.650758  0.618682  1
  O  O81  1  0.171282  0.059683  0.988064  1
  O  O82  1  0.382888  0.132888  0.750000  1
  O  O83  1  0.399552  0.250000  0.149552  1
  O  O84  1  0.174900  0.593101  0.324122  1
  O  O85  1  0.340549  0.422258  0.871591  1
  O  O86  1  0.365127  0.887552  0.850322  1
  O  O87  1  0.626397  0.958841  0.950744  1
  O  O88  1  0.537230  0.387552  0.522425  1
  O  O89  1  0.962770  0.985195  0.350322  1
  O  O90  1  0.800980  0.919662  0.451739  1
  O  O91  1  0.428381  0.440317  0.111599  1
  O  O92  1  0.159451  0.531042  0.581708  1
  O  O93  1  0.768980  0.093101  0.418201  1
  O  O94  1  0.117112  0.367112  0.250000  1
  O  O95  1  0.949333  0.077742  0.918292  1
  O  O96  1  0.894163  0.837259  0.824963  1
  O  O97  1  0.731020  0.649221  0.824122  1
  O  O98  1  0.674900  0.850779  0.081799  1
  O  O99  1  0.634873  0.112448  0.149678  1
  O  O100  1  0.508097  0.458841  0.332444  1
  O  O101  1  0.491903  0.541159  0.667556  1
  O  O102  1  0.100448  0.750000  0.350448  1
  O  O103  1  0.231020  0.906899  0.581799  1
