# generated using pymatgen
data_SiO2
_symmetry_space_group_name_H-M   'P 1'
_cell_length_a   17.37358629
_cell_length_b   17.37358649
_cell_length_c   13.02581024
_cell_angle_alpha   90.00000000
_cell_angle_beta   90.00000000
_cell_angle_gamma   119.99999964
_symmetry_Int_Tables_number   1
_chemical_formula_structural   SiO2
_chemical_formula_sum   'Si24 O48'
_cell_volume   3404.97820687
_cell_formula_units_Z   24
loop_
 _symmetry_equiv_pos_site_id
 _symmetry_equiv_pos_as_xyz
  1  'x, y, z'
loop_
 _atom_site_type_symbol
 _atom_site_label
 _atom_site_symmetry_multiplicity
 _atom_site_fract_x
 _atom_site_fract_y
 _atom_site_fract_z
 _atom_site_occupancy
  Si  Si0  1  0.874197  0.437114  0.333703  1
  Si  Si1  1  0.836382  0.276142  0.450853  1
  Si  Si2  1  0.125803  0.562886  0.333703  1
  Si  Si3  1  0.836597  0.560323  0.216367  1
  Si  Si4  1  0.620119  0.999845  0.666883  1
  Si  Si5  1  0.276142  0.439760  0.117520  1
  Si  Si6  1  0.562918  0.125803  0.667037  1
  Si  Si7  1  0.439760  0.163618  0.784187  1
  Si  Si8  1  0.276273  0.836597  0.549700  1
  Si  Si9  1  0.379725  0.379881  0.000216  1
  Si  Si10  1  0.163403  0.439677  0.216367  1
  Si  Si11  1  0.379881  0.000155  0.666883  1
  Si  Si12  1  0.620275  0.620119  0.000216  1
  Si  Si13  1  0.000155  0.620275  0.333549  1
  Si  Si14  1  0.437114  0.562918  0.000370  1
  Si  Si15  1  0.560240  0.836382  0.784187  1
  Si  Si16  1  0.437082  0.874197  0.667037  1
  Si  Si17  1  0.723858  0.560240  0.117520  1
  Si  Si18  1  0.999845  0.379725  0.333549  1
  Si  Si19  1  0.439677  0.276273  0.883034  1
  Si  Si20  1  0.163618  0.723858  0.450853  1
  Si  Si21  1  0.560323  0.723727  0.883034  1
  Si  Si22  1  0.723727  0.163403  0.549700  1
  Si  Si23  1  0.562886  0.437082  0.000370  1
  O  O24  1  0.253599  0.431754  0.243187  1
  O  O25  1  0.934595  0.529735  0.399575  1
  O  O26  1  0.295879  0.362285  0.074075  1
  O  O27  1  0.538273  0.181356  0.748798  1
  O  O28  1  0.362177  0.296043  0.926388  1
  O  O29  1  0.461727  0.818644  0.748798  1
  O  O30  1  0.704121  0.637715  0.074075  1
  O  O31  1  0.568171  0.746148  0.757351  1
  O  O32  1  0.404860  0.934595  0.732909  1
  O  O33  1  0.568246  0.821846  0.909854  1
  O  O34  1  0.404696  0.470370  0.934217  1
  O  O35  1  0.595140  0.065405  0.732909  1
  O  O36  1  0.746401  0.568246  0.243187  1
  O  O37  1  0.643083  0.461727  0.082131  1
  O  O38  1  0.595304  0.529630  0.934217  1
  O  O39  1  0.470370  0.065674  0.600883  1
  O  O40  1  0.529735  0.595140  0.066242  1
  O  O41  1  0.065405  0.470265  0.399575  1
  O  O42  1  0.822024  0.568171  0.090684  1
  O  O43  1  0.356917  0.538273  0.082131  1
  O  O44  1  0.362285  0.066406  0.740742  1
  O  O45  1  0.066406  0.704121  0.407408  1
  O  O46  1  0.643128  0.181342  0.585271  1
  O  O47  1  0.746148  0.177976  0.424017  1
  O  O48  1  0.821846  0.253599  0.576520  1
  O  O49  1  0.637823  0.703957  0.926388  1
  O  O50  1  0.253852  0.822024  0.424017  1
  O  O51  1  0.818644  0.356917  0.415464  1
  O  O52  1  0.703957  0.066134  0.593054  1
  O  O53  1  0.431754  0.178154  0.909854  1
  O  O54  1  0.065674  0.595304  0.267550  1
  O  O55  1  0.431829  0.253852  0.757351  1
  O  O56  1  0.181356  0.643083  0.415464  1
  O  O57  1  0.637715  0.933594  0.740742  1
  O  O58  1  0.529630  0.934326  0.600883  1
  O  O59  1  0.356872  0.818658  0.585271  1
  O  O60  1  0.934326  0.404696  0.267550  1
  O  O61  1  0.066134  0.362177  0.259721  1
  O  O62  1  0.933594  0.295879  0.407408  1
  O  O63  1  0.296043  0.933866  0.593054  1
  O  O64  1  0.538214  0.356872  0.918605  1
  O  O65  1  0.178154  0.746401  0.576520  1
  O  O66  1  0.470265  0.404860  0.066242  1
  O  O67  1  0.181342  0.538214  0.251938  1
  O  O68  1  0.461786  0.643128  0.918605  1
  O  O69  1  0.177976  0.431829  0.090684  1
  O  O70  1  0.818658  0.461786  0.251938  1
  O  O71  1  0.933866  0.637823  0.259721  1
