# generated using pymatgen
data_Rb2Mo3SO13
_symmetry_space_group_name_H-M   'P 1'
_cell_length_a   9.60367738
_cell_length_b   10.98053510
_cell_length_c   13.68319147
_cell_angle_alpha   90.00000000
_cell_angle_beta   90.00000000
_cell_angle_gamma   111.64468946
_symmetry_Int_Tables_number   1
_chemical_formula_structural   Rb2Mo3SO13
_chemical_formula_sum   'Rb8 Mo12 S4 O52'
_cell_volume   1341.19757695
_cell_formula_units_Z   4
loop_
 _symmetry_equiv_pos_site_id
 _symmetry_equiv_pos_as_xyz
  1  'x, y, z'
loop_
 _atom_site_type_symbol
 _atom_site_label
 _atom_site_symmetry_multiplicity
 _atom_site_fract_x
 _atom_site_fract_y
 _atom_site_fract_z
 _atom_site_occupancy
  Rb  Rb0  1  0.936191  0.957433  0.314057  1
  Rb  Rb1  1  0.481400  0.949290  0.805372  1
  Rb  Rb2  1  0.981400  0.449290  0.694628  1
  Rb  Rb3  1  0.518600  0.050710  0.194628  1
  Rb  Rb4  1  0.436191  0.457433  0.185943  1
  Rb  Rb5  1  0.018600  0.550710  0.305372  1
  Rb  Rb6  1  0.563809  0.542567  0.814057  1
  Rb  Rb7  1  0.063809  0.042567  0.685943  1
  Mo  Mo8  1  0.668302  0.475210  0.484400  1
  Mo  Mo9  1  0.649526  0.799177  0.561354  1
  Mo  Mo10  1  0.174970  0.633800  0.007098  1
  Mo  Mo11  1  0.168302  0.975210  0.015600  1
  Mo  Mo12  1  0.149526  0.299177  0.938646  1
  Mo  Mo13  1  0.825030  0.366200  0.992902  1
  Mo  Mo14  1  0.331698  0.524790  0.515600  1
  Mo  Mo15  1  0.325030  0.866200  0.507098  1
  Mo  Mo16  1  0.350474  0.200823  0.438646  1
  Mo  Mo17  1  0.831698  0.024790  0.984400  1
  Mo  Mo18  1  0.850474  0.700823  0.061354  1
  Mo  Mo19  1  0.674970  0.133800  0.492902  1
  S  S20  1  0.499192  0.249392  0.666230  1
  S  S21  1  0.500808  0.750608  0.333770  1
  S  S22  1  0.999192  0.749392  0.833770  1
  S  S23  1  0.000808  0.250608  0.166230  1
  O  O24  1  0.912580  0.335609  0.143918  1
  O  O25  1  0.787574  0.397757  0.873120  1
  O  O26  1  0.361696  0.204917  0.601601  1
  O  O27  1  0.615484  0.784228  0.686843  1
  O  O28  1  0.385773  0.715756  0.535640  1
  O  O29  1  0.861696  0.704917  0.898399  1
  O  O30  1  0.638304  0.795083  0.398399  1
  O  O31  1  0.690995  0.516030  0.361239  1
  O  O32  1  0.409283  0.048016  0.458924  1
  O  O33  1  0.087420  0.664391  0.856082  1
  O  O34  1  0.587420  0.164391  0.643918  1
  O  O35  1  0.592682  0.389535  0.640627  1
  O  O36  1  0.903997  0.891085  0.035885  1
  O  O37  1  0.712426  0.102243  0.373120  1
  O  O38  1  0.407318  0.610465  0.359373  1
  O  O39  1  0.115484  0.284228  0.813157  1
  O  O40  1  0.412580  0.835609  0.356082  1
  O  O41  1  0.157934  0.129776  0.449623  1
  O  O42  1  0.287574  0.897757  0.626880  1
  O  O43  1  0.148639  0.473962  0.475072  1
  O  O44  1  0.092682  0.889535  0.859373  1
  O  O45  1  0.138304  0.295083  0.101601  1
  O  O46  1  0.850697  0.197287  0.545543  1
  O  O47  1  0.544845  0.762882  0.231775  1
  O  O48  1  0.614227  0.284244  0.464360  1
  O  O49  1  0.842066  0.870224  0.550377  1
  O  O50  1  0.851361  0.526038  0.524928  1
  O  O51  1  0.884516  0.715772  0.186843  1
  O  O52  1  0.090717  0.451984  0.958924  1
  O  O53  1  0.955155  0.737118  0.731775  1
  O  O54  1  0.455155  0.237118  0.768225  1
  O  O55  1  0.044845  0.262882  0.268225  1
  O  O56  1  0.649303  0.302713  0.045543  1
  O  O57  1  0.590717  0.951984  0.541076  1
  O  O58  1  0.657934  0.629776  0.050377  1
  O  O59  1  0.403997  0.391085  0.464115  1
  O  O60  1  0.190995  0.016030  0.138761  1
  O  O61  1  0.907318  0.110465  0.140627  1
  O  O62  1  0.212426  0.602243  0.126880  1
  O  O63  1  0.149303  0.802713  0.454457  1
  O  O64  1  0.648639  0.973962  0.024928  1
  O  O65  1  0.309005  0.483970  0.638761  1
  O  O66  1  0.809005  0.983970  0.861239  1
  O  O67  1  0.596003  0.608915  0.535885  1
  O  O68  1  0.114227  0.784244  0.035640  1
  O  O69  1  0.350697  0.697287  0.954457  1
  O  O70  1  0.096003  0.108915  0.964115  1
  O  O71  1  0.384516  0.215772  0.313157  1
  O  O72  1  0.342066  0.370224  0.949623  1
  O  O73  1  0.909283  0.548016  0.041076  1
  O  O74  1  0.885773  0.215756  0.964360  1
  O  O75  1  0.351361  0.026038  0.975072  1
