# generated using pymatgen
data_Fe7S8
_symmetry_space_group_name_H-M   'P 1'
_cell_length_a   6.58204977
_cell_length_b   6.58205006
_cell_length_c   15.56692463
_cell_angle_alpha   90.00000000
_cell_angle_beta   90.00000000
_cell_angle_gamma   119.99999848
_symmetry_Int_Tables_number   1
_chemical_formula_structural   Fe7S8
_chemical_formula_sum   'Fe21 S24'
_cell_volume   584.05776750
_cell_formula_units_Z   3
loop_
 _symmetry_equiv_pos_site_id
 _symmetry_equiv_pos_as_xyz
  1  'x, y, z'
loop_
 _atom_site_type_symbol
 _atom_site_label
 _atom_site_symmetry_multiplicity
 _atom_site_fract_x
 _atom_site_fract_y
 _atom_site_fract_z
 _atom_site_occupancy
  Fe  Fe0  1  0.410272  0.425078  0.146511  1
  Fe  Fe1  1  0.083498  0.000000  0.333333  1
  Fe  Fe2  1  0.014807  0.589728  0.813178  1
  Fe  Fe3  1  0.483323  0.948154  0.014820  1
  Fe  Fe4  1  0.000000  0.439136  0.166667  1
  Fe  Fe5  1  0.439136  0.000000  0.833333  1
  Fe  Fe6  1  0.589728  0.014807  0.186822  1
  Fe  Fe7  1  1.000000  0.018835  0.166667  1
  Fe  Fe8  1  0.574922  0.985193  0.479845  1
  Fe  Fe9  1  0.425078  0.410272  0.853489  1
  Fe  Fe10  1  0.916502  0.916502  0.000000  1
  Fe  Fe11  1  0.051846  0.535169  0.348153  1
  Fe  Fe12  1  0.464831  0.516677  0.681486  1
  Fe  Fe13  1  0.985193  0.574922  0.520155  1
  Fe  Fe14  1  0.981165  0.981165  0.500000  1
  Fe  Fe15  1  1.000000  0.083498  0.666667  1
  Fe  Fe16  1  0.516677  0.464831  0.318514  1
  Fe  Fe17  1  0.560864  0.560864  0.500000  1
  Fe  Fe18  1  0.948154  0.483323  0.985180  1
  Fe  Fe19  1  0.535169  0.051846  0.651847  1
  Fe  Fe20  1  0.018835  0.000000  0.833333  1
  S  S21  1  0.216182  0.851753  0.428172  1
  S  S22  1  0.345992  0.211511  0.585898  1
  S  S23  1  0.351540  0.649595  0.246250  1
  S  S24  1  0.148247  0.364429  0.761505  1
  S  S25  1  0.298055  0.648460  0.912917  1
  S  S26  1  0.701945  0.350405  0.420417  1
  S  S27  1  0.350405  0.701945  0.579583  1
  S  S28  1  0.654008  0.865519  0.747435  1
  S  S29  1  0.635571  0.783818  0.094838  1
  S  S30  1  0.134481  0.788489  0.080768  1
  S  S31  1  0.648460  0.298055  0.087083  1
  S  S32  1  0.851753  0.216182  0.571828  1
  S  S33  1  0.707352  0.826188  0.397308  1
  S  S34  1  0.865519  0.654008  0.252565  1
  S  S35  1  0.788489  0.134481  0.919232  1
  S  S36  1  0.826188  0.707352  0.602692  1
  S  S37  1  0.364429  0.148247  0.238495  1
  S  S38  1  0.118836  0.292648  0.063974  1
  S  S39  1  0.783818  0.635571  0.905162  1
  S  S40  1  0.292648  0.118836  0.936026  1
  S  S41  1  0.173812  0.881164  0.730641  1
  S  S42  1  0.211511  0.345992  0.414102  1
  S  S43  1  0.649595  0.351540  0.753750  1
  S  S44  1  0.881164  0.173812  0.269359  1
