# generated using pymatgen
data_Li3Co2(PO4)3
_symmetry_space_group_name_H-M   'P 1'
_cell_length_a   8.25336278
_cell_length_b   8.51731392
_cell_length_c   11.73483274
_cell_angle_alpha   89.99962195
_cell_angle_beta   89.28695226
_cell_angle_gamma   90.00014481
_symmetry_Int_Tables_number   1
_chemical_formula_structural   Li3Co2(PO4)3
_chemical_formula_sum   'Li12 Co8 P12 O48'
_cell_volume   824.85357434
_cell_formula_units_Z   4
loop_
 _symmetry_equiv_pos_site_id
 _symmetry_equiv_pos_as_xyz
  1  'x, y, z'
loop_
 _atom_site_type_symbol
 _atom_site_label
 _atom_site_symmetry_multiplicity
 _atom_site_fract_x
 _atom_site_fract_y
 _atom_site_fract_z
 _atom_site_occupancy
  Li  Li0  1  0.170688  0.787140  0.829435  1
  Li  Li1  1  0.581838  0.409580  0.805745  1
  Li  Li2  1  0.418162  0.590420  0.194255  1
  Li  Li3  1  0.329311  0.287141  0.670562  1
  Li  Li4  1  0.918166  0.909582  0.694257  1
  Li  Li5  1  0.430569  0.005106  0.840908  1
  Li  Li6  1  0.670689  0.712859  0.329438  1
  Li  Li7  1  0.930568  0.494895  0.340909  1
  Li  Li8  1  0.081834  0.090418  0.305743  1
  Li  Li9  1  0.829312  0.212860  0.170565  1
  Li  Li10  1  0.069432  0.505105  0.659091  1
  Li  Li11  1  0.569431  0.994894  0.159092  1
  Co  Co12  1  0.749002  0.030457  0.385852  1
  Co  Co13  1  0.749468  0.472125  0.606788  1
  Co  Co14  1  0.250532  0.527875  0.393212  1
  Co  Co15  1  0.750532  0.972126  0.893213  1
  Co  Co16  1  0.249468  0.027874  0.106787  1
  Co  Co17  1  0.250998  0.969543  0.614148  1
  Co  Co18  1  0.750997  0.530456  0.114149  1
  Co  Co19  1  0.249003  0.469544  0.885851  1
  P  P20  1  0.387269  0.884304  0.355386  1
  P  P21  1  0.608558  0.380655  0.356669  1
  P  P22  1  0.612731  0.115696  0.644614  1
  P  P23  1  0.108559  0.119343  0.856668  1
  P  P24  1  0.112732  0.384304  0.144615  1
  P  P25  1  0.891441  0.880657  0.143332  1
  P  P26  1  0.034403  0.247989  0.508542  1
  P  P27  1  0.465597  0.747991  0.991458  1
  P  P28  1  0.887268  0.615696  0.855385  1
  P  P29  1  0.965597  0.752011  0.491458  1
  P  P30  1  0.534403  0.252009  0.008542  1
  P  P31  1  0.391442  0.619344  0.643331  1
  O  O32  1  0.612528  0.299004  0.661517  1
  O  O33  1  0.374002  0.499371  0.745294  1
  O  O34  1  0.555799  0.622904  0.060395  1
  O  O35  1  0.727463  0.023592  0.724229  1
  O  O36  1  0.435812  0.170921  0.105957  1
  O  O37  1  0.593416  0.135342  0.914652  1
  O  O38  1  0.227464  0.476405  0.224230  1
  O  O39  1  0.267181  0.551364  0.555654  1
  O  O40  1  0.326601  0.779817  0.687906  1
  O  O41  1  0.673399  0.220183  0.312094  1
  O  O42  1  0.432837  0.076615  0.684325  1
  O  O43  1  0.732819  0.448636  0.444346  1
  O  O44  1  0.067736  0.878048  0.102526  1
  O  O45  1  0.567737  0.621953  0.602523  1
  O  O46  1  0.064188  0.670925  0.394042  1
  O  O47  1  0.887472  0.799004  0.838483  1
  O  O48  1  0.567163  0.923385  0.315675  1
  O  O49  1  0.387472  0.700996  0.338483  1
  O  O50  1  0.812974  0.823710  0.436324  1
  O  O51  1  0.906587  0.635337  0.585345  1
  O  O52  1  0.187026  0.176290  0.563676  1
  O  O53  1  0.232819  0.051360  0.944347  1
  O  O54  1  0.772536  0.523595  0.775770  1
  O  O55  1  0.137993  0.423699  0.020815  1
  O  O56  1  0.564188  0.829079  0.894043  1
  O  O57  1  0.173401  0.279816  0.812094  1
  O  O58  1  0.932264  0.121952  0.897474  1
  O  O59  1  0.874000  0.000629  0.245294  1
  O  O60  1  0.055800  0.877095  0.560397  1
  O  O61  1  0.932837  0.423385  0.184325  1
  O  O62  1  0.826599  0.720184  0.187906  1
  O  O63  1  0.944200  0.122905  0.439603  1
  O  O64  1  0.362014  0.923692  0.479187  1
  O  O65  1  0.637986  0.076308  0.520813  1
  O  O66  1  0.862007  0.576301  0.979185  1
  O  O67  1  0.444201  0.377096  0.939605  1
  O  O68  1  0.093413  0.364663  0.414655  1
  O  O69  1  0.767181  0.948640  0.055653  1
  O  O70  1  0.432263  0.378047  0.397477  1
  O  O71  1  0.272537  0.976408  0.275772  1
  O  O72  1  0.067163  0.576615  0.815675  1
  O  O73  1  0.687024  0.323706  0.063681  1
  O  O74  1  0.126000  0.999371  0.754706  1
  O  O75  1  0.406584  0.864658  0.085348  1
  O  O76  1  0.312976  0.676294  0.936319  1
  O  O77  1  0.935812  0.329075  0.605958  1
  O  O78  1  0.112528  0.200996  0.161517  1
  O  O79  1  0.625998  0.500629  0.254706  1
