# generated using pymatgen
data_Mn4Bi3NO15
_symmetry_space_group_name_H-M   'P 1'
_cell_length_a   5.06738339
_cell_length_b   5.06738294
_cell_length_c   13.35117127
_cell_angle_alpha   90.00000000
_cell_angle_beta   90.00000000
_cell_angle_gamma   120.00000292
_symmetry_Int_Tables_number   1
_chemical_formula_structural   Mn4Bi3NO15
_chemical_formula_sum   'Mn4 Bi3 N1 O15'
_cell_volume   296.90497501
_cell_formula_units_Z   1
loop_
 _symmetry_equiv_pos_site_id
 _symmetry_equiv_pos_as_xyz
  1  'x, y, z'
loop_
 _atom_site_type_symbol
 _atom_site_label
 _atom_site_symmetry_multiplicity
 _atom_site_fract_x
 _atom_site_fract_y
 _atom_site_fract_z
 _atom_site_occupancy
  Mn  Mn0  1  0.333333  0.666667  0.216591  1
  Mn  Mn1  1  0.666667  0.333333  0.216251  1
  Mn  Mn2  1  0.666667  0.333333  0.847939  1
  Mn  Mn3  1  0.333333  0.666667  0.847533  1
  Bi  Bi4  1  0.000000  0.000000  0.031500  1
  Bi  Bi5  1  0.000000  0.000000  0.383151  1
  Bi  Bi6  1  0.000000  0.000000  0.680523  1
  N  N7  1  0.666667  0.333333  0.535236  1
  O  O8  1  0.374463  0.999715  0.924647  1
  O  O9  1  0.520838  0.476489  0.535294  1
  O  O10  1  0.635040  0.634410  0.300054  1
  O  O11  1  0.000246  0.625952  0.139822  1
  O  O12  1  0.625252  0.625537  0.924647  1
  O  O13  1  0.000285  0.374748  0.924647  1
  O  O14  1  0.365109  0.364431  0.764608  1
  O  O15  1  0.999370  0.364960  0.300054  1
  O  O16  1  0.523511  0.044349  0.535294  1
  O  O17  1  0.999322  0.634891  0.764608  1
  O  O18  1  0.365590  0.000630  0.300054  1
  O  O19  1  0.635569  0.000678  0.764608  1
  O  O20  1  0.374048  0.374294  0.139822  1
  O  O21  1  0.625706  0.999754  0.139822  1
  O  O22  1  0.955651  0.479162  0.535294  1
