# generated using pymatgen
data_K6Ti2O7
_symmetry_space_group_name_H-M   'P 1'
_cell_length_a   6.64230638
_cell_length_b   9.38530821
_cell_length_c   9.59597956
_cell_angle_alpha   90.00000000
_cell_angle_beta   91.90415399
_cell_angle_gamma   90.00000000
_symmetry_Int_Tables_number   1
_chemical_formula_structural   K6Ti2O7
_chemical_formula_sum   'K12 Ti4 O14'
_cell_volume   597.88392626
_cell_formula_units_Z   2
loop_
 _symmetry_equiv_pos_site_id
 _symmetry_equiv_pos_as_xyz
  1  'x, y, z'
loop_
 _atom_site_type_symbol
 _atom_site_label
 _atom_site_symmetry_multiplicity
 _atom_site_fract_x
 _atom_site_fract_y
 _atom_site_fract_z
 _atom_site_occupancy
  O  O0  1  0.500000  0.000000  0.000000  1
  O  O1  1  0.000000  0.500000  0.500000  1
  O  O2  1  0.829857  0.825422  0.867561  1
  O  O3  1  0.670143  0.325422  0.632439  1
  O  O4  1  0.426845  0.698864  0.927488  1
  O  O5  1  0.073155  0.198864  0.572512  1
  O  O6  1  0.573155  0.301136  0.072512  1
  O  O7  1  0.926845  0.801136  0.427488  1
  O  O8  1  0.459914  0.903179  0.695100  1
  O  O9  1  0.040086  0.403179  0.804900  1
  O  O10  1  0.540086  0.096821  0.304900  1
  O  O11  1  0.959914  0.596821  0.195100  1
  O  O12  1  0.329857  0.674578  0.367561  1
  O  O13  1  0.170143  0.174578  0.132439  1
  K  K14  1  0.750239  0.027690  0.543313  1
  K  K15  1  0.749761  0.527690  0.956687  1
  K  K16  1  0.124710  0.843617  0.066417  1
  K  K17  1  0.375290  0.343617  0.433583  1
  K  K18  1  0.875290  0.156383  0.933583  1
  K  K19  1  0.624710  0.656383  0.566417  1
  K  K20  1  0.629323  0.795207  0.221224  1
  K  K21  1  0.870677  0.295207  0.278776  1
  K  K22  1  0.370677  0.204793  0.778776  1
  K  K23  1  0.129323  0.704793  0.721224  1
  K  K24  1  0.249761  0.972310  0.456687  1
  K  K25  1  0.250239  0.472310  0.043313  1
  Ti  Ti26  1  0.441189  0.144462  0.132440  1
  Ti  Ti27  1  0.058811  0.644462  0.367560  1
  Ti  Ti28  1  0.558811  0.855538  0.867560  1
  Ti  Ti29  1  0.941189  0.355538  0.632440  1
