# generated using pymatgen
data_RbHo(PO3)4
_symmetry_space_group_name_H-M   'P 1'
_cell_length_a   8.94667859
_cell_length_b   10.40138495
_cell_length_c   11.08408253
_cell_angle_alpha   106.53522961
_cell_angle_beta   90.00000000
_cell_angle_gamma   90.00000000
_symmetry_Int_Tables_number   1
_chemical_formula_structural   RbHo(PO3)4
_chemical_formula_sum   'Rb4 Ho4 P16 O48'
_cell_volume   988.80472161
_cell_formula_units_Z   4
loop_
 _symmetry_equiv_pos_site_id
 _symmetry_equiv_pos_as_xyz
  1  'x, y, z'
loop_
 _atom_site_type_symbol
 _atom_site_label
 _atom_site_symmetry_multiplicity
 _atom_site_fract_x
 _atom_site_fract_y
 _atom_site_fract_z
 _atom_site_occupancy
  Ho  Ho0  1  0.726893  0.501609  0.816961  1
  Ho  Ho1  1  0.226893  0.998391  0.683039  1
  Ho  Ho2  1  0.273107  0.498391  0.183039  1
  Ho  Ho3  1  0.773107  0.001609  0.316961  1
  Rb  Rb4  1  0.933637  0.191243  0.958454  1
  Rb  Rb5  1  0.433637  0.308757  0.541546  1
  Rb  Rb6  1  0.066363  0.808757  0.041546  1
  Rb  Rb7  1  0.566363  0.691243  0.458454  1
  P  P8  1  0.974779  0.746857  0.721031  1
  P  P9  1  0.474779  0.753143  0.778969  1
  P  P10  1  0.025221  0.253143  0.278969  1
  P  P11  1  0.525221  0.246857  0.221031  1
  P  P12  1  0.828700  0.959487  0.634138  1
  P  P13  1  0.328700  0.540513  0.865862  1
  P  P14  1  0.171300  0.040513  0.365862  1
  P  P15  1  0.671300  0.459487  0.134138  1
  P  P16  1  0.591058  0.147754  0.758075  1
  P  P17  1  0.091058  0.352246  0.741925  1
  P  P18  1  0.408942  0.852246  0.241925  1
  P  P19  1  0.908942  0.647754  0.258075  1
  P  P20  1  0.889022  0.324418  0.523545  1
  P  P21  1  0.389022  0.175582  0.976455  1
  P  P22  1  0.110978  0.675582  0.476455  1
  P  P23  1  0.610978  0.824418  0.023545  1
  O  O24  1  0.548147  0.861612  0.900400  1
  O  O25  1  0.048147  0.638388  0.599600  1
  O  O26  1  0.451853  0.138388  0.099600  1
  O  O27  1  0.951853  0.361612  0.400400  1
  O  O28  1  0.957593  0.399865  0.824606  1
  O  O29  1  0.457593  0.100135  0.675394  1
  O  O30  1  0.042407  0.600135  0.175394  1
  O  O31  1  0.542407  0.899865  0.324606  1
  O  O32  1  0.906311  0.668861  0.801510  1
  O  O33  1  0.406311  0.831139  0.698490  1
  O  O34  1  0.093689  0.331139  0.198490  1
  O  O35  1  0.593689  0.168861  0.301510  1
  O  O36  1  0.675865  0.266750  0.744329  1
  O  O37  1  0.175865  0.233250  0.755671  1
  O  O38  1  0.324135  0.733250  0.255671  1
  O  O39  1  0.824135  0.766750  0.244329  1
  O  O40  1  0.585465  0.645172  0.717499  1
  O  O41  1  0.085465  0.854828  0.782501  1
  O  O42  1  0.414535  0.354828  0.282501  1
  O  O43  1  0.914535  0.145172  0.217499  1
  O  O44  1  0.972031  0.036011  0.668271  1
  O  O45  1  0.472031  0.463989  0.831729  1
  O  O46  1  0.027969  0.963989  0.331729  1
  O  O47  1  0.527969  0.536011  0.168271  1
  O  O48  1  0.841923  0.812571  0.657525  1
  O  O49  1  0.341923  0.687429  0.842475  1
  O  O50  1  0.158077  0.187429  0.342475  1
  O  O51  1  0.658077  0.312571  0.157525  1
  O  O52  1  0.708341  0.024978  0.744497  1
  O  O53  1  0.208341  0.475022  0.755503  1
  O  O54  1  0.291659  0.975022  0.255503  1
  O  O55  1  0.791659  0.524978  0.244497  1
  O  O56  1  0.668144  0.683395  0.981312  1
  O  O57  1  0.168144  0.816605  0.518688  1
  O  O58  1  0.331856  0.316605  0.018688  1
  O  O59  1  0.831856  0.183395  0.481312  1
  O  O60  1  0.786372  0.432759  0.597113  1
  O  O61  1  0.286372  0.067241  0.902887  1
  O  O62  1  0.213628  0.567241  0.402887  1
  O  O63  1  0.713628  0.932759  0.097113  1
  O  O64  1  0.547106  0.170816  0.903320  1
  O  O65  1  0.047106  0.329184  0.596680  1
  O  O66  1  0.452894  0.829184  0.096680  1
  O  O67  1  0.952894  0.670816  0.403320  1
  O  O68  1  0.758959  0.937397  0.507213  1
  O  O69  1  0.258959  0.562603  0.992787  1
  O  O70  1  0.241041  0.062603  0.492787  1
  O  O71  1  0.741041  0.437397  0.007213  1
