# generated using pymatgen
data_Mn8Zn14Ga27
_symmetry_space_group_name_H-M   'P 1'
_cell_length_a   9.25764722
_cell_length_b   9.25764809
_cell_length_c   9.25764769
_cell_angle_alpha   94.77465335
_cell_angle_beta   94.77465380
_cell_angle_gamma   94.77464928
_symmetry_Int_Tables_number   1
_chemical_formula_structural   Mn8Zn14Ga27
_chemical_formula_sum   'Mn8 Zn14 Ga27'
_cell_volume   784.66631242
_cell_formula_units_Z   1
loop_
 _symmetry_equiv_pos_site_id
 _symmetry_equiv_pos_as_xyz
  1  'x, y, z'
loop_
 _atom_site_type_symbol
 _atom_site_label
 _atom_site_symmetry_multiplicity
 _atom_site_fract_x
 _atom_site_fract_y
 _atom_site_fract_z
 _atom_site_occupancy
  Mn  Mn0  1  0.613896  0.280715  0.904145  1
  Mn  Mn1  1  0.814709  0.814709  0.814709  1
  Mn  Mn2  1  0.095855  0.386104  0.719285  1
  Mn  Mn3  1  0.386104  0.719285  0.095855  1
  Mn  Mn4  1  0.719285  0.095855  0.386104  1
  Mn  Mn5  1  0.904145  0.613896  0.280715  1
  Mn  Mn6  1  0.280715  0.904145  0.613896  1
  Mn  Mn7  1  0.185291  0.185291  0.185291  1
  Zn  Zn8  1  0.660251  0.536953  0.770005  1
  Zn  Zn9  1  0.613181  0.625762  0.265072  1
  Zn  Zn10  1  0.500000  0.500000  0.500000  1
  Zn  Zn11  1  0.463047  0.229995  0.339749  1
  Zn  Zn12  1  0.374238  0.734928  0.386819  1
  Zn  Zn13  1  0.536953  0.770005  0.660251  1
  Zn  Zn14  1  0.339749  0.463047  0.229995  1
  Zn  Zn15  1  0.625762  0.265072  0.613181  1
  Zn  Zn16  1  0.386819  0.374238  0.734928  1
  Zn  Zn17  1  0.770005  0.660251  0.536953  1
  Zn  Zn18  1  0.229995  0.339749  0.463047  1
  Zn  Zn19  1  0.734928  0.386819  0.374238  1
  Zn  Zn20  1  0.265072  0.613181  0.625762  1
  Zn  Zn21  1  0.000000  0.000000  0.000000  1
  Ga  Ga22  1  0.225828  0.553500  0.914436  1
  Ga  Ga23  1  0.601071  0.778757  0.956572  1
  Ga  Ga24  1  0.879371  0.730941  0.052301  1
  Ga  Ga25  1  0.141837  0.672147  0.176649  1
  Ga  Ga26  1  0.672147  0.176649  0.141837  1
  Ga  Ga27  1  0.947699  0.120629  0.269059  1
  Ga  Ga28  1  0.176649  0.141837  0.672147  1
  Ga  Ga29  1  0.956572  0.601071  0.778757  1
  Ga  Ga30  1  0.327853  0.823351  0.858163  1
  Ga  Ga31  1  0.269059  0.947699  0.120629  1
  Ga  Ga32  1  0.052301  0.879371  0.730941  1
  Ga  Ga33  1  0.085564  0.774172  0.446500  1
  Ga  Ga34  1  0.398929  0.221243  0.043428  1
  Ga  Ga35  1  0.221243  0.043428  0.398929  1
  Ga  Ga36  1  0.446500  0.085564  0.774172  1
  Ga  Ga37  1  0.774172  0.446500  0.085564  1
  Ga  Ga38  1  0.500000  0.500000  0.000000  1
  Ga  Ga39  1  0.730941  0.052301  0.879371  1
  Ga  Ga40  1  0.120629  0.269059  0.947699  1
  Ga  Ga41  1  0.914436  0.225828  0.553500  1
  Ga  Ga42  1  0.043428  0.398929  0.221243  1
  Ga  Ga43  1  0.858163  0.327853  0.823351  1
  Ga  Ga44  1  0.778757  0.956572  0.601071  1
  Ga  Ga45  1  0.823351  0.858163  0.327853  1
  Ga  Ga46  1  0.553500  0.914436  0.225828  1
  Ga  Ga47  1  0.000000  0.500000  0.500000  1
  Ga  Ga48  1  0.500000  0.000000  0.500000  1
