# generated using pymatgen
data_MgMo2O7
_symmetry_space_group_name_H-M   'P 1'
_cell_length_a   5.79234456
_cell_length_b   8.28940500
_cell_length_c   14.15298309
_cell_angle_alpha   97.17371410
_cell_angle_beta   90.00000000
_cell_angle_gamma   90.00000000
_symmetry_Int_Tables_number   1
_chemical_formula_structural   MgMo2O7
_chemical_formula_sum   'Mg4 Mo8 O28'
_cell_volume   674.23725169
_cell_formula_units_Z   4
loop_
 _symmetry_equiv_pos_site_id
 _symmetry_equiv_pos_as_xyz
  1  'x, y, z'
loop_
 _atom_site_type_symbol
 _atom_site_label
 _atom_site_symmetry_multiplicity
 _atom_site_fract_x
 _atom_site_fract_y
 _atom_site_fract_z
 _atom_site_occupancy
  O  O0  1  0.820262  0.605687  0.754297  1
  O  O1  1  0.320261  0.894313  0.745704  1
  O  O2  1  0.179739  0.394312  0.245703  1
  O  O3  1  0.679739  0.105687  0.254297  1
  O  O4  1  0.632751  0.576522  0.937698  1
  O  O5  1  0.132751  0.923478  0.562302  1
  O  O6  1  0.367247  0.423478  0.062302  1
  O  O7  1  0.867248  0.076523  0.437698  1
  O  O8  1  0.128592  0.580930  0.904461  1
  O  O9  1  0.628592  0.919070  0.595538  1
  O  O10  1  0.871408  0.419070  0.095539  1
  O  O11  1  0.371408  0.080929  0.404461  1
  O  O12  1  0.388811  0.726453  0.415301  1
  O  O13  1  0.888811  0.773548  0.084699  1
  O  O14  1  0.611190  0.273548  0.584699  1
  O  O15  1  0.111189  0.226453  0.915302  1
  O  O16  1  0.615171  0.619503  0.237344  1
  O  O17  1  0.115170  0.880498  0.262656  1
  O  O18  1  0.384830  0.380498  0.762657  1
  O  O19  1  0.884828  0.119503  0.737343  1
  O  O20  1  0.871316  0.898740  0.893081  1
  O  O21  1  0.379594  0.785626  0.095404  1
  O  O22  1  0.120406  0.285626  0.595404  1
  O  O23  1  0.620406  0.214375  0.904596  1
  O  O24  1  0.628685  0.398740  0.393081  1
  O  O25  1  0.128684  0.101259  0.106919  1
  O  O26  1  0.371316  0.601260  0.606919  1
  O  O27  1  0.879594  0.714375  0.404596  1
  Mg  Mg28  1  0.372903  0.397465  0.909233  1
  Mg  Mg29  1  0.872903  0.102534  0.590768  1
  Mg  Mg30  1  0.627097  0.602534  0.090767  1
  Mg  Mg31  1  0.127097  0.897465  0.409233  1
  Mo  Mo32  1  0.136223  0.334360  0.125713  1
  Mo  Mo33  1  0.363777  0.834359  0.625713  1
  Mo  Mo34  1  0.863777  0.665641  0.874287  1
  Mo  Mo35  1  0.636224  0.165641  0.374288  1
  Mo  Mo36  1  0.873786  0.114750  0.861049  1
  Mo  Mo37  1  0.373785  0.385250  0.638951  1
  Mo  Mo38  1  0.126215  0.885250  0.138951  1
  Mo  Mo39  1  0.626215  0.614750  0.361050  1
