# generated using pymatgen
data_LuH18C3S3(O2F)9
_symmetry_space_group_name_H-M   'P 1'
_cell_length_a   13.47599525
_cell_length_b   13.47599541
_cell_length_c   7.67476883
_cell_angle_alpha   90.00000000
_cell_angle_beta   90.00000000
_cell_angle_gamma   119.99999964
_symmetry_Int_Tables_number   1
_chemical_formula_structural   LuH18C3S3(O2F)9
_chemical_formula_sum   'Lu2 H36 C6 S6 O36 F18'
_cell_volume   1207.02882057
_cell_formula_units_Z   2
loop_
 _symmetry_equiv_pos_site_id
 _symmetry_equiv_pos_as_xyz
  1  'x, y, z'
loop_
 _atom_site_type_symbol
 _atom_site_label
 _atom_site_symmetry_multiplicity
 _atom_site_fract_x
 _atom_site_fract_y
 _atom_site_fract_z
 _atom_site_occupancy
  Lu  Lu0  1  0.333333  0.666667  0.250000  1
  Lu  Lu1  1  0.666667  0.333333  0.750000  1
  O  O2  1  0.346462  0.483383  0.250000  1
  O  O3  1  0.863079  0.346462  0.750000  1
  O  O4  1  0.483383  0.136921  0.750000  1
  O  O5  1  0.516617  0.863079  0.250000  1
  O  O6  1  0.136921  0.653538  0.250000  1
  O  O7  1  0.653538  0.516617  0.750000  1
  H  H8  1  0.348239  0.441994  0.146057  1
  H  H9  1  0.906245  0.348239  0.646057  1
  H  H10  1  0.441994  0.093755  0.646057  1
  H  H11  1  0.558006  0.906245  0.146057  1
  H  H12  1  0.093755  0.651761  0.146057  1
  H  H13  1  0.651761  0.558006  0.646057  1
  H  H14  1  0.651761  0.558006  0.853943  1
  H  H15  1  0.093755  0.651761  0.353943  1
  H  H16  1  0.558006  0.906245  0.353943  1
  H  H17  1  0.441994  0.093755  0.853943  1
  H  H18  1  0.906245  0.348239  0.853943  1
  H  H19  1  0.348239  0.441994  0.353943  1
  O  O20  1  0.210056  0.544875  0.458808  1
  O  O21  1  0.665181  0.210056  0.958808  1
  O  O22  1  0.544875  0.334819  0.958808  1
  O  O23  1  0.455125  0.665181  0.458808  1
  O  O24  1  0.334819  0.789944  0.458808  1
  O  O25  1  0.789944  0.455125  0.958808  1
  O  O26  1  0.789944  0.455125  0.541192  1
  O  O27  1  0.334819  0.789944  0.041192  1
  O  O28  1  0.455125  0.665181  0.041192  1
  O  O29  1  0.544875  0.334819  0.541192  1
  O  O30  1  0.665181  0.210056  0.541192  1
  O  O31  1  0.210056  0.544875  0.041192  1
  H  H32  1  0.129031  0.488242  0.435479  1
  H  H33  1  0.640789  0.129031  0.935479  1
  H  H34  1  0.488242  0.359211  0.935479  1
  H  H35  1  0.511758  0.640789  0.435479  1
  H  H36  1  0.359211  0.870969  0.435479  1
  H  H37  1  0.870969  0.511758  0.935479  1
  H  H38  1  0.870969  0.511758  0.564521  1
  H  H39  1  0.359211  0.870969  0.064521  1
  H  H40  1  0.511758  0.640789  0.064521  1
  H  H41  1  0.488242  0.359211  0.564521  1
  H  H42  1  0.640789  0.129031  0.564521  1
  H  H43  1  0.129031  0.488242  0.064521  1
  H  H44  1  0.234630  0.516065  0.558831  1
  H  H45  1  0.718564  0.234630  0.058831  1
  H  H46  1  0.516065  0.281436  0.058831  1
  H  H47  1  0.483935  0.718564  0.558831  1
  H  H48  1  0.281436  0.765370  0.558831  1
  H  H49  1  0.765370  0.483935  0.058831  1
  H  H50  1  0.765370  0.483935  0.441169  1
  H  H51  1  0.281436  0.765370  0.941169  1
  H  H52  1  0.483935  0.718564  0.941169  1
  H  H53  1  0.516065  0.281436  0.441169  1
  H  H54  1  0.718564  0.234630  0.441169  1
  H  H55  1  0.234630  0.516065  0.941169  1
  S  S56  1  0.312509  0.386941  0.750000  1
  S  S57  1  0.925568  0.312509  0.250000  1
  S  S58  1  0.386941  0.074432  0.250000  1
  S  S59  1  0.613059  0.925568  0.750000  1
  S  S60  1  0.074432  0.687491  0.750000  1
  S  S61  1  0.687491  0.613059  0.250000  1
  O  O62  1  0.262561  0.462169  0.750000  1
  O  O63  1  0.800392  0.262561  0.250000  1
  O  O64  1  0.462169  0.199608  0.250000  1
  O  O65  1  0.537831  0.800392  0.750000  1
  O  O66  1  0.199608  0.737439  0.750000  1
  O  O67  1  0.737439  0.537831  0.250000  1
  O  O68  1  0.372849  0.392003  0.588779  1
  O  O69  1  0.980846  0.372849  0.088779  1
  O  O70  1  0.392003  0.019154  0.088779  1
  O  O71  1  0.607997  0.980846  0.588779  1
  O  O72  1  0.019154  0.627151  0.588779  1
  O  O73  1  0.627151  0.607997  0.088779  1
  O  O74  1  0.627151  0.607997  0.411221  1
  O  O75  1  0.019154  0.627151  0.911221  1
  O  O76  1  0.607997  0.980846  0.911221  1
  O  O77  1  0.392003  0.019154  0.411221  1
  O  O78  1  0.980846  0.372849  0.411221  1
  O  O79  1  0.372849  0.392003  0.911221  1
  C  C80  1  0.183905  0.239998  0.750000  1
  C  C81  1  0.943907  0.183905  0.250000  1
  C  C82  1  0.239998  0.056093  0.250000  1
  C  C83  1  0.760002  0.943907  0.750000  1
  C  C84  1  0.056093  0.816095  0.750000  1
  C  C85  1  0.816095  0.760002  0.250000  1
  F  F86  1  0.216274  0.159961  0.750000  1
  F  F87  1  0.056313  0.216274  0.250000  1
  F  F88  1  0.159961  0.943687  0.250000  1
  F  F89  1  0.840039  0.056313  0.750000  1
  F  F90  1  0.943687  0.783726  0.750000  1
  F  F91  1  0.783726  0.840039  0.250000  1
  F  F92  1  0.119479  0.225527  0.606900  1
  F  F93  1  0.893952  0.119479  0.106900  1
  F  F94  1  0.225527  0.106048  0.106900  1
  F  F95  1  0.774473  0.893952  0.606900  1
  F  F96  1  0.106048  0.880521  0.606900  1
  F  F97  1  0.880521  0.774473  0.106900  1
  F  F98  1  0.880521  0.774473  0.393100  1
  F  F99  1  0.106048  0.880521  0.893100  1
  F  F100  1  0.774473  0.893952  0.893100  1
  F  F101  1  0.225527  0.106048  0.393100  1
  F  F102  1  0.893952  0.119479  0.393100  1
  F  F103  1  0.119479  0.225527  0.893100  1
