# generated using pymatgen
data_Li2V(PO4)2
_symmetry_space_group_name_H-M   'P 1'
_cell_length_a   8.05082867
_cell_length_b   5.34440971
_cell_length_c   6.40175653
_cell_angle_alpha   90.00000000
_cell_angle_beta   91.78765672
_cell_angle_gamma   90.00000000
_symmetry_Int_Tables_number   1
_chemical_formula_structural   Li2V(PO4)2
_chemical_formula_sum   'Li4 V2 P4 O16'
_cell_volume   275.31385106
_cell_formula_units_Z   2
loop_
 _symmetry_equiv_pos_site_id
 _symmetry_equiv_pos_as_xyz
  1  'x, y, z'
loop_
 _atom_site_type_symbol
 _atom_site_label
 _atom_site_symmetry_multiplicity
 _atom_site_fract_x
 _atom_site_fract_y
 _atom_site_fract_z
 _atom_site_occupancy
  Li  Li0  1  0.927750  0.250000  0.717599  1
  Li  Li1  1  0.752486  0.750000  0.494079  1
  Li  Li2  1  0.253380  0.250000  0.491713  1
  Li  Li3  1  0.427445  0.750000  0.719538  1
  V  V4  1  0.755657  0.750000  0.009797  1
  V  V5  1  0.255642  0.250000  0.009574  1
  P  P6  1  0.901880  0.250000  0.231380  1
  P  P7  1  0.595109  0.250000  0.765669  1
  P  P8  1  0.401867  0.750000  0.232510  1
  P  P9  1  0.095083  0.750000  0.766581  1
  O  O10  1  0.786477  0.487586  0.215963  1
  O  O11  1  0.286610  0.987859  0.216402  1
  O  O12  1  0.990820  0.750000  0.570436  1
  O  O13  1  0.514072  0.750000  0.035509  1
  O  O14  1  0.491300  0.250000  0.569323  1
  O  O15  1  0.485810  0.250000  0.963569  1
  O  O16  1  0.013861  0.250000  0.034257  1
  O  O17  1  0.986156  0.750000  0.964685  1
  O  O18  1  0.715314  0.484727  0.781536  1
  O  O19  1  0.715314  0.015273  0.781536  1
  O  O20  1  0.215418  0.515427  0.781887  1
  O  O21  1  0.786477  0.012414  0.215963  1
  O  O22  1  0.500663  0.750000  0.435550  1
  O  O23  1  0.001298  0.250000  0.434243  1
  O  O24  1  0.286610  0.512141  0.216402  1
  O  O25  1  0.215418  0.984573  0.781887  1
