# generated using pymatgen
data_Er3Si3Ni
_symmetry_space_group_name_H-M   'P 1'
_cell_length_a   4.16275685
_cell_length_b   5.53647080
_cell_length_c   12.76082255
_cell_angle_alpha   84.75325712
_cell_angle_beta   80.61271442
_cell_angle_gamma   67.91760449
_symmetry_Int_Tables_number   1
_chemical_formula_structural   Er3Si3Ni
_chemical_formula_sum   'Er6 Si6 Ni2'
_cell_volume   268.72904315
_cell_formula_units_Z   2
loop_
 _symmetry_equiv_pos_site_id
 _symmetry_equiv_pos_as_xyz
  1  'x, y, z'
loop_
 _atom_site_type_symbol
 _atom_site_label
 _atom_site_symmetry_multiplicity
 _atom_site_fract_x
 _atom_site_fract_y
 _atom_site_fract_z
 _atom_site_occupancy
  Er  Er0  1  0.469780  0.680187  0.380252  1
  Er  Er1  1  0.602230  0.716932  0.078609  1
  Er  Er2  1  0.747042  0.733516  0.772401  1
  Er  Er3  1  0.530220  0.319813  0.619748  1
  Er  Er4  1  0.397770  0.283068  0.921391  1
  Er  Er5  1  0.252958  0.266484  0.227599  1
  Si  Si6  1  0.863883  0.728899  0.543335  1
  Si  Si7  1  0.954414  0.855147  0.236026  1
  Si  Si8  1  0.886016  0.151882  0.076086  1
  Si  Si9  1  0.113984  0.848118  0.923914  1
  Si  Si10  1  0.136117  0.271101  0.456665  1
  Si  Si11  1  0.045586  0.144853  0.763974  1
  Ni  Ni12  1  0.752406  0.092709  0.402478  1
  Ni  Ni13  1  0.247593  0.907291  0.597522  1
