# generated using pymatgen
data_K2Ba(NO2)4
_symmetry_space_group_name_H-M   'P 1'
_cell_length_a   9.15400877
_cell_length_b   9.15369685
_cell_length_c   13.21526746
_cell_angle_alpha   108.86621277
_cell_angle_beta   108.83611361
_cell_angle_gamma   93.85259168
_symmetry_Int_Tables_number   1
_chemical_formula_structural   K2Ba(NO2)4
_chemical_formula_sum   'K8 Ba4 N16 O32'
_cell_volume   973.36689005
_cell_formula_units_Z   4
loop_
 _symmetry_equiv_pos_site_id
 _symmetry_equiv_pos_as_xyz
  1  'x, y, z'
loop_
 _atom_site_type_symbol
 _atom_site_label
 _atom_site_symmetry_multiplicity
 _atom_site_fract_x
 _atom_site_fract_y
 _atom_site_fract_z
 _atom_site_occupancy
  K  K0  1  0.577155  0.089997  0.164876  1
  K  K1  1  0.925079  0.412368  0.835140  1
  K  K2  1  0.911365  0.924228  0.335124  1
  K  K3  1  0.422845  0.910003  0.835124  1
  K  K4  1  0.588921  0.576054  0.664905  1
  K  K5  1  0.411079  0.423946  0.335095  1
  K  K6  1  0.088635  0.075772  0.664876  1
  K  K7  1  0.074921  0.587632  0.164860  1
  Ba  Ba8  1  0.500000  0.500000  0.000000  1
  Ba  Ba9  1  0.500000  0.000000  0.500000  1
  Ba  Ba10  1  0.000000  0.000000  0.000000  1
  Ba  Ba11  1  0.000000  0.500000  0.500000  1
  N  N12  1  0.731037  0.231080  0.499994  1
  N  N13  1  0.508620  0.257699  0.766309  1
  N  N14  1  0.731233  0.731194  0.999994  1
  N  N15  1  0.234501  0.769358  0.003946  1
  N  N16  1  0.756186  0.511159  0.267351  1
  N  N17  1  0.230488  0.266048  0.496445  1
  N  N18  1  0.268963  0.768920  0.500006  1
  N  N19  1  0.765499  0.230642  0.996054  1
  N  N20  1  0.258213  0.007022  0.265210  1
  N  N21  1  0.009607  0.756621  0.766217  1
  N  N22  1  0.741787  0.992978  0.734790  1
  N  N23  1  0.769512  0.733952  0.503555  1
  N  N24  1  0.491380  0.742301  0.233691  1
  N  N25  1  0.268767  0.268806  0.000006  1
  N  N26  1  0.990393  0.243379  0.233783  1
  N  N27  1  0.243814  0.488841  0.732649  1
  O  O28  1  0.906130  0.208125  0.285724  1
  O  O29  1  0.077615  0.379577  0.285726  1
  O  O30  1  0.093870  0.791875  0.714276  1
  O  O31  1  0.692831  0.323226  0.445697  1
  O  O32  1  0.632931  0.699771  0.504228  1
  O  O33  1  0.371742  0.804149  0.004563  1
  O  O34  1  0.307169  0.676774  0.554303  1
  O  O35  1  0.195661  0.128795  0.495788  1
  O  O36  1  0.292772  0.092713  0.213943  1
  O  O37  1  0.200313  0.632726  0.004559  1
  O  O38  1  0.877469  0.247069  0.554279  1
  O  O39  1  0.707228  0.907287  0.786057  1
  O  O40  1  0.628258  0.195851  0.995437  1
  O  O41  1  0.790229  0.598004  0.216730  1
  O  O42  1  0.799687  0.367274  0.995441  1
  O  O43  1  0.618713  0.426474  0.216727  1
  O  O44  1  0.122531  0.752931  0.445721  1
  O  O45  1  0.252780  0.122333  0.945698  1
  O  O46  1  0.367069  0.300229  0.495772  1
  O  O47  1  0.403139  0.708904  0.283638  1
  O  O48  1  0.823401  0.692963  0.945682  1
  O  O49  1  0.922385  0.620423  0.714274  1
  O  O50  1  0.804339  0.871205  0.504212  1
  O  O51  1  0.596861  0.291096  0.716362  1
  O  O52  1  0.574739  0.880492  0.283641  1
  O  O53  1  0.425261  0.119508  0.716359  1
  O  O54  1  0.176599  0.307037  0.054318  1
  O  O55  1  0.747220  0.877667  0.054302  1
  O  O56  1  0.121254  0.921172  0.213945  1
  O  O57  1  0.381287  0.573526  0.783273  1
  O  O58  1  0.878746  0.078828  0.786055  1
  O  O59  1  0.209771  0.401996  0.783270  1
