# generated using pymatgen
data_PrZr2F11
_symmetry_space_group_name_H-M   'P 1'
_cell_length_a   7.90108171
_cell_length_b   8.51402682
_cell_length_c   8.51402695
_cell_angle_alpha   73.62623444
_cell_angle_beta   62.35423237
_cell_angle_gamma   62.35422924
_symmetry_Int_Tables_number   1
_chemical_formula_structural   PrZr2F11
_chemical_formula_sum   'Pr2 Zr4 F22'
_cell_volume   447.80661335
_cell_formula_units_Z   2
loop_
 _symmetry_equiv_pos_site_id
 _symmetry_equiv_pos_as_xyz
  1  'x, y, z'
loop_
 _atom_site_type_symbol
 _atom_site_label
 _atom_site_symmetry_multiplicity
 _atom_site_fract_x
 _atom_site_fract_y
 _atom_site_fract_z
 _atom_site_occupancy
  Pr  Pr0  1  0.750000  0.250000  0.250000  1
  Pr  Pr1  1  0.250000  0.750000  0.750000  1
  Zr  Zr2  1  0.633576  0.819351  0.180649  1
  Zr  Zr3  1  0.366424  0.180649  0.819351  1
  Zr  Zr4  1  0.866424  0.319351  0.680649  1
  Zr  Zr5  1  0.133576  0.680649  0.319351  1
  F  F6  1  0.761227  0.321430  0.952149  1
  F  F7  1  0.870385  0.719638  0.280362  1
  F  F8  1  0.965194  0.952149  0.321430  1
  F  F9  1  0.365675  0.946228  0.793807  1
  F  F10  1  0.629615  0.219638  0.780362  1
  F  F11  1  0.894290  0.793807  0.946228  1
  F  F12  1  0.738773  0.547851  0.178570  1
  F  F13  1  0.394290  0.446228  0.293807  1
  F  F14  1  0.370385  0.780362  0.219638  1
  F  F15  1  0.865675  0.293807  0.446228  1
  F  F16  1  0.261227  0.452149  0.821430  1
  F  F17  1  0.134325  0.706193  0.553772  1
  F  F18  1  0.605710  0.553772  0.706193  1
  F  F19  1  0.034806  0.047851  0.678570  1
  F  F20  1  0.500000  0.000000  0.000000  1
  F  F21  1  0.465194  0.821430  0.452149  1
  F  F22  1  0.105710  0.206193  0.053772  1
  F  F23  1  0.238773  0.678570  0.047851  1
  F  F24  1  0.534806  0.178570  0.547851  1
  F  F25  1  0.129615  0.280362  0.719638  1
  F  F26  1  0.634325  0.053772  0.206193  1
  F  F27  1  0.000000  0.500000  0.500000  1
