# generated using pymatgen
data_SeBr
_symmetry_space_group_name_H-M   'P 1'
_cell_length_a   5.31824551
_cell_length_b   7.70196456
_cell_length_c   15.24108681
_cell_angle_alpha   90.00000000
_cell_angle_beta   90.00000000
_cell_angle_gamma   95.56285881
_symmetry_Int_Tables_number   1
_chemical_formula_structural   SeBr
_chemical_formula_sum   'Se8 Br8'
_cell_volume   621.34909605
_cell_formula_units_Z   8
loop_
 _symmetry_equiv_pos_site_id
 _symmetry_equiv_pos_as_xyz
  1  'x, y, z'
loop_
 _atom_site_type_symbol
 _atom_site_label
 _atom_site_symmetry_multiplicity
 _atom_site_fract_x
 _atom_site_fract_y
 _atom_site_fract_z
 _atom_site_occupancy
  Se  Se0  1  0.045574  0.398281  0.137763  1
  Se  Se1  1  0.454426  0.601719  0.637763  1
  Se  Se2  1  0.954426  0.601719  0.862237  1
  Se  Se3  1  0.545574  0.398281  0.362237  1
  Se  Se4  1  0.812038  0.210446  0.051344  1
  Se  Se5  1  0.687962  0.789554  0.551344  1
  Se  Se6  1  0.187962  0.789554  0.948656  1
  Se  Se7  1  0.312038  0.210446  0.448656  1
  Br  Br8  1  0.840111  0.665727  0.139874  1
  Br  Br9  1  0.659889  0.334273  0.639874  1
  Br  Br10  1  0.159889  0.334273  0.860126  1
  Br  Br11  1  0.340111  0.665727  0.360126  1
  Br  Br12  1  0.491074  0.054592  0.143496  1
  Br  Br13  1  0.008926  0.945408  0.643496  1
  Br  Br14  1  0.508926  0.945408  0.856504  1
  Br  Br15  1  0.991074  0.054592  0.356504  1
