# generated using pymatgen
data_AlGaCl4
_symmetry_space_group_name_H-M   'P 1'
_cell_length_a   7.27746857
_cell_length_b   9.60520736
_cell_length_c   10.23749933
_cell_angle_alpha   90.00000000
_cell_angle_beta   90.00000000
_cell_angle_gamma   93.36319816
_symmetry_Int_Tables_number   1
_chemical_formula_structural   AlGaCl4
_chemical_formula_sum   'Al4 Ga4 Cl16'
_cell_volume   714.38503194
_cell_formula_units_Z   4
loop_
 _symmetry_equiv_pos_site_id
 _symmetry_equiv_pos_as_xyz
  1  'x, y, z'
loop_
 _atom_site_type_symbol
 _atom_site_label
 _atom_site_symmetry_multiplicity
 _atom_site_fract_x
 _atom_site_fract_y
 _atom_site_fract_z
 _atom_site_occupancy
  Ga  Ga0  1  0.853342  0.788592  0.712990  1
  Ga  Ga1  1  0.646658  0.711408  0.212990  1
  Ga  Ga2  1  0.146658  0.211408  0.287010  1
  Ga  Ga3  1  0.353342  0.288592  0.787010  1
  Al  Al4  1  0.257020  0.682467  0.455030  1
  Al  Al5  1  0.242980  0.817533  0.955030  1
  Al  Al6  1  0.742980  0.317533  0.544970  1
  Al  Al7  1  0.757020  0.182467  0.044970  1
  Cl  Cl8  1  0.535556  0.319520  0.069539  1
  Cl  Cl9  1  0.964444  0.180480  0.569539  1
  Cl  Cl10  1  0.464444  0.680480  0.930461  1
  Cl  Cl11  1  0.035556  0.819520  0.430461  1
  Cl  Cl12  1  0.291471  0.553734  0.283344  1
  Cl  Cl13  1  0.208529  0.946266  0.783344  1
  Cl  Cl14  1  0.708529  0.446266  0.716656  1
  Cl  Cl15  1  0.791471  0.053734  0.216656  1
  Cl  Cl16  1  0.981014  0.697963  0.971046  1
  Cl  Cl17  1  0.518986  0.802037  0.471046  1
  Cl  Cl18  1  0.018986  0.302037  0.028954  1
  Cl  Cl19  1  0.481014  0.197963  0.528954  1
  Cl  Cl20  1  0.803321  0.439272  0.372221  1
  Cl  Cl21  1  0.696679  0.060728  0.872221  1
  Cl  Cl22  1  0.196679  0.560728  0.627779  1
  Cl  Cl23  1  0.303321  0.939272  0.127779  1
