# generated using pymatgen
data_LaNbO4
_symmetry_space_group_name_H-M   'P 1'
_cell_length_a   5.46005648
_cell_length_b   5.46032633
_cell_length_c   7.01768569
_cell_angle_alpha   112.89435636
_cell_angle_beta   112.88646043
_cell_angle_gamma   90.00117484
_symmetry_Int_Tables_number   1
_chemical_formula_structural   LaNbO4
_chemical_formula_sum   'La2 Nb2 O8'
_cell_volume   174.72307709
_cell_formula_units_Z   2
loop_
 _symmetry_equiv_pos_site_id
 _symmetry_equiv_pos_as_xyz
  1  'x, y, z'
loop_
 _atom_site_type_symbol
 _atom_site_label
 _atom_site_symmetry_multiplicity
 _atom_site_fract_x
 _atom_site_fract_y
 _atom_site_fract_z
 _atom_site_occupancy
  O  O0  1  0.951427  0.784890  0.576684  1
  O  O1  1  0.791790  0.451358  0.076688  1
  O  O2  1  0.284865  0.125344  0.076705  1
  O  O3  1  0.625296  0.291803  0.576698  1
  O  O4  1  0.374704  0.708197  0.423301  1
  O  O5  1  0.715134  0.874655  0.923294  1
  O  O6  1  0.048573  0.215111  0.423316  1
  O  O7  1  0.208209  0.548643  0.923312  1
  Nb  Nb8  1  0.875027  0.624967  0.749964  1
  Nb  Nb9  1  0.124972  0.375034  0.250036  1
  La  La10  1  0.374976  0.125000  0.750008  1
  La  La11  1  0.625024  0.875001  0.249992  1
