# generated using pymatgen
data_Tl2ZnN12
_symmetry_space_group_name_H-M   'P 1'
_cell_length_a   6.66731356
_cell_length_b   7.13904343
_cell_length_c   20.88355958
_cell_angle_alpha   90.00000000
_cell_angle_beta   90.00000000
_cell_angle_gamma   90.00000000
_symmetry_Int_Tables_number   1
_chemical_formula_structural   Tl2ZnN12
_chemical_formula_sum   'Tl8 Zn4 N48'
_cell_volume   994.02070321
_cell_formula_units_Z   4
loop_
 _symmetry_equiv_pos_site_id
 _symmetry_equiv_pos_as_xyz
  1  'x, y, z'
loop_
 _atom_site_type_symbol
 _atom_site_label
 _atom_site_symmetry_multiplicity
 _atom_site_fract_x
 _atom_site_fract_y
 _atom_site_fract_z
 _atom_site_occupancy
  Tl  Tl0  1  0.315268  0.855512  0.490372  1
  Tl  Tl1  1  0.295485  0.626028  0.302529  1
  Tl  Tl2  1  0.684732  0.855512  0.990372  1
  Tl  Tl3  1  0.704515  0.126028  0.697471  1
  Tl  Tl4  1  0.684732  0.355512  0.509628  1
  Tl  Tl5  1  0.295485  0.126028  0.197471  1
  Tl  Tl6  1  0.704515  0.626028  0.802529  1
  Tl  Tl7  1  0.315268  0.355512  0.009628  1
  Zn  Zn8  1  0.066182  0.604162  0.633175  1
  Zn  Zn9  1  0.066182  0.104162  0.866825  1
  Zn  Zn10  1  0.933818  0.604162  0.133175  1
  Zn  Zn11  1  0.933818  0.104162  0.366825  1
  N  N12  1  0.061128  0.704740  0.050619  1
  N  N13  1  0.516611  0.595847  0.633818  1
  N  N14  1  0.938872  0.204740  0.949381  1
  N  N15  1  0.061128  0.204740  0.449381  1
  N  N16  1  0.332462  0.558739  0.159869  1
  N  N17  1  0.039489  0.772567  0.710382  1
  N  N18  1  0.832288  0.724041  0.387297  1
  N  N19  1  0.516611  0.095847  0.866182  1
  N  N20  1  0.483389  0.595847  0.133818  1
  N  N21  1  0.699569  0.121999  0.101106  1
  N  N22  1  0.720623  0.467096  0.943934  1
  N  N23  1  0.633676  0.131534  0.395087  1
  N  N24  1  0.170712  0.838575  0.053802  1
  N  N25  1  0.804450  0.335277  0.269163  1
  N  N26  1  0.195550  0.835277  0.730837  1
  N  N27  1  0.657459  0.397562  0.248100  1
  N  N28  1  0.938872  0.704740  0.550619  1
  N  N29  1  0.633676  0.631534  0.104913  1
  N  N30  1  0.720623  0.967096  0.556066  1
  N  N31  1  0.167712  0.224041  0.612703  1
  N  N32  1  0.366324  0.631534  0.604913  1
  N  N33  1  0.972082  0.824520  0.375117  1
  N  N34  1  0.366324  0.131534  0.895087  1
  N  N35  1  0.195550  0.335277  0.769163  1
  N  N36  1  0.279377  0.467096  0.443934  1
  N  N37  1  0.167712  0.724041  0.887297  1
  N  N38  1  0.039489  0.272567  0.789618  1
  N  N39  1  0.027918  0.824520  0.875117  1
  N  N40  1  0.342541  0.397562  0.748100  1
  N  N41  1  0.027918  0.324520  0.624883  1
  N  N42  1  0.342541  0.897562  0.751900  1
  N  N43  1  0.667538  0.058739  0.840131  1
  N  N44  1  0.483389  0.095847  0.366182  1
  N  N45  1  0.300431  0.621999  0.898894  1
  N  N46  1  0.657459  0.897562  0.251900  1
  N  N47  1  0.170712  0.338575  0.446198  1
  N  N48  1  0.279377  0.967096  0.056066  1
  N  N49  1  0.699569  0.621999  0.398894  1
  N  N50  1  0.804450  0.835277  0.230837  1
  N  N51  1  0.960511  0.272567  0.289618  1
  N  N52  1  0.332462  0.058739  0.340131  1
  N  N53  1  0.829288  0.338575  0.946198  1
  N  N54  1  0.829288  0.838575  0.553802  1
  N  N55  1  0.972082  0.324520  0.124883  1
  N  N56  1  0.832288  0.224041  0.112703  1
  N  N57  1  0.667538  0.558739  0.659869  1
  N  N58  1  0.960511  0.772567  0.210382  1
  N  N59  1  0.300431  0.121999  0.601106  1
