# generated using pymatgen
data_NaLiSiB3HO8
_symmetry_space_group_name_H-M   'P 1'
_cell_length_a   6.83609762
_cell_length_b   6.87054392
_cell_length_c   14.01272058
_cell_angle_alpha   90.00000000
_cell_angle_beta   90.00000000
_cell_angle_gamma   110.76525259
_symmetry_Int_Tables_number   1
_chemical_formula_structural   NaLiSiB3HO8
_chemical_formula_sum   'Na4 Li4 Si4 B12 H4 O32'
_cell_volume   615.39282502
_cell_formula_units_Z   4
loop_
 _symmetry_equiv_pos_site_id
 _symmetry_equiv_pos_as_xyz
  1  'x, y, z'
loop_
 _atom_site_type_symbol
 _atom_site_label
 _atom_site_symmetry_multiplicity
 _atom_site_fract_x
 _atom_site_fract_y
 _atom_site_fract_z
 _atom_site_occupancy
  Na  Na0  1  0.281695  0.256473  0.508110  1
  Na  Na1  1  0.781695  0.756473  0.991890  1
  Na  Na2  1  0.718305  0.743527  0.491890  1
  Na  Na3  1  0.218305  0.243527  0.008110  1
  Li  Li4  1  0.334027  0.872668  0.801228  1
  Li  Li5  1  0.665973  0.127332  0.198772  1
  Li  Li6  1  0.834027  0.372668  0.698772  1
  Li  Li7  1  0.165973  0.627332  0.301228  1
  Si  Si8  1  0.167240  0.209176  0.752611  1
  Si  Si9  1  0.832760  0.790824  0.247389  1
  Si  Si10  1  0.667240  0.709176  0.747389  1
  Si  Si11  1  0.332760  0.290824  0.252611  1
  B  B12  1  0.752648  0.215798  0.492930  1
  B  B13  1  0.551222  0.316795  0.847261  1
  B  B14  1  0.747352  0.284202  0.992930  1
  B  B15  1  0.232768  0.915658  0.150961  1
  B  B16  1  0.247352  0.784202  0.507070  1
  B  B17  1  0.948778  0.183205  0.347261  1
  B  B18  1  0.267232  0.584342  0.650961  1
  B  B19  1  0.252648  0.715798  0.007070  1
  B  B20  1  0.448778  0.683205  0.152739  1
  B  B21  1  0.767232  0.084342  0.849039  1
  B  B22  1  0.732768  0.415658  0.349039  1
  B  B23  1  0.051222  0.816795  0.652739  1
  H  H24  1  0.750337  0.056006  0.612250  1
  H  H25  1  0.749663  0.443994  0.112250  1
  H  H26  1  0.249663  0.943994  0.387750  1
  H  H27  1  0.250337  0.556006  0.887750  1
  O  O28  1  0.062093  0.790748  0.215029  1
  O  O29  1  0.333302  0.520293  0.222394  1
  O  O30  1  0.175921  0.207897  0.345753  1
  O  O31  1  0.673666  0.354614  0.452360  1
  O  O32  1  0.326334  0.645386  0.547640  1
  O  O33  1  0.666698  0.479707  0.777606  1
  O  O34  1  0.705463  0.169143  0.589583  1
  O  O35  1  0.924134  0.379463  0.325012  1
  O  O36  1  0.294537  0.830857  0.410417  1
  O  O37  1  0.263464  0.138778  0.158753  1
  O  O38  1  0.324079  0.292103  0.845753  1
  O  O39  1  0.937907  0.209252  0.784971  1
  O  O40  1  0.236536  0.361222  0.658753  1
  O  O41  1  0.630222  0.381620  0.946797  1
  O  O42  1  0.763464  0.638778  0.341247  1
  O  O43  1  0.824079  0.792103  0.654247  1
  O  O44  1  0.075866  0.620537  0.674988  1
  O  O45  1  0.130222  0.881620  0.553203  1
  O  O46  1  0.173666  0.854614  0.047640  1
  O  O47  1  0.675921  0.707897  0.154247  1
  O  O48  1  0.826334  0.145386  0.952360  1
  O  O49  1  0.736536  0.861222  0.841247  1
  O  O50  1  0.437907  0.709252  0.715029  1
  O  O51  1  0.424134  0.879463  0.174988  1
  O  O52  1  0.833302  0.020293  0.277606  1
  O  O53  1  0.562093  0.290748  0.284971  1
  O  O54  1  0.869778  0.118380  0.446797  1
  O  O55  1  0.794537  0.330857  0.089583  1
  O  O56  1  0.166698  0.979707  0.722394  1
  O  O57  1  0.575866  0.120537  0.825012  1
  O  O58  1  0.369778  0.618380  0.053203  1
  O  O59  1  0.205463  0.669143  0.910417  1
