# generated using pymatgen
data_Ce20Mg19Zn81
_symmetry_space_group_name_H-M   'P 1'
_cell_length_a   14.75044141
_cell_length_b   14.75044086
_cell_length_c   14.75044148
_cell_angle_alpha   60.00000072
_cell_angle_beta   60.00000197
_cell_angle_gamma   60.00000129
_symmetry_Int_Tables_number   1
_chemical_formula_structural   Ce20Mg19Zn81
_chemical_formula_sum   'Ce20 Mg19 Zn81'
_cell_volume   2269.34252714
_cell_formula_units_Z   1
loop_
 _symmetry_equiv_pos_site_id
 _symmetry_equiv_pos_as_xyz
  1  'x, y, z'
loop_
 _atom_site_type_symbol
 _atom_site_label
 _atom_site_symmetry_multiplicity
 _atom_site_fract_x
 _atom_site_fract_y
 _atom_site_fract_z
 _atom_site_occupancy
  Ce  Ce0  1  0.153485  0.153485  0.153485  1
  Ce  Ce1  1  0.398032  0.398032  0.805904  1
  Ce  Ce2  1  0.966554  0.966554  0.533446  1
  Ce  Ce3  1  0.171960  0.171960  0.828040  1
  Ce  Ce4  1  0.398032  0.398032  0.398032  1
  Ce  Ce5  1  0.966554  0.533446  0.533446  1
  Ce  Ce6  1  0.805904  0.398032  0.398032  1
  Ce  Ce7  1  0.966554  0.533446  0.966554  1
  Ce  Ce8  1  0.153485  0.153485  0.539545  1
  Ce  Ce9  1  0.153485  0.539545  0.153485  1
  Ce  Ce10  1  0.539545  0.153485  0.153485  1
  Ce  Ce11  1  0.828040  0.171960  0.828040  1
  Ce  Ce12  1  0.398032  0.805904  0.398032  1
  Ce  Ce13  1  0.171960  0.828040  0.171960  1
  Ce  Ce14  1  0.533446  0.966554  0.533446  1
  Ce  Ce15  1  0.828040  0.171960  0.171960  1
  Ce  Ce16  1  0.533446  0.966554  0.966554  1
  Ce  Ce17  1  0.171960  0.828040  0.828040  1
  Ce  Ce18  1  0.533446  0.533446  0.966554  1
  Ce  Ce19  1  0.828040  0.828040  0.171960  1
  Mg  Mg20  1  0.773669  0.440488  0.773669  1
  Mg  Mg21  1  0.440488  0.773669  0.773669  1
  Mg  Mg22  1  0.012173  0.440488  0.773669  1
  Mg  Mg23  1  0.773669  0.012173  0.773669  1
  Mg  Mg24  1  0.773669  0.773669  0.440488  1
  Mg  Mg25  1  0.773669  0.012173  0.440488  1
  Mg  Mg26  1  0.012173  0.773669  0.440488  1
  Mg  Mg27  1  0.440488  0.012173  0.773669  1
  Mg  Mg28  1  0.667849  0.332151  0.332151  1
  Mg  Mg29  1  0.332151  0.332151  0.667849  1
  Mg  Mg30  1  0.332151  0.667849  0.667849  1
  Mg  Mg31  1  0.440488  0.773669  0.012173  1
  Mg  Mg32  1  0.667849  0.332151  0.667849  1
  Mg  Mg33  1  0.773669  0.773669  0.012173  1
  Mg  Mg34  1  0.667849  0.667849  0.332151  1
  Mg  Mg35  1  0.773669  0.440488  0.012173  1
  Mg  Mg36  1  0.250000  0.250000  0.250000  1
  Mg  Mg37  1  0.332151  0.667849  0.332151  1
  Mg  Mg38  1  0.012173  0.773669  0.773669  1
  Zn  Zn39  1  0.201928  0.383677  0.383677  1
  Zn  Zn40  1  0.587125  0.886681  0.349141  1
  Zn  Zn41  1  0.886681  0.349141  0.177053  1
  Zn  Zn42  1  0.239290  0.920237  0.920237  1
  Zn  Zn43  1  0.383677  0.383677  0.201928  1
  Zn  Zn44  1  0.672544  0.672544  0.672544  1
  Zn  Zn45  1  0.177053  0.349141  0.886681  1
  Zn  Zn46  1  0.886681  0.177053  0.587125  1
  Zn  Zn47  1  0.360984  0.546339  0.546339  1
  Zn  Zn48  1  0.587125  0.886681  0.177053  1
  Zn  Zn49  1  0.797125  0.797125  0.797125  1
  Zn  Zn50  1  0.672544  0.672544  0.982368  1
  Zn  Zn51  1  0.547685  0.732244  0.172386  1
  Zn  Zn52  1  0.547685  0.547685  0.172386  1
  Zn  Zn53  1  0.172386  0.547685  0.732244  1
  Zn  Zn54  1  0.383677  0.201928  0.030719  1
  Zn  Zn55  1  0.071438  0.785687  0.071438  1
  Zn  Zn56  1  0.546339  0.546339  0.546339  1
  Zn  Zn57  1  0.785687  0.071438  0.071438  1
  Zn  Zn58  1  0.383677  0.201928  0.383677  1
  Zn  Zn59  1  0.177053  0.349141  0.587125  1
  Zn  Zn60  1  0.349141  0.587125  0.177053  1
  Zn  Zn61  1  0.071438  0.071438  0.785687  1
  Zn  Zn62  1  0.349141  0.886681  0.587125  1
  Zn  Zn63  1  0.000692  0.704666  0.000692  1
  Zn  Zn64  1  0.608625  0.797125  0.797125  1
  Zn  Zn65  1  0.177053  0.587125  0.349141  1
  Zn  Zn66  1  0.172386  0.732244  0.547685  1
  Zn  Zn67  1  0.177053  0.886681  0.587125  1
  Zn  Zn68  1  0.547685  0.547685  0.732244  1
  Zn  Zn69  1  0.732244  0.547685  0.547685  1
  Zn  Zn70  1  0.704666  0.293950  0.000692  1
  Zn  Zn71  1  0.383677  0.383677  0.030719  1
  Zn  Zn72  1  0.293950  0.704666  0.000692  1
  Zn  Zn73  1  0.732244  0.547685  0.172386  1
  Zn  Zn74  1  0.886681  0.177053  0.349141  1
  Zn  Zn75  1  0.000000  0.000000  0.000000  1
  Zn  Zn76  1  0.349141  0.587125  0.886681  1
  Zn  Zn77  1  0.982368  0.672544  0.672544  1
  Zn  Zn78  1  0.177053  0.587125  0.886681  1
  Zn  Zn79  1  0.547685  0.172386  0.547685  1
  Zn  Zn80  1  0.172386  0.547685  0.547685  1
  Zn  Zn81  1  0.177053  0.886681  0.349141  1
  Zn  Zn82  1  0.293950  0.000692  0.704666  1
  Zn  Zn83  1  0.704666  0.000692  0.293950  1
  Zn  Zn84  1  0.000692  0.000692  0.704666  1
  Zn  Zn85  1  0.071438  0.071438  0.071438  1
  Zn  Zn86  1  0.030719  0.201928  0.383677  1
  Zn  Zn87  1  0.886681  0.349141  0.587125  1
  Zn  Zn88  1  0.547685  0.172386  0.732244  1
  Zn  Zn89  1  0.383677  0.030719  0.383677  1
  Zn  Zn90  1  0.349141  0.177053  0.587125  1
  Zn  Zn91  1  0.293950  0.000692  0.000692  1
  Zn  Zn92  1  0.587125  0.349141  0.886681  1
  Zn  Zn93  1  0.000692  0.000692  0.293950  1
  Zn  Zn94  1  0.349141  0.886681  0.177053  1
  Zn  Zn95  1  0.030719  0.383677  0.201928  1
  Zn  Zn96  1  0.000692  0.704666  0.293950  1
  Zn  Zn97  1  0.587125  0.177053  0.349141  1
  Zn  Zn98  1  0.546339  0.360984  0.546339  1
  Zn  Zn99  1  0.383677  0.030719  0.201928  1
  Zn  Zn100  1  0.587125  0.349141  0.177053  1
  Zn  Zn101  1  0.797125  0.797125  0.608625  1
  Zn  Zn102  1  0.920237  0.239290  0.920237  1
  Zn  Zn103  1  0.886681  0.587125  0.349141  1
  Zn  Zn104  1  0.547685  0.732244  0.547685  1
  Zn  Zn105  1  0.546339  0.546339  0.360984  1
  Zn  Zn106  1  0.000692  0.293950  0.704666  1
  Zn  Zn107  1  0.920237  0.920237  0.239290  1
  Zn  Zn108  1  0.797125  0.608625  0.797125  1
  Zn  Zn109  1  0.886681  0.587125  0.177053  1
  Zn  Zn110  1  0.000692  0.293950  0.000692  1
  Zn  Zn111  1  0.587125  0.177053  0.886681  1
  Zn  Zn112  1  0.201928  0.030719  0.383677  1
  Zn  Zn113  1  0.704666  0.000692  0.000692  1
  Zn  Zn114  1  0.672544  0.982368  0.672544  1
  Zn  Zn115  1  0.732244  0.172386  0.547685  1
  Zn  Zn116  1  0.030719  0.383677  0.383677  1
  Zn  Zn117  1  0.920237  0.920237  0.920237  1
  Zn  Zn118  1  0.349141  0.177053  0.886681  1
  Zn  Zn119  1  0.201928  0.383677  0.030719  1
