# generated using pymatgen
data_KSO3
_symmetry_space_group_name_H-M   'P 1'
_cell_length_a   10.14682989
_cell_length_b   10.14682945
_cell_length_c   6.49305907
_cell_angle_alpha   90.00000000
_cell_angle_beta   90.00000000
_cell_angle_gamma   120.00000147
_symmetry_Int_Tables_number   1
_chemical_formula_structural   KSO3
_chemical_formula_sum   'K6 S6 O18'
_cell_volume   578.94954816
_cell_formula_units_Z   6
loop_
 _symmetry_equiv_pos_site_id
 _symmetry_equiv_pos_as_xyz
  1  'x, y, z'
loop_
 _atom_site_type_symbol
 _atom_site_label
 _atom_site_symmetry_multiplicity
 _atom_site_fract_x
 _atom_site_fract_y
 _atom_site_fract_z
 _atom_site_occupancy
  K  K0  1  0.698675  0.698675  0.500000  1
  K  K1  1  0.363327  0.363327  0.000000  1
  K  K2  1  0.636673  0.000000  0.000000  1
  K  K3  1  0.301325  0.000000  0.500000  1
  K  K4  1  0.000000  0.636673  0.000000  1
  K  K5  1  1.000000  0.301325  0.500000  1
  S  S6  1  0.333333  0.666667  0.699144  1
  S  S7  1  0.000000  0.000000  0.830763  1
  S  S8  1  0.333333  0.666667  0.358715  1
  S  S9  1  0.666667  0.333333  0.300856  1
  S  S10  1  0.000000  0.000000  0.169237  1
  S  S11  1  0.666667  0.333333  0.641285  1
  O  O12  1  0.378960  0.824153  0.756768  1
  O  O13  1  0.621040  0.445193  0.243232  1
  O  O14  1  0.234393  0.728485  0.302520  1
  O  O15  1  0.939051  0.839554  0.226520  1
  O  O16  1  0.160446  0.099497  0.226520  1
  O  O17  1  0.505908  0.271515  0.697480  1
  O  O18  1  0.824153  0.378960  0.243232  1
  O  O19  1  0.060949  0.900503  0.773480  1
  O  O20  1  0.728485  0.234393  0.697480  1
  O  O21  1  0.839554  0.939051  0.773480  1
  O  O22  1  0.445193  0.621040  0.756768  1
  O  O23  1  0.099497  0.160446  0.773480  1
  O  O24  1  0.900503  0.060949  0.226520  1
  O  O25  1  0.494092  0.765607  0.302520  1
  O  O26  1  0.554807  0.175847  0.243232  1
  O  O27  1  0.271515  0.505908  0.302520  1
  O  O28  1  0.175847  0.554807  0.756768  1
  O  O29  1  0.765607  0.494092  0.697480  1
