# generated using pymatgen
data_Nb(PS4)2
_symmetry_space_group_name_H-M   'P 1'
_cell_length_a   10.82198190
_cell_length_b   11.96576293
_cell_length_c   11.78180668
_cell_angle_alpha   120.51785493
_cell_angle_beta   90.00000000
_cell_angle_gamma   90.00000000
_symmetry_Int_Tables_number   1
_chemical_formula_structural   Nb(PS4)2
_chemical_formula_sum   'Nb4 P8 S32'
_cell_volume   1314.31580208
_cell_formula_units_Z   4
loop_
 _symmetry_equiv_pos_site_id
 _symmetry_equiv_pos_as_xyz
  1  'x, y, z'
loop_
 _atom_site_type_symbol
 _atom_site_label
 _atom_site_symmetry_multiplicity
 _atom_site_fract_x
 _atom_site_fract_y
 _atom_site_fract_z
 _atom_site_occupancy
  Nb  Nb0  1  0.500000  0.571668  0.143335  1
  Nb  Nb1  1  0.500000  0.428332  0.856665  1
  Nb  Nb2  1  0.000000  0.071668  0.143335  1
  Nb  Nb3  1  0.000000  0.928332  0.856665  1
  P  P4  1  0.486422  0.874461  0.378696  1
  P  P5  1  0.013578  0.374461  0.378696  1
  P  P6  1  0.513578  0.504235  0.378696  1
  P  P7  1  0.986422  0.004235  0.378696  1
  P  P8  1  0.486422  0.495765  0.621304  1
  P  P9  1  0.013578  0.995765  0.621304  1
  P  P10  1  0.986422  0.625539  0.621304  1
  P  P11  1  0.513578  0.125539  0.621304  1
  S  S12  1  0.426786  0.629597  0.566094  1
  S  S13  1  0.607546  0.569568  0.771250  1
  S  S14  1  0.392454  0.430432  0.228750  1
  S  S15  1  0.647972  0.590047  0.334472  1
  S  S16  1  0.352028  0.744425  0.334472  1
  S  S17  1  0.852028  0.755575  0.665528  1
  S  S18  1  0.147972  0.909953  0.665528  1
  S  S19  1  0.690343  0.514087  1.000000  1
  S  S20  1  0.426786  0.063503  0.433906  1
  S  S21  1  0.107546  0.930432  0.228750  1
  S  S22  1  0.611090  0.361030  0.000000  1
  S  S23  1  0.573214  0.936497  0.566094  1
  S  S24  1  0.073214  0.129597  0.566094  1
  S  S25  1  0.309657  0.485913  0.000000  1
  S  S26  1  0.107546  0.701682  0.771250  1
  S  S27  1  0.392454  0.201682  0.771250  1
  S  S28  1  0.111090  0.138970  1.000000  1
  S  S29  1  0.852028  0.090047  0.334472  1
  S  S30  1  0.809657  0.014087  1.000000  1
  S  S31  1  0.388910  0.638970  1.000000  1
  S  S32  1  0.573214  0.370403  0.433906  1
  S  S33  1  0.892454  0.069568  0.771250  1
  S  S34  1  0.607546  0.798318  0.228750  1
  S  S35  1  0.190343  0.985913  0.000000  1
  S  S36  1  0.892454  0.298318  0.228750  1
  S  S37  1  0.926786  0.870403  0.433906  1
  S  S38  1  0.888910  0.861030  0.000000  1
  S  S39  1  0.647972  0.255575  0.665528  1
  S  S40  1  0.147972  0.244425  0.334472  1
  S  S41  1  0.352028  0.409953  0.665528  1
  S  S42  1  0.073214  0.563503  0.433906  1
  S  S43  1  0.926786  0.436497  0.566094  1
