# generated using pymatgen
data_Si(H3C)2
_symmetry_space_group_name_H-M   'P 1'
_cell_length_a   10.65533478
_cell_length_b   10.67120672
_cell_length_c   14.75402599
_cell_angle_alpha   76.68239122
_cell_angle_beta   88.88377953
_cell_angle_gamma   88.47242600
_symmetry_Int_Tables_number   1
_chemical_formula_structural   Si(H3C)2
_chemical_formula_sum   'Si16 H96 C32'
_cell_volume   1631.76293933
_cell_formula_units_Z   16
loop_
 _symmetry_equiv_pos_site_id
 _symmetry_equiv_pos_as_xyz
  1  'x, y, z'
loop_
 _atom_site_type_symbol
 _atom_site_label
 _atom_site_symmetry_multiplicity
 _atom_site_fract_x
 _atom_site_fract_y
 _atom_site_fract_z
 _atom_site_occupancy
  Si  Si0  1  0.952487  0.794871  0.999869  1
  Si  Si1  1  0.650599  0.417091  0.604440  1
  Si  Si2  1  0.134008  0.886971  0.917351  1
  Si  Si3  1  0.047513  0.205129  0.000131  1
  Si  Si4  1  0.291564  0.727501  0.907998  1
  Si  Si5  1  0.206659  0.048260  0.989502  1
  Si  Si6  1  0.195788  0.244270  0.428123  1
  Si  Si7  1  0.520253  0.282550  0.541083  1
  Si  Si8  1  0.793341  0.951740  0.010498  1
  Si  Si9  1  0.865992  0.113029  0.082649  1
  Si  Si10  1  0.320156  0.378385  0.497186  1
  Si  Si11  1  0.479747  0.717450  0.458917  1
  Si  Si12  1  0.679844  0.621615  0.502814  1
  Si  Si13  1  0.708436  0.272499  0.092002  1
  Si  Si14  1  0.349401  0.582909  0.395560  1
  Si  Si15  1  0.804212  0.755730  0.571877  1
  H  H16  1  0.382150  0.679302  0.620020  1
  H  H17  1  0.907549  0.667000  0.162615  1
  H  H18  1  0.225084  0.300252  0.657680  1
  H  H19  1  0.447463  0.653392  0.236221  1
  H  H20  1  0.791342  0.641581  0.968744  1
  H  H21  1  0.297427  0.800436  0.540273  1
  H  H22  1  0.687156  0.816575  0.153317  1
  H  H23  1  0.347515  0.906949  0.108137  1
  H  H24  1  0.634208  0.856937  0.654424  1
  H  H25  1  0.016042  0.041265  0.788156  1
  H  H26  1  0.895866  0.885698  0.422056  1
  H  H27  1  0.136284  0.433126  0.593756  1
  H  H28  1  0.591191  0.443062  0.978233  1
  H  H29  1  0.701802  0.719305  0.730192  1
  H  H30  1  0.640002  0.488023  0.755957  1
  H  H31  1  0.417955  0.856874  0.774396  1
  H  H32  1  0.056156  0.405010  0.321608  1
  H  H33  1  0.421953  0.073389  0.913994  1
  H  H34  1  0.983958  0.958735  0.211844  1
  H  H35  1  0.852508  0.437056  0.128965  1
  H  H36  1  0.756636  0.961461  0.453449  1
  H  H37  1  0.304871  0.536939  0.836444  1
  H  H38  1  0.617850  0.320698  0.379980  1
  H  H39  1  0.312844  0.183425  0.846683  1
  H  H40  1  0.945254  0.105436  0.244389  1
  H  H41  1  0.695129  0.463061  0.163556  1
  H  H42  1  0.720031  0.540769  0.355510  1
  H  H43  1  0.898711  0.970965  0.512256  1
  H  H44  1  0.978988  0.257299  0.365089  1
  H  H45  1  0.856551  0.313575  0.569523  1
  H  H46  1  0.477318  0.872701  0.882621  1
  H  H47  1  0.374029  0.215583  0.949935  1
  H  H48  1  0.133466  0.279887  0.136846  1
  H  H49  1  0.792580  0.230468  0.678126  1
  H  H50  1  0.298198  0.280695  0.269808  1
  H  H51  1  0.558387  0.162932  0.414015  1
  H  H52  1  0.243364  0.038539  0.546551  1
  H  H53  1  0.789664  0.338840  0.232715  1
  H  H54  1  0.489125  0.498611  0.705418  1
  H  H55  1  0.007399  0.630942  0.563390  1
  H  H56  1  0.958605  0.237269  0.838425  1
  H  H57  1  0.143449  0.686425  0.430477  1
  H  H58  1  0.104134  0.114302  0.577944  1
  H  H59  1  0.447522  0.057039  0.609396  1
  H  H60  1  0.041395  0.762731  0.161575  1
  H  H61  1  0.365792  0.143063  0.345576  1
  H  H62  1  0.441613  0.837068  0.585985  1
  H  H63  1  0.774916  0.699748  0.342320  1
  H  H64  1  0.055051  0.408381  0.058824  1
  H  H65  1  0.147492  0.562944  0.871035  1
  H  H66  1  0.992601  0.369058  0.436610  1
  H  H67  1  0.552537  0.346608  0.763779  1
  H  H68  1  0.258405  0.585291  0.067892  1
  H  H69  1  0.054431  0.618514  0.121481  1
  H  H70  1  0.208658  0.358419  0.031256  1
  H  H71  1  0.625971  0.784417  0.050065  1
  H  H72  1  0.092451  0.333000  0.837385  1
  H  H73  1  0.130694  0.621310  0.330596  1
  H  H74  1  0.588519  0.086396  0.662854  1
  H  H75  1  0.411481  0.913604  0.337146  1
  H  H76  1  0.171458  0.011152  0.751752  1
  H  H77  1  0.210336  0.661160  0.767285  1
  H  H78  1  0.863716  0.566874  0.406244  1
  H  H79  1  0.943844  0.594990  0.678392  1
  H  H80  1  0.380762  0.694627  0.068209  1
  H  H81  1  0.054746  0.894564  0.755611  1
  H  H82  1  0.944949  0.591619  0.941176  1
  H  H83  1  0.194076  0.916931  0.154976  1
  H  H84  1  0.021012  0.742701  0.634911  1
  H  H85  1  0.297597  0.047067  0.145875  1
  H  H86  1  0.552478  0.942961  0.390604  1
  H  H87  1  0.510875  0.501389  0.294582  1
  H  H88  1  0.408809  0.556938  0.021767  1
  H  H89  1  0.207420  0.769532  0.321874  1
  H  H90  1  0.619238  0.305373  0.931791  1
  H  H91  1  0.828542  0.988848  0.248248  1
  H  H92  1  0.866534  0.720113  0.863154  1
  H  H93  1  0.522683  0.127299  0.117379  1
  H  H94  1  0.490266  0.269982  0.157012  1
  H  H95  1  0.805924  0.083069  0.845024  1
  H  H96  1  0.578047  0.926611  0.086006  1
  H  H97  1  0.702573  0.199564  0.459727  1
  H  H98  1  0.741595  0.414709  0.932108  1
  H  H99  1  0.582045  0.143126  0.225604  1
  H  H100  1  0.509734  0.730018  0.842988  1
  H  H101  1  0.652485  0.093051  0.891863  1
  H  H102  1  0.279969  0.459231  0.644490  1
  H  H103  1  0.783920  0.866427  0.702825  1
  H  H104  1  0.101289  0.029035  0.487744  1
  H  H105  1  0.945569  0.381486  0.878519  1
  H  H106  1  0.869306  0.378690  0.669404  1
  H  H107  1  0.443209  0.149361  0.695359  1
  H  H108  1  0.702403  0.952933  0.854125  1
  H  H109  1  0.556791  0.850639  0.304641  1
  H  H110  1  0.216080  0.133573  0.297175  1
  H  H111  1  0.359998  0.511977  0.244043  1
  C  C112  1  0.502195  0.870441  0.363987  1
  C  C113  1  0.041857  0.327275  0.384040  1
  C  C114  1  0.497805  0.129559  0.636013  1
  C  C115  1  0.089491  0.966174  0.791443  1
  C  C116  1  0.423914  0.560030  0.282118  1
  C  C117  1  0.232470  0.611706  0.839340  1
  C  C118  1  0.341498  0.138620  0.918253  1
  C  C119  1  0.767530  0.388294  0.160660  1
  C  C120  1  0.232281  0.394727  0.608732  1
  C  C121  1  0.607727  0.237361  0.439066  1
  C  C122  1  0.842065  0.907312  0.481174  1
  C  C123  1  0.658502  0.861380  0.081747  1
  C  C124  1  0.007101  0.297472  0.877196  1
  C  C125  1  0.910509  0.033826  0.208557  1
  C  C126  1  0.722863  0.803787  0.674105  1
  C  C127  1  0.562770  0.195540  0.153748  1
  C  C128  1  0.958143  0.672725  0.615960  1
  C  C129  1  0.882080  0.676150  0.937174  1
  C  C130  1  0.992899  0.702528  0.122804  1
  C  C131  1  0.767719  0.605273  0.391268  1
  C  C132  1  0.192922  0.673325  0.367133  1
  C  C133  1  0.277137  0.196213  0.325895  1
  C  C134  1  0.576086  0.439970  0.717882  1
  C  C135  1  0.807078  0.326675  0.632867  1
  C  C136  1  0.392273  0.762639  0.560934  1
  C  C137  1  0.661241  0.367402  0.972410  1
  C  C138  1  0.338759  0.632598  0.027590  1
  C  C139  1  0.732990  0.027301  0.889039  1
  C  C140  1  0.437230  0.804460  0.846252  1
  C  C141  1  0.117920  0.323850  0.062826  1
  C  C142  1  0.267010  0.972699  0.110961  1
  C  C143  1  0.157935  0.092688  0.518826  1
