# generated using pymatgen
data_Ca(BiO2)2
_symmetry_space_group_name_H-M   'P 1'
_cell_length_a   10.36907474
_cell_length_b   10.36813765
_cell_length_c   11.93236771
_cell_angle_alpha   101.09702147
_cell_angle_beta   111.96927089
_cell_angle_gamma   110.36172168
_symmetry_Int_Tables_number   1
_chemical_formula_structural   Ca(BiO2)2
_chemical_formula_sum   'Ca8 Bi16 O32'
_cell_volume   1035.69593099
_cell_formula_units_Z   8
loop_
 _symmetry_equiv_pos_site_id
 _symmetry_equiv_pos_as_xyz
  1  'x, y, z'
loop_
 _atom_site_type_symbol
 _atom_site_label
 _atom_site_symmetry_multiplicity
 _atom_site_fract_x
 _atom_site_fract_y
 _atom_site_fract_z
 _atom_site_occupancy
  Ca  Ca0  1  0.345238  0.917804  0.337352  1
  Ca  Ca1  1  0.470687  0.647198  0.418662  1
  Ca  Ca2  1  0.654762  0.082196  0.662648  1
  Ca  Ca3  1  0.419684  0.492222  0.837365  1
  Ca  Ca4  1  0.228519  0.552047  0.081327  1
  Ca  Ca5  1  0.529313  0.352802  0.581337  1
  Ca  Ca6  1  0.771481  0.447953  0.918673  1
  Ca  Ca7  1  0.580316  0.507778  0.162635  1
  Bi  Bi8  1  0.216960  0.031155  0.561353  1
  Bi  Bi9  1  0.977307  0.447978  0.733832  1
  Bi  Bi10  1  0.022693  0.552022  0.266168  1
  Bi  Bi11  1  0.633015  0.230944  0.282200  1
  Bi  Bi12  1  0.832568  0.154315  0.007281  1
  Bi  Bi13  1  0.167432  0.845685  0.992719  1
  Bi  Bi14  1  0.469834  0.155577  0.938589  1
  Bi  Bi15  1  0.783040  0.968845  0.438647  1
  Bi  Bi16  1  0.530166  0.844423  0.061411  1
  Bi  Bi17  1  0.147087  0.325281  0.492813  1
  Bi  Bi18  1  0.366985  0.769056  0.717800  1
  Bi  Bi19  1  0.285834  0.256424  0.233911  1
  Bi  Bi20  1  0.948776  0.850777  0.217706  1
  Bi  Bi21  1  0.714166  0.743576  0.766089  1
  Bi  Bi22  1  0.852913  0.674719  0.507187  1
  Bi  Bi23  1  0.051224  0.149223  0.782294  1
  O  O24  1  0.245968  0.537627  0.665829  1
  O  O25  1  0.673397  0.176635  0.100761  1
  O  O26  1  0.430496  0.209001  0.120095  1
  O  O27  1  0.245755  0.664135  0.283977  1
  O  O28  1  0.970278  0.388889  0.074779  1
  O  O29  1  0.361095  0.846997  0.141880  1
  O  O30  1  0.029722  0.611111  0.925221  1
  O  O31  1  0.619922  0.538303  0.783962  1
  O  O32  1  0.754245  0.335865  0.716023  1
  O  O33  1  0.294932  0.280748  0.641969  1
  O  O34  1  0.131536  0.390117  0.867305  1
  O  O35  1  0.754032  0.462373  0.334171  1
  O  O36  1  0.477184  0.235625  0.367322  1
  O  O37  1  0.522816  0.764375  0.632678  1
  O  O38  1  0.871773  0.080135  0.834238  1
  O  O39  1  0.459378  0.623823  0.042623  1
  O  O40  1  0.075989  0.072659  0.399186  1
  O  O41  1  0.128227  0.919865  0.165762  1
  O  O42  1  0.868464  0.609883  0.132695  1
  O  O43  1  0.314110  0.395459  0.425271  1
  O  O44  1  0.418797  0.083238  0.542659  1
  O  O45  1  0.326603  0.823365  0.899239  1
  O  O46  1  0.911010  0.189585  0.620164  1
  O  O47  1  0.380078  0.461697  0.216038  1
  O  O48  1  0.581203  0.916762  0.457341  1
  O  O49  1  0.540622  0.376177  0.957377  1
  O  O50  1  0.569504  0.790999  0.879905  1
  O  O51  1  0.088990  0.810415  0.379836  1
  O  O52  1  0.685890  0.604541  0.574729  1
  O  O53  1  0.638905  0.153003  0.858120  1
  O  O54  1  0.705068  0.719252  0.358031  1
  O  O55  1  0.924011  0.927341  0.600814  1
