# generated using pymatgen
data_Na2FeH4C5(N2O)3
_symmetry_space_group_name_H-M   'P 1'
_cell_length_a   6.17364952
_cell_length_b   11.94717558
_cell_length_c   15.63341338
_cell_angle_alpha   90.00000000
_cell_angle_beta   90.00000000
_cell_angle_gamma   90.00000000
_symmetry_Int_Tables_number   1
_chemical_formula_structural   Na2FeH4C5(N2O)3
_chemical_formula_sum   'Na8 Fe4 H16 C20 N24 O12'
_cell_volume   1153.08421986
_cell_formula_units_Z   4
loop_
 _symmetry_equiv_pos_site_id
 _symmetry_equiv_pos_as_xyz
  1  'x, y, z'
loop_
 _atom_site_type_symbol
 _atom_site_label
 _atom_site_symmetry_multiplicity
 _atom_site_fract_x
 _atom_site_fract_y
 _atom_site_fract_z
 _atom_site_occupancy
  Na  Na0  1  0.500000  0.500000  0.621232  1
  Na  Na1  1  0.500000  0.500000  0.378768  1
  Na  Na2  1  0.000000  0.500000  0.754366  1
  Na  Na3  1  0.000000  0.000000  0.878768  1
  Na  Na4  1  0.000000  0.000000  0.121232  1
  Na  Na5  1  0.500000  0.000000  0.745634  1
  Na  Na6  1  0.000000  0.500000  0.245634  1
  Na  Na7  1  0.500000  0.000000  0.254366  1
  Fe  Fe8  1  0.999520  0.780454  0.500000  1
  Fe  Fe9  1  0.000480  0.219546  0.500000  1
  Fe  Fe10  1  0.500480  0.280454  0.000000  1
  Fe  Fe11  1  0.499520  0.719546  0.000000  1
  H  H12  1  0.055256  0.122060  0.726112  1
  H  H13  1  0.314398  0.699646  0.288411  1
  H  H14  1  0.944744  0.877940  0.726112  1
  H  H15  1  0.555256  0.377940  0.226112  1
  H  H16  1  0.814398  0.800354  0.211589  1
  H  H17  1  0.314398  0.699646  0.711589  1
  H  H18  1  0.685602  0.300354  0.711589  1
  H  H19  1  0.185602  0.199646  0.788411  1
  H  H20  1  0.814398  0.800354  0.788411  1
  H  H21  1  0.685602  0.300354  0.288411  1
  H  H22  1  0.444744  0.622060  0.773888  1
  H  H23  1  0.055256  0.122060  0.273888  1
  H  H24  1  0.555256  0.377940  0.773888  1
  H  H25  1  0.444744  0.622060  0.226112  1
  H  H26  1  0.185602  0.199646  0.211589  1
  H  H27  1  0.944744  0.877940  0.273888  1
  C  C28  1  0.346016  0.359858  0.911697  1
  C  C29  1  0.153984  0.859858  0.588303  1
  C  C30  1  0.653984  0.640142  0.088303  1
  C  C31  1  0.346016  0.359858  0.088303  1
  C  C32  1  0.604442  0.180355  0.087070  1
  C  C33  1  0.104442  0.319645  0.412930  1
  C  C34  1  0.846016  0.140142  0.588303  1
  C  C35  1  0.653984  0.640142  0.911697  1
  C  C36  1  0.895558  0.680355  0.587070  1
  C  C37  1  0.604442  0.180355  0.912930  1
  C  C38  1  0.846016  0.140142  0.411697  1
  C  C39  1  0.246713  0.683831  0.500000  1
  C  C40  1  0.746713  0.816169  0.000000  1
  C  C41  1  0.753287  0.316169  0.500000  1
  C  C42  1  0.395558  0.819645  0.087070  1
  C  C43  1  0.104442  0.319645  0.587070  1
  C  C44  1  0.395558  0.819645  0.912930  1
  C  C45  1  0.895558  0.680355  0.412930  1
  C  C46  1  0.253287  0.183831  0.000000  1
  C  C47  1  0.153984  0.859858  0.411697  1
  N  N48  1  0.275076  0.642566  0.000000  1
  N  N49  1  0.666444  0.120313  0.858686  1
  N  N50  1  0.251726  0.404278  0.855746  1
  N  N51  1  0.833556  0.620313  0.358686  1
  N  N52  1  0.775076  0.857434  0.500000  1
  N  N53  1  0.751726  0.095722  0.355746  1
  N  N54  1  0.748274  0.595722  0.855746  1
  N  N55  1  0.102319  0.124334  0.000000  1
  N  N56  1  0.602319  0.375666  0.500000  1
  N  N57  1  0.333556  0.879687  0.141314  1
  N  N58  1  0.251726  0.404278  0.144254  1
  N  N59  1  0.833556  0.620313  0.641314  1
  N  N60  1  0.248274  0.904278  0.644254  1
  N  N61  1  0.224924  0.142566  0.500000  1
  N  N62  1  0.166444  0.379687  0.641314  1
  N  N63  1  0.751726  0.095722  0.644254  1
  N  N64  1  0.166444  0.379687  0.358686  1
  N  N65  1  0.748274  0.595722  0.144254  1
  N  N66  1  0.248274  0.904278  0.355746  1
  N  N67  1  0.897681  0.875666  0.000000  1
  N  N68  1  0.666444  0.120313  0.141314  1
  N  N69  1  0.724924  0.357434  0.000000  1
  N  N70  1  0.397681  0.624334  0.500000  1
  N  N71  1  0.333556  0.879687  0.858686  1
  O  O72  1  0.328625  0.622039  0.269085  1
  O  O73  1  0.171375  0.122039  0.230915  1
  O  O74  1  0.828625  0.877961  0.769085  1
  O  O75  1  0.328625  0.622039  0.730915  1
  O  O76  1  0.613611  0.904997  0.500000  1
  O  O77  1  0.171375  0.122039  0.769085  1
  O  O78  1  0.828625  0.877961  0.230915  1
  O  O79  1  0.671375  0.377961  0.269085  1
  O  O80  1  0.113611  0.595003  0.000000  1
  O  O81  1  0.671375  0.377961  0.730915  1
  O  O82  1  0.386389  0.095003  0.500000  1
  O  O83  1  0.886389  0.404997  0.000000  1
