# generated using pymatgen
data_BaFe(Si2O5)2
_symmetry_space_group_name_H-M   'P 1'
_cell_length_a   7.54606515
_cell_length_b   7.64546895
_cell_length_c   8.21286323
_cell_angle_alpha   90.00000000
_cell_angle_beta   90.00000000
_cell_angle_gamma   90.00000000
_symmetry_Int_Tables_number   1
_chemical_formula_structural   BaFe(Si2O5)2
_chemical_formula_sum   'Ba2 Fe2 Si8 O20'
_cell_volume   473.82641674
_cell_formula_units_Z   2
loop_
 _symmetry_equiv_pos_site_id
 _symmetry_equiv_pos_as_xyz
  1  'x, y, z'
loop_
 _atom_site_type_symbol
 _atom_site_label
 _atom_site_symmetry_multiplicity
 _atom_site_fract_x
 _atom_site_fract_y
 _atom_site_fract_z
 _atom_site_occupancy
  O  O0  1  0.147206  0.274609  0.844942  1
  O  O1  1  0.647206  0.225392  0.155058  1
  O  O2  1  0.352794  0.774609  0.155058  1
  O  O3  1  0.852794  0.725392  0.844942  1
  O  O4  1  0.226341  0.628564  0.783566  1
  O  O5  1  0.726340  0.871436  0.216434  1
  O  O6  1  0.273660  0.128564  0.216434  1
  O  O7  1  0.773659  0.371435  0.783566  1
  O  O8  1  0.233655  0.970429  0.719791  1
  O  O9  1  0.733656  0.529572  0.280208  1
  O  O10  1  0.266344  0.470429  0.280208  1
  O  O11  1  0.766345  0.029572  0.719791  1
  O  O12  1  0.803293  0.751175  0.521579  1
  O  O13  1  0.303293  0.748824  0.478420  1
  O  O14  1  0.696707  0.251175  0.478420  1
  O  O15  1  0.196707  0.248824  0.521579  1
  O  O16  1  0.471697  0.227221  0.725700  1
  O  O17  1  0.028304  0.727220  0.274300  1
  O  O18  1  0.971696  0.272779  0.274300  1
  O  O19  1  0.528303  0.772780  0.725700  1
  Si  Si20  1  0.259812  0.184291  0.701500  1
  Si  Si21  1  0.759813  0.315708  0.298500  1
  Si  Si22  1  0.240187  0.684291  0.298500  1
  Si  Si23  1  0.740188  0.815708  0.701500  1
  Si  Si24  1  0.683214  0.223310  0.674636  1
  Si  Si25  1  0.183214  0.276689  0.325364  1
  Si  Si26  1  0.316786  0.776689  0.674636  1
  Si  Si27  1  0.816786  0.723311  0.325364  1
  Fe  Fe28  1  0.500001  0.000000  0.192221  1
  Fe  Fe29  1  0.000000  0.500000  0.807779  1
  Ba  Ba30  1  0.500001  0.500000  0.980829  1
  Ba  Ba31  1  0.000000  0.000000  0.019171  1
