# generated using pymatgen
data_AsC4S2Cl2O2F13
_symmetry_space_group_name_H-M   'P 1'
_cell_length_a   10.20008268
_cell_length_b   11.38334924
_cell_length_c   13.17928769
_cell_angle_alpha   90.00000000
_cell_angle_beta   97.58754918
_cell_angle_gamma   90.00000000
_symmetry_Int_Tables_number   1
_chemical_formula_structural   AsC4S2Cl2O2F13
_chemical_formula_sum   'As4 C16 S8 Cl8 O8 F52'
_cell_volume   1516.86305883
_cell_formula_units_Z   4
loop_
 _symmetry_equiv_pos_site_id
 _symmetry_equiv_pos_as_xyz
  1  'x, y, z'
loop_
 _atom_site_type_symbol
 _atom_site_label
 _atom_site_symmetry_multiplicity
 _atom_site_fract_x
 _atom_site_fract_y
 _atom_site_fract_z
 _atom_site_occupancy
  As  As0  1  0.780709  0.851138  0.511977  1
  As  As1  1  0.219291  0.148862  0.488023  1
  As  As2  1  0.780709  0.648862  0.011977  1
  As  As3  1  0.219291  0.351138  0.988023  1
  C  C4  1  0.835353  0.086163  0.855266  1
  C  C5  1  0.350094  0.542990  0.327369  1
  C  C6  1  0.150095  0.815089  0.224442  1
  C  C7  1  0.164647  0.586163  0.644734  1
  C  C8  1  0.849905  0.315089  0.275558  1
  C  C9  1  0.666788  0.347844  0.745535  1
  C  C10  1  0.164647  0.913837  0.144734  1
  C  C11  1  0.649906  0.457010  0.672631  1
  C  C12  1  0.150095  0.684911  0.724442  1
  C  C13  1  0.666788  0.152156  0.245535  1
  C  C14  1  0.649906  0.042990  0.172631  1
  C  C15  1  0.333212  0.652156  0.254465  1
  C  C16  1  0.835353  0.413837  0.355266  1
  C  C17  1  0.849905  0.184911  0.775558  1
  C  C18  1  0.350094  0.957010  0.827369  1
  C  C19  1  0.333212  0.847844  0.754465  1
  S  S20  1  0.696705  0.296431  0.175909  1
  S  S21  1  0.303295  0.796431  0.324091  1
  S  S22  1  0.822813  0.161726  0.338394  1
  S  S23  1  0.696705  0.203569  0.675909  1
  S  S24  1  0.177187  0.661726  0.161606  1
  S  S25  1  0.177187  0.838274  0.661606  1
  S  S26  1  0.822813  0.338274  0.838394  1
  S  S27  1  0.303295  0.703569  0.824091  1
  Cl  Cl28  1  0.006485  0.678794  0.775695  1
  Cl  Cl29  1  0.993515  0.178794  0.724305  1
  Cl  Cl30  1  0.006485  0.821206  0.275695  1
  Cl  Cl31  1  0.993515  0.321206  0.224304  1
  Cl  Cl32  1  0.458962  0.664519  0.179437  1
  Cl  Cl33  1  0.541038  0.164519  0.320563  1
  Cl  Cl34  1  0.458962  0.835481  0.679437  1
  Cl  Cl35  1  0.541038  0.335481  0.820563  1
  O  O36  1  0.597372  0.119367  0.691049  1
  O  O37  1  0.261713  0.769362  0.421099  1
  O  O38  1  0.402629  0.619367  0.808951  1
  O  O39  1  0.402629  0.880633  0.308951  1
  O  O40  1  0.738287  0.230638  0.578901  1
  O  O41  1  0.597372  0.380633  0.191049  1
  O  O42  1  0.261713  0.730638  0.921099  1
  O  O43  1  0.738287  0.269362  0.078901  1
  F  F44  1  0.184650  0.061310  0.595557  1
  F  F45  1  0.046337  0.187698  0.466357  1
  F  F46  1  0.243547  0.528615  0.377063  1
  F  F47  1  0.542136  0.062807  0.102936  1
  F  F48  1  0.631441  0.944439  0.224431  1
  F  F49  1  0.725362  0.392621  0.400715  1
  F  F50  1  0.817859  0.975341  0.591530  1
  F  F51  1  0.953663  0.687698  0.033643  1
  F  F52  1  0.613131  0.607502  0.989617  1
  F  F53  1  0.752118  0.770433  0.929323  1
  F  F54  1  0.176467  0.481085  0.691277  1
  F  F55  1  0.953663  0.812302  0.533643  1
  F  F56  1  0.059221  0.915871  0.071555  1
  F  F57  1  0.386869  0.392498  0.010383  1
  F  F58  1  0.823533  0.981085  0.808723  1
  F  F59  1  0.457864  0.937193  0.897064  1
  F  F60  1  0.176467  0.018915  0.191277  1
  F  F61  1  0.274638  0.607379  0.599285  1
  F  F62  1  0.823533  0.518915  0.308723  1
  F  F63  1  0.756453  0.471385  0.622937  1
  F  F64  1  0.940779  0.084129  0.928445  1
  F  F65  1  0.072370  0.592988  0.216147  1
  F  F66  1  0.247882  0.270433  0.570677  1
  F  F67  1  0.927630  0.092988  0.283853  1
  F  F68  1  0.248895  0.234517  0.381604  1
  F  F69  1  0.756453  0.028615  0.122937  1
  F  F70  1  0.368559  0.444439  0.275569  1
  F  F71  1  0.815350  0.561310  0.904443  1
  F  F72  1  0.274638  0.892621  0.099285  1
  F  F73  1  0.927630  0.407012  0.783853  1
  F  F74  1  0.613131  0.892498  0.489617  1
  F  F75  1  0.457864  0.562807  0.397064  1
  F  F76  1  0.817859  0.524659  0.091530  1
  F  F77  1  0.542136  0.437193  0.602936  1
  F  F78  1  0.072370  0.907012  0.716147  1
  F  F79  1  0.752118  0.729567  0.429323  1
  F  F80  1  0.368559  0.055561  0.775569  1
  F  F81  1  0.247882  0.229567  0.070677  1
  F  F82  1  0.751105  0.765483  0.618396  1
  F  F83  1  0.751105  0.734517  0.118396  1
  F  F84  1  0.184650  0.438690  0.095557  1
  F  F85  1  0.182141  0.475341  0.908470  1
  F  F86  1  0.059221  0.584129  0.571555  1
  F  F87  1  0.248895  0.265483  0.881604  1
  F  F88  1  0.046337  0.312302  0.966357  1
  F  F89  1  0.940779  0.415871  0.428445  1
  F  F90  1  0.631441  0.555561  0.724431  1
  F  F91  1  0.725362  0.107379  0.900715  1
  F  F92  1  0.815350  0.938690  0.404443  1
  F  F93  1  0.386869  0.107502  0.510383  1
  F  F94  1  0.182141  0.024659  0.408470  1
  F  F95  1  0.243547  0.971385  0.877063  1
