# generated using pymatgen
data_YbNiGe2
_symmetry_space_group_name_H-M   'P 1'
_cell_length_a   4.23955164
_cell_length_b   8.59627024
_cell_length_c   9.14840323
_cell_angle_alpha   118.02167473
_cell_angle_beta   103.40519492
_cell_angle_gamma   89.99823047
_symmetry_Int_Tables_number   1
_chemical_formula_structural   YbNiGe2
_chemical_formula_sum   'Yb4 Ni4 Ge8'
_cell_volume   283.99220331
_cell_formula_units_Z   4
loop_
 _symmetry_equiv_pos_site_id
 _symmetry_equiv_pos_as_xyz
  1  'x, y, z'
loop_
 _atom_site_type_symbol
 _atom_site_label
 _atom_site_symmetry_multiplicity
 _atom_site_fract_x
 _atom_site_fract_y
 _atom_site_fract_z
 _atom_site_occupancy
  Yb  Yb0  1  0.499980  0.258837  0.999977  1
  Yb  Yb1  1  0.705850  0.705872  0.411689  1
  Yb  Yb2  1  0.500020  0.741163  0.000023  1
  Yb  Yb3  1  0.294150  0.294128  0.588311  1
  Ni  Ni4  1  0.851396  0.599025  0.702532  1
  Ni  Ni5  1  0.148684  0.896521  0.297517  1
  Ni  Ni6  1  0.851316  0.103479  0.702483  1
  Ni  Ni7  1  0.148604  0.400975  0.297468  1
  Ge  Ge8  1  0.694748  0.038836  0.389584  1
  Ge  Ge9  1  0.305280  0.649200  0.610402  1
  Ge  Ge10  1  0.915241  0.915247  0.830479  1
  Ge  Ge11  1  0.694720  0.350800  0.389598  1
  Ge  Ge12  1  0.084759  0.084753  0.169521  1
  Ge  Ge13  1  0.921790  0.421772  0.843571  1
  Ge  Ge14  1  0.078210  0.578228  0.156429  1
  Ge  Ge15  1  0.305252  0.961164  0.610416  1
