# generated using pymatgen
data_Na2Sr(PO3)4
_symmetry_space_group_name_H-M   'P 1'
_cell_length_a   5.05621171
_cell_length_b   9.97358832
_cell_length_c   9.97358832
_cell_angle_alpha   90.00000000
_cell_angle_beta   90.00000000
_cell_angle_gamma   90.00000000
_symmetry_Int_Tables_number   1
_chemical_formula_structural   Na2Sr(PO3)4
_chemical_formula_sum   'Na4 Sr2 P8 O24'
_cell_volume   502.95383718
_cell_formula_units_Z   2
loop_
 _symmetry_equiv_pos_site_id
 _symmetry_equiv_pos_as_xyz
  1  'x, y, z'
loop_
 _atom_site_type_symbol
 _atom_site_label
 _atom_site_symmetry_multiplicity
 _atom_site_fract_x
 _atom_site_fract_y
 _atom_site_fract_z
 _atom_site_occupancy
  Sr  Sr0  1  0.500000  0.250000  0.250000  1
  Sr  Sr1  1  0.500000  0.750000  0.750000  1
  P  P2  1  0.000000  0.537888  0.250000  1
  P  P3  1  0.000000  0.250000  0.537888  1
  P  P4  1  0.000000  0.250000  0.962112  1
  P  P5  1  0.000000  0.962112  0.250000  1
  P  P6  1  0.000000  0.462112  0.750000  1
  P  P7  1  0.000000  0.750000  0.462112  1
  P  P8  1  0.000000  0.750000  0.037888  1
  P  P9  1  0.000000  0.037888  0.750000  1
  Na  Na10  1  0.500000  0.000000  0.000000  1
  Na  Na11  1  0.500000  0.500000  0.000000  1
  Na  Na12  1  0.500000  0.000000  0.500000  1
  Na  Na13  1  0.500000  0.500000  0.500000  1
  O  O14  1  0.130423  0.640116  0.359884  1
  O  O15  1  0.130423  0.140116  0.640116  1
  O  O16  1  0.130423  0.359884  0.859884  1
  O  O17  1  0.130423  0.859884  0.140116  1
  O  O18  1  0.869577  0.640116  0.140116  1
  O  O19  1  0.869577  0.859884  0.359884  1
  O  O20  1  0.869577  0.359884  0.640116  1
  O  O21  1  0.869577  0.140116  0.859884  1
  O  O22  1  0.228179  0.189418  0.036276  1
  O  O23  1  0.228179  0.463724  0.189418  1
  O  O24  1  0.228179  0.036276  0.310582  1
  O  O25  1  0.228179  0.310582  0.463724  1
  O  O26  1  0.771821  0.189418  0.463724  1
  O  O27  1  0.771821  0.310582  0.036276  1
  O  O28  1  0.771821  0.036276  0.189418  1
  O  O29  1  0.771821  0.463724  0.310582  1
  O  O30  1  0.771821  0.810582  0.963724  1
  O  O31  1  0.771821  0.536276  0.810582  1
  O  O32  1  0.771821  0.963724  0.689418  1
  O  O33  1  0.771821  0.689418  0.536276  1
  O  O34  1  0.228179  0.810582  0.536276  1
  O  O35  1  0.228179  0.689418  0.963724  1
  O  O36  1  0.228179  0.963724  0.810582  1
  O  O37  1  0.228179  0.536276  0.689418  1
