# generated using pymatgen
data_P2W2O11
_symmetry_space_group_name_H-M   'P 1'
_cell_length_a   7.96329826
_cell_length_b   7.79152399
_cell_length_c   12.86403278
_cell_angle_alpha   90.00000000
_cell_angle_beta   90.00000000
_cell_angle_gamma   90.05036242
_symmetry_Int_Tables_number   1
_chemical_formula_structural   P2W2O11
_chemical_formula_sum   'P8 W8 O44'
_cell_volume   798.16442090
_cell_formula_units_Z   4
loop_
 _symmetry_equiv_pos_site_id
 _symmetry_equiv_pos_as_xyz
  1  'x, y, z'
loop_
 _atom_site_type_symbol
 _atom_site_label
 _atom_site_symmetry_multiplicity
 _atom_site_fract_x
 _atom_site_fract_y
 _atom_site_fract_z
 _atom_site_occupancy
  P  P0  1  0.252477  0.616157  0.750000  1
  P  P1  1  0.247374  0.115750  0.000000  1
  P  P2  1  0.247374  0.115750  0.500000  1
  P  P3  1  0.252477  0.616157  0.250000  1
  P  P4  1  0.752626  0.884250  0.500000  1
  P  P5  1  0.747523  0.383843  0.750000  1
  P  P6  1  0.752626  0.884250  0.000000  1
  P  P7  1  0.747523  0.383843  0.250000  1
  W  W8  1  0.842137  0.815606  0.750000  1
  W  W9  1  0.157863  0.184394  0.750000  1
  W  W10  1  0.657791  0.315776  0.000000  1
  W  W11  1  0.842137  0.815606  0.250000  1
  W  W12  1  0.342209  0.684224  0.500000  1
  W  W13  1  0.157863  0.184394  0.250000  1
  W  W14  1  0.657791  0.315776  0.500000  1
  W  W15  1  0.342209  0.684224  0.000000  1
  O  O16  1  0.351303  0.687884  0.845049  1
  O  O17  1  0.851409  0.812595  0.595037  1
  O  O18  1  0.648697  0.312116  0.345049  1
  O  O19  1  0.929951  0.330151  0.750000  1
  O  O20  1  0.340479  0.064970  0.750000  1
  O  O21  1  0.148591  0.187405  0.095037  1
  O  O22  1  0.351303  0.687884  0.654951  1
  O  O23  1  0.570144  0.830314  0.500000  1
  O  O24  1  0.429856  0.169686  0.500000  1
  O  O25  1  0.267415  0.416552  0.750000  1
  O  O26  1  0.648697  0.312116  0.654951  1
  O  O27  1  0.648697  0.312116  0.845049  1
  O  O28  1  0.659521  0.935030  0.250000  1
  O  O29  1  0.351303  0.687884  0.345049  1
  O  O30  1  0.851409  0.812595  0.404963  1
  O  O31  1  0.159953  0.563954  0.000000  1
  O  O32  1  0.340479  0.064970  0.250000  1
  O  O33  1  0.351303  0.687884  0.154951  1
  O  O34  1  0.570144  0.830314  0.000000  1
  O  O35  1  0.732585  0.583448  0.750000  1
  O  O36  1  0.232414  0.916124  0.000000  1
  O  O37  1  0.429856  0.169686  0.000000  1
  O  O38  1  0.840047  0.436046  0.000000  1
  O  O39  1  0.232414  0.916124  0.500000  1
  O  O40  1  0.070049  0.669849  0.250000  1
  O  O41  1  0.767586  0.083876  0.500000  1
  O  O42  1  0.070049  0.669849  0.750000  1
  O  O43  1  0.659521  0.935030  0.750000  1
  O  O44  1  0.500000  0.500000  0.000000  1
  O  O45  1  0.767586  0.083876  0.000000  1
  O  O46  1  0.648697  0.312116  0.154951  1
  O  O47  1  0.929951  0.330151  0.250000  1
  O  O48  1  0.148591  0.187405  0.404963  1
  O  O49  1  0.732585  0.583448  0.250000  1
  O  O50  1  0.267415  0.416552  0.250000  1
  O  O51  1  0.851409  0.812595  0.095037  1
  O  O52  1  0.840047  0.436046  0.500000  1
  O  O53  1  0.500000  0.500000  0.500000  1
  O  O54  1  0.148591  0.187405  0.595037  1
  O  O55  1  0.148591  0.187405  0.904963  1
  O  O56  1  0.159953  0.563954  0.500000  1
  O  O57  1  0.851409  0.812595  0.904963  1
  O  O58  1  0.000000  0.000000  0.750000  1
  O  O59  1  0.000000  0.000000  0.250000  1
