# generated using pymatgen
data_LiV2(PO4)3
_symmetry_space_group_name_H-M   'P 1'
_cell_length_a   8.50541381
_cell_length_b   8.66639564
_cell_length_c   11.93676881
_cell_angle_alpha   90.00000000
_cell_angle_beta   89.93705095
_cell_angle_gamma   90.00000000
_symmetry_Int_Tables_number   1
_chemical_formula_structural   LiV2(PO4)3
_chemical_formula_sum   'Li4 V8 P12 O48'
_cell_volume   879.87399079
_cell_formula_units_Z   4
loop_
 _symmetry_equiv_pos_site_id
 _symmetry_equiv_pos_as_xyz
  1  'x, y, z'
loop_
 _atom_site_type_symbol
 _atom_site_label
 _atom_site_symmetry_multiplicity
 _atom_site_fract_x
 _atom_site_fract_y
 _atom_site_fract_z
 _atom_site_occupancy
  Li  Li0  1  0.197412  0.720872  0.821200  1
  Li  Li1  1  0.302588  0.220872  0.678800  1
  Li  Li2  1  0.697412  0.779128  0.321200  1
  Li  Li3  1  0.802588  0.279128  0.178800  1
  O  O4  1  0.059739  0.630088  0.565785  1
  O  O5  1  0.070064  0.615309  0.128294  1
  O  O6  1  0.080367  0.817483  0.403835  1
  O  O7  1  0.074047  0.919948  0.835828  1
  O  O8  1  0.098128  0.129646  0.426193  1
  O  O9  1  0.117318  0.291964  0.165724  1
  O  O10  1  0.152914  0.070217  0.027954  1
  O  O11  1  0.158030  0.511861  0.767629  1
  O  O12  1  0.165483  0.330894  0.570473  1
  O  O13  1  0.172711  0.231216  0.819992  1
  O  O14  1  0.198641  0.018008  0.231297  1
  O  O15  1  0.191600  0.441363  0.966444  1
  O  O16  1  0.301359  0.518008  0.268703  1
  O  O17  1  0.308400  0.941363  0.533556  1
  O  O18  1  0.327289  0.731216  0.680008  1
  O  O19  1  0.334517  0.830894  0.929527  1
  O  O20  1  0.347086  0.570217  0.472046  1
  O  O21  1  0.341970  0.011861  0.732371  1
  O  O22  1  0.382682  0.791964  0.334276  1
  O  O23  1  0.401872  0.629646  0.073807  1
  O  O24  1  0.419633  0.317483  0.096165  1
  O  O25  1  0.429936  0.115309  0.371706  1
  O  O26  1  0.425953  0.419948  0.664172  1
  O  O27  1  0.440261  0.130088  0.934215  1
  O  O28  1  0.559739  0.869912  0.065785  1
  O  O29  1  0.574047  0.580052  0.335828  1
  O  O30  1  0.570064  0.884691  0.628294  1
  O  O31  1  0.580367  0.682517  0.903835  1
  O  O32  1  0.598128  0.370354  0.926193  1
  O  O33  1  0.617318  0.208036  0.665724  1
  O  O34  1  0.658030  0.988139  0.267629  1
  O  O35  1  0.652914  0.429783  0.527954  1
  O  O36  1  0.665483  0.169106  0.070473  1
  O  O37  1  0.672711  0.268784  0.319992  1
  O  O38  1  0.691600  0.058637  0.466444  1
  O  O39  1  0.698641  0.481992  0.731297  1
  O  O40  1  0.808400  0.558637  0.033556  1
  O  O41  1  0.801359  0.981992  0.768703  1
  O  O42  1  0.827289  0.768784  0.180008  1
  O  O43  1  0.834517  0.669106  0.429527  1
  O  O44  1  0.841970  0.488139  0.232371  1
  O  O45  1  0.847086  0.929783  0.972046  1
  O  O46  1  0.882682  0.708036  0.834276  1
  O  O47  1  0.901872  0.870354  0.573807  1
  O  O48  1  0.925953  0.080052  0.164172  1
  O  O49  1  0.919633  0.182517  0.596165  1
  O  O50  1  0.929936  0.384691  0.871706  1
  O  O51  1  0.940261  0.369912  0.434215  1
  P  P52  1  0.031414  0.248504  0.506914  1
  P  P53  1  0.103983  0.116632  0.146275  1
  P  P54  1  0.107915  0.391212  0.857409  1
  P  P55  1  0.396017  0.616632  0.353725  1
  P  P56  1  0.392085  0.891212  0.642591  1
  P  P57  1  0.468586  0.748504  0.993086  1
  P  P58  1  0.531414  0.251496  0.006914  1
  P  P59  1  0.607915  0.108788  0.357409  1
  P  P60  1  0.603983  0.383368  0.646275  1
  P  P61  1  0.892085  0.608788  0.142591  1
  P  P62  1  0.896017  0.883368  0.853725  1
  P  P63  1  0.968586  0.751496  0.493086  1
  V  V64  1  0.251975  0.468330  0.119029  1
  V  V65  1  0.248025  0.968330  0.380971  1
  V  V66  1  0.244650  0.539221  0.613530  1
  V  V67  1  0.255350  0.039221  0.886470  1
  V  V68  1  0.744650  0.960779  0.113530  1
  V  V69  1  0.755350  0.460779  0.386470  1
  V  V70  1  0.751975  0.031670  0.619029  1
  V  V71  1  0.748025  0.531670  0.880971  1
