# generated using pymatgen
data_Ga2Te2Br7
_symmetry_space_group_name_H-M   'P 1'
_cell_length_a   10.47317267
_cell_length_b   11.73883845
_cell_length_c   14.37640951
_cell_angle_alpha   90.00000000
_cell_angle_beta   98.86593751
_cell_angle_gamma   90.00000000
_symmetry_Int_Tables_number   1
_chemical_formula_structural   Ga2Te2Br7
_chemical_formula_sum   'Ga8 Te8 Br28'
_cell_volume   1746.35881260
_cell_formula_units_Z   4
loop_
 _symmetry_equiv_pos_site_id
 _symmetry_equiv_pos_as_xyz
  1  'x, y, z'
loop_
 _atom_site_type_symbol
 _atom_site_label
 _atom_site_symmetry_multiplicity
 _atom_site_fract_x
 _atom_site_fract_y
 _atom_site_fract_z
 _atom_site_occupancy
  Ga  Ga0  1  0.094481  0.683123  0.680529  1
  Ga  Ga1  1  0.716396  0.891683  0.164153  1
  Ga  Ga2  1  0.905519  0.183123  0.819471  1
  Ga  Ga3  1  0.283604  0.391683  0.335848  1
  Ga  Ga4  1  0.283604  0.108317  0.835847  1
  Ga  Ga5  1  0.716396  0.608317  0.664153  1
  Ga  Ga6  1  0.905519  0.316877  0.319471  1
  Ga  Ga7  1  0.094481  0.816877  0.180529  1
  Te  Te8  1  0.580425  0.463718  0.126713  1
  Te  Te9  1  0.350502  0.557482  0.048494  1
  Te  Te10  1  0.419575  0.536282  0.873287  1
  Te  Te11  1  0.649498  0.442518  0.951506  1
  Te  Te12  1  0.350502  0.942518  0.548494  1
  Te  Te13  1  0.419575  0.963718  0.373287  1
  Te  Te14  1  0.649498  0.057482  0.451506  1
  Te  Te15  1  0.580425  0.036282  0.626713  1
  Br  Br16  1  0.612566  0.829681  0.019444  1
  Br  Br17  1  0.013828  0.854392  0.615511  1
  Br  Br18  1  0.380641  0.939510  0.784554  1
  Br  Br19  1  0.275806  0.881496  0.120289  1
  Br  Br20  1  0.986172  0.354392  0.884489  1
  Br  Br21  1  0.619359  0.060490  0.215446  1
  Br  Br22  1  0.724194  0.381496  0.379711  1
  Br  Br23  1  0.070322  0.467511  0.366850  1
  Br  Br24  1  0.929678  0.967511  0.133150  1
  Br  Br25  1  0.745214  0.758017  0.284052  1
  Br  Br26  1  0.619359  0.439510  0.715446  1
  Br  Br27  1  0.254786  0.241983  0.715948  1
  Br  Br28  1  0.866765  0.322767  0.152480  1
  Br  Br29  1  0.745214  0.741983  0.784052  1
  Br  Br30  1  0.254786  0.258017  0.215948  1
  Br  Br31  1  0.133235  0.677233  0.847520  1
  Br  Br32  1  0.133235  0.822767  0.347520  1
  Br  Br33  1  0.380641  0.560490  0.284554  1
  Br  Br34  1  0.387434  0.329681  0.480556  1
  Br  Br35  1  0.612566  0.670319  0.519444  1
  Br  Br36  1  0.866765  0.177233  0.652480  1
  Br  Br37  1  0.013828  0.645608  0.115511  1
  Br  Br38  1  0.387434  0.170319  0.980556  1
  Br  Br39  1  0.070322  0.032489  0.866850  1
  Br  Br40  1  0.275806  0.618504  0.620289  1
  Br  Br41  1  0.724194  0.118504  0.879711  1
  Br  Br42  1  0.986172  0.145608  0.384489  1
  Br  Br43  1  0.929678  0.532489  0.633150  1
