# generated using pymatgen
data_AgHg3As2Cl3
_symmetry_space_group_name_H-M   'P 1'
_cell_length_a   9.38604589
_cell_length_b   13.43099382
_cell_length_c   14.08113142
_cell_angle_alpha   66.98821877
_cell_angle_beta   70.53174289
_cell_angle_gamma   69.54831157
_symmetry_Int_Tables_number   1
_chemical_formula_structural   AgHg3As2Cl3
_chemical_formula_sum   'Ag6 Hg18 As12 Cl18'
_cell_volume   1490.53205416
_cell_formula_units_Z   6
loop_
 _symmetry_equiv_pos_site_id
 _symmetry_equiv_pos_as_xyz
  1  'x, y, z'
loop_
 _atom_site_type_symbol
 _atom_site_label
 _atom_site_symmetry_multiplicity
 _atom_site_fract_x
 _atom_site_fract_y
 _atom_site_fract_z
 _atom_site_occupancy
  Ag  Ag0  1  0.655421  0.750000  0.250000  1
  Ag  Ag1  1  0.946235  0.937249  0.725610  1
  Ag  Ag2  1  0.390905  0.437249  0.225610  1
  Ag  Ag3  1  0.344579  0.250000  0.750000  1
  Ag  Ag4  1  0.053765  0.062751  0.274390  1
  Ag  Ag5  1  0.609095  0.562751  0.774390  1
  Hg  Hg6  1  0.664357  0.168529  0.501598  1
  Hg  Hg7  1  0.799681  0.250000  0.750000  1
  Hg  Hg8  1  0.119088  0.588447  0.749227  1
  Hg  Hg9  1  0.829801  0.336843  0.000762  1
  Hg  Hg10  1  0.170199  0.663157  0.999238  1
  Hg  Hg11  1  0.543238  0.088447  0.249227  1
  Hg  Hg12  1  0.880912  0.411553  0.250773  1
  Hg  Hg13  1  0.335643  0.831471  0.498402  1
  Hg  Hg14  1  0.167405  0.163157  0.499238  1
  Hg  Hg15  1  0.000000  0.500000  0.500000  1
  Hg  Hg16  1  0.200319  0.750000  0.250000  1
  Hg  Hg17  1  0.832595  0.836843  0.500762  1
  Hg  Hg18  1  0.456762  0.911553  0.750773  1
  Hg  Hg19  1  0.500000  0.500000  0.500000  1
  Hg  Hg20  1  0.665516  0.668529  0.001598  1
  Hg  Hg21  1  0.500000  0.000000  0.000000  1
  Hg  Hg22  1  0.334484  0.331471  0.998402  1
  Hg  Hg23  1  0.000000  0.000000  0.000000  1
  As  As24  1  0.588974  0.984582  0.553360  1
  As  As25  1  0.411026  0.015418  0.446640  1
  As  As26  1  0.203150  0.815212  0.051288  1
  As  As27  1  0.126916  0.515418  0.946640  1
  As  As28  1  0.256231  0.648984  0.551773  1
  As  As29  1  0.456988  0.851016  0.948227  1
  As  As30  1  0.069649  0.684788  0.448712  1
  As  As31  1  0.743769  0.351016  0.448227  1
  As  As32  1  0.543012  0.148984  0.051773  1
  As  As33  1  0.873084  0.484582  0.053360  1
  As  As34  1  0.930351  0.315212  0.551288  1
  As  As35  1  0.796850  0.184788  0.948712  1
  Cl  Cl36  1  0.146949  0.228761  0.241518  1
  Cl  Cl37  1  0.500000  0.500000  0.000000  1
  Cl  Cl38  1  0.500580  0.403387  0.748675  1
  Cl  Cl39  1  0.875156  0.977607  0.251075  1
  Cl  Cl40  1  0.124844  0.022393  0.748925  1
  Cl  Cl41  1  0.198557  0.185939  0.936900  1
  Cl  Cl42  1  0.801443  0.814061  0.063100  1
  Cl  Cl43  1  0.678604  0.685939  0.436900  1
  Cl  Cl44  1  0.382772  0.728761  0.741518  1
  Cl  Cl45  1  0.347359  0.903387  0.248675  1
  Cl  Cl46  1  0.499420  0.596613  0.251325  1
  Cl  Cl47  1  0.853051  0.771239  0.758482  1
  Cl  Cl48  1  0.000000  0.000000  0.500000  1
  Cl  Cl49  1  0.321396  0.314061  0.563100  1
  Cl  Cl50  1  0.896162  0.477607  0.751075  1
  Cl  Cl51  1  0.652641  0.096613  0.751325  1
  Cl  Cl52  1  0.617228  0.271239  0.258482  1
  Cl  Cl53  1  0.103838  0.522393  0.248925  1
