# generated using pymatgen
data_Na3B5Se9
_symmetry_space_group_name_H-M   'P 1'
_cell_length_a   15.39229645
_cell_length_b   15.39229589
_cell_length_c   17.75488909
_cell_angle_alpha   115.55642610
_cell_angle_beta   115.55642456
_cell_angle_gamma   90.05628428
_symmetry_Int_Tables_number   1
_chemical_formula_structural   Na3B5Se9
_chemical_formula_sum   'Na24 B40 Se72'
_cell_volume   3331.99712713
_cell_formula_units_Z   8
loop_
 _symmetry_equiv_pos_site_id
 _symmetry_equiv_pos_as_xyz
  1  'x, y, z'
loop_
 _atom_site_type_symbol
 _atom_site_label
 _atom_site_symmetry_multiplicity
 _atom_site_fract_x
 _atom_site_fract_y
 _atom_site_fract_z
 _atom_site_occupancy
  B  B0  1  0.102298  0.026713  0.249318  1
  B  B1  1  0.208684  0.959767  0.419149  1
  B  B2  1  0.333588  0.125470  0.415917  1
  B  B3  1  0.353897  0.472856  0.750918  1
  B  B4  1  0.290698  0.540094  0.581196  1
  B  B5  1  0.602862  0.223704  0.249645  1
  B  B6  1  0.418244  0.374005  0.583785  1
  B  B7  1  0.834131  0.291131  0.415859  1
  B  B8  1  0.374530  0.166412  0.084083  1
  B  B9  1  0.473287  0.397702  0.250682  1
  B  B10  1  0.791131  0.334131  0.915859  1
  B  B11  1  0.723704  0.102862  0.749645  1
  B  B12  1  0.874005  0.918244  0.083785  1
  B  B13  1  0.972856  0.853897  0.250918  1
  B  B14  1  0.291085  0.581279  0.916932  1
  B  B15  1  0.223485  0.645821  0.750019  1
  B  B16  1  0.081279  0.791085  0.416932  1
  B  B17  1  0.540233  0.291316  0.080851  1
  B  B18  1  0.854179  0.276515  0.749981  1
  B  B19  1  0.959906  0.209302  0.918804  1
  B  B20  1  0.040094  0.790698  0.081196  1
  B  B21  1  0.145821  0.723485  0.250019  1
  B  B22  1  0.459767  0.708684  0.919149  1
  B  B23  1  0.918721  0.208915  0.583068  1
  B  B24  1  0.776515  0.354179  0.249981  1
  B  B25  1  0.708915  0.418721  0.083068  1
  B  B26  1  0.027144  0.146103  0.749082  1
  B  B27  1  0.125995  0.081756  0.916215  1
  B  B28  1  0.276296  0.897138  0.250355  1
  B  B29  1  0.208869  0.665869  0.084141  1
  B  B30  1  0.526713  0.602298  0.749318  1
  B  B31  1  0.625470  0.833588  0.915917  1
  B  B32  1  0.165869  0.708869  0.584141  1
  B  B33  1  0.581756  0.625995  0.416215  1
  B  B34  1  0.397138  0.776296  0.750355  1
  B  B35  1  0.709302  0.459906  0.418804  1
  B  B36  1  0.646103  0.527144  0.249082  1
  B  B37  1  0.666412  0.874530  0.584083  1
  B  B38  1  0.791316  0.040233  0.580851  1
  B  B39  1  0.897702  0.973287  0.750682  1
  Na  Na40  1  0.334280  0.165720  0.250000  1
  Na  Na41  1  0.585464  0.335825  0.752117  1
  Na  Na42  1  0.835825  0.085464  0.252117  1
  Na  Na43  1  0.085093  0.414907  0.750000  1
  Na  Na44  1  0.000000  0.000000  0.500000  1
  Na  Na45  1  0.000000  0.500000  0.500000  1
  Na  Na46  1  0.173248  0.249767  0.500738  1
  Na  Na47  1  0.000000  0.000000  0.000000  1
  Na  Na48  1  0.000000  0.500000  0.000000  1
  Na  Na49  1  0.327418  0.749146  0.499173  1
  Na  Na50  1  0.914907  0.585093  0.250000  1
  Na  Na51  1  0.250233  0.326752  0.999262  1
  Na  Na52  1  0.249146  0.827418  0.999173  1
  Na  Na53  1  0.164175  0.914536  0.747883  1
  Na  Na54  1  0.500000  0.000000  0.500000  1
  Na  Na55  1  0.500000  0.500000  0.500000  1
  Na  Na56  1  0.414536  0.664175  0.247883  1
  Na  Na57  1  0.665720  0.834280  0.750000  1
  Na  Na58  1  0.672582  0.250854  0.500827  1
  Na  Na59  1  0.500000  0.000000  0.000000  1
  Na  Na60  1  0.500000  0.500000  0.000000  1
  Na  Na61  1  0.826752  0.750233  0.499262  1
  Na  Na62  1  0.750854  0.172582  0.000827  1
  Na  Na63  1  0.749767  0.673248  0.000738  1
  Se  Se64  1  0.077890  0.987659  0.338380  1
  Se  Se65  1  0.206170  0.158339  0.333350  1
  Se  Se66  1  0.318066  0.086102  0.507645  1
  Se  Se67  1  0.386550  0.024229  0.331131  1
  Se  Se68  1  0.240754  0.512021  0.662187  1
  Se  Se69  1  0.578422  0.351496  0.338439  1
  Se  Se70  1  0.373736  0.341223  0.666792  1
  Se  Se71  1  0.311370  0.413659  0.492479  1
  Se  Se72  1  0.706695  0.176075  0.333881  1
  Se  Se73  1  0.818684  0.421931  0.507416  1
  Se  Se74  1  0.452836  0.249542  0.499412  1
  Se  Se75  1  0.250458  0.047164  0.000588  1
  Se  Se76  1  0.341661  0.293830  0.166650  1
  Se  Se77  1  0.555999  0.474982  0.668314  1
  Se  Se78  1  0.676075  0.206695  0.833881  1
  Se  Se79  1  0.886821  0.307806  0.330789  1
  Se  Se80  1  0.841223  0.873736  0.166792  1
  Se  Se81  1  0.943530  0.807471  0.332113  1
  Se  Se82  1  0.175916  0.626152  0.834412  1
  Se  Se83  1  0.250042  0.546621  0.001026  1
  Se  Se84  1  0.046621  0.750042  0.501026  1
  Se  Se85  1  0.475771  0.113450  0.168869  1
  Se  Se86  1  0.413898  0.181934  0.992355  1
  Se  Se87  1  0.512341  0.422110  0.161620  1
  Se  Se88  1  0.807806  0.386821  0.830789  1
  Se  Se89  1  0.741073  0.148830  0.661534  1
  Se  Se90  1  0.974982  0.055999  0.168314  1
  Se  Se91  1  0.913659  0.811370  0.992479  1
  Se  Se92  1  0.921931  0.318684  0.007416  1
  Se  Se93  1  0.851496  0.078422  0.838439  1
  Se  Se94  1  0.012021  0.740754  0.162187  1
  Se  Se95  1  0.307471  0.443530  0.832113  1
  Se  Se96  1  0.187959  0.921959  0.508098  1
  Se  Se97  1  0.126152  0.675916  0.334412  1
  Se  Se98  1  0.421959  0.687959  0.008098  1
  Se  Se99  1  0.351170  0.758927  0.838466  1
  Se  Se100  1  0.648830  0.241073  0.161534  1
  Se  Se101  1  0.578041  0.312041  0.991902  1
  Se  Se102  1  0.873848  0.324084  0.665588  1
  Se  Se103  1  0.812041  0.078041  0.491902  1
  Se  Se104  1  0.692529  0.556470  0.167887  1
  Se  Se105  1  0.987979  0.259246  0.837813  1
  Se  Se106  1  0.148504  0.921578  0.161561  1
  Se  Se107  1  0.078069  0.681316  0.992584  1
  Se  Se108  1  0.086341  0.188630  0.007521  1
  Se  Se109  1  0.025018  0.944001  0.831686  1
  Se  Se110  1  0.258927  0.851170  0.338466  1
  Se  Se111  1  0.192194  0.613179  0.169211  1
  Se  Se112  1  0.487659  0.577890  0.838380  1
  Se  Se113  1  0.586102  0.818066  0.007645  1
  Se  Se114  1  0.524229  0.886550  0.831131  1
  Se  Se115  1  0.953379  0.249958  0.498974  1
  Se  Se116  1  0.749958  0.453379  0.998974  1
  Se  Se117  1  0.824084  0.373848  0.165588  1
  Se  Se118  1  0.056470  0.192529  0.667887  1
  Se  Se119  1  0.158777  0.126264  0.833208  1
  Se  Se120  1  0.113179  0.692194  0.669211  1
  Se  Se121  1  0.323925  0.793305  0.166119  1
  Se  Se122  1  0.444001  0.525018  0.331686  1
  Se  Se123  1  0.658339  0.706170  0.833350  1
  Se  Se124  1  0.749542  0.952836  0.999412  1
  Se  Se125  1  0.547164  0.750458  0.500588  1
  Se  Se126  1  0.181316  0.578069  0.492584  1
  Se  Se127  1  0.293305  0.823925  0.666119  1
  Se  Se128  1  0.688630  0.586341  0.507521  1
  Se  Se129  1  0.626264  0.658777  0.333208  1
  Se  Se130  1  0.421578  0.648504  0.661561  1
  Se  Se131  1  0.759246  0.487979  0.337813  1
  Se  Se132  1  0.613450  0.975771  0.668869  1
  Se  Se133  1  0.681934  0.913898  0.492355  1
  Se  Se134  1  0.793830  0.841661  0.666650  1
  Se  Se135  1  0.922110  0.012341  0.661620  1
