# generated using pymatgen
data_TeI4
_symmetry_space_group_name_H-M   'P 1'
_cell_length_a   14.69489067
_cell_length_b   15.21765123
_cell_length_c   17.53049929
_cell_angle_alpha   90.00000000
_cell_angle_beta   90.00000000
_cell_angle_gamma   90.00000000
_symmetry_Int_Tables_number   1
_chemical_formula_structural   TeI4
_chemical_formula_sum   'Te16 I64'
_cell_volume   3920.20042260
_cell_formula_units_Z   16
loop_
 _symmetry_equiv_pos_site_id
 _symmetry_equiv_pos_as_xyz
  1  'x, y, z'
loop_
 _atom_site_type_symbol
 _atom_site_label
 _atom_site_symmetry_multiplicity
 _atom_site_fract_x
 _atom_site_fract_y
 _atom_site_fract_z
 _atom_site_occupancy
  Te  Te0  1  0.138203  0.328409  0.111995  1
  Te  Te1  1  0.138203  0.328409  0.388005  1
  Te  Te2  1  0.135259  0.061315  0.250000  1
  Te  Te3  1  0.640493  0.906043  0.250000  1
  Te  Te4  1  0.361797  0.828409  0.611995  1
  Te  Te5  1  0.359507  0.093957  0.750000  1
  Te  Te6  1  0.364741  0.561315  0.750000  1
  Te  Te7  1  0.140493  0.593957  0.250000  1
  Te  Te8  1  0.861797  0.671591  0.888005  1
  Te  Te9  1  0.861797  0.671591  0.611995  1
  Te  Te10  1  0.638203  0.171591  0.111995  1
  Te  Te11  1  0.859507  0.406043  0.750000  1
  Te  Te12  1  0.638203  0.171591  0.388005  1
  Te  Te13  1  0.635259  0.438685  0.250000  1
  Te  Te14  1  0.361797  0.828409  0.888005  1
  Te  Te15  1  0.864741  0.938685  0.750000  1
  I  I16  1  0.260574  0.403464  0.008425  1
  I  I17  1  0.479756  0.987157  0.623876  1
  I  I18  1  0.760574  0.096536  0.491575  1
  I  I19  1  0.023542  0.254162  0.001849  1
  I  I20  1  0.245850  0.665448  0.625093  1
  I  I21  1  0.739426  0.596536  0.991575  1
  I  I22  1  0.252788  0.164963  0.632991  1
  I  I23  1  0.976458  0.745838  0.998151  1
  I  I24  1  0.971227  0.011021  0.631175  1
  I  I25  1  0.268655  0.930214  0.250000  1
  I  I26  1  0.242823  0.912129  0.750000  1
  I  I27  1  0.520244  0.012843  0.123876  1
  I  I28  1  0.523542  0.245838  0.001849  1
  I  I29  1  0.028773  0.988979  0.131175  1
  I  I30  1  0.479756  0.987157  0.876124  1
  I  I31  1  0.976458  0.745838  0.501849  1
  I  I32  1  0.471227  0.488979  0.631175  1
  I  I33  1  0.752788  0.335037  0.632991  1
  I  I34  1  0.247212  0.664963  0.132991  1
  I  I35  1  0.254150  0.165448  0.374907  1
  I  I36  1  0.239426  0.903464  0.508425  1
  I  I37  1  0.496855  0.222692  0.750000  1
  I  I38  1  0.745850  0.834552  0.874907  1
  I  I39  1  0.979756  0.512843  0.623876  1
  I  I40  1  0.516934  0.257432  0.250000  1
  I  I41  1  0.754150  0.334552  0.374907  1
  I  I42  1  0.016934  0.242568  0.250000  1
  I  I43  1  0.020244  0.487157  0.376124  1
  I  I44  1  0.742823  0.587871  0.750000  1
  I  I45  1  0.768655  0.569786  0.250000  1
  I  I46  1  0.520244  0.012843  0.376124  1
  I  I47  1  0.028773  0.988979  0.368825  1
  I  I48  1  0.983066  0.757432  0.750000  1
  I  I49  1  0.231345  0.430214  0.750000  1
  I  I50  1  0.996855  0.277308  0.750000  1
  I  I51  1  0.503145  0.777308  0.250000  1
  I  I52  1  0.023542  0.254162  0.498151  1
  I  I53  1  0.731345  0.069786  0.750000  1
  I  I54  1  0.752788  0.335037  0.867009  1
  I  I55  1  0.003145  0.722692  0.250000  1
  I  I56  1  0.747212  0.835037  0.132991  1
  I  I57  1  0.528773  0.511021  0.131175  1
  I  I58  1  0.747212  0.835037  0.367009  1
  I  I59  1  0.260574  0.403464  0.491575  1
  I  I60  1  0.745850  0.834552  0.625093  1
  I  I61  1  0.754150  0.334552  0.125093  1
  I  I62  1  0.971227  0.011021  0.868825  1
  I  I63  1  0.239426  0.903464  0.991575  1
  I  I64  1  0.252788  0.164963  0.867009  1
  I  I65  1  0.254150  0.165448  0.125093  1
  I  I66  1  0.739426  0.596536  0.508425  1
  I  I67  1  0.979756  0.512843  0.876124  1
  I  I68  1  0.476458  0.754162  0.501849  1
  I  I69  1  0.020244  0.487157  0.123876  1
  I  I70  1  0.245850  0.665448  0.874907  1
  I  I71  1  0.757177  0.087871  0.250000  1
  I  I72  1  0.476458  0.754162  0.998151  1
  I  I73  1  0.760574  0.096536  0.008425  1
  I  I74  1  0.523542  0.245838  0.498151  1
  I  I75  1  0.471227  0.488979  0.868825  1
  I  I76  1  0.247212  0.664963  0.367009  1
  I  I77  1  0.257177  0.412129  0.250000  1
  I  I78  1  0.528773  0.511021  0.368825  1
  I  I79  1  0.483066  0.742568  0.750000  1
