# generated using pymatgen
data_Sc6Ni18Ge11
_symmetry_space_group_name_H-M   'P 1'
_cell_length_a   8.19882531
_cell_length_b   11.85343131
_cell_length_c   11.85343068
_cell_angle_alpha   63.72838505
_cell_angle_beta   69.76680149
_cell_angle_gamma   69.76680526
_symmetry_Int_Tables_number   1
_chemical_formula_structural   Sc6Ni18Ge11
_chemical_formula_sum   'Sc12 Ni36 Ge22'
_cell_volume   943.45292393
_cell_formula_units_Z   2
loop_
 _symmetry_equiv_pos_site_id
 _symmetry_equiv_pos_as_xyz
  1  'x, y, z'
loop_
 _atom_site_type_symbol
 _atom_site_label
 _atom_site_symmetry_multiplicity
 _atom_site_fract_x
 _atom_site_fract_y
 _atom_site_fract_z
 _atom_site_occupancy
  Sc  Sc0  1  0.795486  0.818173  0.181827  1
  Sc  Sc1  1  0.690319  0.809681  0.809681  1
  Sc  Sc2  1  0.719097  0.098121  0.463686  1
  Sc  Sc3  1  0.280903  0.536314  0.901879  1
  Sc  Sc4  1  0.719097  0.463686  0.098121  1
  Sc  Sc5  1  0.204514  0.818173  0.181827  1
  Sc  Sc6  1  0.130045  0.369955  0.369955  1
  Sc  Sc7  1  0.869955  0.630045  0.630045  1
  Sc  Sc8  1  0.309681  0.190319  0.190319  1
  Sc  Sc9  1  0.280903  0.901879  0.536314  1
  Sc  Sc10  1  0.795486  0.181827  0.818173  1
  Sc  Sc11  1  0.204514  0.181827  0.818173  1
  Ni  Ni12  1  0.383613  0.435436  0.128955  1
  Ni  Ni13  1  0.632797  0.735048  0.436955  1
  Ni  Ni14  1  0.804800  0.264952  0.563045  1
  Ni  Ni15  1  0.804800  0.563045  0.264952  1
  Ni  Ni16  1  0.567177  0.432823  0.432823  1
  Ni  Ni17  1  0.195200  0.735048  0.436955  1
  Ni  Ni18  1  0.955976  0.207864  0.207864  1
  Ni  Ni19  1  0.576810  0.755459  0.090921  1
  Ni  Ni20  1  0.195200  0.436955  0.735048  1
  Ni  Ni21  1  0.628297  0.207864  0.207864  1
  Ni  Ni22  1  0.423190  0.909079  0.244541  1
  Ni  Ni23  1  0.948004  0.564564  0.871045  1
  Ni  Ni24  1  0.576810  0.090921  0.755459  1
  Ni  Ni25  1  0.190591  0.075895  0.075895  1
  Ni  Ni26  1  0.051996  0.128955  0.435436  1
  Ni  Ni27  1  0.371703  0.792136  0.792136  1
  Ni  Ni28  1  0.632797  0.436955  0.735048  1
  Ni  Ni29  1  0.367203  0.563045  0.264952  1
  Ni  Ni30  1  0.000000  0.617861  0.382139  1
  Ni  Ni31  1  0.423190  0.244541  0.909079  1
  Ni  Ni32  1  0.886075  0.213457  0.014393  1
  Ni  Ni33  1  0.432823  0.567177  0.567177  1
  Ni  Ni34  1  0.044024  0.792136  0.792136  1
  Ni  Ni35  1  0.383613  0.128955  0.435436  1
  Ni  Ni36  1  0.342381  0.924105  0.924105  1
  Ni  Ni37  1  1.000000  0.382139  0.617861  1
  Ni  Ni38  1  0.809409  0.924105  0.924105  1
  Ni  Ni39  1  0.886075  0.014393  0.213457  1
  Ni  Ni40  1  0.113925  0.985607  0.786543  1
  Ni  Ni41  1  0.051996  0.435436  0.128955  1
  Ni  Ni42  1  0.948004  0.871045  0.564564  1
  Ni  Ni43  1  0.113925  0.786543  0.985607  1
  Ni  Ni44  1  0.367203  0.264952  0.563045  1
  Ni  Ni45  1  0.616387  0.871045  0.564564  1
  Ni  Ni46  1  0.657619  0.075895  0.075895  1
  Ni  Ni47  1  0.616387  0.564564  0.871045  1
  Ge  Ge48  1  0.423384  0.011116  0.675377  1
  Ge  Ge49  1  0.109877  0.324623  0.988884  1
  Ge  Ge50  1  0.890123  0.011116  0.675377  1
  Ge  Ge51  1  0.885962  0.828719  0.399357  1
  Ge  Ge52  1  0.500000  0.678224  0.321776  1
  Ge  Ge53  1  0.114038  0.600643  0.171281  1
  Ge  Ge54  1  0.576616  0.324623  0.988884  1
  Ge  Ge55  1  0.769187  0.500000  0.500000  1
  Ge  Ge56  1  0.230813  0.500000  0.500000  1
  Ge  Ge57  1  0.846250  0.330756  0.330756  1
  Ge  Ge58  1  0.492237  0.330756  0.330756  1
  Ge  Ge59  1  0.114038  0.171281  0.600643  1
  Ge  Ge60  1  0.500000  0.321776  0.678224  1
  Ge  Ge61  1  0.423384  0.675377  0.011116  1
  Ge  Ge62  1  0.153750  0.669244  0.669244  1
  Ge  Ge63  1  0.885962  0.399357  0.828719  1
  Ge  Ge64  1  0.109877  0.988884  0.324623  1
  Ge  Ge65  1  0.576616  0.988884  0.324623  1
  Ge  Ge66  1  0.890123  0.675377  0.011116  1
  Ge  Ge67  1  0.000000  0.000000  0.000000  1
  Ge  Ge68  1  0.507763  0.669244  0.669244  1
  Ge  Ge69  1  0.500000  0.000000  0.000000  1
