# generated using pymatgen
data_KC2IN2
_symmetry_space_group_name_H-M   'P 1'
_cell_length_a   4.43170575
_cell_length_b   4.43170522
_cell_length_c   9.16281305
_cell_angle_alpha   88.79276000
_cell_angle_beta   88.79276032
_cell_angle_gamma   62.99594531
_symmetry_Int_Tables_number   1
_chemical_formula_structural   KC2IN2
_chemical_formula_sum   'K1 C2 I1 N2'
_cell_volume   160.28881195
_cell_formula_units_Z   1
loop_
 _symmetry_equiv_pos_site_id
 _symmetry_equiv_pos_as_xyz
  1  'x, y, z'
loop_
 _atom_site_type_symbol
 _atom_site_label
 _atom_site_symmetry_multiplicity
 _atom_site_fract_x
 _atom_site_fract_y
 _atom_site_fract_z
 _atom_site_occupancy
  K  K0  1  0.500000  0.500000  0.500000  1
  C  C1  1  0.883323  0.883323  0.773036  1
  C  C2  1  0.116677  0.116677  0.226964  1
  I  I3  1  0.000000  0.000000  0.000000  1
  N  N4  1  0.172133  0.172133  0.345815  1
  N  N5  1  0.827867  0.827867  0.654185  1
