# generated using pymatgen
data_B2H10C2NClO3
_symmetry_space_group_name_H-M   'P 1'
_cell_length_a   6.06072013
_cell_length_b   8.28536555
_cell_length_c   8.55783730
_cell_angle_alpha   109.95280968
_cell_angle_beta   98.93219351
_cell_angle_gamma   92.44074297
_symmetry_Int_Tables_number   1
_chemical_formula_structural   B2H10C2NClO3
_chemical_formula_sum   'B4 H20 C4 N2 Cl2 O6'
_cell_volume   396.92123699
_cell_formula_units_Z   2
loop_
 _symmetry_equiv_pos_site_id
 _symmetry_equiv_pos_as_xyz
  1  'x, y, z'
loop_
 _atom_site_type_symbol
 _atom_site_label
 _atom_site_symmetry_multiplicity
 _atom_site_fract_x
 _atom_site_fract_y
 _atom_site_fract_z
 _atom_site_occupancy
  B  B0  1  0.156943  0.869094  0.934500  1
  B  B1  1  0.128643  0.055967  0.889434  1
  B  B2  1  0.871357  0.944033  0.110566  1
  B  B3  1  0.843057  0.130906  0.065500  1
  H  H4  1  0.825293  0.226233  0.770535  1
  H  H5  1  0.982793  0.757041  0.450333  1
  H  H6  1  0.241326  0.475245  0.102087  1
  H  H7  1  0.649158  0.971999  0.263159  1
  H  H8  1  0.147582  0.586496  0.467087  1
  H  H9  1  0.561173  0.499599  0.710654  1
  H  H10  1  0.852418  0.413504  0.532913  1
  H  H11  1  0.492536  0.622396  0.158766  1
  H  H12  1  0.507464  0.377604  0.841234  1
  H  H13  1  0.605622  0.220442  0.197755  1
  H  H14  1  0.758674  0.524755  0.897913  1
  H  H15  1  0.394378  0.779558  0.802245  1
  H  H16  1  0.174707  0.773767  0.229465  1
  H  H17  1  0.362036  0.793530  0.407290  1
  H  H18  1  0.637964  0.206470  0.592710  1
  H  H19  1  0.438827  0.500401  0.289346  1
  H  H20  1  0.056427  0.447182  0.720301  1
  H  H21  1  0.350842  0.028001  0.736841  1
  H  H22  1  0.017206  0.242959  0.549666  1
  H  H23  1  0.943573  0.552818  0.279699  1
  C  C24  1  0.065898  0.647069  0.381033  1
  C  C25  1  0.637112  0.433581  0.793478  1
  C  C26  1  0.362888  0.566419  0.206522  1
  C  C27  1  0.934102  0.352931  0.618967  1
  N  N28  1  0.756165  0.291409  0.693317  1
  N  N29  1  0.243835  0.708591  0.306683  1
  Cl  Cl30  1  0.414554  0.142933  0.349955  1
  Cl  Cl31  1  0.585446  0.857067  0.650045  1
  O  O32  1  0.975660  0.169566  0.959824  1
  O  O33  1  0.297299  0.747888  0.873389  1
  O  O34  1  0.760209  0.892699  0.215082  1
  O  O35  1  0.239791  0.107301  0.784918  1
  O  O36  1  0.024340  0.830434  0.040176  1
  O  O37  1  0.702701  0.252112  0.126611  1
