# generated using pymatgen
data_S
_symmetry_space_group_name_H-M   'P 1'
_cell_length_a   8.60580310
_cell_length_b   8.60580338
_cell_length_c   9.18514235
_cell_angle_alpha   77.77581393
_cell_angle_beta   77.77581339
_cell_angle_gamma   78.79511261
_symmetry_Int_Tables_number   1
_chemical_formula_structural   S
_chemical_formula_sum   S20
_cell_volume   641.74633546
_cell_formula_units_Z   20
loop_
 _symmetry_equiv_pos_site_id
 _symmetry_equiv_pos_as_xyz
  1  'x, y, z'
loop_
 _atom_site_type_symbol
 _atom_site_label
 _atom_site_symmetry_multiplicity
 _atom_site_fract_x
 _atom_site_fract_y
 _atom_site_fract_z
 _atom_site_occupancy
  S  S0  1  0.926905  0.252984  0.853825  1
  S  S1  1  0.601877  0.500240  0.197123  1
  S  S2  1  0.398123  0.499760  0.802877  1
  S  S3  1  0.073095  0.747016  0.146175  1
  S  S4  1  0.767241  0.889535  0.416805  1
  S  S5  1  0.618853  0.026138  0.268247  1
  S  S6  1  0.752984  0.426905  0.353825  1
  S  S7  1  0.127647  0.516780  0.269276  1
  S  S8  1  -0.000240  0.898123  0.302877  1
  S  S9  1  0.247016  0.573095  0.646175  1
  S  S10  1  0.983220  0.372353  0.230724  1
  S  S11  1  0.526138  0.118853  0.768247  1
  S  S12  1  0.389535  0.267241  0.916805  1
  S  S13  1  0.872353  0.483220  0.730724  1
  S  S14  1  0.232759  0.110465  0.583195  1
  S  S15  1  0.016780  0.627647  0.769276  1
  S  S16  1  1.000240  0.101877  0.697123  1
  S  S17  1  0.473862  0.881147  0.231753  1
  S  S18  1  0.381147  0.973862  0.731753  1
  S  S19  1  0.610465  0.732759  0.083195  1
