# generated using pymatgen
data_Hf5Sb9
_symmetry_space_group_name_H-M   'P 1'
_cell_length_a   8.73503523
_cell_length_b   8.84360619
_cell_length_c   8.84360619
_cell_angle_alpha   90.00000000
_cell_angle_beta   90.00000000
_cell_angle_gamma   90.00000000
_symmetry_Int_Tables_number   1
_chemical_formula_structural   Hf5Sb9
_chemical_formula_sum   'Hf10 Sb18'
_cell_volume   683.16160614
_cell_formula_units_Z   2
loop_
 _symmetry_equiv_pos_site_id
 _symmetry_equiv_pos_as_xyz
  1  'x, y, z'
loop_
 _atom_site_type_symbol
 _atom_site_label
 _atom_site_symmetry_multiplicity
 _atom_site_fract_x
 _atom_site_fract_y
 _atom_site_fract_z
 _atom_site_occupancy
  Hf  Hf0  1  0.254834  0.750000  0.750000  1
  Hf  Hf1  1  0.745166  0.250000  0.250000  1
  Hf  Hf2  1  0.266471  0.542679  0.355344  1
  Hf  Hf3  1  0.733529  0.457321  0.644656  1
  Hf  Hf4  1  0.266471  0.144656  0.542679  1
  Hf  Hf5  1  0.266471  0.957321  0.144656  1
  Hf  Hf6  1  0.733529  0.042679  0.855344  1
  Hf  Hf7  1  0.733529  0.855344  0.457321  1
  Hf  Hf8  1  0.266471  0.355344  0.957321  1
  Hf  Hf9  1  0.733529  0.644656  0.042679  1
  Sb  Sb10  1  0.001949  0.981346  0.669895  1
  Sb  Sb11  1  0.998051  0.169895  0.018654  1
  Sb  Sb12  1  0.381786  0.846760  0.446516  1
  Sb  Sb13  1  0.618214  0.553484  0.346760  1
  Sb  Sb14  1  0.618214  0.153240  0.553484  1
  Sb  Sb15  1  0.381786  0.446516  0.653240  1
  Sb  Sb16  1  0.001949  0.518654  0.830105  1
  Sb  Sb17  1  0.392244  0.250000  0.250000  1
  Sb  Sb18  1  0.618214  0.346760  0.946516  1
  Sb  Sb19  1  0.998051  0.481346  0.169895  1
  Sb  Sb20  1  0.998051  0.330105  0.481346  1
  Sb  Sb21  1  0.998051  0.018654  0.330105  1
  Sb  Sb22  1  0.381786  0.053484  0.846760  1
  Sb  Sb23  1  0.607756  0.750000  0.750000  1
  Sb  Sb24  1  0.001949  0.830105  0.981346  1
  Sb  Sb25  1  0.618214  0.946516  0.153240  1
  Sb  Sb26  1  0.001949  0.669895  0.518654  1
  Sb  Sb27  1  0.381786  0.653240  0.053484  1
