# generated using pymatgen
data_Nd2Te2W2O13
_symmetry_space_group_name_H-M   'P 1'
_cell_length_a   6.73079770
_cell_length_b   6.99469328
_cell_length_c   11.76992239
_cell_angle_alpha   90.58503706
_cell_angle_beta   98.38450559
_cell_angle_gamma   93.54671027
_symmetry_Int_Tables_number   1
_chemical_formula_structural   Nd2Te2W2O13
_chemical_formula_sum   'Nd4 Te4 W4 O26'
_cell_volume   547.04999030
_cell_formula_units_Z   2
loop_
 _symmetry_equiv_pos_site_id
 _symmetry_equiv_pos_as_xyz
  1  'x, y, z'
loop_
 _atom_site_type_symbol
 _atom_site_label
 _atom_site_symmetry_multiplicity
 _atom_site_fract_x
 _atom_site_fract_y
 _atom_site_fract_z
 _atom_site_occupancy
  Nd  Nd0  1  0.769478  0.870663  0.881660  1
  Nd  Nd1  1  0.632396  0.371703  0.367527  1
  Nd  Nd2  1  0.367604  0.628297  0.632473  1
  Nd  Nd3  1  0.230522  0.129337  0.118340  1
  Te  Te4  1  0.248733  0.612815  0.949377  1
  Te  Te5  1  0.751267  0.387185  0.050623  1
  Te  Te6  1  0.170407  0.179231  0.441486  1
  Te  Te7  1  0.829593  0.820769  0.558514  1
  W  W8  1  0.110447  0.623077  0.297497  1
  W  W9  1  0.246655  0.119036  0.813280  1
  W  W10  1  0.889553  0.376923  0.702503  1
  W  W11  1  0.753345  0.880964  0.186720  1
  O  O12  1  0.423077  0.679941  0.842428  1
  O  O13  1  0.179436  0.750444  0.435044  1
  O  O14  1  0.923751  0.168168  0.803861  1
  O  O15  1  0.797249  0.046428  0.310368  1
  O  O16  1  0.156417  0.952892  0.930390  1
  O  O17  1  0.011372  0.413793  0.145657  1
  O  O18  1  0.009490  0.387443  0.377436  1
  O  O19  1  0.576923  0.320059  0.157572  1
  O  O20  1  0.076249  0.831832  0.196139  1
  O  O21  1  0.843583  0.047108  0.069610  1
  O  O22  1  0.272223  0.331739  0.951756  1
  O  O23  1  0.202017  0.348123  0.719369  1
  O  O24  1  0.727777  0.668261  0.048244  1
  O  O25  1  0.618325  0.653836  0.486685  1
  O  O26  1  0.485824  0.899343  0.146126  1
  O  O27  1  0.349633  0.541273  0.276650  1
  O  O28  1  0.677855  0.854412  0.679791  1
  O  O29  1  0.202751  0.953572  0.689632  1
  O  O30  1  0.797983  0.651877  0.280631  1
  O  O31  1  0.381675  0.346164  0.513315  1
  O  O32  1  0.322145  0.145588  0.320209  1
  O  O33  1  0.990510  0.612557  0.622564  1
  O  O34  1  0.650367  0.458727  0.723350  1
  O  O35  1  0.820564  0.249556  0.564956  1
  O  O36  1  0.514176  0.100657  0.853874  1
  O  O37  1  0.988628  0.586207  0.854343  1
