# generated using pymatgen
data_RbTh2(PO4)3
_symmetry_space_group_name_H-M   'P 1'
_cell_length_a   6.95874850
_cell_length_b   8.24078620
_cell_length_c   9.63582535
_cell_angle_alpha   101.68223820
_cell_angle_beta   111.16698645
_cell_angle_gamma   90.00000319
_symmetry_Int_Tables_number   1
_chemical_formula_structural   RbTh2(PO4)3
_chemical_formula_sum   'Rb2 Th4 P6 O24'
_cell_volume   502.99705282
_cell_formula_units_Z   2
loop_
 _symmetry_equiv_pos_site_id
 _symmetry_equiv_pos_as_xyz
  1  'x, y, z'
loop_
 _atom_site_type_symbol
 _atom_site_label
 _atom_site_symmetry_multiplicity
 _atom_site_fract_x
 _atom_site_fract_y
 _atom_site_fract_z
 _atom_site_occupancy
  Rb  Rb0  1  0.594238  0.250000  0.000000  1
  Rb  Rb1  1  0.405762  0.750000  1.000000  1
  Th  Th2  1  0.248712  0.533519  0.308845  1
  Th  Th3  1  0.060133  0.033519  0.308845  1
  Th  Th4  1  0.939867  0.966481  0.691155  1
  Th  Th5  1  0.751288  0.466481  0.691155  1
  P  P6  1  0.783455  0.682215  0.383767  1
  P  P7  1  0.216545  0.317785  0.616233  1
  P  P8  1  0.905192  0.750000  0.000000  1
  P  P9  1  0.399689  0.817785  0.616233  1
  P  P10  1  0.094808  0.250000  1.000000  1
  P  P11  1  0.600311  0.182215  0.383767  1
  O  O12  1  0.449130  0.349644  0.710732  1
  O  O13  1  0.188222  0.090558  0.945279  1
  O  O14  1  0.087549  0.428686  0.690384  1
  O  O15  1  0.143501  0.129618  0.591593  1
  O  O16  1  0.261602  0.849644  0.710732  1
  O  O17  1  0.102311  0.743277  0.142992  1
  O  O18  1  0.897689  0.256723  0.857008  1
  O  O19  1  0.959319  0.756723  0.857008  1
  O  O20  1  0.551908  0.370382  0.408407  1
  O  O21  1  0.811778  0.909442  0.054721  1
  O  O22  1  0.723826  0.169556  0.552774  1
  O  O23  1  0.550870  0.650356  0.289268  1
  O  O24  1  0.397165  0.071314  0.309616  1
  O  O25  1  0.757058  0.590558  0.945279  1
  O  O26  1  0.242942  0.409442  0.054721  1
  O  O27  1  0.602835  0.928686  0.690384  1
  O  O28  1  0.856499  0.870382  0.408407  1
  O  O29  1  0.448092  0.629618  0.591593  1
  O  O30  1  0.276174  0.830444  0.447226  1
  O  O31  1  0.738398  0.150356  0.289268  1
  O  O32  1  0.171052  0.330444  0.447226  1
  O  O33  1  0.040681  0.243277  0.142992  1
  O  O34  1  0.912451  0.571314  0.309616  1
  O  O35  1  0.828948  0.669556  0.552774  1
