# generated using pymatgen
data_In2Ag2GeSe6
_symmetry_space_group_name_H-M   'P 1'
_cell_length_a   7.55430275
_cell_length_b   7.55430281
_cell_length_c   12.94660102
_cell_angle_alpha   73.37205040
_cell_angle_beta   73.37205024
_cell_angle_gamma   61.14517832
_symmetry_Int_Tables_number   1
_chemical_formula_structural   In2Ag2GeSe6
_chemical_formula_sum   'In4 Ag4 Ge2 Se12'
_cell_volume   610.31517898
_cell_formula_units_Z   2
loop_
 _symmetry_equiv_pos_site_id
 _symmetry_equiv_pos_as_xyz
  1  'x, y, z'
loop_
 _atom_site_type_symbol
 _atom_site_label
 _atom_site_symmetry_multiplicity
 _atom_site_fract_x
 _atom_site_fract_y
 _atom_site_fract_z
 _atom_site_occupancy
  Ag  Ag0  1  0.982927  0.798868  0.744546  1
  Ag  Ag1  1  0.798868  0.982927  0.244546  1
  Ag  Ag2  1  0.801995  0.385028  0.581201  1
  Ag  Ag3  1  0.385028  0.801995  0.081201  1
  In  In4  1  0.501591  0.316970  0.935674  1
  In  In5  1  0.316970  0.501591  0.435674  1
  In  In6  1  0.294800  0.166267  0.737878  1
  In  In7  1  0.166267  0.294800  0.237878  1
  Ge  Ge8  1  0.929371  0.397048  0.994740  1
  Ge  Ge9  1  0.397048  0.929371  0.494740  1
  Se  Se10  1  0.109905  0.600782  0.946464  1
  Se  Se11  1  0.600782  0.109905  0.446464  1
  Se  Se12  1  0.643229  0.162184  0.751775  1
  Se  Se13  1  0.162184  0.643229  0.251775  1
  Se  Se14  1  0.099819  0.074716  0.938035  1
  Se  Se15  1  0.074716  0.099819  0.438035  1
  Se  Se16  1  0.348783  0.825580  0.687479  1
  Se  Se17  1  0.825580  0.348783  0.187479  1
  Se  Se18  1  0.513076  0.052685  0.124283  1
  Se  Se19  1  0.052685  0.513076  0.624283  1
  Se  Se20  1  0.629651  0.600523  0.913024  1
  Se  Se21  1  0.600523  0.629651  0.413024  1
