# generated using pymatgen
data_NaIO3
_symmetry_space_group_name_H-M   'P 1'
_cell_length_a   5.57412238
_cell_length_b   7.27645750
_cell_length_c   8.53692874
_cell_angle_alpha   90.00000000
_cell_angle_beta   90.00000000
_cell_angle_gamma   90.00000000
_symmetry_Int_Tables_number   1
_chemical_formula_structural   NaIO3
_chemical_formula_sum   'Na4 I4 O12'
_cell_volume   346.25667378
_cell_formula_units_Z   4
loop_
 _symmetry_equiv_pos_site_id
 _symmetry_equiv_pos_as_xyz
  1  'x, y, z'
loop_
 _atom_site_type_symbol
 _atom_site_label
 _atom_site_symmetry_multiplicity
 _atom_site_fract_x
 _atom_site_fract_y
 _atom_site_fract_z
 _atom_site_occupancy
  Na  Na0  1  0.997653  0.487512  0.496353  1
  Na  Na1  1  0.497653  0.012488  0.496353  1
  Na  Na2  1  0.502347  0.987512  0.996353  1
  Na  Na3  1  0.002347  0.512488  0.996353  1
  I  I4  1  0.026247  0.997425  0.751225  1
  I  I5  1  0.526247  0.502575  0.751225  1
  I  I6  1  0.473753  0.497425  0.251225  1
  I  I7  1  0.973753  0.002575  0.251225  1
  O  O8  1  0.198303  0.474719  0.746372  1
  O  O9  1  0.601882  0.654757  0.914154  1
  O  O10  1  0.113473  0.856442  0.583696  1
  O  O11  1  0.613473  0.643558  0.583696  1
  O  O12  1  0.898118  0.154757  0.414154  1
  O  O13  1  0.101882  0.845243  0.914154  1
  O  O14  1  0.398118  0.345243  0.414154  1
  O  O15  1  0.301697  0.974719  0.246372  1
  O  O16  1  0.801697  0.525281  0.246372  1
  O  O17  1  0.698303  0.025281  0.746372  1
  O  O18  1  0.886527  0.143558  0.083696  1
  O  O19  1  0.386527  0.356442  0.083696  1
