# generated using pymatgen
data_RbFeF4
_symmetry_space_group_name_H-M   'P 1'
_cell_length_a   6.33086662
_cell_length_b   7.79708600
_cell_length_c   7.82619286
_cell_angle_alpha   90.00000000
_cell_angle_beta   90.00000000
_cell_angle_gamma   90.00000000
_symmetry_Int_Tables_number   1
_chemical_formula_structural   RbFeF4
_chemical_formula_sum   'Rb4 Fe4 F16'
_cell_volume   386.31896974
_cell_formula_units_Z   4
loop_
 _symmetry_equiv_pos_site_id
 _symmetry_equiv_pos_as_xyz
  1  'x, y, z'
loop_
 _atom_site_type_symbol
 _atom_site_label
 _atom_site_symmetry_multiplicity
 _atom_site_fract_x
 _atom_site_fract_y
 _atom_site_fract_z
 _atom_site_occupancy
  Rb  Rb0  1  0.486595  0.791615  0.752721  1
  Rb  Rb1  1  0.513405  0.208385  0.252721  1
  Rb  Rb2  1  0.486595  0.708385  0.252721  1
  Rb  Rb3  1  0.513405  0.291615  0.752721  1
  Fe  Fe4  1  0.000721  0.998744  0.001606  1
  Fe  Fe5  1  0.000721  0.501256  0.501606  1
  Fe  Fe6  1  0.999279  0.001256  0.501606  1
  Fe  Fe7  1  0.999279  0.498744  0.001606  1
  F  F8  1  0.071859  0.486331  0.751853  1
  F  F9  1  0.716127  0.556477  0.550222  1
  F  F10  1  0.283873  0.443523  0.050222  1
  F  F11  1  0.928141  0.986331  0.751853  1
  F  F12  1  0.913541  0.251347  0.500375  1
  F  F13  1  0.071859  0.013669  0.251853  1
  F  F14  1  0.713736  0.552876  0.955914  1
  F  F15  1  0.716127  0.943523  0.050222  1
  F  F16  1  0.286264  0.447124  0.455914  1
  F  F17  1  0.283873  0.056477  0.550222  1
  F  F18  1  0.713736  0.947124  0.455914  1
  F  F19  1  0.286264  0.052876  0.955914  1
  F  F20  1  0.928141  0.513669  0.251853  1
  F  F21  1  0.913541  0.248653  1.000375  1
  F  F22  1  0.086459  0.748653  1.000375  1
  F  F23  1  0.086459  0.751347  0.500375  1
