# generated using pymatgen
data_TiCl3
_symmetry_space_group_name_H-M   'P 1'
_cell_length_a   6.10575333
_cell_length_b   6.10575307
_cell_length_c   19.05697416
_cell_angle_alpha   90.00000000
_cell_angle_beta   90.00000000
_cell_angle_gamma   120.00000138
_symmetry_Int_Tables_number   1
_chemical_formula_structural   TiCl3
_chemical_formula_sum   'Ti6 Cl18'
_cell_volume   615.26620618
_cell_formula_units_Z   6
loop_
 _symmetry_equiv_pos_site_id
 _symmetry_equiv_pos_as_xyz
  1  'x, y, z'
loop_
 _atom_site_type_symbol
 _atom_site_label
 _atom_site_symmetry_multiplicity
 _atom_site_fract_x
 _atom_site_fract_y
 _atom_site_fract_z
 _atom_site_occupancy
  Ti  Ti0  1  0.000000  0.000000  0.165493  1
  Ti  Ti1  1  0.000000  0.000000  0.834507  1
  Ti  Ti2  1  0.666667  0.333333  0.500000  1
  Ti  Ti3  1  0.333333  0.666667  0.834485  1
  Ti  Ti4  1  0.333333  0.666667  0.500000  1
  Ti  Ti5  1  0.333333  0.666667  0.165515  1
  Cl  Cl6  1  0.647048  -0.000034  0.426117  1
  Cl  Cl7  1  0.666724  0.980444  0.760691  1
  Cl  Cl8  1  0.352918  0.352952  0.426117  1
  Cl  Cl9  1  0.019556  0.333276  0.239309  1
  Cl  Cl10  1  0.314741  0.981332  0.908176  1
  Cl  Cl11  1  1.000034  0.352952  0.573883  1
  Cl  Cl12  1  0.647048  0.647082  0.573883  1
  Cl  Cl13  1  1.000034  0.647082  0.426117  1
  Cl  Cl14  1  0.666724  0.686279  0.239309  1
  Cl  Cl15  1  0.018668  0.333409  0.908176  1
  Cl  Cl16  1  0.313721  0.333276  0.760691  1
  Cl  Cl17  1  0.352918  -0.000034  0.573883  1
  Cl  Cl18  1  0.666591  0.685259  0.908176  1
  Cl  Cl19  1  0.313721  0.980444  0.239309  1
  Cl  Cl20  1  0.019556  0.686279  0.760691  1
  Cl  Cl21  1  0.018668  0.685259  0.091824  1
  Cl  Cl22  1  0.666591  0.981332  0.091824  1
  Cl  Cl23  1  0.314741  0.333409  0.091824  1
