# generated using pymatgen
data_SrFe3(PO4)3
_symmetry_space_group_name_H-M   'P 1'
_cell_length_a   6.61887905
_cell_length_b   9.23694543
_cell_length_c   9.23694584
_cell_angle_alpha   69.93456672
_cell_angle_beta   69.00521905
_cell_angle_gamma   69.00522158
_symmetry_Int_Tables_number   1
_chemical_formula_structural   SrFe3(PO4)3
_chemical_formula_sum   'Sr2 Fe6 P6 O24'
_cell_volume   477.06767152
_cell_formula_units_Z   2
loop_
 _symmetry_equiv_pos_site_id
 _symmetry_equiv_pos_as_xyz
  1  'x, y, z'
loop_
 _atom_site_type_symbol
 _atom_site_label
 _atom_site_symmetry_multiplicity
 _atom_site_fract_x
 _atom_site_fract_y
 _atom_site_fract_z
 _atom_site_occupancy
  Sr  Sr0  1  0.149766  0.250000  0.250000  1
  Sr  Sr1  1  0.850234  0.750000  0.750000  1
  Fe  Fe2  1  0.617558  0.382442  0.882442  1
  Fe  Fe3  1  0.382442  0.617558  0.117558  1
  Fe  Fe4  1  0.617558  0.882442  0.382442  1
  Fe  Fe5  1  0.382442  0.117558  0.617558  1
  Fe  Fe6  1  0.000000  0.000000  0.000000  1
  Fe  Fe7  1  0.500000  0.500000  0.500000  1
  P  P8  1  0.823490  0.676510  0.176510  1
  P  P9  1  0.655601  0.250000  0.250000  1
  P  P10  1  0.176510  0.823490  0.323490  1
  P  P11  1  0.176510  0.323490  0.823490  1
  P  P12  1  0.344399  0.750000  0.750000  1
  P  P13  1  0.823490  0.176510  0.676510  1
  O  O14  1  0.931677  0.426498  0.845877  1
  O  O15  1  0.295948  0.926498  0.345877  1
  O  O16  1  0.883896  0.157531  0.157531  1
  O  O17  1  0.704052  0.654123  0.073502  1
  O  O18  1  0.204318  0.860539  0.137880  1
  O  O19  1  0.301042  0.657531  0.657531  1
  O  O20  1  0.702737  0.362120  0.639461  1
  O  O21  1  0.795682  0.139461  0.862120  1
  O  O22  1  0.489575  0.633830  0.866170  1
  O  O23  1  0.931677  0.845877  0.426498  1
  O  O24  1  0.297263  0.360539  0.637880  1
  O  O25  1  0.510425  0.366170  0.133830  1
  O  O26  1  0.204318  0.137880  0.860539  1
  O  O27  1  0.068323  0.154123  0.573502  1
  O  O28  1  0.702737  0.639461  0.362120  1
  O  O29  1  0.297263  0.637880  0.360539  1
  O  O30  1  0.698958  0.342469  0.342469  1
  O  O31  1  0.704052  0.073502  0.654123  1
  O  O32  1  0.116103  0.842469  0.842469  1
  O  O33  1  0.510425  0.133830  0.366170  1
  O  O34  1  0.489575  0.866170  0.633830  1
  O  O35  1  0.795682  0.862120  0.139461  1
  O  O36  1  0.295948  0.345877  0.926498  1
  O  O37  1  0.068323  0.573502  0.154123  1
