# generated using pymatgen
data_Sr9LuV7O28
_symmetry_space_group_name_H-M   'P 1'
_cell_length_a   14.89863530
_cell_length_b   14.89863501
_cell_length_c   14.89863564
_cell_angle_alpha   44.82965229
_cell_angle_beta   44.82965342
_cell_angle_gamma   44.82965217
_symmetry_Int_Tables_number   1
_chemical_formula_structural   Sr9LuV7O28
_chemical_formula_sum   'Sr18 Lu2 V14 O56'
_cell_volume   1495.51267211
_cell_formula_units_Z   2
loop_
 _symmetry_equiv_pos_site_id
 _symmetry_equiv_pos_as_xyz
  1  'x, y, z'
loop_
 _atom_site_type_symbol
 _atom_site_label
 _atom_site_symmetry_multiplicity
 _atom_site_fract_x
 _atom_site_fract_y
 _atom_site_fract_z
 _atom_site_occupancy
  Sr  Sr0  1  0.470315  0.051362  0.453580  1
  Sr  Sr1  1  0.353265  0.907343  0.935071  1
  Sr  Sr2  1  0.435071  0.407343  0.853265  1
  Sr  Sr3  1  0.566939  0.577516  0.153503  1
  Sr  Sr4  1  0.577516  0.153503  0.566939  1
  Sr  Sr5  1  0.907343  0.935071  0.353265  1
  Sr  Sr6  1  0.853265  0.435071  0.407343  1
  Sr  Sr7  1  0.551362  0.970315  0.953580  1
  Sr  Sr8  1  0.066939  0.653503  0.077516  1
  Sr  Sr9  1  0.653503  0.077516  0.066939  1
  Sr  Sr10  1  0.051362  0.453580  0.470315  1
  Sr  Sr11  1  0.453580  0.470315  0.051362  1
  Sr  Sr12  1  0.077516  0.066939  0.653503  1
  Sr  Sr13  1  0.970315  0.953580  0.551362  1
  Sr  Sr14  1  0.953580  0.551362  0.970315  1
  Sr  Sr15  1  0.935071  0.353265  0.907343  1
  Sr  Sr16  1  0.153503  0.566939  0.577516  1
  Sr  Sr17  1  0.407343  0.853265  0.435071  1
  Lu  Lu18  1  0.499912  0.499912  0.499912  1
  Lu  Lu19  1  0.999912  0.999912  0.999912  1
  V  V20  1  0.276242  0.820602  0.308589  1
  V  V21  1  0.776242  0.808589  0.320602  1
  V  V22  1  0.808589  0.320602  0.776242  1
  V  V23  1  0.719943  0.187204  0.687763  1
  V  V24  1  0.320602  0.776242  0.808589  1
  V  V25  1  0.219943  0.187763  0.687204  1
  V  V26  1  0.820602  0.308589  0.276242  1
  V  V27  1  0.770994  0.770994  0.770994  1
  V  V28  1  0.187763  0.687204  0.219943  1
  V  V29  1  0.687204  0.219943  0.187763  1
  V  V30  1  0.270994  0.270994  0.270994  1
  V  V31  1  0.687763  0.719943  0.187204  1
  V  V32  1  0.308589  0.276242  0.820602  1
  V  V33  1  0.187204  0.687763  0.719943  1
  O  O34  1  0.314230  0.314230  0.314230  1
  O  O35  1  0.857375  0.628701  0.375426  1
  O  O36  1  0.636038  0.380510  0.378135  1
  O  O37  1  0.763356  0.858122  0.404525  1
  O  O38  1  0.686900  0.106472  0.676441  1
  O  O39  1  0.875426  0.128701  0.357375  1
  O  O40  1  0.107561  0.835097  0.393855  1
  O  O41  1  0.111067  0.871057  0.129925  1
  O  O42  1  0.880510  0.136038  0.878135  1
  O  O43  1  0.363419  0.635107  0.155492  1
  O  O44  1  0.136038  0.878135  0.880510  1
  O  O45  1  0.398944  0.275594  0.103296  1
  O  O46  1  0.155492  0.363419  0.635107  1
  O  O47  1  0.128701  0.357375  0.875426  1
  O  O48  1  0.898601  0.143464  0.593067  1
  O  O49  1  0.186900  0.176441  0.606472  1
  O  O50  1  0.878135  0.880510  0.136038  1
  O  O51  1  0.129925  0.111067  0.871057  1
  O  O52  1  0.775594  0.898944  0.603296  1
  O  O53  1  0.643464  0.398601  0.093067  1
  O  O54  1  0.835097  0.393855  0.107561  1
  O  O55  1  0.103296  0.398944  0.275594  1
  O  O56  1  0.676441  0.686900  0.106472  1
  O  O57  1  0.606472  0.186900  0.176441  1
  O  O58  1  0.143464  0.593067  0.898601  1
  O  O59  1  0.635107  0.155492  0.363419  1
  O  O60  1  0.814230  0.814230  0.814230  1
  O  O61  1  0.176441  0.606472  0.186900  1
  O  O62  1  0.593067  0.898601  0.143464  1
  O  O63  1  0.375426  0.857375  0.628701  1
  O  O64  1  0.135107  0.863419  0.655492  1
  O  O65  1  0.629925  0.371057  0.611067  1
  O  O66  1  0.863419  0.655492  0.135107  1
  O  O67  1  0.106472  0.676441  0.686900  1
  O  O68  1  0.898944  0.603296  0.775594  1
  O  O69  1  0.335097  0.607561  0.893855  1
  O  O70  1  0.358122  0.263356  0.904525  1
  O  O71  1  0.628701  0.375426  0.857375  1
  O  O72  1  0.398601  0.093067  0.643464  1
  O  O73  1  0.904525  0.358122  0.263356  1
  O  O74  1  0.371057  0.611067  0.629925  1
  O  O75  1  0.603296  0.775594  0.898944  1
  O  O76  1  0.357375  0.875426  0.128701  1
  O  O77  1  0.655492  0.135107  0.863419  1
  O  O78  1  0.093067  0.643464  0.398601  1
  O  O79  1  0.893855  0.335097  0.607561  1
  O  O80  1  0.611067  0.629925  0.371057  1
  O  O81  1  0.858122  0.404525  0.763356  1
  O  O82  1  0.607561  0.893855  0.335097  1
  O  O83  1  0.871057  0.129925  0.111067  1
  O  O84  1  0.378135  0.636038  0.380510  1
  O  O85  1  0.404525  0.763356  0.858122  1
  O  O86  1  0.263356  0.904525  0.358122  1
  O  O87  1  0.380510  0.378135  0.636038  1
  O  O88  1  0.393855  0.107561  0.835097  1
  O  O89  1  0.275594  0.103296  0.398944  1
