# generated using pymatgen
data_NaCo3P3(HO6)2
_symmetry_space_group_name_H-M   'P 1'
_cell_length_a   6.61969587
_cell_length_b   8.55053533
_cell_length_c   8.55053515
_cell_angle_alpha   91.05282030
_cell_angle_beta   106.74539334
_cell_angle_gamma   106.74539555
_symmetry_Int_Tables_number   1
_chemical_formula_structural   NaCo3P3(HO6)2
_chemical_formula_sum   'Na2 Co6 P6 H4 O24'
_cell_volume   441.07966538
_cell_formula_units_Z   2
loop_
 _symmetry_equiv_pos_site_id
 _symmetry_equiv_pos_as_xyz
  1  'x, y, z'
loop_
 _atom_site_type_symbol
 _atom_site_label
 _atom_site_symmetry_multiplicity
 _atom_site_fract_x
 _atom_site_fract_y
 _atom_site_fract_z
 _atom_site_occupancy
  Na  Na0  1  0.250000  0.956581  0.043419  1
  Na  Na1  1  0.750000  0.043419  0.956581  1
  Co  Co2  1  0.750000  0.723849  0.276151  1
  Co  Co3  1  0.250000  0.276151  0.723849  1
  Co  Co4  1  0.625658  0.049600  0.374013  1
  Co  Co5  1  0.874342  0.625987  0.950400  1
  Co  Co6  1  0.374342  0.950400  0.625987  1
  Co  Co7  1  0.125658  0.374013  0.049600  1
  P  P8  1  0.750000  0.317426  0.682574  1
  P  P9  1  0.250000  0.682574  0.317426  1
  P  P10  1  0.889538  0.893898  0.671860  1
  P  P11  1  0.610462  0.328140  0.106102  1
  P  P12  1  0.110462  0.106102  0.328140  1
  P  P13  1  0.389538  0.671860  0.893898  1
  O  O14  1  0.460733  0.792513  0.279116  1
  O  O15  1  0.039267  0.720884  0.207487  1
  O  O16  1  0.539267  0.207487  0.720884  1
  O  O17  1  0.960733  0.279116  0.792513  1
  O  O18  1  0.731873  0.284546  0.499024  1
  O  O19  1  0.768127  0.500976  0.715454  1
  O  O20  1  0.268127  0.715454  0.500976  1
  O  O21  1  0.231873  0.499024  0.284546  1
  O  O22  1  0.887525  0.981916  0.328302  1
  O  O23  1  0.612475  0.671698  0.018084  1
  O  O24  1  0.112475  0.018084  0.671698  1
  O  O25  1  0.387525  0.328302  0.981916  1
  O  O26  1  0.655579  0.448970  0.266871  1
  O  O27  1  0.844421  0.733129  0.551030  1
  O  O28  1  0.344421  0.551030  0.733129  1
  O  O29  1  0.155579  0.266871  0.448970  1
  O  O30  1  0.696519  0.964936  0.606969  1
  O  O31  1  0.803481  0.393031  0.035064  1
  O  O32  1  0.303481  0.035064  0.393031  1
  O  O33  1  0.196519  0.606969  0.964936  1
  O  O34  1  0.595651  0.153612  0.154332  1
  O  O35  1  0.904349  0.845668  0.846388  1
  O  O36  1  0.404349  0.846388  0.845668  1
  O  O37  1  0.095651  0.154332  0.153612  1
  H  H38  1  0.810887  0.624087  0.612179  1
  H  H39  1  0.689113  0.387821  0.375913  1
  H  H40  1  0.189113  0.375913  0.387821  1
  H  H41  1  0.310887  0.612179  0.624087  1
