# generated using pymatgen
data_ZnS
_symmetry_space_group_name_H-M   'P 1'
_cell_length_a   3.83338321
_cell_length_b   3.83338310
_cell_length_c   38.92690755
_cell_angle_alpha   90.00000000
_cell_angle_beta   90.00000000
_cell_angle_gamma   120.00000085
_symmetry_Int_Tables_number   1
_chemical_formula_structural   ZnS
_chemical_formula_sum   'Zn12 S12'
_cell_volume   495.38744079
_cell_formula_units_Z   12
loop_
 _symmetry_equiv_pos_site_id
 _symmetry_equiv_pos_as_xyz
  1  'x, y, z'
loop_
 _atom_site_type_symbol
 _atom_site_label
 _atom_site_symmetry_multiplicity
 _atom_site_fract_x
 _atom_site_fract_y
 _atom_site_fract_z
 _atom_site_occupancy
  Zn  Zn0  1  0.666667  0.333333  0.821092  1
  Zn  Zn1  1  0.000000  0.000000  0.656691  1
  Zn  Zn2  1  0.000000  0.000000  0.250550  1
  Zn  Zn3  1  0.666667  0.333333  0.332918  1
  Zn  Zn4  1  0.666667  0.333333  0.576406  1
  Zn  Zn5  1  0.666667  0.333333  0.168082  1
  Zn  Zn6  1  0.333333  0.666667  0.414663  1
  Zn  Zn7  1  0.333333  0.666667  0.085899  1
  Zn  Zn8  1  0.333333  0.666667  0.736703  1
  Zn  Zn9  1  0.000000  0.000000  0.867340  1
  Zn  Zn10  1  0.000000  0.000000  0.495768  1
  Zn  Zn11  1  0.000000  0.000000  0.004036  1
  S  S12  1  0.666667  0.333333  0.229501  1
  S  S13  1  0.333333  0.666667  0.475563  1
  S  S14  1  0.000000  0.000000  0.717069  1
  S  S15  1  0.666667  0.333333  0.636966  1
  S  S16  1  0.666667  0.333333  0.984688  1
  S  S17  1  0.333333  0.666667  0.147259  1
  S  S18  1  0.000000  0.000000  0.312046  1
  S  S19  1  0.000000  0.000000  0.923636  1
  S  S20  1  0.000000  0.000000  0.065584  1
  S  S21  1  0.666667  0.333333  0.394088  1
  S  S22  1  0.000000  0.000000  0.556402  1
  S  S23  1  0.333333  0.666667  0.797048  1
