# generated using pymatgen
data_Nb2Te3
_symmetry_space_group_name_H-M   'P 1'
_cell_length_a   3.70333530
_cell_length_b   7.85207491
_cell_length_c   9.25485515
_cell_angle_alpha   76.58310207
_cell_angle_beta   78.46018789
_cell_angle_gamma   76.36001544
_symmetry_Int_Tables_number   1
_chemical_formula_structural   Nb2Te3
_chemical_formula_sum   'Nb4 Te6'
_cell_volume   251.36821553
_cell_formula_units_Z   2
loop_
 _symmetry_equiv_pos_site_id
 _symmetry_equiv_pos_as_xyz
  1  'x, y, z'
loop_
 _atom_site_type_symbol
 _atom_site_label
 _atom_site_symmetry_multiplicity
 _atom_site_fract_x
 _atom_site_fract_y
 _atom_site_fract_z
 _atom_site_occupancy
  Nb  Nb0  1  0.666414  0.548457  0.118649  1
  Nb  Nb1  1  0.333586  0.451543  0.881351  1
  Nb  Nb2  1  0.756155  0.113795  0.373896  1
  Nb  Nb3  1  0.243845  0.886205  0.626104  1
  Te  Te4  1  0.411143  0.855554  0.322403  1
  Te  Te5  1  0.871221  0.213913  0.043642  1
  Te  Te6  1  0.122814  0.403351  0.350833  1
  Te  Te7  1  0.877186  0.596649  0.649167  1
  Te  Te8  1  0.588857  0.144446  0.677597  1
  Te  Te9  1  0.128779  0.786087  0.956358  1
