# generated using pymatgen
data_PS2N3Cl2(OF)2
_symmetry_space_group_name_H-M   'P 1'
_cell_length_a   7.99659509
_cell_length_b   8.05327063
_cell_length_c   14.66883581
_cell_angle_alpha   95.65670256
_cell_angle_beta   90.00000000
_cell_angle_gamma   90.00000000
_symmetry_Int_Tables_number   1
_chemical_formula_structural   PS2N3Cl2(OF)2
_chemical_formula_sum   'P4 S8 N12 Cl8 O8 F8'
_cell_volume   940.05446099
_cell_formula_units_Z   4
loop_
 _symmetry_equiv_pos_site_id
 _symmetry_equiv_pos_as_xyz
  1  'x, y, z'
loop_
 _atom_site_type_symbol
 _atom_site_label
 _atom_site_symmetry_multiplicity
 _atom_site_fract_x
 _atom_site_fract_y
 _atom_site_fract_z
 _atom_site_occupancy
  P  P0  1  0.348670  0.140345  0.622020  1
  P  P1  1  0.651330  0.859655  0.377980  1
  P  P2  1  0.151330  0.140345  0.122020  1
  P  P3  1  0.848670  0.859655  0.877980  1
  S  S4  1  0.577953  0.648194  0.854327  1
  S  S5  1  0.849542  0.799810  0.526385  1
  S  S6  1  0.650458  0.799810  0.026385  1
  S  S7  1  0.349542  0.200190  0.973615  1
  S  S8  1  0.922047  0.648194  0.354327  1
  S  S9  1  0.150458  0.200190  0.473615  1
  S  S10  1  0.077953  0.351806  0.645673  1
  S  S11  1  0.422047  0.351806  0.145673  1
  N  N12  1  0.702566  0.890907  0.484506  1
  N  N13  1  0.215834  0.247225  0.686335  1
  N  N14  1  0.784166  0.752775  0.313665  1
  N  N15  1  0.524512  0.706390  0.956105  1
  N  N16  1  0.202566  0.109093  0.015494  1
  N  N17  1  0.475488  0.293610  0.043895  1
  N  N18  1  0.715834  0.752775  0.813665  1
  N  N19  1  0.797434  0.890907  0.984506  1
  N  N20  1  0.284166  0.247225  0.186335  1
  N  N21  1  0.297434  0.109093  0.515494  1
  N  N22  1  0.975488  0.706390  0.456105  1
  N  N23  1  0.024512  0.293610  0.543895  1
  Cl  Cl24  1  0.927436  0.247545  0.134045  1
  Cl  Cl25  1  0.072564  0.752455  0.865955  1
  Cl  Cl26  1  0.572564  0.247545  0.634045  1
  Cl  Cl27  1  0.427436  0.752455  0.365955  1
  Cl  Cl28  1  0.622345  0.078276  0.329863  1
  Cl  Cl29  1  0.122345  0.921724  0.170137  1
  Cl  Cl30  1  0.377655  0.921724  0.670137  1
  Cl  Cl31  1  0.877655  0.078276  0.829863  1
  O  O32  1  0.936533  0.386104  0.703317  1
  O  O33  1  0.565478  0.892994  0.099761  1
  O  O34  1  0.065478  0.107006  0.400239  1
  O  O35  1  0.063467  0.613896  0.296683  1
  O  O36  1  0.436533  0.613896  0.796683  1
  O  O37  1  0.563467  0.386104  0.203317  1
  O  O38  1  0.434522  0.107006  0.900239  1
  O  O39  1  0.934522  0.892994  0.599761  1
  F  F40  1  0.835369  0.470086  0.362876  1
  F  F41  1  0.335369  0.529914  0.137124  1
  F  F42  1  0.240696  0.350058  0.428072  1
  F  F43  1  0.664631  0.470086  0.862876  1
  F  F44  1  0.259304  0.350058  0.928072  1
  F  F45  1  0.740696  0.649942  0.071928  1
  F  F46  1  0.759304  0.649942  0.571928  1
  F  F47  1  0.164631  0.529914  0.637124  1
