# generated using pymatgen
data_BaIn2O4
_symmetry_space_group_name_H-M   'P 1'
_cell_length_a   5.92986160
_cell_length_b   14.67439891
_cell_length_c   21.15441978
_cell_angle_alpha   109.97342203
_cell_angle_beta   90.00000000
_cell_angle_gamma   90.00000000
_symmetry_Int_Tables_number   1
_chemical_formula_structural   BaIn2O4
_chemical_formula_sum   'Ba16 In32 O64'
_cell_volume   1730.07561209
_cell_formula_units_Z   16
loop_
 _symmetry_equiv_pos_site_id
 _symmetry_equiv_pos_as_xyz
  1  'x, y, z'
loop_
 _atom_site_type_symbol
 _atom_site_label
 _atom_site_symmetry_multiplicity
 _atom_site_fract_x
 _atom_site_fract_y
 _atom_site_fract_z
 _atom_site_occupancy
  Ba  Ba0  1  0.744384  0.061053  0.460490  1
  Ba  Ba1  1  0.756063  0.809470  0.622381  1
  Ba  Ba2  1  0.259165  0.690949  0.877690  1
  Ba  Ba3  1  0.240835  0.190949  0.877690  1
  Ba  Ba4  1  0.759165  0.809051  0.122310  1
  Ba  Ba5  1  0.755616  0.561053  0.460490  1
  Ba  Ba6  1  0.756974  0.561313  0.959850  1
  Ba  Ba7  1  0.244384  0.438947  0.539510  1
  Ba  Ba8  1  0.743937  0.309470  0.622381  1
  Ba  Ba9  1  0.256974  0.938687  0.040150  1
  Ba  Ba10  1  0.740835  0.309051  0.122310  1
  Ba  Ba11  1  0.743026  0.061313  0.959850  1
  Ba  Ba12  1  0.243937  0.190530  0.377619  1
  Ba  Ba13  1  0.255616  0.938947  0.539510  1
  Ba  Ba14  1  0.243026  0.438687  0.040150  1
  Ba  Ba15  1  0.256063  0.690530  0.377619  1
  In  In16  1  0.753897  0.306583  0.310744  1
  In  In17  1  0.258470  0.946610  0.222476  1
  In  In18  1  0.248578  0.929168  0.863210  1
  In  In19  1  0.750173  0.069999  0.636525  1
  In  In20  1  0.749252  0.552920  0.278200  1
  In  In21  1  0.748578  0.570832  0.136790  1
  In  In22  1  0.751422  0.070832  0.136790  1
  In  In23  1  0.749827  0.569999  0.636525  1
  In  In24  1  0.258168  0.686134  0.041041  1
  In  In25  1  0.746103  0.806583  0.310744  1
  In  In26  1  0.243283  0.186416  0.541114  1
  In  In27  1  0.745314  0.805562  0.810430  1
  In  In28  1  0.256717  0.686416  0.541114  1
  In  In29  1  0.245314  0.694438  0.189570  1
  In  In30  1  0.253897  0.193417  0.689256  1
  In  In31  1  0.741832  0.313866  0.958959  1
  In  In32  1  0.254686  0.194438  0.189570  1
  In  In33  1  0.250173  0.430001  0.363475  1
  In  In34  1  0.241530  0.446610  0.222476  1
  In  In35  1  0.249827  0.930001  0.363475  1
  In  In36  1  0.758470  0.553390  0.777524  1
  In  In37  1  0.750748  0.052920  0.278200  1
  In  In38  1  0.249252  0.947080  0.721800  1
  In  In39  1  0.758168  0.813866  0.958959  1
  In  In40  1  0.246103  0.693417  0.689256  1
  In  In41  1  0.251422  0.429168  0.863210  1
  In  In42  1  0.754686  0.305562  0.810430  1
  In  In43  1  0.743282  0.313584  0.458886  1
  In  In44  1  0.241832  0.186134  0.041041  1
  In  In45  1  0.250748  0.447080  0.721800  1
  In  In46  1  0.756718  0.813584  0.458886  1
  In  In47  1  0.741530  0.053390  0.777524  1
  O  O48  1  0.193695  0.053538  0.454566  1
  O  O49  1  0.481009  0.768604  0.504550  1
  O  O50  1  0.548668  0.435312  0.291504  1
  O  O51  1  0.491934  0.344741  0.392120  1
  O  O52  1  0.297129  0.318632  0.141351  1
  O  O53  1  0.543589  0.885694  0.405846  1
  O  O54  1  0.956411  0.385694  0.405846  1
  O  O55  1  0.702871  0.681368  0.858649  1
  O  O56  1  0.456411  0.114306  0.594154  1
  O  O57  1  0.425550  0.020602  0.316783  1
  O  O58  1  0.951332  0.935312  0.291504  1
  O  O59  1  0.991934  0.155259  0.607880  1
  O  O60  1  0.797129  0.181368  0.858649  1
  O  O61  1  0.484648  0.767805  0.004704  1
  O  O62  1  0.042732  0.614847  0.094107  1
  O  O63  1  0.202871  0.818632  0.141351  1
  O  O64  1  0.006547  0.844079  0.891186  1
  O  O65  1  0.555929  0.434331  0.789933  1
  O  O66  1  0.444071  0.565669  0.210067  1
  O  O67  1  0.925550  0.479398  0.683217  1
  O  O68  1  0.574450  0.979398  0.683217  1
  O  O69  1  0.693695  0.446462  0.545434  1
  O  O70  1  0.799675  0.183294  0.357814  1
  O  O71  1  0.806305  0.946462  0.545434  1
  O  O72  1  0.957268  0.385153  0.905893  1
  O  O73  1  0.200325  0.816706  0.642186  1
  O  O74  1  0.015352  0.267805  0.004704  1
  O  O75  1  0.055929  0.065669  0.210067  1
  O  O76  1  0.981009  0.731396  0.495450  1
  O  O77  1  0.693017  0.447315  0.045306  1
  O  O78  1  0.583071  0.980208  0.184207  1
  O  O79  1  0.508066  0.655259  0.607880  1
  O  O80  1  0.043589  0.614306  0.594154  1
  O  O81  1  0.306305  0.553538  0.454566  1
  O  O82  1  0.018991  0.268604  0.504550  1
  O  O83  1  0.700325  0.683294  0.357814  1
  O  O84  1  0.506547  0.655921  0.108814  1
  O  O85  1  0.944071  0.934331  0.789933  1
  O  O86  1  0.097068  0.306614  0.770528  1
  O  O87  1  0.299675  0.316706  0.642186  1
  O  O88  1  0.416929  0.019792  0.815793  1
  O  O89  1  0.083071  0.519792  0.815793  1
  O  O90  1  0.916929  0.480208  0.184207  1
  O  O91  1  0.048668  0.064688  0.708496  1
  O  O92  1  0.518991  0.231396  0.495450  1
  O  O93  1  0.493453  0.344079  0.891186  1
  O  O94  1  0.451332  0.564688  0.708496  1
  O  O95  1  0.806983  0.947315  0.045306  1
  O  O96  1  0.595266  0.189992  0.730710  1
  O  O97  1  0.902932  0.693386  0.229472  1
  O  O98  1  0.984648  0.732195  0.995296  1
  O  O99  1  0.542732  0.885153  0.905893  1
  O  O100  1  0.904734  0.689992  0.730710  1
  O  O101  1  0.404734  0.810008  0.269290  1
  O  O102  1  0.193017  0.052685  0.954694  1
  O  O103  1  0.993453  0.155921  0.108814  1
  O  O104  1  0.008066  0.844741  0.392120  1
  O  O105  1  0.402932  0.806614  0.770528  1
  O  O106  1  0.074450  0.520602  0.316783  1
  O  O107  1  0.306983  0.552685  0.954694  1
  O  O108  1  0.095266  0.310008  0.269290  1
  O  O109  1  0.515352  0.232195  0.995296  1
  O  O110  1  0.597068  0.193386  0.229472  1
  O  O111  1  0.457268  0.114847  0.094107  1
