# generated using pymatgen
data_TaP2Se2Cl5
_symmetry_space_group_name_H-M   'P 1'
_cell_length_a   6.91207616
_cell_length_b   14.05919758
_cell_length_c   27.59213944
_cell_angle_alpha   90.00000000
_cell_angle_beta   93.94525144
_cell_angle_gamma   90.00000000
_symmetry_Int_Tables_number   1
_chemical_formula_structural   TaP2Se2Cl5
_chemical_formula_sum   'Ta8 P16 Se16 Cl40'
_cell_volume   2675.00152870
_cell_formula_units_Z   8
loop_
 _symmetry_equiv_pos_site_id
 _symmetry_equiv_pos_as_xyz
  1  'x, y, z'
loop_
 _atom_site_type_symbol
 _atom_site_label
 _atom_site_symmetry_multiplicity
 _atom_site_fract_x
 _atom_site_fract_y
 _atom_site_fract_z
 _atom_site_occupancy
  Ta  Ta0  1  0.285125  0.209808  0.028435  1
  Ta  Ta1  1  0.785125  0.290192  0.528435  1
  Ta  Ta2  1  0.668237  0.610476  0.700883  1
  Ta  Ta3  1  0.331763  0.389524  0.299117  1
  Ta  Ta4  1  0.831763  0.110476  0.799117  1
  Ta  Ta5  1  0.214875  0.709808  0.471565  1
  Ta  Ta6  1  0.168237  0.889524  0.200883  1
  Ta  Ta7  1  0.714875  0.790192  0.971565  1
  P  P8  1  0.432996  0.338738  0.099223  1
  P  P9  1  0.589455  0.576073  0.118066  1
  P  P10  1  0.567004  0.661262  0.900777  1
  P  P11  1  0.452862  0.409310  0.205206  1
  P  P12  1  0.274921  0.921763  0.357261  1
  P  P13  1  0.952862  0.090690  0.705206  1
  P  P14  1  0.067004  0.838738  0.400777  1
  P  P15  1  0.774921  0.578237  0.857261  1
  P  P16  1  0.725079  0.078237  0.642739  1
  P  P17  1  0.410545  0.423927  0.881934  1
  P  P18  1  0.932996  0.161262  0.599223  1
  P  P19  1  0.225079  0.421763  0.142739  1
  P  P20  1  0.089455  0.923927  0.618066  1
  P  P21  1  0.547138  0.590690  0.794794  1
  P  P22  1  0.910545  0.076073  0.381934  1
  P  P23  1  0.047138  0.909310  0.294794  1
  Se  Se24  1  0.640693  0.446811  0.070184  1
  Se  Se25  1  0.244762  0.070635  0.382923  1
  Se  Se26  1  0.255238  0.570635  0.117077  1
  Se  Se27  1  0.056174  0.228162  0.670544  1
  Se  Se28  1  0.335737  0.469351  0.803164  1
  Se  Se29  1  0.859307  0.946811  0.429816  1
  Se  Se30  1  0.164263  0.969351  0.696836  1
  Se  Se31  1  0.140693  0.053189  0.570184  1
  Se  Se32  1  0.664263  0.530649  0.196836  1
  Se  Se33  1  0.835737  0.030649  0.303164  1
  Se  Se34  1  0.443826  0.728162  0.829456  1
  Se  Se35  1  0.359307  0.553189  0.929816  1
  Se  Se36  1  0.556174  0.271838  0.170544  1
  Se  Se37  1  0.744762  0.429365  0.882923  1
  Se  Se38  1  0.755238  0.929365  0.617077  1
  Se  Se39  1  0.943826  0.771838  0.329456  1
  Cl  Cl40  1  0.603581  0.482276  0.321865  1
  Cl  Cl41  1  0.284416  0.869106  0.126144  1
  Cl  Cl42  1  0.553132  0.309737  0.585187  1
  Cl  Cl43  1  0.053132  0.190263  0.085187  1
  Cl  Cl44  1  0.944519  0.759783  0.512039  1
  Cl  Cl45  1  0.372722  0.851363  0.497349  1
  Cl  Cl46  1  0.488554  0.105018  0.073419  1
  Cl  Cl47  1  0.960232  0.757088  0.201832  1
  Cl  Cl48  1  0.444519  0.740217  0.012039  1
  Cl  Cl49  1  0.511446  0.894982  0.926581  1
  Cl  Cl50  1  0.715584  0.130894  0.873856  1
  Cl  Cl51  1  0.215584  0.369106  0.373856  1
  Cl  Cl52  1  0.905702  0.700616  0.744702  1
  Cl  Cl53  1  0.396419  0.517725  0.678135  1
  Cl  Cl54  1  0.460232  0.742912  0.701832  1
  Cl  Cl55  1  0.784416  0.630894  0.626144  1
  Cl  Cl56  1  0.555481  0.259783  0.987961  1
  Cl  Cl57  1  0.167479  0.528120  0.274137  1
  Cl  Cl58  1  0.832521  0.471880  0.725863  1
  Cl  Cl59  1  0.896419  0.982275  0.178135  1
  Cl  Cl60  1  0.843472  0.891310  0.029690  1
  Cl  Cl61  1  0.946868  0.809737  0.914813  1
  Cl  Cl62  1  0.446868  0.690263  0.414813  1
  Cl  Cl63  1  0.103581  0.017725  0.821865  1
  Cl  Cl64  1  0.405702  0.799384  0.244702  1
  Cl  Cl65  1  0.667479  0.971880  0.774137  1
  Cl  Cl66  1  0.656528  0.391310  0.470310  1
  Cl  Cl67  1  0.594298  0.200616  0.755298  1
  Cl  Cl68  1  0.011446  0.605018  0.426581  1
  Cl  Cl69  1  0.094298  0.299384  0.255298  1
  Cl  Cl70  1  0.872722  0.648637  0.997349  1
  Cl  Cl71  1  0.988554  0.394982  0.573419  1
  Cl  Cl72  1  0.627278  0.148637  0.502651  1
  Cl  Cl73  1  0.039768  0.242912  0.798168  1
  Cl  Cl74  1  0.055481  0.240217  0.487961  1
  Cl  Cl75  1  0.332521  0.028120  0.225863  1
  Cl  Cl76  1  0.539768  0.257088  0.298168  1
  Cl  Cl77  1  0.343472  0.608690  0.529690  1
  Cl  Cl78  1  0.127278  0.351363  0.002651  1
  Cl  Cl79  1  0.156528  0.108690  0.970310  1
