# generated using pymatgen
data_NiBiAsO5
_symmetry_space_group_name_H-M   'P 1'
_cell_length_a   5.32068910
_cell_length_b   6.82650041
_cell_length_c   6.92474645
_cell_angle_alpha   111.23602972
_cell_angle_beta   107.15311609
_cell_angle_gamma   95.96804432
_symmetry_Int_Tables_number   1
_chemical_formula_structural   NiBiAsO5
_chemical_formula_sum   'Ni2 Bi2 As2 O10'
_cell_volume   217.64665082
_cell_formula_units_Z   2
loop_
 _symmetry_equiv_pos_site_id
 _symmetry_equiv_pos_as_xyz
  1  'x, y, z'
loop_
 _atom_site_type_symbol
 _atom_site_label
 _atom_site_symmetry_multiplicity
 _atom_site_fract_x
 _atom_site_fract_y
 _atom_site_fract_z
 _atom_site_occupancy
  Ni  Ni0  1  0.832194  0.365378  0.737901  1
  Ni  Ni1  1  0.167806  0.634622  0.262099  1
  Bi  Bi2  1  0.402349  0.235194  0.965006  1
  Bi  Bi3  1  0.597651  0.764806  0.034994  1
  As  As4  1  0.843168  0.813028  0.610602  1
  As  As5  1  0.156832  0.186972  0.389398  1
  O  O6  1  0.770440  0.497166  0.046948  1
  O  O7  1  0.267363  0.348809  0.273768  1
  O  O8  1  0.732637  0.651191  0.726232  1
  O  O9  1  0.581024  0.774783  0.372914  1
  O  O10  1  0.082088  0.916825  0.202090  1
  O  O11  1  0.864374  0.237393  0.429320  1
  O  O12  1  0.229560  0.502834  0.953052  1
  O  O13  1  0.917912  0.083175  0.797910  1
  O  O14  1  0.418976  0.225217  0.627086  1
  O  O15  1  0.135626  0.762607  0.570680  1
