# generated using pymatgen
data_Ni3B7ClO13
_symmetry_space_group_name_H-M   'P 1'
_cell_length_a   8.58366954
_cell_length_b   8.59836921
_cell_length_c   12.15792514
_cell_angle_alpha   90.00000000
_cell_angle_beta   90.00000000
_cell_angle_gamma   90.00000000
_symmetry_Int_Tables_number   1
_chemical_formula_structural   Ni3B7ClO13
_chemical_formula_sum   'Ni12 B28 Cl4 O52'
_cell_volume   897.32247196
_cell_formula_units_Z   4
loop_
 _symmetry_equiv_pos_site_id
 _symmetry_equiv_pos_as_xyz
  1  'x, y, z'
loop_
 _atom_site_type_symbol
 _atom_site_label
 _atom_site_symmetry_multiplicity
 _atom_site_fract_x
 _atom_site_fract_y
 _atom_site_fract_z
 _atom_site_occupancy
  Ni  Ni0  1  0.250260  0.756269  0.286614  1
  Ni  Ni1  1  0.467509  0.982890  0.009113  1
  Ni  Ni2  1  0.532491  0.482890  0.009113  1
  Ni  Ni3  1  0.467509  0.517110  0.509113  1
  Ni  Ni4  1  0.032835  0.517134  0.507174  1
  Ni  Ni5  1  0.032835  0.982866  0.007174  1
  Ni  Ni6  1  0.749740  0.256269  0.286614  1
  Ni  Ni7  1  0.749740  0.243731  0.786614  1
  Ni  Ni8  1  0.250260  0.743731  0.786614  1
  Ni  Ni9  1  0.532491  0.017110  0.509113  1
  Ni  Ni10  1  0.967165  0.017134  0.507174  1
  Ni  Ni11  1  0.967165  0.482866  0.007174  1
  B  B12  1  0.245836  0.244123  0.513311  1
  B  B13  1  0.403121  0.246138  0.341399  1
  B  B14  1  0.249896  0.455123  0.159479  1
  B  B15  1  0.096115  0.252168  0.840392  1
  B  B16  1  0.596879  0.753862  0.841399  1
  B  B17  1  0.245836  0.255877  0.013311  1
  B  B18  1  0.754164  0.755877  0.013311  1
  B  B19  1  0.750732  0.906792  0.687908  1
  B  B20  1  0.754164  0.744123  0.513311  1
  B  B21  1  0.750104  0.955123  0.159479  1
  B  B22  1  0.498257  0.999667  0.760915  1
  B  B23  1  0.249896  0.044877  0.659479  1
  B  B24  1  0.096115  0.247832  0.340392  1
  B  B25  1  0.596879  0.746138  0.341399  1
  B  B26  1  0.750732  0.593208  0.187908  1
  B  B27  1  0.903885  0.752168  0.840392  1
  B  B28  1  0.750104  0.544877  0.659479  1
  B  B29  1  0.249268  0.093208  0.187908  1
  B  B30  1  0.501743  0.499667  0.760915  1
  B  B31  1  0.003293  0.997571  0.760355  1
  B  B32  1  0.003293  0.502429  0.260355  1
  B  B33  1  0.996707  0.497571  0.760355  1
  B  B34  1  0.403121  0.253862  0.841399  1
  B  B35  1  0.498257  0.500333  0.260915  1
  B  B36  1  0.903885  0.747832  0.340392  1
  B  B37  1  0.249268  0.406792  0.687908  1
  B  B38  1  0.501743  0.000333  0.260915  1
  B  B39  1  0.996707  0.002429  0.260355  1
  Cl  Cl40  1  0.749254  0.295874  0.989079  1
  Cl  Cl41  1  0.749254  0.204125  0.489079  1
  Cl  Cl42  1  0.250746  0.704125  0.489079  1
  Cl  Cl43  1  0.250746  0.795875  0.989079  1
  O  O44  1  0.749619  0.768275  0.771415  1
  O  O45  1  0.059534  0.412402  0.355226  1
  O  O46  1  0.940466  0.912402  0.355226  1
  O  O47  1  0.162073  0.966222  0.240224  1
  O  O48  1  0.331043  0.541450  0.236236  1
  O  O49  1  0.591360  0.952043  0.665445  1
  O  O50  1  0.520441  0.166317  0.780983  1
  O  O51  1  0.363223  0.177413  0.944596  1
  O  O52  1  0.479559  0.666317  0.780983  1
  O  O53  1  0.329689  0.382224  0.075358  1
  O  O54  1  0.408640  0.452043  0.665445  1
  O  O55  1  0.749619  0.731725  0.271415  1
  O  O56  1  0.837927  0.033778  0.740224  1
  O  O57  1  0.668957  0.458550  0.736236  1
  O  O58  1  0.837927  0.466222  0.240224  1
  O  O59  1  0.910682  0.536629  0.655990  1
  O  O60  1  0.250381  0.231725  0.271415  1
  O  O61  1  0.027181  0.830839  0.780878  1
  O  O62  1  0.172755  0.359012  0.586329  1
  O  O63  1  0.250381  0.268275  0.771415  1
  O  O64  1  0.542832  0.913031  0.859892  1
  O  O65  1  0.636777  0.822587  0.444597  1
  O  O66  1  0.123859  0.172140  0.445890  1
  O  O67  1  0.636777  0.677413  0.944596  1
  O  O68  1  0.827245  0.640988  0.086329  1
  O  O69  1  0.479559  0.833683  0.280983  1
  O  O70  1  0.972819  0.169161  0.280878  1
  O  O71  1  0.331043  0.958550  0.736236  1
  O  O72  1  0.876141  0.827860  0.945890  1
  O  O73  1  0.972819  0.330839  0.780878  1
  O  O74  1  0.542832  0.586969  0.359892  1
  O  O75  1  0.670311  0.882224  0.075358  1
  O  O76  1  0.408640  0.047957  0.165445  1
  O  O77  1  0.910682  0.963371  0.155990  1
  O  O78  1  0.089318  0.463371  0.155990  1
  O  O79  1  0.876141  0.672140  0.445890  1
  O  O80  1  0.123859  0.327860  0.945890  1
  O  O81  1  0.457168  0.086969  0.359892  1
  O  O82  1  0.363223  0.322587  0.444597  1
  O  O83  1  0.940466  0.587598  0.855226  1
  O  O84  1  0.172755  0.140988  0.086329  1
  O  O85  1  0.520441  0.333683  0.280983  1
  O  O86  1  0.329689  0.117776  0.575358  1
  O  O87  1  0.059534  0.087598  0.855226  1
  O  O88  1  0.162073  0.533778  0.740224  1
  O  O89  1  0.827245  0.859012  0.586329  1
  O  O90  1  0.668957  0.041450  0.236236  1
  O  O91  1  0.027181  0.669161  0.280878  1
  O  O92  1  0.457168  0.413031  0.859892  1
  O  O93  1  0.089318  0.036629  0.655990  1
  O  O94  1  0.670311  0.617776  0.575358  1
  O  O95  1  0.591360  0.547957  0.165445  1
