# generated using pymatgen
data_Dy5Sn11
_symmetry_space_group_name_H-M   'P 1'
_cell_length_a   4.38891363
_cell_length_b   4.47091719
_cell_length_c   21.68473455
_cell_angle_alpha   95.91301455
_cell_angle_beta   95.79500429
_cell_angle_gamma   89.98416978
_symmetry_Int_Tables_number   1
_chemical_formula_structural   Dy5Sn11
_chemical_formula_sum   'Dy5 Sn11'
_cell_volume   421.05907593
_cell_formula_units_Z   1
loop_
 _symmetry_equiv_pos_site_id
 _symmetry_equiv_pos_as_xyz
  1  'x, y, z'
loop_
 _atom_site_type_symbol
 _atom_site_label
 _atom_site_symmetry_multiplicity
 _atom_site_fract_x
 _atom_site_fract_y
 _atom_site_fract_z
 _atom_site_occupancy
  Dy  Dy0  1  0.807602  0.307584  0.615154  1
  Dy  Dy1  1  0.616915  0.616798  0.233889  1
  Dy  Dy2  1  0.000000  0.000000  0.000000  1
  Dy  Dy3  1  0.192398  0.692416  0.384846  1
  Dy  Dy4  1  0.383085  0.383202  0.766111  1
  Sn  Sn5  1  0.439894  0.940300  0.879916  1
  Sn  Sn6  1  0.131339  0.131163  0.262882  1
  Sn  Sn7  1  0.249652  0.249767  0.499201  1
  Sn  Sn8  1  0.560106  0.059700  0.120084  1
  Sn  Sn9  1  0.320177  0.820181  0.640294  1
  Sn  Sn10  1  0.750348  0.750233  0.500799  1
  Sn  Sn11  1  0.059224  0.558954  0.118453  1
  Sn  Sn12  1  0.940776  0.441046  0.881547  1
  Sn  Sn13  1  0.868661  0.868837  0.737118  1
  Sn  Sn14  1  0.500000  0.500000  0.000000  1
  Sn  Sn15  1  0.679823  0.179819  0.359706  1
