# generated using pymatgen
data_Sm2Zr2O7
_symmetry_space_group_name_H-M   'P 1'
_cell_length_a   7.60657250
_cell_length_b   7.58409806
_cell_length_c   30.18692839
_cell_angle_alpha   59.83607934
_cell_angle_beta   60.07847236
_cell_angle_gamma   60.09769187
_symmetry_Int_Tables_number   1
_chemical_formula_structural   Sm2Zr2O7
_chemical_formula_sum   'Sm16 Zr16 O56'
_cell_volume   1231.49156786
_cell_formula_units_Z   8
loop_
 _symmetry_equiv_pos_site_id
 _symmetry_equiv_pos_as_xyz
  1  'x, y, z'
loop_
 _atom_site_type_symbol
 _atom_site_label
 _atom_site_symmetry_multiplicity
 _atom_site_fract_x
 _atom_site_fract_y
 _atom_site_fract_z
 _atom_site_occupancy
  O  O0  1  0.033371  0.026013  0.117008  1
  O  O1  1  0.041327  0.458874  0.010231  1
  O  O2  1  0.033371  0.472585  0.117008  1
  O  O3  1  0.461519  0.036777  0.011368  1
  O  O4  1  0.184700  0.317597  0.197638  1
  O  O5  1  0.489142  0.011745  0.121842  1
  O  O6  1  0.461519  0.456234  0.011368  1
  O  O7  1  0.216577  0.779278  0.056217  1
  O  O8  1  0.065300  0.932403  0.364862  1
  O  O9  1  0.073105  0.341112  0.311168  1
  O  O10  1  0.184700  0.707151  0.197638  1
  O  O11  1  0.065300  0.542849  0.364862  1
  O  O12  1  0.792325  0.214883  0.052125  1
  O  O13  1  0.464137  0.013710  0.261835  1
  O  O14  1  0.499585  0.507148  0.121530  1
  O  O15  1  0.216629  0.223987  0.445492  1
  O  O16  1  0.492338  0.022855  0.365488  1
  O  O17  1  0.464137  0.474812  0.261835  1
  O  O18  1  0.176895  0.908888  0.251332  1
  O  O19  1  0.792325  0.784291  0.052125  1
  O  O20  1  0.757662  0.227145  0.197012  1
  O  O21  1  0.033423  0.042257  0.614891  1
  O  O22  1  0.033423  0.470722  0.506283  1
  O  O23  1  0.216629  0.777415  0.445492  1
  O  O24  1  0.033423  0.464757  0.614891  1
  O  O25  1  0.785863  0.236290  0.300665  1
  O  O26  1  0.792021  0.731166  0.186412  1
  O  O27  1  0.457675  0.035117  0.510375  1
  O  O28  1  0.457979  0.518834  0.376088  1
  O  O29  1  0.210997  0.213553  0.696557  1
  O  O30  1  0.208673  0.791126  0.552269  1
  O  O31  1  0.457675  0.465709  0.510375  1
  O  O32  1  0.460415  0.042770  0.613511  1
  O  O33  1  0.785863  0.775188  0.300665  1
  O  O34  1  0.039003  0.036447  0.865943  1
  O  O35  1  0.760858  0.238255  0.440658  1
  O  O36  1  0.037720  0.463242  0.758949  1
  O  O37  1  0.210997  0.789221  0.696557  1
  O  O38  1  0.039003  0.460779  0.865943  1
  O  O39  1  0.788481  0.213223  0.551132  1
  O  O40  1  0.750415  0.742852  0.440970  1
  O  O41  1  0.461902  0.037891  0.759219  1
  O  O42  1  0.496453  0.499212  0.626281  1
  O  O43  1  0.216577  0.207743  0.947609  1
  O  O44  1  0.461816  0.037457  0.865817  1
  O  O45  1  0.461902  0.463331  0.759219  1
  O  O46  1  0.212280  0.786758  0.803551  1
  O  O47  1  0.788481  0.793766  0.551132  1
  O  O48  1  0.788184  0.212543  0.696683  1
  O  O49  1  0.216577  0.785243  0.947609  1
  O  O50  1  0.788098  0.212109  0.803281  1
  O  O51  1  0.749952  0.750569  0.687228  1
  O  O52  1  0.500048  0.499431  0.875272  1
  O  O53  1  0.788098  0.786669  0.803281  1
  O  O54  1  0.789585  0.207230  0.948989  1
  O  O55  1  0.753547  0.750788  0.936219  1
  Sm  Sm56  1  0.130018  0.101504  0.166744  1
  Sm  Sm57  1  0.645764  0.121846  0.154896  1
  Sm  Sm58  1  0.637016  0.620612  0.030440  1
  Sm  Sm59  1  0.119982  0.148496  0.395756  1
  Sm  Sm60  1  0.645764  0.612806  0.154896  1
  Sm  Sm61  1  0.604236  0.128154  0.407604  1
  Sm  Sm62  1  0.625000  0.625000  0.281250  1
  Sm  Sm63  1  0.604236  0.637194  0.407604  1
  Sm  Sm64  1  0.123339  0.622632  0.657849  1
  Sm  Sm65  1  0.626516  0.125301  0.655899  1
  Sm  Sm66  1  0.612984  0.629388  0.532060  1
  Sm  Sm67  1  0.626516  0.624588  0.655899  1
  Sm  Sm68  1  0.126661  0.627368  0.904651  1
  Sm  Sm69  1  0.623484  0.124699  0.906601  1
  Sm  Sm70  1  0.625000  0.625000  0.781250  1
  Sm  Sm71  1  0.623484  0.625412  0.906601  1
  Zr  Zr72  1  0.128310  0.123984  0.032415  1
  Zr  Zr73  1  0.128310  0.618048  0.032415  1
  Zr  Zr74  1  0.625501  0.119049  0.034100  1
  Zr  Zr75  1  0.125000  0.125000  0.281250  1
  Zr  Zr76  1  0.138261  0.637780  0.146545  1
  Zr  Zr77  1  0.125000  0.625000  0.281250  1
  Zr  Zr78  1  0.625000  0.125000  0.281250  1
  Zr  Zr79  1  0.121690  0.126016  0.530085  1
  Zr  Zr80  1  0.111739  0.612220  0.415955  1
  Zr  Zr81  1  0.125986  0.126999  0.655004  1
  Zr  Zr82  1  0.121690  0.631952  0.530085  1
  Zr  Zr83  1  0.624499  0.130951  0.528400  1
  Zr  Zr84  1  0.125000  0.125000  0.781250  1
  Zr  Zr85  1  0.124014  0.123001  0.907496  1
  Zr  Zr86  1  0.125000  0.625000  0.781250  1
  Zr  Zr87  1  0.625000  0.125000  0.781250  1
