# generated using pymatgen
data_Sb4IrC5ClO5F22
_symmetry_space_group_name_H-M   'P 1'
_cell_length_a   9.88848851
_cell_length_b   10.78011854
_cell_length_c   12.83114359
_cell_angle_alpha   90.00000000
_cell_angle_beta   90.00000000
_cell_angle_gamma   106.57183307
_symmetry_Int_Tables_number   1
_chemical_formula_structural   Sb4IrC5ClO5F22
_chemical_formula_sum   'Sb8 Ir2 C10 Cl2 O10 F44'
_cell_volume   1310.97413629
_cell_formula_units_Z   2
loop_
 _symmetry_equiv_pos_site_id
 _symmetry_equiv_pos_as_xyz
  1  'x, y, z'
loop_
 _atom_site_type_symbol
 _atom_site_label
 _atom_site_symmetry_multiplicity
 _atom_site_fract_x
 _atom_site_fract_y
 _atom_site_fract_z
 _atom_site_occupancy
  Sb  Sb0  1  0.740909  0.967656  0.622193  1
  Sb  Sb1  1  0.758800  0.508432  0.366833  1
  Sb  Sb2  1  0.241200  0.491568  0.866833  1
  Sb  Sb3  1  0.168553  0.769411  0.682463  1
  Sb  Sb4  1  0.831447  0.230589  0.182463  1
  Sb  Sb5  1  0.259091  0.032344  0.122193  1
  Sb  Sb6  1  0.348356  0.744115  0.282916  1
  Sb  Sb7  1  0.651644  0.255885  0.782916  1
  Ir  Ir8  1  0.258549  0.246227  0.488873  1
  Ir  Ir9  1  0.741451  0.753773  0.988873  1
  C  C10  1  0.584794  0.831785  0.965939  1
  C  C11  1  0.769271  0.817851  0.136555  1
  C  C12  1  0.415206  0.168215  0.465939  1
  C  C13  1  0.269219  0.320158  0.344471  1
  C  C14  1  0.115361  0.084717  0.439419  1
  C  C15  1  0.230729  0.182149  0.636555  1
  C  C16  1  0.884639  0.915283  0.939419  1
  C  C17  1  0.730781  0.679842  0.844471  1
  C  C18  1  0.613871  0.584578  0.040040  1
  C  C19  1  0.386129  0.415422  0.540040  1
  Cl  Cl20  1  0.927937  0.659085  0.012342  1
  Cl  Cl21  1  0.072063  0.340915  0.512342  1
  O  O22  1  0.455877  0.512344  0.567668  1
  O  O23  1  0.502723  0.120420  0.454170  1
  O  O24  1  0.729946  0.634011  0.764909  1
  O  O25  1  0.270054  0.365989  0.264909  1
  O  O26  1  0.214328  0.146425  0.719934  1
  O  O27  1  0.033044  0.994318  0.412081  1
  O  O28  1  0.544123  0.487656  0.067668  1
  O  O29  1  0.497277  0.879580  0.954170  1
  O  O30  1  0.966956  0.005682  0.912081  1
  O  O31  1  0.785672  0.853575  0.219934  1
  F  F32  1  0.042946  0.822242  0.774661  1
  F  F33  1  0.760768  0.413545  0.491099  1
  F  F34  1  0.298392  0.097412  0.262903  1
  F  F35  1  0.701608  0.902588  0.762903  1
  F  F36  1  0.449249  0.110120  0.085139  1
  F  F37  1  0.077389  0.933516  0.170184  1
  F  F38  1  0.248157  0.423010  0.729876  1
  F  F39  1  0.922611  0.066484  0.670184  1
  F  F40  1  0.187411  0.632956  0.218256  1
  F  F41  1  0.315252  0.365480  0.928464  1
  F  F42  1  0.949715  0.605031  0.381423  1
  F  F43  1  0.751843  0.576990  0.229876  1
  F  F44  1  0.712575  0.306051  0.104548  1
  F  F45  1  0.812589  0.367044  0.718256  1
  F  F46  1  0.287425  0.693949  0.604548  1
  F  F47  1  0.550751  0.889880  0.585139  1
  F  F48  1  0.763673  0.183569  0.870777  1
  F  F49  1  0.050285  0.394969  0.881423  1
  F  F50  1  0.220697  0.945527  0.992286  1
  F  F51  1  0.162576  0.627252  0.794983  1
  F  F52  1  0.367830  0.612202  0.375276  1
  F  F53  1  0.008705  0.651268  0.621955  1
  F  F54  1  0.675955  0.129631  0.260151  1
  F  F55  1  0.669237  0.120068  0.670933  1
  F  F56  1  0.779303  0.054473  0.492286  1
  F  F57  1  0.632170  0.387798  0.875276  1
  F  F58  1  0.466353  0.700944  0.176839  1
  F  F59  1  0.428576  0.605434  0.842784  1
  F  F60  1  0.193012  0.173903  0.083428  1
  F  F61  1  0.991295  0.348732  0.121955  1
  F  F62  1  0.837424  0.372748  0.294983  1
  F  F63  1  0.806988  0.826097  0.583428  1
  F  F64  1  0.324045  0.870369  0.760151  1
  F  F65  1  0.487916  0.129501  0.829907  1
  F  F66  1  0.179125  0.909703  0.587801  1
  F  F67  1  0.239232  0.586455  0.991099  1
  F  F68  1  0.957054  0.177758  0.274661  1
  F  F69  1  0.571424  0.394566  0.342784  1
  F  F70  1  0.236327  0.816431  0.370777  1
  F  F71  1  0.684748  0.634520  0.428464  1
  F  F72  1  0.330763  0.879932  0.170933  1
  F  F73  1  0.533647  0.299056  0.676839  1
  F  F74  1  0.820875  0.090297  0.087801  1
  F  F75  1  0.512084  0.870499  0.329907  1
