# generated using pymatgen
data_P2H6C4N2Cl2O
_symmetry_space_group_name_H-M   'P 1'
_cell_length_a   7.45654472
_cell_length_b   10.28650691
_cell_length_c   13.92449482
_cell_angle_alpha   72.27364510
_cell_angle_beta   88.22917444
_cell_angle_gamma   71.38773747
_symmetry_Int_Tables_number   1
_chemical_formula_structural   P2H6C4N2Cl2O
_chemical_formula_sum   'P8 H24 C16 N8 Cl8 O4'
_cell_volume   961.51737028
_cell_formula_units_Z   4
loop_
 _symmetry_equiv_pos_site_id
 _symmetry_equiv_pos_as_xyz
  1  'x, y, z'
loop_
 _atom_site_type_symbol
 _atom_site_label
 _atom_site_symmetry_multiplicity
 _atom_site_fract_x
 _atom_site_fract_y
 _atom_site_fract_z
 _atom_site_occupancy
  P  P0  1  0.355248  0.607780  0.429456  1
  P  P1  1  0.254083  0.344198  0.537692  1
  P  P2  1  0.054672  0.725097  0.121233  1
  P  P3  1  0.644752  0.392220  0.570544  1
  P  P4  1  0.745917  0.655802  0.462308  1
  P  P5  1  0.147455  0.960127  0.937617  1
  P  P6  1  0.852545  0.039873  0.062383  1
  P  P7  1  0.945328  0.274903  0.878767  1
  H  H8  1  0.375142  0.289493  0.301199  1
  H  H9  1  0.125292  0.982100  0.384561  1
  H  H10  1  0.942364  0.156073  0.641689  1
  H  H11  1  0.665438  0.138674  0.204635  1
  H  H12  1  0.334562  0.861326  0.795365  1
  H  H13  1  0.160679  0.318875  0.363036  1
  H  H14  1  0.708668  0.697919  0.108999  1
  H  H15  1  0.356731  0.242224  0.023297  1
  H  H16  1  0.839321  0.681125  0.636964  1
  H  H17  1  0.200521  0.421410  0.964878  1
  H  H18  1  0.874708  0.017900  0.615439  1
  H  H19  1  0.140665  0.841197  0.736510  1
  H  H20  1  0.983473  0.124037  0.522476  1
  H  H21  1  0.859335  0.158803  0.263490  1
  H  H22  1  0.692862  0.312656  0.176645  1
  H  H23  1  0.307138  0.687344  0.823355  1
  H  H24  1  0.624858  0.710507  0.698801  1
  H  H25  1  0.291332  0.302081  0.891001  1
  H  H26  1  0.799479  0.578590  0.035122  1
  H  H27  1  0.673391  0.860541  0.610218  1
  H  H28  1  0.643269  0.757776  0.976703  1
  H  H29  1  0.016527  0.875963  0.477524  1
  H  H30  1  0.057636  0.843927  0.358311  1
  H  H31  1  0.326609  0.139459  0.389782  1
  C  C32  1  0.758656  0.690874  0.035308  1
  C  C33  1  0.989175  0.755892  0.919240  1
  C  C34  1  0.114331  0.873693  0.417135  1
  C  C35  1  0.103520  0.898764  0.074191  1
  C  C36  1  0.311382  0.254065  0.372354  1
  C  C37  1  0.241344  0.309126  0.964692  1
  C  C38  1  0.620170  0.537852  0.439685  1
  C  C39  1  0.010825  0.244108  0.080760  1
  C  C40  1  0.896480  0.101236  0.925809  1
  C  C41  1  0.379830  0.462148  0.560315  1
  C  C42  1  0.231343  0.803387  0.806531  1
  C  C43  1  0.402501  0.801747  0.522745  1
  C  C44  1  0.688618  0.745935  0.627646  1
  C  C45  1  0.597499  0.198253  0.477255  1
  C  C46  1  0.885669  0.126307  0.582865  1
  C  C47  1  0.768657  0.196613  0.193469  1
  N  N48  1  0.596196  0.720543  0.545724  1
  N  N49  1  0.304234  0.768340  0.454929  1
  N  N50  1  0.080587  0.252214  0.984672  1
  N  N51  1  0.120477  0.829551  0.892383  1
  N  N52  1  0.695766  0.231660  0.545071  1
  N  N53  1  0.879523  0.170449  0.107617  1
  N  N54  1  0.403804  0.279457  0.454276  1
  N  N55  1  0.919413  0.747786  0.015328  1
  Cl  Cl56  1  0.278731  0.900623  0.157089  1
  Cl  Cl57  1  0.679390  0.419554  0.891714  1
  Cl  Cl58  1  0.671281  0.824724  0.324222  1
  Cl  Cl59  1  0.721269  0.099377  0.842911  1
  Cl  Cl60  1  0.279119  0.526246  0.661557  1
  Cl  Cl61  1  0.720881  0.473754  0.338443  1
  Cl  Cl62  1  0.328719  0.175276  0.675778  1
  Cl  Cl63  1  0.320610  0.580446  0.108286  1
  O  O64  1  0.674469  0.099876  0.441643  1
  O  O65  1  0.941786  0.697608  0.863760  1
  O  O66  1  0.325531  0.900124  0.558357  1
  O  O67  1  0.058214  0.302392  0.136240  1
