# generated using pymatgen
data_K2Na2IrO4
_symmetry_space_group_name_H-M   'P 1'
_cell_length_a   6.08761578
_cell_length_b   9.03235940
_cell_length_c   11.29738813
_cell_angle_alpha   90.00000000
_cell_angle_beta   90.00000000
_cell_angle_gamma   105.41955758
_symmetry_Int_Tables_number   1
_chemical_formula_structural   K2Na2IrO4
_chemical_formula_sum   'K8 Na8 Ir4 O16'
_cell_volume   598.83289061
_cell_formula_units_Z   4
loop_
 _symmetry_equiv_pos_site_id
 _symmetry_equiv_pos_as_xyz
  1  'x, y, z'
loop_
 _atom_site_type_symbol
 _atom_site_label
 _atom_site_symmetry_multiplicity
 _atom_site_fract_x
 _atom_site_fract_y
 _atom_site_fract_z
 _atom_site_occupancy
  K  K0  1  0.163214  0.497484  0.637429  1
  K  K1  1  0.378808  0.721127  0.365627  1
  K  K2  1  0.621192  0.278873  0.634373  1
  K  K3  1  0.121192  0.778873  0.865627  1
  K  K4  1  0.878808  0.221127  0.134373  1
  K  K5  1  0.836786  0.502516  0.362571  1
  K  K6  1  0.663214  0.997484  0.862571  1
  K  K7  1  0.336786  0.002516  0.137429  1
  Na  Na8  1  0.526767  0.594893  0.887173  1
  Na  Na9  1  0.659768  0.094223  0.391565  1
  Na  Na10  1  0.340232  0.905777  0.608435  1
  Na  Na11  1  0.973233  0.905107  0.387173  1
  Na  Na12  1  0.159768  0.594223  0.108435  1
  Na  Na13  1  0.026767  0.094893  0.612827  1
  Na  Na14  1  0.840232  0.405777  0.891565  1
  Na  Na15  1  0.473233  0.405107  0.112827  1
  Ir  Ir16  1  0.743117  0.729119  0.629847  1
  Ir  Ir17  1  0.256883  0.270881  0.370153  1
  Ir  Ir18  1  0.243117  0.229119  0.870153  1
  Ir  Ir19  1  0.756883  0.770881  0.129847  1
  O  O20  1  0.993871  0.275778  0.465201  1
  O  O21  1  0.506129  0.224222  0.965201  1
  O  O22  1  0.212132  0.433556  0.269650  1
  O  O23  1  0.712132  0.933556  0.230350  1
  O  O24  1  0.697771  0.898990  0.534876  1
  O  O25  1  0.802229  0.601010  0.034876  1
  O  O26  1  0.006129  0.724222  0.534799  1
  O  O27  1  0.197771  0.398990  0.965124  1
  O  O28  1  0.018245  0.761353  0.224545  1
  O  O29  1  0.981755  0.238647  0.775455  1
  O  O30  1  0.481755  0.738647  0.724545  1
  O  O31  1  0.302229  0.101010  0.465124  1
  O  O32  1  0.518245  0.261353  0.275455  1
  O  O33  1  0.787868  0.566444  0.730350  1
  O  O34  1  0.287868  0.066444  0.769650  1
  O  O35  1  0.493871  0.775778  0.034799  1
