# generated using pymatgen
data_Na3Mg3In(SO4)6
_symmetry_space_group_name_H-M   'P 1'
_cell_length_a   8.99925053
_cell_length_b   8.99651123
_cell_length_c   18.01403470
_cell_angle_alpha   58.47333920
_cell_angle_beta   58.44973843
_cell_angle_gamma   58.42587875
_symmetry_Int_Tables_number   1
_chemical_formula_structural   Na3Mg3In(SO4)6
_chemical_formula_sum   'Na6 Mg6 In2 S12 O48'
_cell_volume   994.69412864
_cell_formula_units_Z   2
loop_
 _symmetry_equiv_pos_site_id
 _symmetry_equiv_pos_as_xyz
  1  'x, y, z'
loop_
 _atom_site_type_symbol
 _atom_site_label
 _atom_site_symmetry_multiplicity
 _atom_site_fract_x
 _atom_site_fract_y
 _atom_site_fract_z
 _atom_site_occupancy
  In  In0  1  0.148009  0.146061  0.075451  1
  In  In1  1  0.850042  0.849641  0.926025  1
  Mg  Mg2  1  0.349570  0.350120  0.180456  1
  Mg  Mg3  1  0.145981  0.141206  0.574154  1
  Mg  Mg4  1  0.357134  0.352231  0.675412  1
  Mg  Mg5  1  0.649003  0.656546  0.324390  1
  Mg  Mg6  1  0.856595  0.847513  0.418851  1
  Mg  Mg7  1  0.646054  0.647114  0.825579  1
  Na  Na8  1  0.999666  0.997913  0.000849  1
  Na  Na9  1  0.020339  0.003623  0.492086  1
  Na  Na10  1  0.496472  0.523694  0.237491  1
  Na  Na11  1  0.594685  0.241248  0.441779  1
  Na  Na12  1  0.469560  0.499942  0.761391  1
  Na  Na13  1  0.874460  0.598030  0.620495  1
  O  O14  1  0.970356  0.215442  0.198465  1
  O  O15  1  0.207414  0.398543  0.985251  1
  O  O16  1  0.400843  0.968147  0.104509  1
  O  O17  1  0.107088  0.291250  0.256011  1
  O  O18  1  0.293124  0.497570  0.057247  1
  O  O19  1  0.061779  0.910273  0.136285  1
  O  O20  1  0.498984  0.111488  0.148160  1
  O  O21  1  0.225906  0.590288  0.212816  1
  O  O22  1  0.280978  0.067891  0.456043  1
  O  O23  1  0.989568  0.209728  0.693790  1
  O  O24  1  0.432017  0.226978  0.294752  1
  O  O25  1  0.587403  0.424834  0.111502  1
  O  O26  1  0.218484  0.382198  0.495691  1
  O  O27  1  0.082289  0.716084  0.468823  1
  O  O28  1  0.388754  0.988338  0.604712  1
  O  O29  1  0.112893  0.292340  0.754313  1
  O  O30  1  0.909995  0.274957  0.030368  1
  O  O31  1  0.412343  0.568389  0.390584  1
  O  O32  1  0.286378  0.516370  0.556596  1
  O  O33  1  0.574960  0.775888  0.206408  1
  O  O34  1  0.064371  0.910736  0.637352  1
  O  O35  1  0.724497  0.939495  0.045203  1
  O  O36  1  0.513029  0.109235  0.645110  1
  O  O37  1  0.221700  0.587146  0.713514  1
  O  O38  1  0.770187  0.408960  0.291466  1
  O  O39  1  0.499640  0.892942  0.353627  1
  O  O40  1  0.273966  0.060324  0.954947  1
  O  O41  1  0.928632  0.087360  0.363234  1
  O  O42  1  0.425807  0.224709  0.794835  1
  O  O43  1  0.704249  0.485732  0.447381  1
  O  O44  1  0.590404  0.430940  0.612704  1
  O  O45  1  0.090178  0.723389  0.969436  1
  O  O46  1  0.894109  0.700727  0.245130  1
  O  O47  1  0.608833  0.025215  0.396820  1
  O  O48  1  0.913281  0.276848  0.533264  1
  O  O49  1  0.794670  0.607503  0.506471  1
  O  O50  1  0.412419  0.571239  0.889447  1
  O  O51  1  0.571791  0.773245  0.704948  1
  O  O52  1  0.017373  0.796716  0.299908  1
  O  O53  1  0.721228  0.930553  0.544042  1
  O  O54  1  0.781680  0.412856  0.781378  1
  O  O55  1  0.500271  0.890081  0.851381  1
  O  O56  1  0.937269  0.088743  0.860721  1
  O  O57  1  0.706600  0.500762  0.943776  1
  O  O58  1  0.890771  0.703648  0.740091  1
  O  O59  1  0.597011  0.029028  0.898133  1
  O  O60  1  0.790866  0.598544  0.016868  1
  O  O61  1  0.013762  0.786827  0.802111  1
  S  S62  1  0.047643  0.746275  0.226109  1
  S  S63  1  0.455791  0.051621  0.374826  1
  S  S64  1  0.745234  0.451649  0.024616  1
  S  S65  1  0.250304  0.545520  0.478008  1
  S  S66  1  0.547640  0.951474  0.127804  1
  S  S67  1  0.046035  0.746726  0.722788  1
  S  S68  1  0.949186  0.251972  0.276081  1
  S  S69  1  0.451520  0.048776  0.873079  1
  S  S70  1  0.750040  0.450697  0.524356  1
  S  S71  1  0.253981  0.545182  0.977046  1
  S  S72  1  0.543174  0.952809  0.626352  1
  S  S73  1  0.958731  0.249917  0.771401  1
