# generated using pymatgen
data_NbSe3
_symmetry_space_group_name_H-M   'P 1'
_cell_length_a   3.51524842
_cell_length_b   10.74946257
_cell_length_c   16.05088379
_cell_angle_alpha   110.73497038
_cell_angle_beta   90.00000000
_cell_angle_gamma   90.00000000
_symmetry_Int_Tables_number   1
_chemical_formula_structural   NbSe3
_chemical_formula_sum   'Nb6 Se18'
_cell_volume   567.23011175
_cell_formula_units_Z   6
loop_
 _symmetry_equiv_pos_site_id
 _symmetry_equiv_pos_as_xyz
  1  'x, y, z'
loop_
 _atom_site_type_symbol
 _atom_site_label
 _atom_site_symmetry_multiplicity
 _atom_site_fract_x
 _atom_site_fract_y
 _atom_site_fract_z
 _atom_site_occupancy
  Se  Se0  1  0.750000  0.319023  0.576134  1
  Se  Se1  1  0.250000  0.680977  0.423866  1
  Se  Se2  1  0.750000  0.958396  0.407051  1
  Se  Se3  1  0.250000  0.041604  0.592949  1
  Se  Se4  1  0.750000  0.317789  0.425574  1
  Se  Se5  1  0.250000  0.682211  0.574426  1
  Se  Se6  1  0.250000  0.381125  0.931050  1
  Se  Se7  1  0.750000  0.618875  0.068950  1
  Se  Se8  1  0.250000  0.733441  0.921303  1
  Se  Se9  1  0.750000  0.266559  0.078697  1
  Se  Se10  1  0.250000  0.559538  0.767299  1
  Se  Se11  1  0.750000  0.440462  0.232701  1
  Se  Se12  1  0.250000  0.900878  0.094598  1
  Se  Se13  1  0.750000  0.099122  0.905402  1
  Se  Se14  1  0.250000  0.074752  0.279864  1
  Se  Se15  1  0.750000  0.925248  0.720136  1
  Se  Se16  1  0.250000  0.715964  0.249656  1
  Se  Se17  1  0.750000  0.284036  0.750344  1
  Nb  Nb18  1  0.750000  0.843030  0.537346  1
  Nb  Nb19  1  0.250000  0.156970  0.462654  1
  Nb  Nb20  1  0.750000  0.874946  0.211086  1
  Nb  Nb21  1  0.250000  0.125054  0.788914  1
  Nb  Nb22  1  0.750000  0.532340  0.884487  1
  Nb  Nb23  1  0.250000  0.467660  0.115513  1
