# generated using pymatgen
data_Ag3AsS3
_symmetry_space_group_name_H-M   'P 1'
_cell_length_a   7.37690811
_cell_length_b   7.37690845
_cell_length_c   7.37690812
_cell_angle_alpha   105.74208146
_cell_angle_beta   105.74208182
_cell_angle_gamma   105.74208006
_symmetry_Int_Tables_number   1
_chemical_formula_structural   Ag3AsS3
_chemical_formula_sum   'Ag6 As2 S6'
_cell_volume   345.15546576
_cell_formula_units_Z   2
loop_
 _symmetry_equiv_pos_site_id
 _symmetry_equiv_pos_as_xyz
  1  'x, y, z'
loop_
 _atom_site_type_symbol
 _atom_site_label
 _atom_site_symmetry_multiplicity
 _atom_site_fract_x
 _atom_site_fract_y
 _atom_site_fract_z
 _atom_site_occupancy
  Ag  Ag0  1  0.544774  0.617613  0.040028  1
  Ag  Ag1  1  0.540028  0.117613  0.044774  1
  Ag  Ag2  1  0.040028  0.544774  0.617613  1
  Ag  Ag3  1  0.044774  0.540028  0.117613  1
  Ag  Ag4  1  0.617613  0.040028  0.544774  1
  Ag  Ag5  1  0.117613  0.044774  0.540028  1
  As  As6  1  0.584632  0.584632  0.584632  1
  As  As7  1  0.084632  0.084632  0.084632  1
  S  S8  1  0.676979  0.330503  0.423672  1
  S  S9  1  0.423672  0.676979  0.330503  1
  S  S10  1  0.830503  0.176979  0.923672  1
  S  S11  1  0.330503  0.423672  0.676979  1
  S  S12  1  0.176979  0.923672  0.830503  1
  S  S13  1  0.923672  0.830503  0.176979  1
