# generated using pymatgen
data_KVPO5
_symmetry_space_group_name_H-M   'P 1'
_cell_length_a   7.47337993
_cell_length_b   7.75414183
_cell_length_c   8.54481145
_cell_angle_alpha   90.00000000
_cell_angle_beta   90.00000000
_cell_angle_gamma   90.00000000
_symmetry_Int_Tables_number   1
_chemical_formula_structural   KVPO5
_chemical_formula_sum   'K4 V4 P4 O20'
_cell_volume   495.16881513
_cell_formula_units_Z   4
loop_
 _symmetry_equiv_pos_site_id
 _symmetry_equiv_pos_as_xyz
  1  'x, y, z'
loop_
 _atom_site_type_symbol
 _atom_site_label
 _atom_site_symmetry_multiplicity
 _atom_site_fract_x
 _atom_site_fract_y
 _atom_site_fract_z
 _atom_site_occupancy
  K  K0  1  0.632895  0.788845  0.009114  1
  K  K1  1  0.867105  0.288845  0.990886  1
  K  K2  1  0.367105  0.711155  0.509114  1
  K  K3  1  0.132895  0.211155  0.490886  1
  V  V4  1  0.633005  0.197847  0.368070  1
  V  V5  1  0.133005  0.802153  0.131930  1
  V  V6  1  0.366996  0.302153  0.868070  1
  V  V7  1  0.866995  0.697847  0.631930  1
  P  P8  1  0.373173  0.436734  0.153717  1
  P  P9  1  0.626827  0.063266  0.653717  1
  P  P10  1  0.873173  0.563266  0.346283  1
  P  P11  1  0.126827  0.936734  0.846283  1
  O  O12  1  0.427523  0.349141  0.309506  1
  O  O13  1  0.681881  0.876627  0.691254  1
  O  O14  1  0.778389  0.163364  0.565130  1
  O  O15  1  0.666443  0.056440  0.228783  1
  O  O16  1  0.166443  0.943560  0.271217  1
  O  O17  1  0.473924  0.074741  0.528425  1
  O  O18  1  0.721611  0.663364  0.434870  1
  O  O19  1  0.572477  0.150859  0.809506  1
  O  O20  1  0.278389  0.836636  0.934870  1
  O  O21  1  0.333557  0.443560  0.728783  1
  O  O22  1  0.318119  0.623373  0.191254  1
  O  O23  1  0.181881  0.123373  0.808746  1
  O  O24  1  0.526076  0.425259  0.028425  1
  O  O25  1  0.833557  0.556440  0.771217  1
  O  O26  1  0.973924  0.925259  0.971575  1
  O  O27  1  0.927523  0.650859  0.190494  1
  O  O28  1  0.221611  0.336636  0.065130  1
  O  O29  1  0.026076  0.574741  0.471575  1
  O  O30  1  0.072477  0.849141  0.690494  1
  O  O31  1  0.818119  0.376627  0.308746  1
