# generated using pymatgen
data_Na4Sc2(PO4)3
_symmetry_space_group_name_H-M   'P 1'
_cell_length_a   9.30768999
_cell_length_b   9.30769023
_cell_length_c   8.87382447
_cell_angle_alpha   58.36909342
_cell_angle_beta   58.36909266
_cell_angle_gamma   60.00004620
_symmetry_Int_Tables_number   1
_chemical_formula_structural   Na4Sc2(PO4)3
_chemical_formula_sum   'Na8 Sc4 P6 O24'
_cell_volume   529.81228641
_cell_formula_units_Z   2
loop_
 _symmetry_equiv_pos_site_id
 _symmetry_equiv_pos_as_xyz
  1  'x, y, z'
loop_
 _atom_site_type_symbol
 _atom_site_label
 _atom_site_symmetry_multiplicity
 _atom_site_fract_x
 _atom_site_fract_y
 _atom_site_fract_z
 _atom_site_occupancy
  Na  Na0  1  0.113857  0.250007  0.749787  1
  Na  Na1  1  0.613768  0.386232  0.250000  1
  Na  Na2  1  0.386232  0.613768  0.750000  1
  Na  Na3  1  0.749993  0.886143  0.750213  1
  Na  Na4  1  0.250007  0.113857  0.249787  1
  Na  Na5  1  0.500000  0.000000  0.500000  1
  Na  Na6  1  0.886143  0.749993  0.250213  1
  Na  Na7  1  0.000000  0.500000  0.000000  1
  Sc  Sc8  1  0.844079  0.344059  0.467779  1
  Sc  Sc9  1  0.344059  0.844079  0.967779  1
  Sc  Sc10  1  0.655941  0.155921  0.032221  1
  Sc  Sc11  1  0.155921  0.655941  0.532221  1
  P  P12  1  0.441879  0.249996  0.749992  1
  P  P13  1  0.941855  0.058145  0.250000  1
  P  P14  1  0.558121  0.750004  0.250008  1
  P  P15  1  0.750004  0.558121  0.750008  1
  P  P16  1  0.249996  0.441879  0.249992  1
  P  P17  1  0.058145  0.941855  0.750000  1
  O  O18  1  0.910079  0.576438  0.744524  1
  O  O19  1  0.076437  0.768946  0.744536  1
  O  O20  1  0.203758  0.470620  0.429481  1
  O  O21  1  0.231054  0.923563  0.755464  1
  O  O22  1  0.103842  0.029399  0.070496  1
  O  O23  1  0.423562  0.089921  0.755476  1
  O  O24  1  0.470620  0.203758  0.929481  1
  O  O25  1  0.576438  0.910079  0.244524  1
  O  O26  1  0.529380  0.796242  0.070519  1
  O  O27  1  0.768946  0.076437  0.244536  1
  O  O28  1  0.923563  0.231054  0.255464  1
  O  O29  1  0.296300  0.603820  0.070491  1
  O  O30  1  0.396180  0.703700  0.429509  1
  O  O31  1  0.268903  0.410109  0.744548  1
  O  O32  1  0.603820  0.296300  0.570491  1
  O  O33  1  0.029399  0.103842  0.570496  1
  O  O34  1  0.896158  0.970601  0.929504  1
  O  O35  1  0.410109  0.268903  0.244548  1
  O  O36  1  0.089921  0.423562  0.255476  1
  O  O37  1  0.589891  0.731097  0.755452  1
  O  O38  1  0.731097  0.589891  0.255452  1
  O  O39  1  0.796242  0.529380  0.570519  1
  O  O40  1  0.703700  0.396180  0.929509  1
  O  O41  1  0.970601  0.896158  0.429504  1
