# generated using pymatgen
data_Be(PO3)2
_symmetry_space_group_name_H-M   'P 1'
_cell_length_a   7.21931318
_cell_length_b   7.21931363
_cell_length_c   8.89171848
_cell_angle_alpha   90.00000000
_cell_angle_beta   90.00000000
_cell_angle_gamma   89.07715551
_symmetry_Int_Tables_number   1
_chemical_formula_structural   Be(PO3)2
_chemical_formula_sum   'Be4 P8 O24'
_cell_volume   463.36279560
_cell_formula_units_Z   4
loop_
 _symmetry_equiv_pos_site_id
 _symmetry_equiv_pos_as_xyz
  1  'x, y, z'
loop_
 _atom_site_type_symbol
 _atom_site_label
 _atom_site_symmetry_multiplicity
 _atom_site_fract_x
 _atom_site_fract_y
 _atom_site_fract_z
 _atom_site_occupancy
  Be  Be0  1  0.364683  0.827836  0.027893  1
  Be  Be1  1  0.172164  0.635317  0.472107  1
  Be  Be2  1  0.635317  0.172164  0.527893  1
  Be  Be3  1  0.827836  0.364683  0.972107  1
  P  P4  1  0.931795  0.068205  0.750000  1
  P  P5  1  0.110199  0.344538  0.226394  1
  P  P6  1  0.068205  0.931795  0.250000  1
  P  P7  1  0.344538  0.110199  0.773606  1
  P  P8  1  0.655462  0.889801  0.273606  1
  P  P9  1  0.409426  0.409426  0.000000  1
  P  P10  1  0.590574  0.590574  0.500000  1
  P  P11  1  0.889801  0.655462  0.726394  1
  O  O12  1  0.914419  0.856131  0.797908  1
  O  O13  1  0.860786  0.531810  0.857225  1
  O  O14  1  0.645208  0.391237  0.482258  1
  O  O15  1  0.391237  0.645208  0.517742  1
  O  O16  1  0.607149  0.044227  0.378958  1
  O  O17  1  0.608763  0.354792  0.017742  1
  O  O18  1  0.139214  0.468190  0.357225  1
  O  O19  1  0.143869  0.085581  0.702092  1
  O  O20  1  0.085581  0.143869  0.297908  1
  O  O21  1  0.891189  0.172702  0.891314  1
  O  O22  1  0.856131  0.914419  0.202092  1
  O  O23  1  0.317309  0.305308  0.859643  1
  O  O24  1  0.827298  0.108811  0.608686  1
  O  O25  1  0.955773  0.392851  0.121042  1
  O  O26  1  0.531810  0.860786  0.142775  1
  O  O27  1  0.468190  0.139214  0.642775  1
  O  O28  1  0.354792  0.608763  0.982258  1
  O  O29  1  0.044227  0.607149  0.621042  1
  O  O30  1  0.392851  0.955773  0.878958  1
  O  O31  1  0.305308  0.317309  0.140357  1
  O  O32  1  0.172702  0.891189  0.108686  1
  O  O33  1  0.108811  0.827298  0.391314  1
  O  O34  1  0.682691  0.694692  0.359643  1
  O  O35  1  0.694692  0.682691  0.640357  1
