# generated using pymatgen
data_NaNd(GaSe2)4
_symmetry_space_group_name_H-M   'P 1'
_cell_length_a   12.50537884
_cell_length_b   12.50537888
_cell_length_c   12.48149520
_cell_angle_alpha   105.38534635
_cell_angle_beta   105.38534642
_cell_angle_gamma   118.05989383
_symmetry_Int_Tables_number   1
_chemical_formula_structural   NaNd(GaSe2)4
_chemical_formula_sum   'Na4 Nd4 Ga16 Se32'
_cell_volume   1475.89567570
_cell_formula_units_Z   4
loop_
 _symmetry_equiv_pos_site_id
 _symmetry_equiv_pos_as_xyz
  1  'x, y, z'
loop_
 _atom_site_type_symbol
 _atom_site_label
 _atom_site_symmetry_multiplicity
 _atom_site_fract_x
 _atom_site_fract_y
 _atom_site_fract_z
 _atom_site_occupancy
  Na  Na0  1  0.621626  0.378374  0.250000  1
  Na  Na1  1  0.128374  0.871626  0.250000  1
  Na  Na2  1  0.871626  0.128374  0.750000  1
  Na  Na3  1  0.378374  0.621626  0.750000  1
  Nd  Nd4  1  0.375000  0.625000  0.250000  1
  Nd  Nd5  1  0.625000  0.375000  0.750000  1
  Nd  Nd6  1  0.125000  0.875000  0.750000  1
  Nd  Nd7  1  0.875000  0.125000  0.250000  1
  Ga  Ga8  1  0.136912  0.131673  0.520665  1
  Ga  Ga9  1  0.640298  0.638513  0.609854  1
  Ga  Ga10  1  0.611009  0.116247  0.979335  1
  Ga  Ga11  1  0.530444  0.028659  0.390146  1
  Ga  Ga12  1  0.863088  0.868327  0.479335  1
  Ga  Ga13  1  0.638513  0.640298  0.109854  1
  Ga  Ga14  1  0.883753  0.388991  0.520665  1
  Ga  Ga15  1  0.469556  0.971341  0.609854  1
  Ga  Ga16  1  0.359702  0.361487  0.390146  1
  Ga  Ga17  1  0.361487  0.359702  0.890146  1
  Ga  Ga18  1  0.116247  0.611009  0.479335  1
  Ga  Ga19  1  0.028659  0.530444  0.890146  1
  Ga  Ga20  1  0.131673  0.136912  0.020665  1
  Ga  Ga21  1  0.868327  0.863088  0.979335  1
  Ga  Ga22  1  0.388991  0.883753  0.020665  1
  Ga  Ga23  1  0.971341  0.469556  0.109854  1
  Se  Se24  1  0.090104  0.916685  0.994864  1
  Se  Se25  1  0.906542  0.580648  0.995461  1
  Se  Se26  1  0.148851  0.149781  0.831673  1
  Se  Se27  1  0.588919  0.414813  0.995461  1
  Se  Se28  1  0.078179  0.404760  0.494864  1
  Se  Se29  1  0.681891  0.182822  0.331673  1
  Se  Se30  1  0.411081  0.585187  0.004539  1
  Se  Se31  1  0.656667  0.163228  0.814499  1
  Se  Se32  1  0.419352  0.093458  0.504539  1
  Se  Se33  1  0.318109  0.817178  0.668327  1
  Se  Se34  1  0.909896  0.083315  0.005136  1
  Se  Se35  1  0.343333  0.836772  0.185501  1
  Se  Se36  1  0.921821  0.595240  0.505136  1
  Se  Se37  1  0.836772  0.343333  0.685501  1
  Se  Se38  1  0.163228  0.656667  0.314499  1
  Se  Se39  1  0.585187  0.411081  0.504539  1
  Se  Se40  1  0.851149  0.850219  0.168327  1
  Se  Se41  1  0.348729  0.342168  0.685501  1
  Se  Se42  1  0.182822  0.681891  0.831673  1
  Se  Se43  1  0.149781  0.148851  0.331673  1
  Se  Se44  1  0.817178  0.318109  0.168327  1
  Se  Se45  1  0.404760  0.078179  0.994864  1
  Se  Se46  1  0.657832  0.651271  0.814499  1
  Se  Se47  1  0.093458  0.419352  0.004539  1
  Se  Se48  1  0.595240  0.921821  0.005136  1
  Se  Se49  1  0.083315  0.909896  0.505136  1
  Se  Se50  1  0.342168  0.348729  0.185501  1
  Se  Se51  1  0.850219  0.851149  0.668327  1
  Se  Se52  1  0.414813  0.588919  0.495461  1
  Se  Se53  1  0.651271  0.657832  0.314499  1
  Se  Se54  1  0.916685  0.090104  0.494864  1
  Se  Se55  1  0.580648  0.906542  0.495461  1
