# generated using pymatgen
data_Cu6PS5Br
_symmetry_space_group_name_H-M   'P 1'
_cell_length_a   6.84551322
_cell_length_b   6.83087871
_cell_length_c   11.93692143
_cell_angle_alpha   73.26902261
_cell_angle_beta   73.33617040
_cell_angle_gamma   59.93576900
_symmetry_Int_Tables_number   1
_chemical_formula_structural   Cu6PS5Br
_chemical_formula_sum   'Cu12 P2 S10 Br2'
_cell_volume   455.74250772
_cell_formula_units_Z   2
loop_
 _symmetry_equiv_pos_site_id
 _symmetry_equiv_pos_as_xyz
  1  'x, y, z'
loop_
 _atom_site_type_symbol
 _atom_site_label
 _atom_site_symmetry_multiplicity
 _atom_site_fract_x
 _atom_site_fract_y
 _atom_site_fract_z
 _atom_site_occupancy
  Cu  Cu0  1  0.039517  0.881938  0.106858  1
  Cu  Cu1  1  0.634827  0.247698  0.385934  1
  Cu  Cu2  1  0.465429  0.417383  0.116298  1
  Cu  Cu3  1  0.731682  0.747737  0.885967  1
  Cu  Cu4  1  0.503885  0.846223  0.111295  1
  Cu  Cu5  1  1.000811  0.917232  0.616319  1
  Cu  Cu6  1  0.853673  0.604929  0.387256  1
  Cu  Cu7  1  0.377232  0.506487  0.888629  1
  Cu  Cu8  1  0.227954  0.006324  0.388638  1
  Cu  Cu9  1  0.154445  0.104991  0.887214  1
  Cu  Cu10  1  0.538357  0.346398  0.611160  1
  Cu  Cu11  1  0.971286  0.381829  0.607006  1
  P  P12  1  0.499394  0.875994  0.624345  1
  P  P13  1  0.000256  0.375970  0.124364  1
  S  S14  1  0.557493  0.939674  0.439520  1
  S  S15  1  0.063426  0.439724  0.939532  1
  S  S16  1  0.806459  0.705660  0.687634  1
  S  S17  1  0.830770  0.684160  0.187341  1
  S  S18  1  0.297682  0.184180  0.687295  1
  S  S19  1  0.800261  0.205610  0.187570  1
  S  S20  1  0.330717  0.674323  0.689741  1
  S  S21  1  0.384104  0.751851  0.985759  1
  S  S22  1  0.878380  0.251701  0.485749  1
  S  S23  1  0.305133  0.174383  0.189810  1
  Br  Br24  1  0.754274  0.124933  0.872259  1
  Br  Br25  1  0.248554  0.624668  0.372505  1
