# generated using pymatgen
data_Sr2NiTeO6
_symmetry_space_group_name_H-M   'P 1'
_cell_length_a   5.47716559
_cell_length_b   6.29345118
_cell_length_c   6.29347347
_cell_angle_alpha   51.97736425
_cell_angle_beta   64.16595356
_cell_angle_gamma   64.16651119
_symmetry_Int_Tables_number   1
_chemical_formula_structural   Sr2NiTeO6
_chemical_formula_sum   'Sr2 Ni1 Te1 O6'
_cell_volume   149.47201714
_cell_formula_units_Z   1
loop_
 _symmetry_equiv_pos_site_id
 _symmetry_equiv_pos_as_xyz
  1  'x, y, z'
loop_
 _atom_site_type_symbol
 _atom_site_label
 _atom_site_symmetry_multiplicity
 _atom_site_fract_x
 _atom_site_fract_y
 _atom_site_fract_z
 _atom_site_occupancy
  O  O0  1  0.256988  0.755786  0.241860  1
  O  O1  1  0.743129  0.244190  0.758157  1
  Ni  Ni2  1  0.500022  0.000065  0.999962  1
  Sr  Sr3  1  0.191245  0.307615  0.307656  1
  O  O4  1  0.196561  0.800721  0.800747  1
  O  O5  1  0.743102  0.758163  0.244184  1
  O  O6  1  0.256970  0.241863  0.755782  1
  O  O7  1  0.803441  0.199256  0.199281  1
  Sr  Sr8  1  0.808579  0.692342  0.692379  1
  Te  Te9  1  -0.000037  0.999999  -0.000009  1
