# generated using pymatgen
data_Li9Co3P8O29
_symmetry_space_group_name_H-M   'P 1'
_cell_length_a   9.66501431
_cell_length_b   9.66474157
_cell_length_c   13.68650493
_cell_angle_alpha   89.99992762
_cell_angle_beta   90.00935073
_cell_angle_gamma   119.99709281
_symmetry_Int_Tables_number   1
_chemical_formula_structural   Li9Co3P8O29
_chemical_formula_sum   'Li18 Co6 P16 O58'
_cell_volume   1107.20656160
_cell_formula_units_Z   2
loop_
 _symmetry_equiv_pos_site_id
 _symmetry_equiv_pos_as_xyz
  1  'x, y, z'
loop_
 _atom_site_type_symbol
 _atom_site_label
 _atom_site_symmetry_multiplicity
 _atom_site_fract_x
 _atom_site_fract_y
 _atom_site_fract_z
 _atom_site_occupancy
  Li  Li0  1  0.100196  0.763354  0.936058  1
  Li  Li1  1  0.763253  0.100342  0.563960  1
  Li  Li2  1  0.662152  0.899235  0.936135  1
  Li  Li3  1  0.337284  0.100498  0.063924  1
  Li  Li4  1  0.333387  0.666697  0.119781  1
  Li  Li5  1  0.337785  0.237060  0.563873  1
  Li  Li6  1  0.666842  0.333497  0.880303  1
  Li  Li7  1  0.236752  0.337071  0.936034  1
  Li  Li8  1  0.100556  0.337371  0.436046  1
  Li  Li9  1  0.000285  0.000805  0.500097  1
  Li  Li10  1  0.763112  0.662750  0.063934  1
  Li  Li11  1  0.999610  0.000595  0.999886  1
  Li  Li12  1  0.666675  0.333325  0.380219  1
  Li  Li13  1  0.662691  0.763212  0.436077  1
  Li  Li14  1  0.236879  0.899675  0.436065  1
  Li  Li15  1  0.899828  0.663135  0.563943  1
  Li  Li16  1  0.333198  0.666687  0.619705  1
  Li  Li17  1  0.899428  0.236820  0.063947  1
  Co  Co18  1  0.433799  0.433681  0.750070  1
  Co  Co19  1  0.566257  0.566296  0.249993  1
  Co  Co20  1  0.566214  0.999892  0.749925  1
  Co  Co21  1  0.433742  0.000044  0.250014  1
  Co  Co22  1  0.000008  0.566119  0.750005  1
  Co  Co23  1  0.000012  0.433831  0.249998  1
  P  P24  1  0.678948  0.907620  0.157491  1
  P  P25  1  0.666609  0.333379  0.128904  1
  P  P26  1  0.092508  0.320873  0.657499  1
  P  P27  1  0.321237  0.092461  0.842577  1
  P  P28  1  0.771340  0.679026  0.842508  1
  P  P29  1  0.228579  0.321043  0.157451  1
  P  P30  1  0.333389  0.666754  0.371104  1
  P  P31  1  0.907493  0.228345  0.842501  1
  P  P32  1  0.666632  0.333135  0.628827  1
  P  P33  1  0.678770  0.771216  0.657417  1
  P  P34  1  0.092380  0.771430  0.157462  1
  P  P35  1  0.228648  0.907698  0.657490  1
  P  P36  1  0.333404  0.666568  0.871171  1
  P  P37  1  0.321060  0.228690  0.342511  1
  P  P38  1  0.907617  0.679051  0.342544  1
  P  P39  1  0.771438  0.092457  0.342542  1
  O  O40  1  0.892498  0.513528  0.332108  1
  O  O41  1  0.258528  0.335907  0.657749  1
  O  O42  1  0.741465  0.077377  0.842263  1
  O  O43  1  0.212371  0.212446  0.249997  1
  O  O44  1  0.378956  0.892460  0.667910  1
  O  O45  1  0.999984  0.212236  0.749991  1
  O  O46  1  0.228353  0.002525  0.933258  1
  O  O47  1  0.677036  0.491311  0.165815  1
  O  O48  1  0.787386  0.787627  0.750007  1
  O  O49  1  0.486544  0.379056  0.332051  1
  O  O50  1  0.997338  0.225292  0.933239  1
  O  O51  1  0.225671  0.997533  0.566750  1
  O  O52  1  0.322984  0.814293  0.334227  1
  O  O53  1  0.892432  0.378791  0.832085  1
  O  O54  1  0.997552  0.771882  0.433253  1
  O  O55  1  0.774257  0.771805  0.933247  1
  O  O56  1  0.814562  0.491081  0.665364  1
  O  O57  1  0.486678  0.107468  0.832117  1
  O  O58  1  0.787632  0.000027  0.250011  1
  O  O59  1  0.491256  0.677107  0.334156  1
  O  O60  1  0.922368  0.258556  0.342343  1
  O  O61  1  0.663555  0.922120  0.657505  1
  O  O62  1  0.258448  0.922390  0.157663  1
  O  O63  1  0.228306  0.225813  0.433254  1
  O  O64  1  0.333539  0.666792  0.482239  1
  O  O65  1  0.002447  0.774286  0.066742  1
  O  O66  1  0.077650  0.336226  0.157630  1
  O  O67  1  0.378991  0.486508  0.167893  1
  O  O68  1  0.508930  0.322933  0.665970  1
  O  O69  1  0.212616  0.000261  0.749990  1
  O  O70  1  0.621030  0.107525  0.332092  1
  O  O71  1  0.665843  0.332628  0.517691  1
  O  O72  1  0.663814  0.741541  0.157654  1
  O  O73  1  0.334237  0.666997  0.982307  1
  O  O74  1  0.185463  0.676565  0.834624  1
  O  O75  1  0.513333  0.620784  0.667875  1
  O  O76  1  0.677166  0.185713  0.665807  1
  O  O77  1  0.002666  0.228022  0.566753  1
  O  O78  1  0.225559  0.228160  0.066732  1
  O  O79  1  0.814235  0.323079  0.165738  1
  O  O80  1  0.741528  0.663902  0.342361  1
  O  O81  1  0.771660  0.774158  0.566738  1
  O  O82  1  0.621063  0.513470  0.832061  1
  O  O83  1  0.513474  0.892538  0.167949  1
  O  O84  1  0.774464  0.002608  0.433269  1
  O  O85  1  0.077721  0.741587  0.657767  1
  O  O86  1  0.107614  0.486393  0.667945  1
  O  O87  1  0.508744  0.185845  0.165835  1
  O  O88  1  0.322895  0.508593  0.834249  1
  O  O89  1  0.771715  0.997501  0.066750  1
  O  O90  1  0.185779  0.508838  0.334254  1
  O  O91  1  0.107564  0.621066  0.167925  1
  O  O92  1  0.336446  0.258578  0.842481  1
  O  O93  1  0.666454  0.333323  0.017769  1
  O  O94  1  0.999967  0.787617  0.249994  1
  O  O95  1  0.336171  0.077730  0.342340  1
  O  O96  1  0.491094  0.814006  0.833977  1
  O  O97  1  0.922277  0.663858  0.842247  1
