# generated using pymatgen
data_Eu(TmSe2)2
_symmetry_space_group_name_H-M   'P 1'
_cell_length_a   4.08546932
_cell_length_b   12.45913174
_cell_length_c   14.78588002
_cell_angle_alpha   90.00000000
_cell_angle_beta   90.00000000
_cell_angle_gamma   90.00000000
_symmetry_Int_Tables_number   1
_chemical_formula_structural   Eu(TmSe2)2
_chemical_formula_sum   'Eu4 Tm8 Se16'
_cell_volume   752.62200031
_cell_formula_units_Z   4
loop_
 _symmetry_equiv_pos_site_id
 _symmetry_equiv_pos_as_xyz
  1  'x, y, z'
loop_
 _atom_site_type_symbol
 _atom_site_label
 _atom_site_symmetry_multiplicity
 _atom_site_fract_x
 _atom_site_fract_y
 _atom_site_fract_z
 _atom_site_occupancy
  Eu  Eu0  1  0.750000  0.240327  0.334305  1
  Eu  Eu1  1  0.250000  0.759673  0.665695  1
  Eu  Eu2  1  0.750000  0.740327  0.165695  1
  Eu  Eu3  1  0.250000  0.259673  0.834305  1
  Tm  Tm4  1  0.750000  0.582785  0.902362  1
  Tm  Tm5  1  0.250000  0.417215  0.097638  1
  Tm  Tm6  1  0.750000  0.082785  0.597638  1
  Tm  Tm7  1  0.250000  0.917215  0.402362  1
  Tm  Tm8  1  0.750000  0.562505  0.389226  1
  Tm  Tm9  1  0.250000  0.437495  0.610774  1
  Tm  Tm10  1  0.750000  0.062505  0.110774  1
  Tm  Tm11  1  0.250000  0.937495  0.889226  1
  Se  Se12  1  0.750000  0.794334  0.827544  1
  Se  Se13  1  0.250000  0.205666  0.172456  1
  Se  Se14  1  0.750000  0.294334  0.672456  1
  Se  Se15  1  0.250000  0.705666  0.327544  1
  Se  Se16  1  0.750000  0.869484  0.530949  1
  Se  Se17  1  0.250000  0.130516  0.469051  1
  Se  Se18  1  0.750000  0.369484  0.969051  1
  Se  Se19  1  0.250000  0.630516  0.030949  1
  Se  Se20  1  0.750000  0.473346  0.215593  1
  Se  Se21  1  0.250000  0.526654  0.784407  1
  Se  Se22  1  0.750000  0.973346  0.284407  1
  Se  Se23  1  0.250000  0.026654  0.715593  1
  Se  Se24  1  0.750000  0.591444  0.577758  1
  Se  Se25  1  0.250000  0.408556  0.422242  1
  Se  Se26  1  0.750000  0.091444  0.922242  1
  Se  Se27  1  0.250000  0.908556  0.077758  1
