# generated using pymatgen
data_Sr2Fe2O5
_symmetry_space_group_name_H-M   'P 1'
_cell_length_a   5.59849088
_cell_length_b   5.76982097
_cell_length_c   8.84773535
_cell_angle_alpha   109.02993283
_cell_angle_beta   108.44414166
_cell_angle_gamma   89.99999603
_symmetry_Int_Tables_number   1
_chemical_formula_structural   Sr2Fe2O5
_chemical_formula_sum   'Sr4 Fe4 O10'
_cell_volume   254.60256683
_cell_formula_units_Z   2
loop_
 _symmetry_equiv_pos_site_id
 _symmetry_equiv_pos_as_xyz
  1  'x, y, z'
loop_
 _atom_site_type_symbol
 _atom_site_label
 _atom_site_symmetry_multiplicity
 _atom_site_fract_x
 _atom_site_fract_y
 _atom_site_fract_z
 _atom_site_occupancy
  Sr  Sr0  1  0.395500  0.910733  0.783146  1
  Sr  Sr1  1  0.612354  0.089267  0.216854  1
  Sr  Sr2  1  0.895500  0.372412  0.783146  1
  Sr  Sr3  1  0.112354  0.627588  0.216854  1
  Fe  Fe4  1  0.998997  1.000000  1.000000  1
  Fe  Fe5  1  0.498997  0.500000  1.000000  1
  Fe  Fe6  1  0.793220  0.678193  0.500000  1
  Fe  Fe7  1  0.293220  0.321807  0.500000  1
  O  O8  1  0.758136  0.260372  0.015612  1
  O  O9  1  0.742524  0.739628  0.984387  1
  O  O10  1  0.258136  0.255241  0.015612  1
  O  O11  1  0.242524  0.744759  0.984387  1
  O  O12  1  0.843873  0.907925  0.719538  1
  O  O13  1  0.124335  0.092075  0.280462  1
  O  O14  1  0.343873  0.311613  0.719538  1
  O  O15  1  0.624335  0.688387  0.280462  1
  O  O16  1  0.137662  0.621969  0.500000  1
  O  O17  1  0.637662  0.378031  0.500000  1
