# generated using pymatgen
data_BaLiCoF6
_symmetry_space_group_name_H-M   'P 1'
_cell_length_a   5.62837117
_cell_length_b   8.54480634
_cell_length_c   10.34935225
_cell_angle_alpha   90.00000000
_cell_angle_beta   90.00000000
_cell_angle_gamma   91.24157270
_symmetry_Int_Tables_number   1
_chemical_formula_structural   BaLiCoF6
_chemical_formula_sum   'Ba4 Li4 Co4 F24'
_cell_volume   497.61807764
_cell_formula_units_Z   4
loop_
 _symmetry_equiv_pos_site_id
 _symmetry_equiv_pos_as_xyz
  1  'x, y, z'
loop_
 _atom_site_type_symbol
 _atom_site_label
 _atom_site_symmetry_multiplicity
 _atom_site_fract_x
 _atom_site_fract_y
 _atom_site_fract_z
 _atom_site_occupancy
  Li  Li0  1  0.767475  0.809277  0.426506  1
  Li  Li1  1  0.232525  0.690723  0.926506  1
  Li  Li2  1  0.232525  0.190723  0.573494  1
  Li  Li3  1  0.767475  0.309277  0.073494  1
  F  F4  1  0.483840  0.817555  0.004694  1
  F  F5  1  0.897551  0.317422  0.869686  1
  F  F6  1  0.102449  0.182578  0.369686  1
  F  F7  1  0.102449  0.682578  0.130314  1
  F  F8  1  0.897551  0.817422  0.630314  1
  F  F9  1  0.890814  0.215548  0.598589  1
  F  F10  1  0.109186  0.284452  0.098589  1
  F  F11  1  0.109186  0.784452  0.401411  1
  F  F12  1  0.516160  0.682445  0.504694  1
  F  F13  1  0.621749  0.252366  0.244949  1
  F  F14  1  0.483840  0.317555  0.495306  1
  F  F15  1  0.516160  0.182445  0.995306  1
  F  F16  1  0.378251  0.747634  0.755051  1
  F  F17  1  0.621749  0.752366  0.255051  1
  F  F18  1  0.134177  0.556129  0.602123  1
  F  F19  1  0.378251  0.247634  0.744949  1
  F  F20  1  0.325495  0.474323  0.908800  1
  F  F21  1  0.865823  0.943871  0.102123  1
  F  F22  1  0.865823  0.443871  0.397877  1
  F  F23  1  0.134177  0.056129  0.897877  1
  F  F24  1  0.325495  0.974323  0.591200  1
  F  F25  1  0.674505  0.525677  0.091200  1
  F  F26  1  0.674505  0.025677  0.408800  1
  F  F27  1  0.890814  0.715548  0.901411  1
  Co  Co28  1  0.222910  0.766875  0.581396  1
  Co  Co29  1  0.222910  0.266875  0.918604  1
  Co  Co30  1  0.777090  0.233125  0.418604  1
  Co  Co31  1  0.777090  0.733125  0.081396  1
  Ba  Ba32  1  0.684401  0.003308  0.799135  1
  Ba  Ba33  1  0.684401  0.503308  0.700865  1
  Ba  Ba34  1  0.315599  0.996692  0.200865  1
  Ba  Ba35  1  0.315599  0.496692  0.299135  1
