# generated using pymatgen
data_K3Pu(H3O4)2
_symmetry_space_group_name_H-M   'P 1'
_cell_length_a   7.62075263
_cell_length_b   7.90005827
_cell_length_c   8.45435520
_cell_angle_alpha   90.00000000
_cell_angle_beta   90.00000000
_cell_angle_gamma   116.58332111
_symmetry_Int_Tables_number   1
_chemical_formula_structural   K3Pu(H3O4)2
_chemical_formula_sum   'K6 Pu2 H12 O16'
_cell_volume   455.18126030
_cell_formula_units_Z   2
loop_
 _symmetry_equiv_pos_site_id
 _symmetry_equiv_pos_as_xyz
  1  'x, y, z'
loop_
 _atom_site_type_symbol
 _atom_site_label
 _atom_site_symmetry_multiplicity
 _atom_site_fract_x
 _atom_site_fract_y
 _atom_site_fract_z
 _atom_site_occupancy
  K  K0  1  0.913773  0.457158  0.190654  1
  K  K1  1  0.086227  0.542842  0.809346  1
  K  K2  1  0.913773  0.957158  0.309346  1
  K  K3  1  0.086227  0.042842  0.690654  1
  K  K4  1  0.500000  0.000000  0.500000  1
  K  K5  1  0.500000  0.500000  0.000000  1
  Pu  Pu6  1  0.500000  0.000000  0.000000  1
  Pu  Pu7  1  0.500000  0.500000  0.500000  1
  H  H8  1  0.922151  0.129267  0.976649  1
  H  H9  1  0.077849  0.370733  0.476649  1
  H  H10  1  0.858541  0.326918  0.527052  1
  H  H11  1  0.141459  0.173083  0.027052  1
  H  H12  1  0.334107  0.681328  0.201962  1
  H  H13  1  0.141459  0.673083  0.472948  1
  H  H14  1  0.665893  0.318672  0.798038  1
  H  H15  1  0.334107  0.181328  0.298038  1
  H  H16  1  0.665893  0.818672  0.701962  1
  H  H17  1  0.922151  0.629267  0.523351  1
  H  H18  1  0.077849  0.870733  0.023351  1
  H  H19  1  0.858541  0.826917  0.972948  1
  O  O20  1  0.945979  0.766147  0.997548  1
  O  O21  1  0.628924  0.076378  0.194986  1
  O  O22  1  0.628924  0.576378  0.305014  1
  O  O23  1  0.297355  0.578945  0.431529  1
  O  O24  1  0.371076  0.423622  0.694986  1
  O  O25  1  0.702645  0.921055  0.931529  1
  O  O26  1  0.371076  0.923622  0.805014  1
  O  O27  1  0.691423  0.296956  0.908564  1
  O  O28  1  0.297355  0.078945  0.068471  1
  O  O29  1  0.702645  0.421055  0.568471  1
  O  O30  1  0.308577  0.203044  0.408564  1
  O  O31  1  0.308577  0.703044  0.091436  1
  O  O32  1  0.054021  0.233853  0.002452  1
  O  O33  1  0.945979  0.266147  0.502452  1
  O  O34  1  0.054021  0.733853  0.497548  1
  O  O35  1  0.691423  0.796956  0.591436  1
