# generated using pymatgen
data_RbCuCl3
_symmetry_space_group_name_H-M   'P 1'
_cell_length_a   6.99294533
_cell_length_b   7.03708593
_cell_length_c   12.56544245
_cell_angle_alpha   90.53774972
_cell_angle_beta   90.00000000
_cell_angle_gamma   119.79272118
_symmetry_Int_Tables_number   1
_chemical_formula_structural   RbCuCl3
_chemical_formula_sum   'Rb4 Cu4 Cl12'
_cell_volume   536.58598250
_cell_formula_units_Z   4
loop_
 _symmetry_equiv_pos_site_id
 _symmetry_equiv_pos_as_xyz
  1  'x, y, z'
loop_
 _atom_site_type_symbol
 _atom_site_label
 _atom_site_symmetry_multiplicity
 _atom_site_fract_x
 _atom_site_fract_y
 _atom_site_fract_z
 _atom_site_occupancy
  Rb  Rb0  1  0.684759  0.333053  0.374766  1
  Rb  Rb1  1  0.351706  0.666947  0.125234  1
  Rb  Rb2  1  0.315241  0.666947  0.625234  1
  Rb  Rb3  1  0.648294  0.333053  0.874766  1
  Cu  Cu4  1  0.044985  0.000000  0.250000  1
  Cu  Cu5  1  0.000000  0.000000  0.000000  1
  Cu  Cu6  1  0.000000  0.000000  0.500000  1
  Cu  Cu7  1  0.955014  0.000000  0.750000  1
  Cl  Cl8  1  0.123003  0.857884  0.862348  1
  Cl  Cl9  1  0.734881  0.857884  0.362348  1
  Cl  Cl10  1  0.853116  0.674476  0.088870  1
  Cl  Cl11  1  0.265119  0.142116  0.637652  1
  Cl  Cl12  1  0.811946  0.173349  0.650431  1
  Cl  Cl13  1  0.821360  0.674476  0.588870  1
  Cl  Cl14  1  0.188054  0.826651  0.349569  1
  Cl  Cl15  1  0.361403  0.173349  0.150431  1
  Cl  Cl16  1  0.638597  0.826651  0.849569  1
  Cl  Cl17  1  0.876997  0.142116  0.137652  1
  Cl  Cl18  1  0.146884  0.325524  0.911130  1
  Cl  Cl19  1  0.178640  0.325524  0.411130  1
