# generated using pymatgen
data_Rb2NaTmCl6
_symmetry_space_group_name_H-M   'P 1'
_cell_length_a   7.56238964
_cell_length_b   7.56238904
_cell_length_c   7.56238909
_cell_angle_alpha   59.99999984
_cell_angle_beta   60.00000244
_cell_angle_gamma   60.00000175
_symmetry_Int_Tables_number   1
_chemical_formula_structural   Rb2NaTmCl6
_chemical_formula_sum   'Rb2 Na1 Tm1 Cl6'
_cell_volume   305.81733482
_cell_formula_units_Z   1
loop_
 _symmetry_equiv_pos_site_id
 _symmetry_equiv_pos_as_xyz
  1  'x, y, z'
loop_
 _atom_site_type_symbol
 _atom_site_label
 _atom_site_symmetry_multiplicity
 _atom_site_fract_x
 _atom_site_fract_y
 _atom_site_fract_z
 _atom_site_occupancy
  Rb  Rb0  1  0.750000  0.750000  0.750000  1
  Rb  Rb1  1  0.250000  0.250000  0.250000  1
  Na  Na2  1  0.500000  0.500000  0.500000  1
  Tm  Tm3  1  0.000000  0.000000  0.000000  1
  Cl  Cl4  1  0.242769  0.757231  0.757231  1
  Cl  Cl5  1  0.242769  0.757231  0.242769  1
  Cl  Cl6  1  0.757231  0.242769  0.242769  1
  Cl  Cl7  1  0.242769  0.242769  0.757231  1
  Cl  Cl8  1  0.757231  0.757231  0.242769  1
  Cl  Cl9  1  0.757231  0.242769  0.757231  1
