# generated using pymatgen
data_UTe3Pb2O11
_symmetry_space_group_name_H-M   'P 1'
_cell_length_a   7.19098678
_cell_length_b   11.72675848
_cell_length_c   13.53832220
_cell_angle_alpha   90.00000000
_cell_angle_beta   90.00000000
_cell_angle_gamma   91.70633936
_symmetry_Int_Tables_number   1
_chemical_formula_structural   UTe3Pb2O11
_chemical_formula_sum   'U4 Te12 Pb8 O44'
_cell_volume   1141.13938661
_cell_formula_units_Z   4
loop_
 _symmetry_equiv_pos_site_id
 _symmetry_equiv_pos_as_xyz
  1  'x, y, z'
loop_
 _atom_site_type_symbol
 _atom_site_label
 _atom_site_symmetry_multiplicity
 _atom_site_fract_x
 _atom_site_fract_y
 _atom_site_fract_z
 _atom_site_occupancy
  U  U0  1  0.109525  0.743288  0.279259  1
  U  U1  1  0.609525  0.243288  0.220741  1
  U  U2  1  0.890475  0.256712  0.720741  1
  U  U3  1  0.390475  0.756712  0.779259  1
  Te  Te4  1  0.591004  0.927329  0.258687  1
  Te  Te5  1  0.064214  0.086753  0.260858  1
  Te  Te6  1  0.908996  0.572671  0.758687  1
  Te  Te7  1  0.935786  0.913247  0.739142  1
  Te  Te8  1  0.271413  0.257912  0.518057  1
  Te  Te9  1  0.408996  0.072671  0.741313  1
  Te  Te10  1  0.228587  0.242088  0.018057  1
  Te  Te11  1  0.728587  0.742088  0.481943  1
  Te  Te12  1  0.564214  0.586753  0.239142  1
  Te  Te13  1  0.435786  0.413247  0.760858  1
  Te  Te14  1  0.771413  0.757912  0.981943  1
  Te  Te15  1  0.091004  0.427329  0.241313  1
  Pb  Pb16  1  0.777910  0.433331  0.447288  1
  Pb  Pb17  1  0.758776  0.061603  0.506900  1
  Pb  Pb18  1  0.222090  0.566669  0.552712  1
  Pb  Pb19  1  0.241224  0.938396  0.493100  1
  Pb  Pb20  1  0.258776  0.561604  0.993100  1
  Pb  Pb21  1  0.741224  0.438397  0.006900  1
  Pb  Pb22  1  0.722090  0.066669  0.947288  1
  Pb  Pb23  1  0.277910  0.933331  0.052712  1
  O  O24  1  0.798531  0.091734  0.286839  1
  O  O25  1  0.216523  0.730072  0.404318  1
  O  O26  1  0.089169  0.938750  0.320108  1
  O  O27  1  0.298531  0.591734  0.213161  1
  O  O28  1  0.528547  0.945606  0.395225  1
  O  O29  1  0.783478  0.269928  0.595682  1
  O  O30  1  0.459938  0.455276  0.626562  1
  O  O31  1  0.508542  0.262174  0.345715  1
  O  O32  1  0.201469  0.908266  0.713161  1
  O  O33  1  0.119967  0.675324  0.722799  1
  O  O34  1  0.716522  0.230072  0.095682  1
  O  O35  1  0.822432  0.756083  0.349430  1
  O  O36  1  0.131751  0.384033  0.473315  1
  O  O37  1  0.701469  0.408266  0.786839  1
  O  O38  1  0.619967  0.175324  0.777201  1
  O  O39  1  0.880033  0.324676  0.277201  1
  O  O40  1  0.461929  0.052107  0.201976  1
  O  O41  1  0.028547  0.445606  0.104775  1
  O  O42  1  0.371659  0.367216  0.963843  1
  O  O43  1  0.971453  0.554394  0.895225  1
  O  O44  1  0.368249  0.115967  0.973315  1
  O  O45  1  0.868249  0.615967  0.526685  1
  O  O46  1  0.380033  0.824676  0.222799  1
  O  O47  1  0.008542  0.762174  0.154285  1
  O  O48  1  0.871659  0.867216  0.536157  1
  O  O49  1  0.038071  0.447893  0.701976  1
  O  O50  1  0.959938  0.955276  0.873438  1
  O  O51  1  0.589169  0.438750  0.179892  1
  O  O52  1  0.910831  0.061250  0.679892  1
  O  O53  1  0.177568  0.243917  0.650570  1
  O  O54  1  0.631751  0.884033  0.026685  1
  O  O55  1  0.961929  0.552107  0.298024  1
  O  O56  1  0.128341  0.132784  0.463843  1
  O  O57  1  0.677568  0.743917  0.849430  1
  O  O58  1  0.628341  0.632784  0.036157  1
  O  O59  1  0.540062  0.544724  0.373438  1
  O  O60  1  0.991458  0.237826  0.845715  1
  O  O61  1  0.471453  0.054394  0.604775  1
  O  O62  1  0.491458  0.737826  0.654285  1
  O  O63  1  0.283477  0.769928  0.904318  1
  O  O64  1  0.040062  0.044724  0.126562  1
  O  O65  1  0.538071  0.947893  0.798024  1
  O  O66  1  0.410831  0.561250  0.820108  1
  O  O67  1  0.322432  0.256083  0.150570  1
