# generated using pymatgen
data_Nd2Si3Rh
_symmetry_space_group_name_H-M   'P 1'
_cell_length_a   8.28546488
_cell_length_b   8.28546488
_cell_length_c   8.34072058
_cell_angle_alpha   90.00000000
_cell_angle_beta   90.00000000
_cell_angle_gamma   119.99999999
_symmetry_Int_Tables_number   1
_chemical_formula_structural   Nd2Si3Rh
_chemical_formula_sum   'Nd8 Si12 Rh4'
_cell_volume   495.87014987
_cell_formula_units_Z   4
loop_
 _symmetry_equiv_pos_site_id
 _symmetry_equiv_pos_as_xyz
  1  'x, y, z'
loop_
 _atom_site_type_symbol
 _atom_site_label
 _atom_site_symmetry_multiplicity
 _atom_site_fract_x
 _atom_site_fract_y
 _atom_site_fract_z
 _atom_site_occupancy
  Si  Si0  1  0.833493  0.166508  0.498301  1
  Si  Si1  1  0.833492  0.666985  0.498301  1
  Si  Si2  1  0.333015  0.166507  0.498301  1
  Si  Si3  1  0.166507  0.333015  0.501699  1
  Si  Si4  1  0.333015  0.166507  0.001699  1
  Si  Si5  1  0.833493  0.166508  0.001699  1
  Si  Si6  1  0.833492  0.666985  0.001699  1
  Si  Si7  1  0.166507  0.333015  0.998301  1
  Si  Si8  1  0.666985  0.833492  0.998301  1
  Si  Si9  1  0.666985  0.833492  0.501699  1
  Si  Si10  1  0.166508  0.833493  0.501699  1
  Si  Si11  1  0.166508  0.833493  0.998301  1
  Rh  Rh12  1  0.666667  0.333333  0.981661  1
  Rh  Rh13  1  0.333333  0.666667  0.018339  1
  Rh  Rh14  1  0.333333  0.666667  0.481661  1
  Rh  Rh15  1  0.666667  0.333333  0.518339  1
  Nd  Nd16  1  0.008372  0.504189  0.750000  1
  Nd  Nd17  1  0.504189  0.008372  0.250000  1
  Nd  Nd18  1  0.504183  0.495811  0.250000  1
  Nd  Nd19  1  0.991628  0.495817  0.250000  1
  Nd  Nd20  1  0.495817  0.991628  0.750000  1
  Nd  Nd21  1  0.495811  0.504183  0.750000  1
  Nd  Nd22  1  0.000000  0.000000  0.750000  1
  Nd  Nd23  1  0.000000  0.000000  0.250000  1
