# generated using pymatgen
data_SiO2
_symmetry_space_group_name_H-M   'P 1'
_cell_length_a   14.15315040
_cell_length_b   14.15314993
_cell_length_c   14.15314964
_cell_angle_alpha   59.99999812
_cell_angle_beta   59.99999921
_cell_angle_gamma   59.99999688
_symmetry_Int_Tables_number   1
_chemical_formula_structural   SiO2
_chemical_formula_sum   'Si34 O68'
_cell_volume   2004.67655155
_cell_formula_units_Z   34
loop_
 _symmetry_equiv_pos_site_id
 _symmetry_equiv_pos_as_xyz
  1  'x, y, z'
loop_
 _atom_site_type_symbol
 _atom_site_label
 _atom_site_symmetry_multiplicity
 _atom_site_fract_x
 _atom_site_fract_y
 _atom_site_fract_z
 _atom_site_occupancy
  Si  Si0  1  0.629217  0.629217  0.235794  1
  Si  Si1  1  0.764206  0.994228  0.370783  1
  Si  Si2  1  0.629217  0.235794  0.629217  1
  Si  Si3  1  0.235794  0.005772  0.629217  1
  Si  Si4  1  0.764206  0.370783  0.994228  1
  Si  Si5  1  0.151780  0.782740  0.782740  1
  Si  Si6  1  0.994228  0.370783  0.370783  1
  Si  Si7  1  0.235794  0.629217  0.005772  1
  Si  Si8  1  0.629217  0.005772  0.235794  1
  Si  Si9  1  0.370783  0.994228  0.370783  1
  Si  Si10  1  0.370783  0.370783  0.994228  1
  Si  Si11  1  0.764206  0.370783  0.370783  1
  Si  Si12  1  0.848220  0.217260  0.217260  1
  Si  Si13  1  0.629217  0.005772  0.629217  1
  Si  Si14  1  0.235794  0.629217  0.629217  1
  Si  Si15  1  0.370783  0.370783  0.764206  1
  Si  Si16  1  0.782740  0.151780  0.782740  1
  Si  Si17  1  0.217260  0.217260  0.848220  1
  Si  Si18  1  0.005772  0.629217  0.629217  1
  Si  Si19  1  0.370783  0.764206  0.994228  1
  Si  Si20  1  0.217260  0.848220  0.217260  1
  Si  Si21  1  0.125000  0.125000  0.125000  1
  Si  Si22  1  0.005772  0.235794  0.629217  1
  Si  Si23  1  0.782740  0.782740  0.151780  1
  Si  Si24  1  0.370783  0.994228  0.764206  1
  Si  Si25  1  0.629217  0.629217  0.005772  1
  Si  Si26  1  0.217260  0.217260  0.217260  1
  Si  Si27  1  0.629217  0.235794  0.005772  1
  Si  Si28  1  0.875000  0.875000  0.875000  1
  Si  Si29  1  0.370783  0.764206  0.370783  1
  Si  Si30  1  0.782740  0.782740  0.782740  1
  Si  Si31  1  0.005772  0.629217  0.235794  1
  Si  Si32  1  0.994228  0.370783  0.764206  1
  Si  Si33  1  0.994228  0.764206  0.370783  1
  O  O34  1  0.374014  0.875986  0.875986  1
  O  O35  1  0.106898  0.294251  0.294251  1
  O  O36  1  0.828905  0.828905  0.828905  1
  O  O37  1  0.893103  0.705749  0.705749  1
  O  O38  1  0.625986  0.124014  0.124014  1
  O  O39  1  0.804600  0.294251  0.294251  1
  O  O40  1  0.705749  0.705749  0.195400  1
  O  O41  1  0.685324  1.000000  0.500000  1
  O  O42  1  0.106898  0.294251  0.804600  1
  O  O43  1  0.171095  0.986715  0.171095  1
  O  O44  1  0.314676  0.500000  1.000000  1
  O  O45  1  0.294251  0.106898  0.804600  1
  O  O46  1  0.804600  0.106898  0.294251  1
  O  O47  1  0.294251  0.804600  0.106898  1
  O  O48  1  0.875986  0.875986  0.374014  1
  O  O49  1  0.294251  0.106898  0.294251  1
  O  O50  1  0.124014  0.625986  0.625986  1
  O  O51  1  0.314676  0.685324  1.000000  1
  O  O52  1  0.294251  0.294251  0.106898  1
  O  O53  1  0.705749  0.893103  0.705749  1
  O  O54  1  0.705749  0.893103  0.195400  1
  O  O55  1  0.171095  0.171095  0.171095  1
  O  O56  1  0.875986  0.374014  0.875986  1
  O  O57  1  0.828905  0.013285  0.828905  1
  O  O58  1  0.106898  0.804600  0.294251  1
  O  O59  1  0.314676  0.000000  0.500000  1
  O  O60  1  0.893103  0.195400  0.705749  1
  O  O61  1  0.314676  0.000000  0.685324  1
  O  O62  1  0.374014  0.374014  0.875986  1
  O  O63  1  0.828905  0.828905  0.013285  1
  O  O64  1  0.294251  0.294251  0.804600  1
  O  O65  1  0.500000  0.000000  0.314676  1
  O  O66  1  0.804600  0.294251  0.106898  1
  O  O67  1  0.195400  0.893103  0.705749  1
  O  O68  1  1.000000  0.685324  0.314676  1
  O  O69  1  0.314676  0.500000  0.685324  1
  O  O70  1  0.124014  0.124014  0.625986  1
  O  O71  1  0.500000  0.314676  0.685324  1
  O  O72  1  0.124014  0.625986  0.124014  1
  O  O73  1  0.705749  0.705749  0.893103  1
  O  O74  1  0.314676  0.685324  0.500000  1
  O  O75  1  0.685324  0.500000  0.000000  1
  O  O76  1  0.705749  0.195400  0.893103  1
  O  O77  1  0.000000  0.314676  0.685324  1
  O  O78  1  0.500000  0.314676  1.000000  1
  O  O79  1  0.893103  0.705749  0.195400  1
  O  O80  1  0.625986  0.124014  0.625986  1
  O  O81  1  0.685324  0.500000  0.314676  1
  O  O82  1  0.625986  0.625986  0.124014  1
  O  O83  1  0.500000  1.000000  0.685324  1
  O  O84  1  0.195400  0.705749  0.893103  1
  O  O85  1  0.685324  0.314676  0.500000  1
  O  O86  1  0.500000  0.685324  0.000000  1
  O  O87  1  0.374014  0.875986  0.374014  1
  O  O88  1  0.000000  0.500000  0.314676  1
  O  O89  1  0.171095  0.171095  0.986715  1
  O  O90  1  0.685324  1.000000  0.314676  1
  O  O91  1  0.500000  0.685324  0.314676  1
  O  O92  1  0.294251  0.804600  0.294251  1
  O  O93  1  1.000000  0.685324  0.500000  1
  O  O94  1  0.013285  0.828905  0.828905  1
  O  O95  1  0.875986  0.374014  0.374014  1
  O  O96  1  0.986715  0.171095  0.171095  1
  O  O97  1  0.195400  0.705749  0.705749  1
  O  O98  1  0.000000  0.314676  0.500000  1
  O  O99  1  0.705749  0.195400  0.705749  1
  O  O100  1  0.685324  0.314676  0.000000  1
  O  O101  1  1.000000  0.500000  0.685324  1
