# generated using pymatgen
data_Fe2PH2CO7
_symmetry_space_group_name_H-M   'P 1'
_cell_length_a   4.86986348
_cell_length_b   8.08013970
_cell_length_c   14.01071907
_cell_angle_alpha   93.64978266
_cell_angle_beta   90.00000000
_cell_angle_gamma   90.00000000
_symmetry_Int_Tables_number   1
_chemical_formula_structural   Fe2PH2CO7
_chemical_formula_sum   'Fe8 P4 H8 C4 O28'
_cell_volume   550.19209762
_cell_formula_units_Z   4
loop_
 _symmetry_equiv_pos_site_id
 _symmetry_equiv_pos_as_xyz
  1  'x, y, z'
loop_
 _atom_site_type_symbol
 _atom_site_label
 _atom_site_symmetry_multiplicity
 _atom_site_fract_x
 _atom_site_fract_y
 _atom_site_fract_z
 _atom_site_occupancy
  Fe  Fe0  1  0.052951  0.791666  0.854870  1
  Fe  Fe1  1  0.552951  0.708334  0.645130  1
  Fe  Fe2  1  0.947049  0.208334  0.145130  1
  Fe  Fe3  1  0.447049  0.291666  0.354870  1
  Fe  Fe4  1  0.531756  0.410365  0.801992  1
  Fe  Fe5  1  0.031756  0.089635  0.698008  1
  Fe  Fe6  1  0.468244  0.589635  0.198008  1
  Fe  Fe7  1  0.968244  0.910365  0.301992  1
  P  P8  1  0.978946  0.501462  0.686640  1
  P  P9  1  0.478946  0.998538  0.813360  1
  P  P10  1  0.021054  0.498538  0.313360  1
  P  P11  1  0.521054  0.001462  0.186640  1
  O  O12  1  0.354747  0.956787  0.909832  1
  O  O13  1  0.854747  0.543213  0.590168  1
  O  O14  1  0.645253  0.043213  0.090168  1
  O  O15  1  0.145253  0.456787  0.409832  1
  O  O16  1  0.795990  0.985413  0.808564  1
  O  O17  1  0.295990  0.514587  0.691436  1
  O  O18  1  0.204010  0.014587  0.191436  1
  O  O19  1  0.704010  0.485413  0.308564  1
  O  O20  1  0.845694  0.775944  0.982127  1
  O  O21  1  0.345694  0.724056  0.517873  1
  O  O22  1  0.154306  0.224056  0.017873  1
  O  O23  1  0.654306  0.275944  0.482127  1
  O  O24  1  0.833412  0.627361  0.762782  1
  O  O25  1  0.333412  0.872639  0.737218  1
  O  O26  1  0.166588  0.372639  0.237218  1
  O  O27  1  0.666588  0.127361  0.262782  1
  O  O28  1  0.318428  0.578902  0.903233  1
  O  O29  1  0.818428  0.921098  0.596767  1
  O  O30  1  0.681572  0.421098  0.096767  1
  O  O31  1  0.181572  0.078902  0.403233  1
  O  O32  1  0.883353  0.328153  0.716849  1
  O  O33  1  0.383353  0.171847  0.783151  1
  O  O34  1  0.116647  0.671847  0.283151  1
  O  O35  1  0.616647  0.828153  0.216849  1
  O  O36  1  0.726838  0.364920  0.937170  1
  O  O37  1  0.226838  0.135080  0.562830  1
  O  O38  1  0.273162  0.635080  0.062830  1
  O  O39  1  0.773162  0.864920  0.437170  1
  C  C40  1  0.616173  0.438039  0.009377  1
  C  C41  1  0.116173  0.061961  0.490623  1
  C  C42  1  0.383827  0.561961  0.990623  1
  C  C43  1  0.883827  0.938039  0.509377  1
  H  H44  1  0.754494  0.877608  0.011663  1
  H  H45  1  0.254494  0.622392  0.488337  1
  H  H46  1  0.245506  0.122392  0.988337  1
  H  H47  1  0.745506  0.377608  0.511663  1
  H  H48  1  0.988745  0.742161  0.027591  1
  H  H49  1  0.488745  0.757839  0.472409  1
  H  H50  1  0.011255  0.257839  0.972409  1
  H  H51  1  0.511255  0.242161  0.527591  1
