# generated using pymatgen
data_BaMn4O8
_symmetry_space_group_name_H-M   'P 1'
_cell_length_a   3.16422963
_cell_length_b   7.08524573
_cell_length_c   7.10360805
_cell_angle_alpha   86.90337210
_cell_angle_beta   77.12579217
_cell_angle_gamma   77.09460750
_symmetry_Int_Tables_number   1
_chemical_formula_structural   BaMn4O8
_chemical_formula_sum   'Ba1 Mn4 O8'
_cell_volume   151.33151216
_cell_formula_units_Z   1
loop_
 _symmetry_equiv_pos_site_id
 _symmetry_equiv_pos_as_xyz
  1  'x, y, z'
loop_
 _atom_site_type_symbol
 _atom_site_label
 _atom_site_symmetry_multiplicity
 _atom_site_fract_x
 _atom_site_fract_y
 _atom_site_fract_z
 _atom_site_occupancy
  O  O0  1  0.457567  0.372063  0.712687  1
  O  O1  1  0.542432  0.627937  0.287312  1
  O  O2  1  0.833733  0.708696  0.623875  1
  O  O3  1  0.166268  0.291305  0.376125  1
  O  O4  1  0.849043  0.957336  0.344608  1
  O  O5  1  0.194899  0.655468  0.954790  1
  O  O6  1  0.150955  0.042665  0.655390  1
  O  O7  1  0.805100  0.344533  0.045210  1
  Mn  Mn8  1  0.650767  0.184671  0.513663  1
  Mn  Mn9  1  0.349234  0.815327  0.486337  1
  Mn  Mn10  1  0.163953  0.487734  0.184479  1
  Mn  Mn11  1  0.836053  0.512263  0.815518  1
  Ba  Ba12  1  0.500000  0.000000  0.000000  1
