# generated using pymatgen
data_ZnS
_symmetry_space_group_name_H-M   'P 1'
_cell_length_a   3.85322653
_cell_length_b   3.85322642
_cell_length_c   69.24838077
_cell_angle_alpha   90.00000000
_cell_angle_beta   90.00000000
_cell_angle_gamma   120.00000084
_symmetry_Int_Tables_number   1
_chemical_formula_structural   ZnS
_chemical_formula_sum   'Zn22 S22'
_cell_volume   890.40855139
_cell_formula_units_Z   22
loop_
 _symmetry_equiv_pos_site_id
 _symmetry_equiv_pos_as_xyz
  1  'x, y, z'
loop_
 _atom_site_type_symbol
 _atom_site_label
 _atom_site_symmetry_multiplicity
 _atom_site_fract_x
 _atom_site_fract_y
 _atom_site_fract_z
 _atom_site_occupancy
  Zn  Zn0  1  0.666667  0.333333  0.363601  1
  Zn  Zn1  1  0.666667  0.333333  0.636396  1
  Zn  Zn2  1  0.000000  0.000000  0.818195  1
  Zn  Zn3  1  0.333333  0.666667  0.318169  1
  Zn  Zn4  1  0.333333  0.666667  0.954526  1
  Zn  Zn5  1  0.333333  0.666667  0.045479  1
  Zn  Zn6  1  0.000000  0.000000  0.545468  1
  Zn  Zn7  1  0.000000  0.000000  0.272719  1
  Zn  Zn8  1  0.000000  0.000000  0.136397  1
  Zn  Zn9  1  0.666667  0.333333  0.909093  1
  Zn  Zn10  1  0.333333  0.666667  0.727296  1
  Zn  Zn11  1  0.333333  0.666667  0.590904  1
  Zn  Zn12  1  0.333333  0.666667  0.181821  1
  Zn  Zn13  1  0.000000  0.000000  0.681821  1
  Zn  Zn14  1  0.666667  0.333333  0.090904  1
  Zn  Zn15  1  0.000000  0.000000  0.409095  1
  Zn  Zn16  1  0.666667  0.333333  0.772720  1
  Zn  Zn17  1  0.333333  0.666667  0.454520  1
  Zn  Zn18  1  0.000000  0.000000  0.999995  1
  Zn  Zn19  1  0.666667  0.333333  0.227296  1
  Zn  Zn20  1  0.333333  0.666667  0.863615  1
  Zn  Zn21  1  0.666667  0.333333  0.499999  1
  S  S22  1  0.333333  0.666667  0.761378  1
  S  S23  1  0.333333  0.666667  0.079536  1
  S  S24  1  0.666667  0.333333  0.534093  1
  S  S25  1  0.000000  0.000000  0.306798  1
  S  S26  1  0.333333  0.666667  0.988580  1
  S  S27  1  0.333333  0.666667  0.488606  1
  S  S28  1  0.666667  0.333333  0.943202  1
  S  S29  1  0.666667  0.333333  0.261378  1
  S  S30  1  0.666667  0.333333  0.125001  1
  S  S31  1  0.000000  0.000000  0.170475  1
  S  S32  1  0.666667  0.333333  0.670473  1
  S  S33  1  0.666667  0.333333  0.397699  1
  S  S34  1  0.333333  0.666667  0.897681  1
  S  S35  1  0.333333  0.666667  0.352238  1
  S  S36  1  0.000000  0.000000  0.579536  1
  S  S37  1  0.333333  0.666667  0.215907  1
  S  S38  1  0.000000  0.000000  0.443178  1
  S  S39  1  0.000000  0.000000  0.715908  1
  S  S40  1  0.000000  0.000000  0.852277  1
  S  S41  1  0.000000  0.000000  0.034117  1
  S  S42  1  0.666667  0.333333  0.806806  1
  S  S43  1  0.333333  0.666667  0.625001  1
