# generated using pymatgen
data_Li11La12Fe3O28
_symmetry_space_group_name_H-M   'P 1'
_cell_length_a   7.53197439
_cell_length_b   13.30443880
_cell_length_c   13.30443880
_cell_angle_alpha   90.00000000
_cell_angle_beta   90.00000000
_cell_angle_gamma   90.00000000
_symmetry_Int_Tables_number   1
_chemical_formula_structural   Li11La12Fe3O28
_chemical_formula_sum   'Li22 La24 Fe6 O56'
_cell_volume   1333.22041413
_cell_formula_units_Z   2
loop_
 _symmetry_equiv_pos_site_id
 _symmetry_equiv_pos_as_xyz
  1  'x, y, z'
loop_
 _atom_site_type_symbol
 _atom_site_label
 _atom_site_symmetry_multiplicity
 _atom_site_fract_x
 _atom_site_fract_y
 _atom_site_fract_z
 _atom_site_occupancy
  Li  Li0  1  0.500000  0.120951  0.379049  1
  Li  Li1  1  0.157204  0.597858  0.097858  1
  Li  Li2  1  0.842796  0.402142  0.902142  1
  Li  Li3  1  0.349776  0.076710  0.576710  1
  Li  Li4  1  0.650224  0.423290  0.076710  1
  Li  Li5  1  0.500000  0.879049  0.620951  1
  Li  Li6  1  0.842796  0.902142  0.597858  1
  Li  Li7  1  0.349776  0.576710  0.923290  1
  Li  Li8  1  0.500000  0.000000  0.000000  1
  Li  Li9  1  0.650224  0.576710  0.923290  1
  Li  Li10  1  0.157204  0.097858  0.402142  1
  Li  Li11  1  0.650224  0.076710  0.576710  1
  Li  Li12  1  0.842796  0.597858  0.097858  1
  Li  Li13  1  0.500000  0.500000  0.500000  1
  Li  Li14  1  0.650224  0.923290  0.423290  1
  Li  Li15  1  0.842796  0.097858  0.402142  1
  Li  Li16  1  0.157204  0.902142  0.597858  1
  Li  Li17  1  0.349776  0.423290  0.076710  1
  Li  Li18  1  0.157204  0.402142  0.902142  1
  Li  Li19  1  0.500000  0.620951  0.120951  1
  Li  Li20  1  0.349776  0.923290  0.423290  1
  Li  Li21  1  0.500000  0.379049  0.879049  1
  La  La22  1  0.259684  0.009160  0.199685  1
  La  La23  1  0.259684  0.699685  0.509160  1
  La  La24  1  0.500000  0.721796  0.778204  1
  La  La25  1  0.740316  0.800315  0.009160  1
  La  La26  1  0.740316  0.009160  0.199685  1
  La  La27  1  0.740316  0.199685  0.990840  1
  La  La28  1  0.259684  0.509160  0.300315  1
  La  La29  1  0.259684  0.300315  0.490840  1
  La  La30  1  0.740316  0.990840  0.800315  1
  La  La31  1  0.000000  0.759341  0.740659  1
  La  La32  1  0.000000  0.259341  0.759341  1
  La  La33  1  0.000000  0.240659  0.259341  1
  La  La34  1  0.740316  0.490840  0.699685  1
  La  La35  1  0.500000  0.778204  0.278204  1
  La  La36  1  0.259684  0.199685  0.990840  1
  La  La37  1  0.500000  0.221796  0.721796  1
  La  La38  1  0.259684  0.490840  0.699685  1
  La  La39  1  0.740316  0.699685  0.509160  1
  La  La40  1  0.000000  0.740659  0.240659  1
  La  La41  1  0.740316  0.300315  0.490840  1
  La  La42  1  0.500000  0.278204  0.221796  1
  La  La43  1  0.740316  0.509160  0.300315  1
  La  La44  1  0.259684  0.990840  0.800315  1
  La  La45  1  0.259684  0.800315  0.009160  1
  Fe  Fe46  1  0.000000  0.914179  0.414179  1
  Fe  Fe47  1  0.000000  0.585821  0.914179  1
  Fe  Fe48  1  0.000000  0.414179  0.085821  1
  Fe  Fe49  1  0.000000  0.000000  0.000000  1
  Fe  Fe50  1  0.000000  0.085821  0.585821  1
  Fe  Fe51  1  0.000000  0.500000  0.500000  1
  O  O52  1  0.000000  0.120618  0.108159  1
  O  O53  1  0.500000  0.620751  0.622106  1
  O  O54  1  0.712320  0.816549  0.683451  1
  O  O55  1  0.500000  0.181084  0.516529  1
  O  O56  1  0.747672  0.000000  0.000000  1
  O  O57  1  0.500000  0.318916  0.016529  1
  O  O58  1  0.287680  0.816549  0.683451  1
  O  O59  1  0.000000  0.970583  0.689937  1
  O  O60  1  0.000000  0.689937  0.029417  1
  O  O61  1  0.000000  0.608159  0.620618  1
  O  O62  1  0.187332  0.000000  0.500000  1
  O  O63  1  0.802857  0.341101  0.158899  1
  O  O64  1  0.187332  0.500000  0.000000  1
  O  O65  1  0.000000  0.379382  0.608159  1
  O  O66  1  0.500000  0.377894  0.620751  1
  O  O67  1  0.197143  0.658899  0.841101  1
  O  O68  1  0.000000  0.189937  0.470583  1
  O  O69  1  0.000000  0.620618  0.391841  1
  O  O70  1  0.500000  0.818916  0.483471  1
  O  O71  1  0.500000  0.983471  0.318916  1
  O  O72  1  0.500000  0.879249  0.122106  1
  O  O73  1  0.500000  0.483471  0.181084  1
  O  O74  1  0.802857  0.158899  0.658899  1
  O  O75  1  0.197143  0.841101  0.341101  1
  O  O76  1  0.287680  0.183451  0.316549  1
  O  O77  1  0.712320  0.683451  0.183451  1
  O  O78  1  0.712320  0.183451  0.316549  1
  O  O79  1  0.287680  0.316549  0.816549  1
  O  O80  1  0.000000  0.310063  0.970583  1
  O  O81  1  0.712320  0.316549  0.816549  1
  O  O82  1  0.500000  0.120751  0.877894  1
  O  O83  1  0.500000  0.681084  0.983471  1
  O  O84  1  0.197143  0.158899  0.658899  1
  O  O85  1  0.747672  0.500000  0.500000  1
  O  O86  1  0.000000  0.391841  0.379382  1
  O  O87  1  0.252328  0.000000  0.000000  1
  O  O88  1  0.000000  0.529417  0.189937  1
  O  O89  1  0.500000  0.016529  0.681084  1
  O  O90  1  0.000000  0.879382  0.891841  1
  O  O91  1  0.500000  0.122106  0.120751  1
  O  O92  1  0.802857  0.841101  0.341101  1
  O  O93  1  0.812668  0.500000  0.000000  1
  O  O94  1  0.000000  0.029417  0.310063  1
  O  O95  1  0.500000  0.379249  0.377894  1
  O  O96  1  0.252328  0.500000  0.500000  1
  O  O97  1  0.197143  0.341101  0.158899  1
  O  O98  1  0.500000  0.877894  0.879249  1
  O  O99  1  0.802857  0.658899  0.841101  1
  O  O100  1  0.000000  0.810063  0.529417  1
  O  O101  1  0.500000  0.516529  0.818916  1
  O  O102  1  0.000000  0.891841  0.120618  1
  O  O103  1  0.500000  0.622106  0.379249  1
  O  O104  1  0.000000  0.108159  0.879382  1
  O  O105  1  0.287680  0.683451  0.183451  1
  O  O106  1  0.000000  0.470583  0.810063  1
  O  O107  1  0.812668  0.000000  0.500000  1
