# generated using pymatgen
data_La3(BN2)2
_symmetry_space_group_name_H-M   'P 1'
_cell_length_a   3.64125973
_cell_length_b   6.41829550
_cell_length_c   6.62217058
_cell_angle_alpha   118.98590818
_cell_angle_beta   105.95595987
_cell_angle_gamma   90.00016217
_symmetry_Int_Tables_number   1
_chemical_formula_structural   La3(BN2)2
_chemical_formula_sum   'La3 B2 N4'
_cell_volume   128.51973387
_cell_formula_units_Z   1
loop_
 _symmetry_equiv_pos_site_id
 _symmetry_equiv_pos_as_xyz
  1  'x, y, z'
loop_
 _atom_site_type_symbol
 _atom_site_label
 _atom_site_symmetry_multiplicity
 _atom_site_fract_x
 _atom_site_fract_y
 _atom_site_fract_z
 _atom_site_occupancy
  La  La0  1  0.200761  0.700770  0.401540  1
  La  La1  1  0.000000  0.000000  0.000000  1
  La  La2  1  0.799239  0.299230  0.598460  1
  B  B3  1  0.499997  0.357474  0.999994  1
  B  B4  1  0.500003  0.642526  0.000006  1
  N  N5  1  0.617531  0.362517  0.235039  1
  N  N6  1  0.382480  0.127472  0.764955  1
  N  N7  1  0.382469  0.637483  0.764961  1
  N  N8  1  0.617520  0.872528  0.235045  1
