# generated using pymatgen
data_Sb5IO7
_symmetry_space_group_name_H-M   'P 1'
_cell_length_a   6.94938337
_cell_length_b   11.81461490
_cell_length_c   13.12612029
_cell_angle_alpha   90.00000000
_cell_angle_beta   90.00000000
_cell_angle_gamma   88.89002895
_symmetry_Int_Tables_number   1
_chemical_formula_structural   Sb5IO7
_chemical_formula_sum   'Sb20 I4 O28'
_cell_volume   1077.50853804
_cell_formula_units_Z   4
loop_
 _symmetry_equiv_pos_site_id
 _symmetry_equiv_pos_as_xyz
  1  'x, y, z'
loop_
 _atom_site_type_symbol
 _atom_site_label
 _atom_site_symmetry_multiplicity
 _atom_site_fract_x
 _atom_site_fract_y
 _atom_site_fract_z
 _atom_site_occupancy
  Sb  Sb0  1  0.743535  0.075137  0.445728  1
  Sb  Sb1  1  0.396186  0.065515  0.241293  1
  Sb  Sb2  1  0.049214  0.092755  0.736072  1
  Sb  Sb3  1  0.909933  0.258979  0.241677  1
  Sb  Sb4  1  0.243535  0.575137  0.054272  1
  Sb  Sb5  1  0.246020  0.918888  0.943071  1
  Sb  Sb6  1  0.753980  0.081112  0.056929  1
  Sb  Sb7  1  0.450786  0.407245  0.236072  1
  Sb  Sb8  1  0.756465  0.424863  0.945728  1
  Sb  Sb9  1  0.590067  0.241021  0.741677  1
  Sb  Sb10  1  0.549214  0.592755  0.763928  1
  Sb  Sb11  1  0.603814  0.934485  0.758707  1
  Sb  Sb12  1  0.896186  0.565515  0.258707  1
  Sb  Sb13  1  0.253980  0.581112  0.443071  1
  Sb  Sb14  1  0.090067  0.741021  0.758323  1
  Sb  Sb15  1  0.950786  0.907245  0.263928  1
  Sb  Sb16  1  0.256465  0.924863  0.554272  1
  Sb  Sb17  1  0.103814  0.434485  0.741293  1
  Sb  Sb18  1  0.409933  0.758979  0.258323  1
  Sb  Sb19  1  0.746020  0.418888  0.556929  1
  I  I20  1  0.808339  0.756238  0.004741  1
  I  I21  1  0.308339  0.256238  0.495259  1
  I  I22  1  0.191661  0.243762  0.995259  1
  I  I23  1  0.691661  0.743762  0.504741  1
  O  O24  1  0.401914  0.003106  0.668361  1
  O  O25  1  0.237368  0.782758  0.634979  1
  O  O26  1  0.301077  0.778713  0.857484  1
  O  O27  1  0.252586  0.913931  0.249996  1
  O  O28  1  0.762632  0.217242  0.365021  1
  O  O29  1  0.942300  0.042333  0.171516  1
  O  O30  1  0.971471  0.496311  0.619253  1
  O  O31  1  0.901914  0.503106  0.831639  1
  O  O32  1  0.801077  0.278713  0.642516  1
  O  O33  1  0.737368  0.282758  0.865021  1
  O  O34  1  0.752586  0.413931  0.250004  1
  O  O35  1  0.698923  0.221287  0.142516  1
  O  O36  1  0.262632  0.717242  0.134979  1
  O  O37  1  0.516340  0.495886  0.886037  1
  O  O38  1  0.747414  0.086069  0.750004  1
  O  O39  1  0.028529  0.503689  0.380747  1
  O  O40  1  0.057700  0.957667  0.828484  1
  O  O41  1  0.598086  0.996894  0.331639  1
  O  O42  1  0.247414  0.586069  0.749996  1
  O  O43  1  0.471471  0.996311  0.880747  1
  O  O44  1  0.198923  0.721287  0.357484  1
  O  O45  1  0.557700  0.457667  0.671516  1
  O  O46  1  0.483660  0.504114  0.113963  1
  O  O47  1  0.098086  0.496894  0.168361  1
  O  O48  1  0.442300  0.542333  0.328484  1
  O  O49  1  0.528529  0.003689  0.119253  1
  O  O50  1  0.983660  0.004114  0.386037  1
  O  O51  1  0.016340  0.995886  0.613963  1
