# generated using pymatgen
data_K2Li14Pb3O14
_symmetry_space_group_name_H-M   'P 1'
_cell_length_a   7.36035077
_cell_length_b   8.10771062
_cell_length_c   8.49039429
_cell_angle_alpha   118.51988732
_cell_angle_beta   115.68680935
_cell_angle_gamma   90.00000092
_symmetry_Int_Tables_number   1
_chemical_formula_structural   K2Li14Pb3O14
_chemical_formula_sum   'K2 Li14 Pb3 O14'
_cell_volume   387.24522288
_cell_formula_units_Z   1
loop_
 _symmetry_equiv_pos_site_id
 _symmetry_equiv_pos_as_xyz
  1  'x, y, z'
loop_
 _atom_site_type_symbol
 _atom_site_label
 _atom_site_symmetry_multiplicity
 _atom_site_fract_x
 _atom_site_fract_y
 _atom_site_fract_z
 _atom_site_occupancy
  Pb  Pb0  1  0.727445  0.727445  0.454891  1
  Pb  Pb1  1  0.272555  0.272555  0.545109  1
  Pb  Pb2  1  0.000000  0.000000  0.000000  1
  K  K3  1  0.246734  0.500000  0.000000  1
  K  K4  1  0.753266  0.500000  1.000000  1
  Li  Li5  1  0.500000  0.841516  0.000000  1
  Li  Li6  1  0.500000  0.158484  1.000000  1
  Li  Li7  1  0.771102  0.416581  0.542203  1
  Li  Li8  1  0.228898  0.583419  0.457797  1
  Li  Li9  1  0.228898  0.874378  0.457797  1
  Li  Li10  1  0.771102  0.125622  0.542203  1
  Li  Li11  1  0.592999  0.709913  0.731076  1
  Li  Li12  1  0.861923  0.290087  0.268924  1
  Li  Li13  1  0.407001  0.978837  0.268924  1
  Li  Li14  1  0.138077  0.021163  0.731076  1
  Li  Li15  1  0.407001  0.290087  0.268924  1
  Li  Li16  1  0.138077  0.709913  0.731076  1
  Li  Li17  1  0.592999  0.021163  0.731076  1
  Li  Li18  1  0.861923  0.978837  0.268924  1
  O  O19  1  0.040571  0.748090  0.496181  1
  O  O20  1  0.544390  0.251910  0.503819  1
  O  O21  1  0.959429  0.251910  0.503819  1
  O  O22  1  0.455610  0.748090  0.496181  1
  O  O23  1  0.704090  0.000000  1.000000  1
  O  O24  1  0.295910  1.000000  0.000000  1
  O  O25  1  0.872609  0.686964  0.745218  1
  O  O26  1  0.127391  0.313036  0.254782  1
  O  O27  1  0.127391  0.941746  0.254782  1
  O  O28  1  0.872609  0.058255  0.745218  1
  O  O29  1  0.627650  0.411075  0.255301  1
  O  O30  1  0.372350  0.588925  0.744699  1
  O  O31  1  0.372350  0.155774  0.744699  1
  O  O32  1  0.627650  0.844226  0.255301  1
