# generated using pymatgen
data_AsS
_symmetry_space_group_name_H-M   'P 1'
_cell_length_a   7.12719768
_cell_length_b   9.82084483
_cell_length_c   14.70253121
_cell_angle_alpha   90.00000000
_cell_angle_beta   90.00000000
_cell_angle_gamma   106.32197790
_symmetry_Int_Tables_number   1
_chemical_formula_structural   AsS
_chemical_formula_sum   'As16 S16'
_cell_volume   987.62973146
_cell_formula_units_Z   16
loop_
 _symmetry_equiv_pos_site_id
 _symmetry_equiv_pos_as_xyz
  1  'x, y, z'
loop_
 _atom_site_type_symbol
 _atom_site_label
 _atom_site_symmetry_multiplicity
 _atom_site_fract_x
 _atom_site_fract_y
 _atom_site_fract_z
 _atom_site_occupancy
  As  As0  1  0.274724  0.623123  0.485463  1
  As  As1  1  0.158406  0.311184  0.873655  1
  As  As2  1  0.776065  0.460264  0.343430  1
  As  As3  1  0.223935  0.539736  0.656570  1
  As  As4  1  0.341594  0.188816  0.373655  1
  As  As5  1  0.774724  0.123123  0.014537  1
  As  As6  1  0.723935  0.039736  0.843430  1
  As  As7  1  0.276065  0.960264  0.156570  1
  As  As8  1  0.725276  0.376877  0.514537  1
  As  As9  1  0.351984  0.910046  0.637538  1
  As  As10  1  0.658406  0.811184  0.626345  1
  As  As11  1  0.148016  0.589954  0.137538  1
  As  As12  1  0.648016  0.089954  0.362462  1
  As  As13  1  0.851984  0.410046  0.862462  1
  As  As14  1  0.841594  0.688816  0.126345  1
  As  As15  1  0.225276  0.876877  0.985463  1
  S  S16  1  0.348727  0.769956  0.216588  1
  S  S17  1  0.103356  0.213044  0.014068  1
  S  S18  1  0.215094  0.836279  0.500911  1
  S  S19  1  0.038848  0.104818  0.798215  1
  S  S20  1  0.896644  0.786956  0.985932  1
  S  S21  1  0.284906  0.663721  1.000911  1
  S  S22  1  0.715094  0.336279  -0.000911  1
  S  S23  1  0.603356  0.713044  0.485932  1
  S  S24  1  0.848727  0.269956  0.283412  1
  S  S25  1  0.961152  0.895182  0.201785  1
  S  S26  1  0.151273  0.730044  0.716588  1
  S  S27  1  0.538848  0.604818  0.701785  1
  S  S28  1  0.461152  0.395182  0.298215  1
  S  S29  1  0.784906  0.163721  0.499089  1
  S  S30  1  0.396644  0.286956  0.514068  1
  S  S31  1  0.651273  0.230044  0.783412  1
