# generated using pymatgen
data_ScCr2Ag(H2O5)2
_symmetry_space_group_name_H-M   'P 1'
_cell_length_a   5.71643658
_cell_length_b   6.18258304
_cell_length_c   7.31323323
_cell_angle_alpha   110.03740021
_cell_angle_beta   91.54361172
_cell_angle_gamma   116.02019358
_symmetry_Int_Tables_number   1
_chemical_formula_structural   ScCr2Ag(H2O5)2
_chemical_formula_sum   'Sc1 Cr2 Ag1 H4 O10'
_cell_volume   213.34576821
_cell_formula_units_Z   1
loop_
 _symmetry_equiv_pos_site_id
 _symmetry_equiv_pos_as_xyz
  1  'x, y, z'
loop_
 _atom_site_type_symbol
 _atom_site_label
 _atom_site_symmetry_multiplicity
 _atom_site_fract_x
 _atom_site_fract_y
 _atom_site_fract_z
 _atom_site_occupancy
  Sc  Sc0  1  0.000000  0.000000  0.000000  1
  Cr  Cr1  1  0.636208  0.234259  0.316331  1
  Cr  Cr2  1  0.363792  0.765741  0.683669  1
  Ag  Ag3  1  0.000000  0.000000  0.500000  1
  H  H4  1  0.230941  0.483146  0.957919  1
  H  H5  1  0.723714  0.454435  0.801520  1
  H  H6  1  0.769059  0.516854  0.042081  1
  H  H7  1  0.276286  0.545565  0.198480  1
  O  O8  1  0.826714  0.077157  0.251820  1
  O  O9  1  0.321144  0.041865  0.179515  1
  O  O10  1  0.678856  0.958135  0.820485  1
  O  O11  1  0.774047  0.507704  0.279504  1
  O  O12  1  0.624744  0.301590  0.550276  1
  O  O13  1  0.204557  0.408324  0.060719  1
  O  O14  1  0.795443  0.591676  0.939281  1
  O  O15  1  0.173286  0.922843  0.748180  1
  O  O16  1  0.225953  0.492296  0.720496  1
  O  O17  1  0.375256  0.698410  0.449724  1
