# generated using pymatgen
data_H9C3SeSN2Cl
_symmetry_space_group_name_H-M   'P 1'
_cell_length_a   5.69372002
_cell_length_b   8.30411001
_cell_length_c   9.20845331
_cell_angle_alpha   70.57323252
_cell_angle_beta   81.79354835
_cell_angle_gamma   77.67733802
_symmetry_Int_Tables_number   1
_chemical_formula_structural   H9C3SeSN2Cl
_chemical_formula_sum   'H18 C6 Se2 S2 N4 Cl2'
_cell_volume   399.92148926
_cell_formula_units_Z   2
loop_
 _symmetry_equiv_pos_site_id
 _symmetry_equiv_pos_as_xyz
  1  'x, y, z'
loop_
 _atom_site_type_symbol
 _atom_site_label
 _atom_site_symmetry_multiplicity
 _atom_site_fract_x
 _atom_site_fract_y
 _atom_site_fract_z
 _atom_site_occupancy
  H  H0  1  0.548042  0.045748  0.837455  1
  H  H1  1  0.285897  0.856553  0.067416  1
  H  H2  1  0.630177  0.646763  0.000928  1
  H  H3  1  0.180794  0.092307  0.515327  1
  H  H4  1  0.198025  0.197090  0.306500  1
  H  H5  1  0.801976  0.802911  0.693500  1
  H  H6  1  0.714103  0.143447  0.932584  1
  H  H7  1  0.157973  0.505295  0.867092  1
  H  H8  1  0.141560  0.276023  0.932834  1
  H  H9  1  0.451957  0.954252  0.162545  1
  H  H10  1  0.819206  0.907693  0.484673  1
  H  H11  1  0.813925  0.135276  0.739550  1
  H  H12  1  0.842027  0.494705  0.132908  1
  H  H13  1  0.369823  0.353237  0.999072  1
  H  H14  1  0.186075  0.864723  0.260450  1
  H  H15  1  0.858439  0.723977  0.067166  1
  H  H16  1  0.983884  0.688745  0.566308  1
  H  H17  1  0.016116  0.311255  0.433692  1
  C  C18  1  0.175154  0.215055  0.420194  1
  Se  Se19  1  0.447383  0.310282  0.440390  1
  C  C20  1  0.259915  0.372409  0.903636  1
  C  C21  1  0.824846  0.784945  0.579806  1
  C  C22  1  0.657051  0.145881  0.822323  1
  C  C23  1  0.740085  0.627591  0.096364  1
  C  C24  1  0.342949  0.854119  0.177677  1
  Se  Se25  1  0.552617  0.689718  0.559610  1
  S  S26  1  0.533195  0.650233  0.256340  1
  S  S27  1  0.466805  0.349767  0.743660  1
  N  N28  1  0.705845  0.644607  0.376632  1
  N  N29  1  0.294154  0.355393  0.623368  1
  N  N30  1  0.655665  0.476963  0.700325  1
  N  N31  1  0.344335  0.523036  0.299675  1
  Cl  Cl32  1  0.720365  0.156068  0.204921  1
  Cl  Cl33  1  0.279636  0.843931  0.795079  1
