# generated using pymatgen
data_Rb3Ta2AgSe12
_symmetry_space_group_name_H-M   'P 1'
_cell_length_a   10.03188237
_cell_length_b   14.31293270
_cell_length_c   16.02143674
_cell_angle_alpha   90.00000000
_cell_angle_beta   95.36858844
_cell_angle_gamma   90.00000000
_symmetry_Int_Tables_number   1
_chemical_formula_structural   Rb3Ta2AgSe12
_chemical_formula_sum   'Rb12 Ta8 Ag4 Se48'
_cell_volume   2290.35739559
_cell_formula_units_Z   4
loop_
 _symmetry_equiv_pos_site_id
 _symmetry_equiv_pos_as_xyz
  1  'x, y, z'
loop_
 _atom_site_type_symbol
 _atom_site_label
 _atom_site_symmetry_multiplicity
 _atom_site_fract_x
 _atom_site_fract_y
 _atom_site_fract_z
 _atom_site_occupancy
  Rb  Rb0  1  0.926479  0.585229  0.276743  1
  Rb  Rb1  1  0.426479  0.914771  0.776743  1
  Rb  Rb2  1  0.073521  0.414771  0.723257  1
  Rb  Rb3  1  0.573521  0.085229  0.223257  1
  Rb  Rb4  1  0.774357  0.914674  0.494764  1
  Rb  Rb5  1  0.504787  0.393980  0.342751  1
  Rb  Rb6  1  0.004787  0.106020  0.842751  1
  Rb  Rb7  1  0.725643  0.414674  0.005236  1
  Rb  Rb8  1  0.495213  0.606020  0.657249  1
  Rb  Rb9  1  0.995213  0.893980  0.157249  1
  Rb  Rb10  1  0.225643  0.085326  0.505236  1
  Rb  Rb11  1  0.274357  0.585326  0.994764  1
  Ta  Ta12  1  0.013047  0.778649  0.727301  1
  Ta  Ta13  1  0.513047  0.721351  0.227301  1
  Ta  Ta14  1  0.657936  0.221735  0.580313  1
  Ta  Ta15  1  0.986953  0.221351  0.272699  1
  Ta  Ta16  1  0.157936  0.278265  0.080313  1
  Ta  Ta17  1  0.842064  0.721735  0.919687  1
  Ta  Ta18  1  0.486953  0.278649  0.772699  1
  Ta  Ta19  1  0.342064  0.778265  0.419687  1
  Ag  Ag20  1  0.698653  0.673194  0.080813  1
  Ag  Ag21  1  0.301347  0.326806  0.919187  1
  Ag  Ag22  1  0.198653  0.826806  0.580813  1
  Ag  Ag23  1  0.801347  0.173194  0.419187  1
  Se  Se24  1  0.231588  0.183828  0.242269  1
  Se  Se25  1  0.806096  0.724288  0.634683  1
  Se  Se26  1  0.730640  0.787267  0.304243  1
  Se  Se27  1  0.269360  0.212733  0.695757  1
  Se  Se28  1  0.474731  0.884473  0.325416  1
  Se  Se29  1  0.525269  0.115527  0.674584  1
  Se  Se30  1  0.453064  0.333393  0.608490  1
  Se  Se31  1  0.731588  0.316172  0.742269  1
  Se  Se32  1  0.240227  0.924208  0.339990  1
  Se  Se33  1  0.306096  0.775712  0.134683  1
  Se  Se34  1  0.447336  0.836717  0.553877  1
  Se  Se35  1  0.230640  0.712733  0.804243  1
  Se  Se36  1  0.986606  0.372896  0.502187  1
  Se  Se37  1  0.193904  0.275712  0.365317  1
  Se  Se38  1  0.927273  0.065908  0.324199  1
  Se  Se39  1  0.768412  0.816172  0.757731  1
  Se  Se40  1  0.693904  0.224288  0.865317  1
  Se  Se41  1  0.046936  0.833393  0.891510  1
  Se  Se42  1  0.079511  0.768501  0.428145  1
  Se  Se43  1  0.572727  0.565908  0.175801  1
  Se  Se44  1  0.974731  0.615527  0.825416  1
  Se  Se45  1  0.552664  0.163283  0.446123  1
  Se  Se46  1  0.013394  0.627104  0.497813  1
  Se  Se47  1  0.513394  0.872896  0.997813  1
  Se  Se48  1  0.162196  0.098794  0.063996  1
  Se  Se49  1  0.740227  0.575792  0.839990  1
  Se  Se50  1  0.420489  0.268501  0.071855  1
  Se  Se51  1  0.025269  0.384473  0.174584  1
  Se  Se52  1  0.072727  0.934092  0.675801  1
  Se  Se53  1  0.633816  0.849082  0.140252  1
  Se  Se54  1  0.837804  0.901206  0.936004  1
  Se  Se55  1  0.546936  0.666607  0.391510  1
  Se  Se56  1  0.579511  0.731499  0.928145  1
  Se  Se57  1  0.427273  0.434092  0.824199  1
  Se  Se58  1  0.947336  0.663283  0.053877  1
  Se  Se59  1  0.337804  0.598794  0.436004  1
  Se  Se60  1  0.133816  0.650918  0.640252  1
  Se  Se61  1  0.486606  0.127104  0.002187  1
  Se  Se62  1  0.866184  0.349082  0.359748  1
  Se  Se63  1  0.920489  0.231499  0.571855  1
  Se  Se64  1  0.953064  0.166607  0.108490  1
  Se  Se65  1  0.259773  0.424208  0.160010  1
  Se  Se66  1  0.759773  0.075792  0.660010  1
  Se  Se67  1  0.662196  0.401206  0.563996  1
  Se  Se68  1  0.769360  0.287267  0.195757  1
  Se  Se69  1  0.052664  0.336717  0.946123  1
  Se  Se70  1  0.366184  0.150918  0.859748  1
  Se  Se71  1  0.268412  0.683828  0.257731  1
