# generated using pymatgen
data_Cs2NaAu3(CN)6
_symmetry_space_group_name_H-M   'P 1'
_cell_length_a   7.30770802
_cell_length_b   7.30770806
_cell_length_c   18.41846078
_cell_angle_alpha   90.00000000
_cell_angle_beta   90.00000000
_cell_angle_gamma   119.99999980
_symmetry_Int_Tables_number   1
_chemical_formula_structural   Cs2NaAu3(CN)6
_chemical_formula_sum   'Cs4 Na2 Au6 C12 N12'
_cell_volume   851.81707686
_cell_formula_units_Z   2
loop_
 _symmetry_equiv_pos_site_id
 _symmetry_equiv_pos_as_xyz
  1  'x, y, z'
loop_
 _atom_site_type_symbol
 _atom_site_label
 _atom_site_symmetry_multiplicity
 _atom_site_fract_x
 _atom_site_fract_y
 _atom_site_fract_z
 _atom_site_occupancy
  Cs  Cs0  1  0.666667  0.333333  0.445460  1
  Cs  Cs1  1  0.333333  0.666667  0.554540  1
  Cs  Cs2  1  0.666667  0.333333  0.054540  1
  Cs  Cs3  1  0.333333  0.666667  0.945460  1
  Na  Na4  1  0.000000  0.000000  0.500000  1
  Na  Na5  1  0.000000  0.000000  0.000000  1
  Au  Au6  1  0.651694  0.825847  0.250000  1
  Au  Au7  1  0.825847  0.174153  0.750000  1
  Au  Au8  1  0.174153  0.825847  0.250000  1
  Au  Au9  1  0.825847  0.651694  0.750000  1
  Au  Au10  1  0.174153  0.348306  0.250000  1
  Au  Au11  1  0.348306  0.174153  0.750000  1
  C  C12  1  0.830258  0.660516  0.641945  1
  C  C13  1  0.339484  0.169742  0.858055  1
  C  C14  1  0.830258  0.169742  0.641945  1
  C  C15  1  0.169742  0.830258  0.141945  1
  C  C16  1  0.169742  0.339484  0.358055  1
  C  C17  1  0.660516  0.830258  0.358055  1
  C  C18  1  0.169742  0.339484  0.141945  1
  C  C19  1  0.169742  0.830258  0.358055  1
  C  C20  1  0.830258  0.169742  0.858055  1
  C  C21  1  0.339484  0.169742  0.641945  1
  C  C22  1  0.830258  0.660516  0.858055  1
  C  C23  1  0.660516  0.830258  0.141945  1
  N  N24  1  0.836530  0.673061  0.578359  1
  N  N25  1  0.163470  0.326939  0.078359  1
  N  N26  1  0.326939  0.163470  0.578359  1
  N  N27  1  0.836530  0.163470  0.921641  1
  N  N28  1  0.673061  0.836530  0.421641  1
  N  N29  1  0.836530  0.163470  0.578359  1
  N  N30  1  0.326939  0.163470  0.921641  1
  N  N31  1  0.163470  0.836530  0.421641  1
  N  N32  1  0.673061  0.836530  0.078359  1
  N  N33  1  0.163470  0.326939  0.421641  1
  N  N34  1  0.163470  0.836530  0.078359  1
  N  N35  1  0.836530  0.673061  0.921641  1
