# generated using pymatgen
data_CaAlH5
_symmetry_space_group_name_H-M   'P 1'
_cell_length_a   4.75862886
_cell_length_b   4.56193403
_cell_length_c   12.30203300
_cell_angle_alpha   90.00000000
_cell_angle_beta   90.00000000
_cell_angle_gamma   90.00000000
_symmetry_Int_Tables_number   1
_chemical_formula_structural   CaAlH5
_chemical_formula_sum   'Ca4 Al4 H20'
_cell_volume   267.05930995
_cell_formula_units_Z   4
loop_
 _symmetry_equiv_pos_site_id
 _symmetry_equiv_pos_as_xyz
  1  'x, y, z'
loop_
 _atom_site_type_symbol
 _atom_site_label
 _atom_site_symmetry_multiplicity
 _atom_site_fract_x
 _atom_site_fract_y
 _atom_site_fract_z
 _atom_site_occupancy
  Ca  Ca0  1  0.551332  0.463607  0.898290  1
  Ca  Ca1  1  0.448668  0.963607  0.601710  1
  Ca  Ca2  1  0.051332  0.036393  0.101710  1
  Ca  Ca3  1  0.948668  0.536393  0.398290  1
  Al  Al4  1  0.431441  0.001719  0.342284  1
  Al  Al5  1  0.068559  0.998281  0.842284  1
  Al  Al6  1  0.931441  0.498281  0.657716  1
  Al  Al7  1  0.568559  0.501719  0.157716  1
  H  H8  1  0.636451  0.630023  0.719277  1
  H  H9  1  0.448993  0.688393  0.426520  1
  H  H10  1  0.878291  0.174491  0.734922  1
  H  H11  1  0.253559  0.414920  0.611829  1
  H  H12  1  0.742737  0.668120  0.055053  1
  H  H13  1  0.246441  0.585080  0.111829  1
  H  H14  1  0.121709  0.674491  0.765078  1
  H  H15  1  0.753559  0.085080  0.388171  1
  H  H16  1  0.551007  0.188393  0.073480  1
  H  H17  1  0.863549  0.369977  0.219277  1
  H  H18  1  0.378291  0.325509  0.265078  1
  H  H19  1  0.136451  0.869977  0.280723  1
  H  H20  1  0.242737  0.831880  0.944947  1
  H  H21  1  0.257263  0.168120  0.444947  1
  H  H22  1  0.757263  0.331880  0.555053  1
  H  H23  1  0.051007  0.311607  0.926520  1
  H  H24  1  0.363549  0.130023  0.780723  1
  H  H25  1  0.948993  0.811607  0.573480  1
  H  H26  1  0.621709  0.825509  0.234922  1
  H  H27  1  0.746441  0.914920  0.888171  1
