# generated using pymatgen
data_VO2
_symmetry_space_group_name_H-M   'P 1'
_cell_length_a   3.75343268
_cell_length_b   6.46842242
_cell_length_c   6.47115583
_cell_angle_alpha   105.86163881
_cell_angle_beta   90.06327034
_cell_angle_gamma   73.18798236
_symmetry_Int_Tables_number   1
_chemical_formula_structural   VO2
_chemical_formula_sum   'V4 O8'
_cell_volume   144.15098706
_cell_formula_units_Z   4
loop_
 _symmetry_equiv_pos_site_id
 _symmetry_equiv_pos_as_xyz
  1  'x, y, z'
loop_
 _atom_site_type_symbol
 _atom_site_label
 _atom_site_symmetry_multiplicity
 _atom_site_fract_x
 _atom_site_fract_y
 _atom_site_fract_z
 _atom_site_occupancy
  V  V0  1  0.697328  0.604445  0.722470  1
  V  V1  1  0.300316  0.393425  0.275092  1
  V  V2  1  0.399280  0.199989  0.684739  1
  V  V3  1  0.597326  0.797978  0.313078  1
  O  O4  1  0.438755  0.115443  0.367380  1
  O  O5  1  0.558864  0.882515  0.630359  1
  O  O6  1  0.358238  0.277946  0.004396  1
  O  O7  1  0.639223  0.719980  0.993587  1
  O  O8  1  0.132450  0.731813  0.298472  1
  O  O9  1  0.865157  0.266234  0.699306  1
  O  O10  1  0.238237  0.521470  0.647083  1
  O  O11  1  0.759316  0.476557  0.350655  1
