# generated using pymatgen
data_Ca3SiBr2
_symmetry_space_group_name_H-M   'P 1'
_cell_length_a   12.60239406
_cell_length_b   12.60239417
_cell_length_c   12.60239375
_cell_angle_alpha   20.56104247
_cell_angle_beta   20.56104131
_cell_angle_gamma   20.56104191
_symmetry_Int_Tables_number   1
_chemical_formula_structural   Ca3SiBr2
_chemical_formula_sum   'Ca3 Si1 Br2'
_cell_volume   216.09554594
_cell_formula_units_Z   1
loop_
 _symmetry_equiv_pos_site_id
 _symmetry_equiv_pos_as_xyz
  1  'x, y, z'
loop_
 _atom_site_type_symbol
 _atom_site_label
 _atom_site_symmetry_multiplicity
 _atom_site_fract_x
 _atom_site_fract_y
 _atom_site_fract_z
 _atom_site_occupancy
  Ca  Ca0  1  0.131763  0.131763  0.131763  1
  Ca  Ca1  1  0.000000  0.000000  0.000000  1
  Ca  Ca2  1  0.868237  0.868237  0.868237  1
  Si  Si3  1  0.500000  0.500000  0.500000  1
  Br  Br4  1  0.707221  0.707221  0.707221  1
  Br  Br5  1  0.292779  0.292779  0.292779  1
