# generated using pymatgen
data_Ho3Ge5
_symmetry_space_group_name_H-M   'P 1'
_cell_length_a   5.75987849
_cell_length_b   7.46484195
_cell_length_c   9.11463798
_cell_angle_alpha   82.99844781
_cell_angle_beta   71.58109194
_cell_angle_gamma   67.30646866
_symmetry_Int_Tables_number   1
_chemical_formula_structural   Ho3Ge5
_chemical_formula_sum   'Ho6 Ge10'
_cell_volume   343.03619000
_cell_formula_units_Z   2
loop_
 _symmetry_equiv_pos_site_id
 _symmetry_equiv_pos_as_xyz
  1  'x, y, z'
loop_
 _atom_site_type_symbol
 _atom_site_label
 _atom_site_symmetry_multiplicity
 _atom_site_fract_x
 _atom_site_fract_y
 _atom_site_fract_z
 _atom_site_occupancy
  Ho  Ho0  1  0.000976  0.998089  -0.000006  1
  Ho  Ho1  1  0.250968  0.498090  0.499994  1
  Ho  Ho2  1  0.577417  0.482648  0.837106  1
  Ho  Ho3  1  0.939943  0.482645  0.162899  1
  Ho  Ho4  1  0.352831  0.982656  0.337100  1
  Ho  Ho5  1  0.664527  0.982664  0.662894  1
  Ge  Ge6  1  0.453515  0.093049  0.999981  1
  Ge  Ge7  1  0.703472  0.593045  0.500023  1
  Ge  Ge8  1  0.912461  0.689397  0.868623  1
  Ge  Ge9  1  0.398135  0.689368  0.131387  1
  Ge  Ge10  1  0.779541  0.189382  0.368587  1
  Ge  Ge11  1  0.031064  0.189409  0.631384  1
  Ge  Ge12  1  0.179375  0.322696  0.826530  1
  Ge  Ge13  1  0.497879  0.322684  0.173501  1
  Ge  Ge14  1  0.921385  0.822672  0.326524  1
  Ge  Ge15  1  0.255913  0.822706  0.673473  1
