# generated using pymatgen
data_Ba11Bi10
_symmetry_space_group_name_H-M   'P 1'
_cell_length_a   13.47771035
_cell_length_b   13.47770978
_cell_length_c   13.73820936
_cell_angle_alpha   119.37471083
_cell_angle_beta   119.37470941
_cell_angle_gamma   90.00000044
_symmetry_Int_Tables_number   1
_chemical_formula_structural   Ba11Bi10
_chemical_formula_sum   'Ba22 Bi20'
_cell_volume   1797.44147775
_cell_formula_units_Z   2
loop_
 _symmetry_equiv_pos_site_id
 _symmetry_equiv_pos_as_xyz
  1  'x, y, z'
loop_
 _atom_site_type_symbol
 _atom_site_label
 _atom_site_symmetry_multiplicity
 _atom_site_fract_x
 _atom_site_fract_y
 _atom_site_fract_z
 _atom_site_occupancy
  Bi  Bi0  1  0.750000  0.250000  0.500000  1
  Bi  Bi1  1  0.250000  0.750000  0.500000  1
  Bi  Bi2  1  0.118907  0.118907  0.237814  1
  Bi  Bi3  1  0.881093  0.881093  0.762186  1
  Bi  Bi4  1  0.531460  0.531460  0.642059  1
  Bi  Bi5  1  0.110599  0.531460  0.642059  1
  Bi  Bi6  1  0.531460  0.110599  0.642059  1
  Bi  Bi7  1  0.889401  0.468540  0.357941  1
  Bi  Bi8  1  0.468540  0.889401  0.357941  1
  Bi  Bi9  1  0.889401  0.889401  0.357941  1
  Bi  Bi10  1  0.468540  0.468540  0.357941  1
  Bi  Bi11  1  0.110599  0.110599  0.642059  1
  Bi  Bi12  1  0.357272  1.000000  1.000000  1
  Bi  Bi13  1  0.000000  0.357272  0.000000  1
  Bi  Bi14  1  0.000000  0.642728  0.000000  1
  Bi  Bi15  1  0.642728  0.000000  0.000000  1
  Bi  Bi16  1  0.620103  0.620103  0.000000  1
  Bi  Bi17  1  0.379897  0.620103  1.000000  1
  Bi  Bi18  1  0.620103  0.379897  0.000000  1
  Bi  Bi19  1  0.379897  0.379897  1.000000  1
  Ba  Ba20  1  0.441483  0.191273  0.382546  1
  Ba  Ba21  1  0.191273  0.441483  0.382546  1
  Ba  Ba22  1  0.191273  0.941063  0.382546  1
  Ba  Ba23  1  0.058937  0.808727  0.617454  1
  Ba  Ba24  1  0.558517  0.808727  0.617454  1
  Ba  Ba25  1  0.808727  0.058937  0.617454  1
  Ba  Ba26  1  0.808727  0.558517  0.617454  1
  Ba  Ba27  1  0.941063  0.191273  0.382546  1
  Ba  Ba28  1  0.346216  0.346216  0.692432  1
  Ba  Ba29  1  0.653784  0.653784  0.307568  1
  Ba  Ba30  1  0.604439  0.272274  0.208878  1
  Ba  Ba31  1  0.936604  0.604439  0.208878  1
  Ba  Ba32  1  0.272274  0.604439  0.208878  1
  Ba  Ba33  1  0.395561  0.727726  0.791122  1
  Ba  Ba34  1  0.395561  0.063396  0.791122  1
  Ba  Ba35  1  0.063396  0.395561  0.791122  1
  Ba  Ba36  1  0.727726  0.395561  0.791122  1
  Ba  Ba37  1  0.604439  0.936604  0.208878  1
  Ba  Ba38  1  0.167912  0.167912  0.000000  1
  Ba  Ba39  1  0.832088  0.167912  1.000000  1
  Ba  Ba40  1  0.167912  0.832088  0.000000  1
  Ba  Ba41  1  0.832088  0.832088  1.000000  1
