# generated using pymatgen
data_SiB11H10C4F11
_symmetry_space_group_name_H-M   'P 1'
_cell_length_a   7.86210979
_cell_length_b   12.37430923
_cell_length_c   18.49124965
_cell_angle_alpha   103.81371069
_cell_angle_beta   90.00000000
_cell_angle_gamma   90.00000000
_symmetry_Int_Tables_number   1
_chemical_formula_structural   SiB11H10C4F11
_chemical_formula_sum   'Si4 B44 H40 C16 F44'
_cell_volume   1746.94839334
_cell_formula_units_Z   4
loop_
 _symmetry_equiv_pos_site_id
 _symmetry_equiv_pos_as_xyz
  1  'x, y, z'
loop_
 _atom_site_type_symbol
 _atom_site_label
 _atom_site_symmetry_multiplicity
 _atom_site_fract_x
 _atom_site_fract_y
 _atom_site_fract_z
 _atom_site_occupancy
  Si  Si0  1  0.704058  0.726476  0.436070  1
  Si  Si1  1  0.204058  0.273524  0.063930  1
  Si  Si2  1  0.295942  0.273524  0.563930  1
  Si  Si3  1  0.795942  0.726476  0.936070  1
  B  B4  1  0.201869  0.734295  0.129012  1
  B  B5  1  0.524467  0.222513  0.761936  1
  B  B6  1  0.701869  0.265705  0.370988  1
  B  B7  1  0.475533  0.777487  0.238064  1
  B  B8  1  0.831783  0.327368  0.309856  1
  B  B9  1  0.739105  0.186312  0.780566  1
  B  B10  1  0.515258  0.121166  0.889085  1
  B  B11  1  0.267596  0.875779  0.140978  1
  B  B12  1  0.341709  0.774703  0.061251  1
  B  B13  1  0.260895  0.813688  0.219434  1
  B  B14  1  0.446899  0.325710  0.839740  1
  B  B15  1  0.732404  0.124221  0.859022  1
  B  B16  1  0.024467  0.777487  0.738064  1
  B  B17  1  0.841709  0.225297  0.438749  1
  B  B18  1  0.384677  0.182442  0.828202  1
  B  B19  1  0.484742  0.878834  0.110915  1
  B  B20  1  0.767596  0.124221  0.359022  1
  B  B21  1  0.668217  0.327368  0.809855  1
  B  B22  1  0.984742  0.121166  0.389085  1
  B  B23  1  0.944266  0.738188  0.581909  1
  B  B24  1  0.382161  0.648716  0.092222  1
  B  B25  1  0.975533  0.222513  0.261936  1
  B  B26  1  0.232404  0.875779  0.640978  1
  B  B27  1  0.798131  0.265705  0.870988  1
  B  B28  1  0.760895  0.186312  0.280566  1
  B  B29  1  0.115323  0.182442  0.328202  1
  B  B30  1  0.331783  0.672632  0.190144  1
  B  B31  1  0.617839  0.351284  0.907778  1
  B  B32  1  0.168217  0.672632  0.690145  1
  B  B33  1  0.555734  0.738188  0.081909  1
  B  B34  1  0.946899  0.674290  0.660260  1
  B  B35  1  0.053101  0.325710  0.339740  1
  B  B36  1  0.658291  0.225297  0.938749  1
  B  B37  1  0.117839  0.648716  0.592222  1
  B  B38  1  0.884677  0.817558  0.671798  1
  B  B39  1  0.015258  0.878834  0.610915  1
  B  B40  1  0.239105  0.813688  0.719434  1
  B  B41  1  0.444266  0.261812  0.918091  1
  B  B42  1  0.882161  0.351284  0.407778  1
  B  B43  1  0.298131  0.734295  0.629012  1
  B  B44  1  0.615323  0.817558  0.171798  1
  B  B45  1  0.158291  0.774703  0.561251  1
  B  B46  1  0.055734  0.261812  0.418091  1
  B  B47  1  0.553101  0.674290  0.160260  1
  H  H48  1  0.979392  0.864812  0.017138  1
  H  H49  1  0.840477  0.700874  0.315261  1
  H  H50  1  0.025693  0.218331  0.614657  1
  H  H51  1  0.414269  0.091543  0.563556  1
  H  H52  1  0.449981  0.973471  0.240361  1
  H  H53  1  0.460285  0.365997  0.127031  1
  H  H54  1  0.525693  0.781669  0.885343  1
  H  H55  1  0.974307  0.781669  0.385343  1
  H  H56  1  0.557520  0.369438  0.539712  1
  H  H57  1  0.960285  0.634003  0.372969  1
  H  H58  1  0.340477  0.299126  0.184739  1
  H  H59  1  0.506451  0.398124  0.636001  1
  H  H60  1  0.159523  0.299126  0.684739  1
  H  H61  1  0.493549  0.601876  0.363999  1
  H  H62  1  0.229324  0.080098  0.988335  1
  H  H63  1  0.085731  0.091543  0.063556  1
  H  H64  1  0.942480  0.369438  0.039712  1
  H  H65  1  0.520608  0.864812  0.517138  1
  H  H66  1  0.039715  0.365997  0.627031  1
  H  H67  1  0.006451  0.601876  0.863999  1
  H  H68  1  0.474307  0.218331  0.114657  1
  H  H69  1  0.606452  0.533150  0.422923  1
  H  H70  1  0.442480  0.630562  0.460288  1
  H  H71  1  0.393548  0.466850  0.577077  1
  H  H72  1  0.270676  0.080098  0.488335  1
  H  H73  1  0.893548  0.533150  0.922923  1
  H  H74  1  0.057520  0.630562  0.960288  1
  H  H75  1  0.550019  0.026529  0.759639  1
  H  H76  1  0.949981  0.026529  0.259639  1
  H  H77  1  0.020608  0.135188  0.982862  1
  H  H78  1  0.993549  0.398124  0.136001  1
  H  H79  1  0.539715  0.634003  0.872969  1
  H  H80  1  0.050019  0.973471  0.740361  1
  H  H81  1  0.914269  0.908457  0.936444  1
  H  H82  1  0.106452  0.466850  0.077077  1
  H  H83  1  0.585731  0.908457  0.436444  1
  H  H84  1  0.770676  0.919902  0.011665  1
  H  H85  1  0.479392  0.135188  0.482862  1
  H  H86  1  0.729324  0.919902  0.511665  1
  H  H87  1  0.659523  0.700874  0.815261  1
  C  C88  1  0.128344  0.131926  0.019923  1
  C  C89  1  0.611781  0.709847  0.872340  1
  C  C90  1  0.628344  0.868074  0.480077  1
  C  C91  1  0.933527  0.108816  0.297067  1
  C  C92  1  0.066473  0.891184  0.702933  1
  C  C93  1  0.452688  0.387750  0.579775  1
  C  C94  1  0.433527  0.891184  0.202933  1
  C  C95  1  0.371656  0.131926  0.519923  1
  C  C96  1  0.871656  0.868074  0.980077  1
  C  C97  1  0.888219  0.709847  0.372340  1
  C  C98  1  0.952688  0.612250  0.920225  1
  C  C99  1  0.111781  0.290153  0.627660  1
  C  C100  1  0.547312  0.612250  0.420225  1
  C  C101  1  0.388219  0.290153  0.127660  1
  C  C102  1  0.047312  0.387750  0.079775  1
  C  C103  1  0.566473  0.108816  0.797067  1
  F  F104  1  0.728812  0.862462  0.693576  1
  F  F105  1  0.834741  0.592675  0.667365  1
  F  F106  1  0.771188  0.862462  0.193576  1
  F  F107  1  0.181130  0.301156  0.475884  1
  F  F108  1  0.337525  0.963875  0.640348  1
  F  F109  1  0.461947  0.699691  0.609966  1
  F  F110  1  0.681130  0.698844  0.024116  1
  F  F111  1  0.472200  0.209001  0.689523  1
  F  F112  1  0.162475  0.963875  0.140348  1
  F  F113  1  0.641032  0.454136  0.955326  1
  F  F114  1  0.041274  0.031311  0.413034  1
  F  F115  1  0.772555  0.410738  0.279055  1
  F  F116  1  0.727445  0.410738  0.779055  1
  F  F117  1  0.288220  0.772988  0.990100  1
  F  F118  1  0.227445  0.589262  0.720945  1
  F  F119  1  0.527800  0.790999  0.310477  1
  F  F120  1  0.846719  0.142871  0.722996  1
  F  F121  1  0.653281  0.142871  0.222996  1
  F  F122  1  0.711780  0.227012  0.009900  1
  F  F123  1  0.141032  0.545864  0.544674  1
  F  F124  1  0.818870  0.698844  0.524116  1
  F  F125  1  0.972200  0.790999  0.810477  1
  F  F126  1  0.211780  0.772988  0.490100  1
  F  F127  1  0.665259  0.592675  0.167365  1
  F  F128  1  0.837525  0.036125  0.859652  1
  F  F129  1  0.318870  0.301156  0.975884  1
  F  F130  1  0.538053  0.300309  0.390034  1
  F  F131  1  0.272555  0.589262  0.220945  1
  F  F132  1  0.271188  0.137538  0.306424  1
  F  F133  1  0.858968  0.454136  0.455326  1
  F  F134  1  0.358968  0.545864  0.044674  1
  F  F135  1  0.541274  0.968689  0.086966  1
  F  F136  1  0.334741  0.407325  0.832635  1
  F  F137  1  0.228812  0.137538  0.806424  1
  F  F138  1  0.165259  0.407325  0.332635  1
  F  F139  1  0.458726  0.031311  0.913034  1
  F  F140  1  0.961947  0.300309  0.890034  1
  F  F141  1  0.027800  0.209001  0.189523  1
  F  F142  1  0.788220  0.227012  0.509900  1
  F  F143  1  0.153281  0.857129  0.277004  1
  F  F144  1  0.346719  0.857129  0.777004  1
  F  F145  1  0.958726  0.968689  0.586966  1
  F  F146  1  0.038053  0.699691  0.109966  1
  F  F147  1  0.662475  0.036125  0.359652  1
