# generated using pymatgen
data_VP2O7
_symmetry_space_group_name_H-M   'P 1'
_cell_length_a   3.80868675
_cell_length_b   8.24463169
_cell_length_c   8.24463170
_cell_angle_alpha   86.94172205
_cell_angle_beta   76.64523409
_cell_angle_gamma   76.64524006
_symmetry_Int_Tables_number   1
_chemical_formula_structural   VP2O7
_chemical_formula_sum   'V2 P4 O14'
_cell_volume   245.07919763
_cell_formula_units_Z   2
loop_
 _symmetry_equiv_pos_site_id
 _symmetry_equiv_pos_as_xyz
  1  'x, y, z'
loop_
 _atom_site_type_symbol
 _atom_site_label
 _atom_site_symmetry_multiplicity
 _atom_site_fract_x
 _atom_site_fract_y
 _atom_site_fract_z
 _atom_site_occupancy
  V  V0  1  0.000000  0.000000  0.000000  1
  V  V1  1  0.250000  0.500000  0.500000  1
  P  P2  1  0.125000  0.593656  0.906344  1
  P  P3  1  0.281344  0.093656  0.593656  1
  P  P4  1  0.968656  0.906344  0.406344  1
  P  P5  1  0.625000  0.406344  0.093656  1
  O  O6  1  0.045116  0.566484  0.741970  1
  O  O7  1  0.212913  0.741970  0.433516  1
  O  O8  1  0.353571  0.433516  0.258030  1
  O  O9  1  0.896429  0.241970  0.066484  1
  O  O10  1  0.037087  0.066484  0.758030  1
  O  O11  1  0.625000  0.934507  0.565493  1
  O  O12  1  0.861602  0.933516  0.241970  1
  O  O13  1  0.750000  0.500000  0.500000  1
  O  O14  1  0.388398  0.258030  0.566484  1
  O  O15  1  0.125000  0.065493  0.434507  1
  O  O16  1  0.204884  0.758030  0.933516  1
  O  O17  1  0.440493  0.434507  0.934507  1
  O  O18  1  0.500000  0.000000  0.000000  1
  O  O19  1  0.809507  0.565493  0.065493  1
