# generated using pymatgen
data_Er14(InPd)3
_symmetry_space_group_name_H-M   'P 1'
_cell_length_a   9.63643329
_cell_length_b   9.63643329
_cell_length_c   23.39381931
_cell_angle_alpha   90.00000000
_cell_angle_beta   90.00000000
_cell_angle_gamma   90.00000000
_symmetry_Int_Tables_number   1
_chemical_formula_structural   Er14(InPd)3
_chemical_formula_sum   'Er56 In12 Pd12'
_cell_volume   2172.36986523
_cell_formula_units_Z   4
loop_
 _symmetry_equiv_pos_site_id
 _symmetry_equiv_pos_as_xyz
  1  'x, y, z'
loop_
 _atom_site_type_symbol
 _atom_site_label
 _atom_site_symmetry_multiplicity
 _atom_site_fract_x
 _atom_site_fract_y
 _atom_site_fract_z
 _atom_site_occupancy
  Er  Er0  1  0.250000  0.443100  0.466205  1
  Er  Er1  1  0.250000  0.562050  0.983181  1
  Er  Er2  1  0.250000  0.937950  0.983181  1
  Er  Er3  1  0.436065  0.441947  0.604257  1
  Er  Er4  1  0.558053  0.936065  0.895743  1
  Er  Er5  1  0.934239  0.434239  0.250000  1
  Er  Er6  1  0.441947  0.436065  0.104257  1
  Er  Er7  1  0.936065  0.941947  0.395743  1
  Er  Er8  1  0.750000  0.437950  0.016819  1
  Er  Er9  1  0.556900  0.750000  0.033795  1
  Er  Er10  1  0.750000  0.250000  0.145649  1
  Er  Er11  1  0.063935  0.058053  0.604257  1
  Er  Er12  1  0.750000  0.556900  0.533795  1
  Er  Er13  1  0.434239  0.934239  0.750000  1
  Er  Er14  1  0.750000  0.943100  0.533795  1
  Er  Er15  1  0.065761  0.934239  0.750000  1
  Er  Er16  1  0.943100  0.750000  0.033795  1
  Er  Er17  1  0.443100  0.250000  0.966205  1
  Er  Er18  1  0.037621  0.750000  0.192456  1
  Er  Er19  1  0.750000  0.750000  0.786890  1
  Er  Er20  1  0.937950  0.250000  0.483181  1
  Er  Er21  1  0.941947  0.563935  0.895743  1
  Er  Er22  1  0.434239  0.565761  0.750000  1
  Er  Er23  1  0.062050  0.750000  0.516819  1
  Er  Er24  1  0.537621  0.250000  0.807544  1
  Er  Er25  1  0.250000  0.750000  0.645649  1
  Er  Er26  1  0.962379  0.250000  0.807544  1
  Er  Er27  1  0.250000  0.750000  0.854351  1
  Er  Er28  1  0.063935  0.441947  0.604257  1
  Er  Er29  1  0.436065  0.058053  0.604257  1
  Er  Er30  1  0.563935  0.941947  0.395743  1
  Er  Er31  1  0.565761  0.065761  0.250000  1
  Er  Er32  1  0.750000  0.062050  0.016819  1
  Er  Er33  1  0.250000  0.250000  0.713110  1
  Er  Er34  1  0.437950  0.750000  0.516819  1
  Er  Er35  1  0.750000  0.037621  0.692456  1
  Er  Er36  1  0.058053  0.063935  0.104257  1
  Er  Er37  1  0.056900  0.250000  0.966205  1
  Er  Er38  1  0.934239  0.065761  0.250000  1
  Er  Er39  1  0.750000  0.250000  0.354351  1
  Er  Er40  1  0.562050  0.250000  0.483181  1
  Er  Er41  1  0.441947  0.063935  0.104257  1
  Er  Er42  1  0.250000  0.056900  0.466205  1
  Er  Er43  1  0.462379  0.750000  0.192456  1
  Er  Er44  1  0.558053  0.563935  0.895743  1
  Er  Er45  1  0.250000  0.250000  0.213110  1
  Er  Er46  1  0.565761  0.434239  0.250000  1
  Er  Er47  1  0.250000  0.537621  0.307544  1
  Er  Er48  1  0.250000  0.962379  0.307544  1
  Er  Er49  1  0.058053  0.436065  0.104257  1
  Er  Er50  1  0.065761  0.565761  0.750000  1
  Er  Er51  1  0.563935  0.558053  0.395743  1
  Er  Er52  1  0.941947  0.936065  0.895743  1
  Er  Er53  1  0.750000  0.462379  0.692456  1
  Er  Er54  1  0.750000  0.750000  0.286890  1
  Er  Er55  1  0.936065  0.558053  0.395743  1
  In  In56  1  0.250000  0.088590  0.855121  1
  In  In57  1  0.750000  0.250000  0.591763  1
  In  In58  1  0.750000  0.911410  0.144879  1
  In  In59  1  0.588590  0.750000  0.644879  1
  In  In60  1  0.250000  0.750000  0.091763  1
  In  In61  1  0.411410  0.250000  0.355121  1
  In  In62  1  0.250000  0.750000  0.408237  1
  In  In63  1  0.911410  0.750000  0.644879  1
  In  In64  1  0.250000  0.411410  0.855121  1
  In  In65  1  0.750000  0.588590  0.144879  1
  In  In66  1  0.750000  0.250000  0.908237  1
  In  In67  1  0.088590  0.250000  0.355121  1
  Pd  Pd68  1  0.250000  0.250000  0.553739  1
  Pd  Pd69  1  0.250000  0.250000  0.053739  1
  Pd  Pd70  1  0.250000  0.537031  0.189349  1
  Pd  Pd71  1  0.462969  0.750000  0.310651  1
  Pd  Pd72  1  0.750000  0.037031  0.810651  1
  Pd  Pd73  1  0.962969  0.250000  0.689349  1
  Pd  Pd74  1  0.537031  0.250000  0.689349  1
  Pd  Pd75  1  0.250000  0.962969  0.189349  1
  Pd  Pd76  1  0.750000  0.750000  0.446261  1
  Pd  Pd77  1  0.750000  0.462969  0.810651  1
  Pd  Pd78  1  0.037031  0.750000  0.310651  1
  Pd  Pd79  1  0.750000  0.750000  0.946261  1
