# generated using pymatgen
data_MnCo(BiO3)2
_symmetry_space_group_name_H-M   'P 1'
_cell_length_a   5.51898966
_cell_length_b   5.52229953
_cell_length_c   9.67232410
_cell_angle_alpha   105.25483483
_cell_angle_beta   89.92732184
_cell_angle_gamma   119.88884032
_symmetry_Int_Tables_number   1
_chemical_formula_structural   MnCo(BiO3)2
_chemical_formula_sum   'Mn2 Co2 Bi4 O12'
_cell_volume   243.58532054
_cell_formula_units_Z   2
loop_
 _symmetry_equiv_pos_site_id
 _symmetry_equiv_pos_as_xyz
  1  'x, y, z'
loop_
 _atom_site_type_symbol
 _atom_site_label
 _atom_site_symmetry_multiplicity
 _atom_site_fract_x
 _atom_site_fract_y
 _atom_site_fract_z
 _atom_site_occupancy
  Bi  Bi0  1  0.591045  0.265492  0.875512  1
  Mn  Mn1  1  0.247386  0.505867  0.747671  1
  O  O2  1  0.937830  0.313218  0.136078  1
  O  O3  1  0.873889  0.320776  0.627464  1
  O  O4  1  0.625016  0.687057  0.864085  1
  O  O5  1  0.427587  0.295518  0.093562  1
  O  O6  1  0.142624  0.188896  0.832616  1
  O  O7  1  0.370664  0.312148  0.590575  1
  O  O8  1  0.356526  0.835871  0.667521  1
  O  O9  1  0.520422  0.163726  0.332096  1
  Co  Co10  1  0.000998  0.999988  0.000101  1
  O  O11  1  0.550943  0.678934  0.372626  1
  Bi  Bi12  1  0.325118  0.733803  0.124254  1
  O  O13  1  0.056566  0.688292  0.409189  1
  Mn  Mn14  1  0.741023  0.494218  0.252360  1
  O  O15  1  0.953414  0.811612  0.167639  1
  Co  Co16  1  0.478150  -0.000004  0.499790  1
  Bi  Bi17  1  0.151402  0.266358  0.376271  1
  O  O18  1  0.132211  0.704565  0.906326  1
  Bi  Bi19  1  0.885186  0.733664  0.624264  1
