# generated using pymatgen
data_La4MgIr
_symmetry_space_group_name_H-M   'P 1'
_cell_length_a   10.19755811
_cell_length_b   10.19755808
_cell_length_c   10.19755827
_cell_angle_alpha   60.00000265
_cell_angle_beta   60.00000277
_cell_angle_gamma   59.99999983
_symmetry_Int_Tables_number   1
_chemical_formula_structural   La4MgIr
_chemical_formula_sum   'La16 Mg4 Ir4'
_cell_volume   749.84861090
_cell_formula_units_Z   4
loop_
 _symmetry_equiv_pos_site_id
 _symmetry_equiv_pos_as_xyz
  1  'x, y, z'
loop_
 _atom_site_type_symbol
 _atom_site_label
 _atom_site_symmetry_multiplicity
 _atom_site_fract_x
 _atom_site_fract_y
 _atom_site_fract_z
 _atom_site_occupancy
  La  La0  1  0.560569  0.939431  0.560569  1
  La  La1  1  0.188808  0.811192  0.811192  1
  La  La2  1  0.939431  0.560569  0.939431  1
  La  La3  1  0.811192  0.188808  0.811192  1
  La  La4  1  0.188808  0.188808  0.811192  1
  La  La5  1  0.939431  0.560569  0.560569  1
  La  La6  1  0.345454  0.963639  0.345454  1
  La  La7  1  0.345454  0.345454  0.345454  1
  La  La8  1  0.811192  0.811192  0.188808  1
  La  La9  1  0.963639  0.345454  0.345454  1
  La  La10  1  0.939431  0.939431  0.560569  1
  La  La11  1  0.811192  0.188808  0.188808  1
  La  La12  1  0.345454  0.345454  0.963639  1
  La  La13  1  0.560569  0.560569  0.939431  1
  La  La14  1  0.188808  0.811192  0.188808  1
  La  La15  1  0.560569  0.939431  0.939431  1
  Mg  Mg16  1  0.264968  0.578344  0.578344  1
  Mg  Mg17  1  0.578344  0.264968  0.578344  1
  Mg  Mg18  1  0.578344  0.578344  0.578344  1
  Mg  Mg19  1  0.578344  0.578344  0.264968  1
  Ir  Ir20  1  0.141090  0.576729  0.141090  1
  Ir  Ir21  1  0.141090  0.141090  0.141090  1
  Ir  Ir22  1  0.141090  0.141090  0.576729  1
  Ir  Ir23  1  0.576729  0.141090  0.141090  1
