# generated using pymatgen
data_BaTbO3
_symmetry_space_group_name_H-M   'P 1'
_cell_length_a   6.24026519
_cell_length_b   6.23939902
_cell_length_c   6.24101295
_cell_angle_alpha   60.66816579
_cell_angle_beta   60.69895672
_cell_angle_gamma   60.66133658
_symmetry_Int_Tables_number   1
_chemical_formula_structural   BaTbO3
_chemical_formula_sum   'Ba2 Tb2 O6'
_cell_volume   174.44739012
_cell_formula_units_Z   2
loop_
 _symmetry_equiv_pos_site_id
 _symmetry_equiv_pos_as_xyz
  1  'x, y, z'
loop_
 _atom_site_type_symbol
 _atom_site_label
 _atom_site_symmetry_multiplicity
 _atom_site_fract_x
 _atom_site_fract_y
 _atom_site_fract_z
 _atom_site_occupancy
  O  O0  1  0.749910  0.316623  0.183391  1
  Ba  Ba1  1  0.750511  0.749902  0.749595  1
  O  O2  1  0.250115  0.683444  0.816522  1
  O  O3  1  0.683469  0.816532  0.249929  1
  Tb  Tb4  1  -0.000008  0.000013  0.000027  1
  O  O5  1  0.316416  0.183562  0.750088  1
  O  O6  1  0.182768  0.750002  0.317239  1
  Ba  Ba7  1  0.249516  0.250029  0.250457  1
  O  O8  1  0.817268  0.249946  0.682766  1
  Tb  Tb9  1  0.500037  0.499948  0.499986  1
