# generated using pymatgen
data_LiTiMnF6
_symmetry_space_group_name_H-M   'P 1'
_cell_length_a   8.91647743
_cell_length_b   8.91647744
_cell_length_c   4.71914053
_cell_angle_alpha   90.00000000
_cell_angle_beta   90.00000000
_cell_angle_gamma   120.00000002
_symmetry_Int_Tables_number   1
_chemical_formula_structural   LiTiMnF6
_chemical_formula_sum   'Li3 Ti3 Mn3 F18'
_cell_volume   324.92278823
_cell_formula_units_Z   3
loop_
 _symmetry_equiv_pos_site_id
 _symmetry_equiv_pos_as_xyz
  1  'x, y, z'
loop_
 _atom_site_type_symbol
 _atom_site_label
 _atom_site_symmetry_multiplicity
 _atom_site_fract_x
 _atom_site_fract_y
 _atom_site_fract_z
 _atom_site_occupancy
  Li  Li0  1  0.000000  0.000000  0.000000  1
  Li  Li1  1  0.333333  0.666667  0.493565  1
  Li  Li2  1  0.666667  0.333333  0.506435  1
  F  F3  1  0.219205  0.107931  0.243978  1
  F  F4  1  0.780019  0.220312  0.730117  1
  F  F5  1  0.779688  0.559706  0.730117  1
  F  F6  1  0.440294  0.219981  0.730117  1
  F  F7  1  0.559706  0.779688  0.269883  1
  F  F8  1  0.219981  0.440294  0.269883  1
  F  F9  1  0.888726  0.780795  0.243978  1
  F  F10  1  0.111274  0.892069  0.756022  1
  F  F11  1  0.892069  0.111274  0.243978  1
  F  F12  1  0.107931  0.219205  0.756022  1
  F  F13  1  0.465654  0.572293  0.724178  1
  F  F14  1  0.780795  0.888726  0.756022  1
  F  F15  1  0.572293  0.465654  0.275821  1
  F  F16  1  0.427707  0.893362  0.724178  1
  F  F17  1  0.106638  0.534346  0.724178  1
  F  F18  1  0.893362  0.427707  0.275821  1
  F  F19  1  0.534346  0.106638  0.275821  1
  F  F20  1  0.220312  0.780019  0.269883  1
  Ti  Ti21  1  0.314483  0.000000  0.500000  1
  Ti  Ti22  1  0.685517  0.685517  0.500000  1
  Ti  Ti23  1  0.000000  0.314483  0.500000  1
  Mn  Mn24  1  0.647702  0.000000  0.000000  1
  Mn  Mn25  1  0.352298  0.352298  0.000000  1
  Mn  Mn26  1  0.000000  0.647702  0.000000  1
