# generated using pymatgen
data_Ba14AlSb11
_symmetry_space_group_name_H-M   'P 1'
_cell_length_a   17.95680000
_cell_length_b   17.95679953
_cell_length_c   17.95680000
_cell_angle_alpha   93.69998228
_cell_angle_beta   117.88730588
_cell_angle_gamma   117.88730531
_symmetry_Int_Tables_number   1
_chemical_formula_structural   Ba14AlSb11
_chemical_formula_sum   'Ba56 Al4 Sb44'
_cell_volume   4215.46045382
_cell_formula_units_Z   4
loop_
 _symmetry_equiv_pos_site_id
 _symmetry_equiv_pos_as_xyz
  1  'x, y, z'
loop_
 _atom_site_type_symbol
 _atom_site_label
 _atom_site_symmetry_multiplicity
 _atom_site_fract_x
 _atom_site_fract_y
 _atom_site_fract_z
 _atom_site_occupancy
  Al  Al0  1  0.250000  0.625000  0.375000  1
  Al  Al1  1  0.250000  0.125000  0.875000  1
  Al  Al2  1  0.750000  0.375000  0.625000  1
  Al  Al3  1  0.750000  0.875000  0.125000  1
  Ba  Ba4  1  0.089890  0.525493  0.751314  1
  Ba  Ba5  1  0.589890  0.251314  0.025493  1
  Ba  Ba6  1  0.383818  0.284027  0.257144  1
  Ba  Ba7  1  0.883818  0.757144  0.784027  1
  Ba  Ba8  1  0.274179  0.435603  0.525493  1
  Ba  Ba9  1  0.774179  0.025493  0.935603  1
  Ba  Ba10  1  0.225821  0.751314  0.161424  1
  Ba  Ba11  1  0.725821  0.661424  0.251314  1
  Ba  Ba12  1  0.896311  0.875342  0.019563  1
  Ba  Ba13  1  0.526883  0.900209  0.284027  1
  Ba  Ba14  1  0.396311  0.519563  0.375342  1
  Ba  Ba15  1  0.026883  0.784027  0.400209  1
  Ba  Ba16  1  0.896311  0.520969  0.876748  1
  Ba  Ba17  1  0.410110  0.161424  0.435603  1
  Ba  Ba18  1  0.396311  0.376748  0.020969  1
  Ba  Ba19  1  0.973117  0.257144  0.373326  1
  Ba  Ba20  1  0.856118  0.250000  0.106118  1
  Ba  Ba21  1  0.910110  0.935603  0.661424  1
  Ba  Ba22  1  0.473117  0.873326  0.757144  1
  Ba  Ba23  1  0.356118  0.606118  0.750000  1
  Ba  Ba24  1  0.144221  0.019563  0.623252  1
  Ba  Ba25  1  0.644221  0.123252  0.519563  1
  Ba  Ba26  1  0.856118  0.106118  0.750000  1
  Ba  Ba27  1  0.356118  0.250000  0.606118  1
  Ba  Ba28  1  0.355779  0.979031  0.875342  1
  Ba  Ba29  1  0.383818  0.599791  0.126674  1
  Ba  Ba30  1  0.116182  0.373326  0.900209  1
  Ba  Ba31  1  0.855779  0.375342  0.479031  1
  Ba  Ba32  1  0.144221  0.624658  0.520969  1
  Ba  Ba33  1  0.883818  0.626674  0.099791  1
  Ba  Ba34  1  0.616182  0.400209  0.873326  1
  Ba  Ba35  1  0.644221  0.020969  0.124658  1
  Ba  Ba36  1  0.643882  0.750000  0.393882  1
  Ba  Ba37  1  0.143882  0.893882  0.250000  1
  Ba  Ba38  1  0.355779  0.876748  0.480437  1
  Ba  Ba39  1  0.855779  0.980437  0.376748  1
  Ba  Ba40  1  0.643882  0.393882  0.250000  1
  Ba  Ba41  1  0.526883  0.126674  0.242856  1
  Ba  Ba42  1  0.089890  0.064397  0.338576  1
  Ba  Ba43  1  0.143882  0.750000  0.893882  1
  Ba  Ba44  1  0.026883  0.742856  0.626674  1
  Ba  Ba45  1  0.603689  0.623252  0.979031  1
  Ba  Ba46  1  0.589890  0.838576  0.564397  1
  Ba  Ba47  1  0.103689  0.479031  0.123252  1
  Ba  Ba48  1  0.973117  0.215973  0.599791  1
  Ba  Ba49  1  0.603689  0.480437  0.624658  1
  Ba  Ba50  1  0.473117  0.099791  0.715973  1
  Ba  Ba51  1  0.103689  0.124658  0.980437  1
  Ba  Ba52  1  0.274179  0.338576  0.748686  1
  Ba  Ba53  1  0.774179  0.248686  0.838576  1
  Ba  Ba54  1  0.225821  0.974507  0.064397  1
  Ba  Ba55  1  0.725821  0.564397  0.474507  1
  Ba  Ba56  1  0.116182  0.242856  0.215973  1
  Ba  Ba57  1  0.616182  0.715973  0.742856  1
  Ba  Ba58  1  0.410110  0.748686  0.974507  1
  Ba  Ba59  1  0.910110  0.474507  0.248686  1
  Sb  Sb60  1  0.157844  0.586217  0.978417  1
  Sb  Sb61  1  0.657844  0.478417  0.086217  1
  Sb  Sb62  1  0.392200  0.978417  0.320573  1
  Sb  Sb63  1  0.892200  0.820573  0.478417  1
  Sb  Sb64  1  0.382922  0.696216  0.317963  1
  Sb  Sb65  1  0.882922  0.817963  0.196216  1
  Sb  Sb66  1  0.621748  0.317963  0.435041  1
  Sb  Sb67  1  0.121748  0.935041  0.817963  1
  Sb  Sb68  1  0.878252  0.313294  0.696216  1
  Sb  Sb69  1  0.378252  0.196216  0.813294  1
  Sb  Sb70  1  0.250000  0.004644  0.495356  1
  Sb  Sb71  1  0.750000  0.125000  0.375000  1
  Sb  Sb72  1  0.750000  0.254644  0.245356  1
  Sb  Sb73  1  0.107800  0.428373  0.586217  1
  Sb  Sb74  1  0.607800  0.086217  0.928373  1
  Sb  Sb75  1  0.117078  0.435041  0.313294  1
  Sb  Sb76  1  0.617078  0.813294  0.935041  1
  Sb  Sb77  1  0.490713  0.495356  0.745356  1
  Sb  Sb78  1  0.990713  0.245356  0.995356  1
  Sb  Sb79  1  0.157844  0.071627  0.179427  1
  Sb  Sb80  1  0.657844  0.679427  0.571627  1
  Sb  Sb81  1  0.750000  0.625000  0.875000  1
  Sb  Sb82  1  0.250000  0.375000  0.125000  1
  Sb  Sb83  1  0.342156  0.320573  0.428373  1
  Sb  Sb84  1  0.842156  0.928373  0.820573  1
  Sb  Sb85  1  0.009287  0.754644  0.004644  1
  Sb  Sb86  1  0.509287  0.504644  0.254644  1
  Sb  Sb87  1  0.382922  0.186706  0.064959  1
  Sb  Sb88  1  0.882922  0.564959  0.686706  1
  Sb  Sb89  1  0.392200  0.913783  0.071627  1
  Sb  Sb90  1  0.892200  0.571627  0.413783  1
  Sb  Sb91  1  0.250000  0.745356  0.754644  1
  Sb  Sb92  1  0.250000  0.875000  0.625000  1
  Sb  Sb93  1  0.750000  0.995356  0.504644  1
  Sb  Sb94  1  0.621748  0.803784  0.186706  1
  Sb  Sb95  1  0.121748  0.686706  0.303784  1
  Sb  Sb96  1  0.878252  0.064959  0.182037  1
  Sb  Sb97  1  0.378252  0.682037  0.564959  1
  Sb  Sb98  1  0.117078  0.182037  0.803784  1
  Sb  Sb99  1  0.617078  0.303784  0.682037  1
  Sb  Sb100  1  0.107800  0.179427  0.521583  1
  Sb  Sb101  1  0.607800  0.021583  0.679427  1
  Sb  Sb102  1  0.342156  0.521583  0.913783  1
  Sb  Sb103  1  0.842156  0.413783  0.021583  1
