# generated using pymatgen
data_MgAl2O4
_symmetry_space_group_name_H-M   'P 1'
_cell_length_a   5.77521660
_cell_length_b   5.77521714
_cell_length_c   23.11111965
_cell_angle_alpha   60.01467212
_cell_angle_beta   60.01466901
_cell_angle_gamma   59.99999977
_symmetry_Int_Tables_number   1
_chemical_formula_structural   MgAl2O4
_chemical_formula_sum   'Mg8 Al16 O32'
_cell_volume   545.17866159
_cell_formula_units_Z   8
loop_
 _symmetry_equiv_pos_site_id
 _symmetry_equiv_pos_as_xyz
  1  'x, y, z'
loop_
 _atom_site_type_symbol
 _atom_site_label
 _atom_site_symmetry_multiplicity
 _atom_site_fract_x
 _atom_site_fract_y
 _atom_site_fract_z
 _atom_site_occupancy
  Al  Al0  1  0.496160  0.496160  0.125782  1
  Al  Al1  1  0.500443  0.500443  0.249668  1
  Al  Al2  1  0.496160  0.004552  0.125782  1
  Al  Al3  1  0.004552  0.496160  0.125782  1
  Al  Al4  1  0.500620  0.500620  0.374490  1
  Al  Al5  1  0.500805  0.500805  0.499396  1
  Al  Al6  1  0.500620  0.000802  0.374490  1
  Al  Al7  1  0.000802  0.500620  0.374490  1
  Al  Al8  1  0.500147  0.500147  0.624651  1
  Al  Al9  1  0.501714  0.501714  0.748714  1
  Al  Al10  1  0.500147  0.001101  0.624651  1
  Al  Al11  1  0.498380  0.498380  0.874436  1
  Al  Al12  1  0.001101  0.500147  0.624651  1
  Al  Al13  1  0.498380  0.005499  0.874436  1
  Al  Al14  1  0.005499  0.498380  0.874436  1
  Al  Al15  1  0.877376  0.877376  0.966968  1
  Mg  Mg16  1  0.120747  0.120747  0.034440  1
  Mg  Mg17  1  0.123560  0.123560  0.282330  1
  Mg  Mg18  1  0.125543  0.125543  0.530842  1
  Mg  Mg19  1  0.878652  0.878652  0.216011  1
  Mg  Mg20  1  0.124919  0.124919  0.781311  1
  Mg  Mg21  1  0.875432  0.875432  0.468426  1
  Mg  Mg22  1  0.873857  0.873857  0.719607  1
  Mg  Mg23  1  0.496642  0.496642  0.002519  1
  O  O24  1  0.250698  0.250698  0.071624  1
  O  O25  1  0.260244  0.260244  0.179817  1
  O  O26  1  0.250698  0.712108  0.071624  1
  O  O27  1  0.712108  0.250698  0.071624  1
  O  O28  1  0.296861  0.734571  0.183499  1
  O  O29  1  0.263373  0.263373  0.316193  1
  O  O30  1  0.748705  0.748705  0.063472  1
  O  O31  1  0.263530  0.263530  0.427352  1
  O  O32  1  0.734571  0.296861  0.183499  1
  O  O33  1  0.263373  0.708480  0.316193  1
  O  O34  1  0.708480  0.263373  0.316193  1
  O  O35  1  0.734571  0.734571  0.183499  1
  O  O36  1  0.291187  0.736225  0.434091  1
  O  O37  1  0.263418  0.263418  0.566046  1
  O  O38  1  0.263365  0.263365  0.677476  1
  O  O39  1  0.737663  0.737663  0.321753  1
  O  O40  1  0.736225  0.291187  0.434091  1
  O  O41  1  0.263418  0.708980  0.566046  1
  O  O42  1  0.708980  0.263418  0.566046  1
  O  O43  1  0.736225  0.736225  0.434091  1
  O  O44  1  0.289949  0.736649  0.684188  1
  O  O45  1  0.266031  0.266031  0.814847  1
  O  O46  1  0.736649  0.289949  0.684188  1
  O  O47  1  0.736157  0.736157  0.572883  1
  O  O48  1  0.262856  0.262856  0.927858  1
  O  O49  1  0.266031  0.708549  0.814847  1
  O  O50  1  0.708549  0.266031  0.814847  1
  O  O51  1  0.736649  0.736649  0.684188  1
  O  O52  1  0.265079  0.754899  0.931281  1
  O  O53  1  0.732305  0.732305  0.825771  1
  O  O54  1  0.754899  0.265079  0.931281  1
  O  O55  1  0.754899  0.754899  0.931281  1
