# generated using pymatgen
data_Cs3GeAsSe5
_symmetry_space_group_name_H-M   'P 1'
_cell_length_a   7.93550570
_cell_length_b   9.84601286
_cell_length_c   20.03636454
_cell_angle_alpha   90.00000000
_cell_angle_beta   99.79466251
_cell_angle_gamma   90.00000000
_symmetry_Int_Tables_number   1
_chemical_formula_structural   Cs3GeAsSe5
_chemical_formula_sum   'Cs12 Ge4 As4 Se20'
_cell_volume   1542.68393406
_cell_formula_units_Z   4
loop_
 _symmetry_equiv_pos_site_id
 _symmetry_equiv_pos_as_xyz
  1  'x, y, z'
loop_
 _atom_site_type_symbol
 _atom_site_label
 _atom_site_symmetry_multiplicity
 _atom_site_fract_x
 _atom_site_fract_y
 _atom_site_fract_z
 _atom_site_occupancy
  Cs  Cs0  1  0.080652  0.439606  0.238518  1
  Cs  Cs1  1  0.627664  0.699201  0.541897  1
  Cs  Cs2  1  0.419348  0.939606  0.261482  1
  Cs  Cs3  1  0.030996  0.789415  0.414343  1
  Cs  Cs4  1  0.580652  0.060394  0.738518  1
  Cs  Cs5  1  0.969004  0.210585  0.585657  1
  Cs  Cs6  1  0.127664  0.800799  0.041897  1
  Cs  Cs7  1  0.469004  0.289415  0.085657  1
  Cs  Cs8  1  0.530996  0.710585  0.914343  1
  Cs  Cs9  1  0.919348  0.560394  0.761482  1
  Cs  Cs10  1  0.372336  0.300799  0.458103  1
  Cs  Cs11  1  0.872336  0.199201  0.958103  1
  Ge  Ge12  1  0.204218  0.790838  0.629388  1
  Ge  Ge13  1  0.795782  0.209162  0.370612  1
  Ge  Ge14  1  0.295782  0.290838  0.870612  1
  Ge  Ge15  1  0.704218  0.709162  0.129388  1
  As  As16  1  0.871442  0.041642  0.200412  1
  As  As17  1  0.128558  0.958358  0.799588  1
  As  As18  1  0.628558  0.541642  0.299588  1
  As  As19  1  0.371442  0.458358  0.700412  1
  Se  Se20  1  0.409308  0.095978  0.927670  1
  Se  Se21  1  0.425561  0.705978  0.722444  1
  Se  Se22  1  0.909308  0.404022  0.427670  1
  Se  Se23  1  0.180316  0.459847  0.930584  1
  Se  Se24  1  0.973708  0.886068  0.684467  1
  Se  Se25  1  0.680316  0.040153  0.430584  1
  Se  Se26  1  0.074439  0.205978  0.777556  1
  Se  Se27  1  0.924111  0.883898  0.863407  1
  Se  Se28  1  0.473708  0.613932  0.184467  1
  Se  Se29  1  0.075889  0.116102  0.136593  1
  Se  Se30  1  0.319684  0.959847  0.569416  1
  Se  Se31  1  0.819684  0.540153  0.069416  1
  Se  Se32  1  0.925561  0.794022  0.222444  1
  Se  Se33  1  0.575889  0.383898  0.636593  1
  Se  Se34  1  0.090692  0.595978  0.572330  1
  Se  Se35  1  0.590692  0.904022  0.072330  1
  Se  Se36  1  0.424111  0.616102  0.363407  1
  Se  Se37  1  0.526292  0.386068  0.815533  1
  Se  Se38  1  0.026292  0.113932  0.315533  1
  Se  Se39  1  0.574439  0.294022  0.277556  1
