# generated using pymatgen
data_Ca3Zn3(TeO6)2
_symmetry_space_group_name_H-M   'P 1'
_cell_length_a   11.24566362
_cell_length_b   11.24566439
_cell_length_c   11.24566432
_cell_angle_alpha   109.47122049
_cell_angle_beta   109.47122187
_cell_angle_gamma   109.47122070
_symmetry_Int_Tables_number   1
_chemical_formula_structural   Ca3Zn3(TeO6)2
_chemical_formula_sum   'Ca12 Zn12 Te8 O48'
_cell_volume   1094.79656528
_cell_formula_units_Z   4
loop_
 _symmetry_equiv_pos_site_id
 _symmetry_equiv_pos_as_xyz
  1  'x, y, z'
loop_
 _atom_site_type_symbol
 _atom_site_label
 _atom_site_symmetry_multiplicity
 _atom_site_fract_x
 _atom_site_fract_y
 _atom_site_fract_z
 _atom_site_occupancy
  Ca  Ca0  1  0.156407  0.750000  0.343593  1
  Ca  Ca1  1  0.343593  0.687185  0.593593  1
  Ca  Ca2  1  0.593593  0.343593  0.687185  1
  Ca  Ca3  1  0.906407  0.593593  0.750000  1
  Ca  Ca4  1  0.343593  0.156407  0.750000  1
  Ca  Ca5  1  0.593593  0.750000  0.906407  1
  Ca  Ca6  1  0.750000  0.343593  0.156407  1
  Ca  Ca7  1  0.687185  0.593593  0.343593  1
  Ca  Ca8  1  0.750000  0.906407  0.593593  1
  Ca  Ca9  1  0.812815  0.156407  0.906407  1
  Ca  Ca10  1  0.906407  0.812815  0.156407  1
  Ca  Ca11  1  0.156407  0.906407  0.812815  1
  Zn  Zn12  1  0.404603  0.250000  0.095397  1
  Zn  Zn13  1  0.095397  0.190794  0.845397  1
  Zn  Zn14  1  0.654603  0.845397  0.250000  1
  Zn  Zn15  1  0.250000  0.654603  0.845397  1
  Zn  Zn16  1  0.250000  0.095397  0.404603  1
  Zn  Zn17  1  0.309206  0.404603  0.654603  1
  Zn  Zn18  1  0.404603  0.654603  0.309206  1
  Zn  Zn19  1  0.845397  0.095397  0.190794  1
  Zn  Zn20  1  0.190794  0.845397  0.095397  1
  Zn  Zn21  1  0.654603  0.309206  0.404603  1
  Zn  Zn22  1  0.095397  0.404603  0.250000  1
  Zn  Zn23  1  0.845397  0.250000  0.654603  1
  Te  Te24  1  0.014711  0.500000  1.000000  1
  Te  Te25  1  1.000000  0.485289  0.500000  1
  Te  Te26  1  0.500000  0.000000  0.485289  1
  Te  Te27  1  0.000000  0.014711  0.500000  1
  Te  Te28  1  0.014711  0.014711  0.014711  1
  Te  Te29  1  0.485289  0.500000  0.000000  1
  Te  Te30  1  0.500000  0.000000  0.014711  1
  Te  Te31  1  0.485289  0.485289  0.485289  1
  O  O32  1  0.938901  0.316112  0.318587  1
  O  O33  1  0.665248  0.489564  0.593701  1
  O  O34  1  0.316112  0.497525  0.377211  1
  O  O35  1  0.879686  0.377211  0.561099  1
  O  O36  1  0.879686  0.002475  0.318587  1
  O  O37  1  0.122789  0.002475  0.183888  1
  O  O38  1  0.561099  0.181413  0.183888  1
  O  O39  1  0.010436  0.834752  0.906299  1
  O  O40  1  0.316112  0.318587  0.938901  1
  O  O41  1  0.824316  0.834752  0.428453  1
  O  O42  1  0.593701  0.428453  0.104138  1
  O  O43  1  0.428453  0.824316  0.834752  1
  O  O44  1  0.002475  0.318587  0.879686  1
  O  O45  1  0.122789  0.620314  0.938901  1
  O  O46  1  0.377211  0.561099  0.879686  1
  O  O47  1  0.104138  0.593701  0.428453  1
  O  O48  1  0.497525  0.620314  0.181413  1
  O  O49  1  0.318587  0.879686  0.002475  1
  O  O50  1  0.489564  0.593701  0.665248  1
  O  O51  1  0.620314  0.938901  0.122789  1
  O  O52  1  0.002475  0.183888  0.122789  1
  O  O53  1  0.428453  0.104138  0.593701  1
  O  O54  1  0.906299  0.395862  0.071547  1
  O  O55  1  0.181413  0.183888  0.561099  1
  O  O56  1  0.675684  0.071547  0.665248  1
  O  O57  1  0.938901  0.122789  0.620314  1
  O  O58  1  0.561099  0.879686  0.377211  1
  O  O59  1  0.183888  0.561099  0.181413  1
  O  O60  1  0.620314  0.181413  0.497525  1
  O  O61  1  0.071547  0.665248  0.675684  1
  O  O62  1  0.071547  0.906299  0.395862  1
  O  O63  1  0.675684  0.104138  0.010436  1
  O  O64  1  0.010436  0.675684  0.104138  1
  O  O65  1  0.395862  0.071547  0.906299  1
  O  O66  1  0.377211  0.316112  0.497525  1
  O  O67  1  0.906299  0.010436  0.834752  1
  O  O68  1  0.183888  0.122789  0.002475  1
  O  O69  1  0.181413  0.497525  0.620314  1
  O  O70  1  0.834752  0.906299  0.010436  1
  O  O71  1  0.497525  0.377211  0.316112  1
  O  O72  1  0.318587  0.938901  0.316112  1
  O  O73  1  0.395862  0.824316  0.489564  1
  O  O74  1  0.489564  0.395862  0.824316  1
  O  O75  1  0.824316  0.489564  0.395862  1
  O  O76  1  0.593701  0.665248  0.489564  1
  O  O77  1  0.104138  0.010436  0.675684  1
  O  O78  1  0.665248  0.675684  0.071547  1
  O  O79  1  0.834752  0.428453  0.824316  1
