# generated using pymatgen
data_KP2Au5S8
_symmetry_space_group_name_H-M   'P 1'
_cell_length_a   10.34632485
_cell_length_b   12.53122628
_cell_length_c   14.00171651
_cell_angle_alpha   90.00000000
_cell_angle_beta   90.00000000
_cell_angle_gamma   105.60886457
_symmetry_Int_Tables_number   1
_chemical_formula_structural   KP2Au5S8
_chemical_formula_sum   'K4 P8 Au20 S32'
_cell_volume   1748.40400288
_cell_formula_units_Z   4
loop_
 _symmetry_equiv_pos_site_id
 _symmetry_equiv_pos_as_xyz
  1  'x, y, z'
loop_
 _atom_site_type_symbol
 _atom_site_label
 _atom_site_symmetry_multiplicity
 _atom_site_fract_x
 _atom_site_fract_y
 _atom_site_fract_z
 _atom_site_occupancy
  K  K0  1  0.694389  0.331373  0.247519  1
  K  K1  1  0.305611  0.168627  0.747519  1
  K  K2  1  0.305611  0.668627  0.752481  1
  K  K3  1  0.694389  0.831373  0.252481  1
  P  P4  1  0.944575  0.116997  0.184242  1
  P  P5  1  0.055425  0.883003  0.815758  1
  P  P6  1  0.404652  0.705798  0.057217  1
  P  P7  1  0.055425  0.383003  0.684242  1
  P  P8  1  0.595348  0.794202  0.557217  1
  P  P9  1  0.404652  0.205798  0.442783  1
  P  P10  1  0.595348  0.294202  0.942783  1
  P  P11  1  0.944575  0.616997  0.315758  1
  Au  Au12  1  0.113748  0.451674  0.455771  1
  Au  Au13  1  0.886252  0.548326  0.544229  1
  Au  Au14  1  0.766750  0.959430  0.737276  1
  Au  Au15  1  0.242968  0.297661  0.255271  1
  Au  Au16  1  0.766750  0.459430  0.762724  1
  Au  Au17  1  0.939486  0.360117  0.910823  1
  Au  Au18  1  0.441176  0.430670  0.095014  1
  Au  Au19  1  0.441176  0.930670  0.404986  1
  Au  Au20  1  0.757032  0.702339  0.744729  1
  Au  Au21  1  0.886252  0.048326  0.955771  1
  Au  Au22  1  0.558824  0.569330  0.904986  1
  Au  Au23  1  0.233250  0.040570  0.262724  1
  Au  Au24  1  0.233250  0.540570  0.237276  1
  Au  Au25  1  0.060514  0.639883  0.089177  1
  Au  Au26  1  0.113748  0.951674  0.044229  1
  Au  Au27  1  0.558824  0.069330  0.595014  1
  Au  Au28  1  0.757032  0.202339  0.755271  1
  Au  Au29  1  0.242968  0.797661  0.244729  1
  Au  Au30  1  0.060514  0.139883  0.410823  1
  Au  Au31  1  0.939486  0.860117  0.589177  1
  S  S32  1  0.977793  0.527119  0.692381  1
  S  S33  1  0.220893  0.929045  0.901979  1
  S  S34  1  0.588947  0.648630  0.626637  1
  S  S35  1  0.918501  0.746252  0.867424  1
  S  S36  1  0.433618  0.756642  0.466746  1
  S  S37  1  0.588947  0.148630  0.873363  1
  S  S38  1  0.232790  0.628445  0.985424  1
  S  S39  1  0.767210  0.871555  0.485424  1
  S  S40  1  0.553433  0.901065  0.668256  1
  S  S41  1  0.433618  0.256642  0.033254  1
  S  S42  1  0.411053  0.351370  0.373363  1
  S  S43  1  0.220893  0.429045  0.598021  1
  S  S44  1  0.779107  0.070955  0.098021  1
  S  S45  1  0.918501  0.246252  0.632576  1
  S  S46  1  0.553433  0.401065  0.831744  1
  S  S47  1  0.767210  0.371555  0.014576  1
  S  S48  1  0.868867  0.130172  0.318456  1
  S  S49  1  0.446567  0.098935  0.331744  1
  S  S50  1  0.868867  0.630172  0.181544  1
  S  S51  1  0.446567  0.598935  0.168256  1
  S  S52  1  0.566382  0.243358  0.533254  1
  S  S53  1  0.081499  0.753748  0.367424  1
  S  S54  1  0.081499  0.253748  0.132576  1
  S  S55  1  0.022207  0.472881  0.307619  1
  S  S56  1  0.411053  0.851370  0.126637  1
  S  S57  1  0.977793  0.027119  0.807619  1
  S  S58  1  0.131133  0.369828  0.818456  1
  S  S59  1  0.779107  0.570955  0.401979  1
  S  S60  1  0.022207  0.972881  0.192381  1
  S  S61  1  0.232790  0.128445  0.514576  1
  S  S62  1  0.131133  0.869828  0.681544  1
  S  S63  1  0.566382  0.743358  0.966746  1
