# generated using pymatgen
data_Hg3AsBrO4
_symmetry_space_group_name_H-M   'P 1'
_cell_length_a   8.70106967
_cell_length_b   8.70106967
_cell_length_c   8.70106967
_cell_angle_alpha   90.00000000
_cell_angle_beta   90.00000000
_cell_angle_gamma   90.00000000
_symmetry_Int_Tables_number   1
_chemical_formula_structural   Hg3AsBrO4
_chemical_formula_sum   'Hg12 As4 Br4 O16'
_cell_volume   658.74591983
_cell_formula_units_Z   4
loop_
 _symmetry_equiv_pos_site_id
 _symmetry_equiv_pos_as_xyz
  1  'x, y, z'
loop_
 _atom_site_type_symbol
 _atom_site_label
 _atom_site_symmetry_multiplicity
 _atom_site_fract_x
 _atom_site_fract_y
 _atom_site_fract_z
 _atom_site_occupancy
  Hg  Hg0  1  0.893666  0.857521  0.552732  1
  Hg  Hg1  1  0.142479  0.052732  0.606334  1
  Hg  Hg2  1  0.393666  0.642479  0.447268  1
  Hg  Hg3  1  0.357521  0.947268  0.106334  1
  Hg  Hg4  1  0.052732  0.606334  0.142479  1
  Hg  Hg5  1  0.606334  0.142479  0.052732  1
  Hg  Hg6  1  0.947268  0.106334  0.357521  1
  Hg  Hg7  1  0.552732  0.893666  0.857521  1
  Hg  Hg8  1  0.642479  0.447268  0.393666  1
  Hg  Hg9  1  0.447268  0.393666  0.642479  1
  Hg  Hg10  1  0.857521  0.552732  0.893666  1
  Hg  Hg11  1  0.106334  0.357521  0.947268  1
  As  As12  1  0.517081  0.017081  0.482919  1
  As  As13  1  0.482919  0.517081  0.017081  1
  As  As14  1  0.982919  0.982919  0.982919  1
  As  As15  1  0.017081  0.482919  0.517081  1
  Br  Br16  1  0.263730  0.763730  0.736270  1
  Br  Br17  1  0.236270  0.236270  0.236270  1
  Br  Br18  1  0.763730  0.736270  0.263730  1
  Br  Br19  1  0.736270  0.263730  0.763730  1
  O  O20  1  0.602094  0.395704  0.124375  1
  O  O21  1  0.895704  0.375625  0.397906  1
  O  O22  1  0.604296  0.624375  0.897906  1
  O  O23  1  0.104296  0.875625  0.102094  1
  O  O24  1  0.102094  0.104296  0.875625  1
  O  O25  1  0.630435  0.130435  0.369565  1
  O  O26  1  0.397906  0.895704  0.375625  1
  O  O27  1  0.897906  0.604296  0.624375  1
  O  O28  1  0.869565  0.869565  0.869565  1
  O  O29  1  0.130435  0.369565  0.630435  1
  O  O30  1  0.369565  0.630435  0.130435  1
  O  O31  1  0.375625  0.397906  0.895704  1
  O  O32  1  0.124375  0.602094  0.395704  1
  O  O33  1  0.875625  0.102094  0.104296  1
  O  O34  1  0.624375  0.897906  0.604296  1
  O  O35  1  0.395704  0.124375  0.602094  1
