# generated using pymatgen
data_SrTi2O5
_symmetry_space_group_name_H-M   'P 1'
_cell_length_a   7.82216566
_cell_length_b   12.22987107
_cell_length_c   16.03998250
_cell_angle_alpha   90.00000000
_cell_angle_beta   90.00000000
_cell_angle_gamma   90.00000000
_symmetry_Int_Tables_number   1
_chemical_formula_structural   SrTi2O5
_chemical_formula_sum   'Sr8 Ti16 O40'
_cell_volume   1534.45012914
_cell_formula_units_Z   8
loop_
 _symmetry_equiv_pos_site_id
 _symmetry_equiv_pos_as_xyz
  1  'x, y, z'
loop_
 _atom_site_type_symbol
 _atom_site_label
 _atom_site_symmetry_multiplicity
 _atom_site_fract_x
 _atom_site_fract_y
 _atom_site_fract_z
 _atom_site_occupancy
  Sr  Sr0  1  0.742224  0.618904  0.136905  1
  Sr  Sr1  1  0.257776  0.618904  0.136905  1
  Sr  Sr2  1  0.242224  0.618904  0.636905  1
  Sr  Sr3  1  0.757776  0.618904  0.636905  1
  Sr  Sr4  1  0.242224  0.618904  0.363095  1
  Sr  Sr5  1  0.257776  0.618904  0.863095  1
  Sr  Sr6  1  0.742224  0.618904  0.863095  1
  Sr  Sr7  1  0.757776  0.618904  0.363095  1
  Ti  Ti8  1  0.762963  0.944960  0.000000  1
  Ti  Ti9  1  0.500000  0.768458  0.738683  1
  Ti  Ti10  1  0.500000  0.743668  0.500000  1
  Ti  Ti11  1  0.000000  0.768458  0.761317  1
  Ti  Ti12  1  0.500000  0.752760  0.000000  1
  Ti  Ti13  1  0.500000  0.768458  0.261317  1
  Ti  Ti14  1  0.000000  0.941921  0.633670  1
  Ti  Ti15  1  0.000000  0.768458  0.238683  1
  Ti  Ti16  1  0.737037  0.944960  0.500000  1
  Ti  Ti17  1  0.000000  0.941921  0.366330  1
  Ti  Ti18  1  0.262963  0.944960  0.500000  1
  Ti  Ti19  1  0.500000  0.941921  0.866330  1
  Ti  Ti20  1  0.237037  0.944960  0.000000  1
  Ti  Ti21  1  0.000000  0.743668  0.000000  1
  Ti  Ti22  1  0.000000  0.752760  0.500000  1
  Ti  Ti23  1  0.500000  0.941921  0.133670  1
  O  O24  1  0.500000  0.602153  0.240567  1
  O  O25  1  0.000000  0.746881  0.123382  1
  O  O26  1  0.250000  0.753960  0.750000  1
  O  O27  1  0.253816  0.778843  0.500000  1
  O  O28  1  0.500000  0.929276  0.500000  1
  O  O29  1  0.750000  0.753960  0.750000  1
  O  O30  1  0.746184  0.778843  0.500000  1
  O  O31  1  0.000000  0.922646  0.256516  1
  O  O32  1  0.206840  0.005690  0.399658  1
  O  O33  1  0.750000  0.753960  0.250000  1
  O  O34  1  0.000000  0.778443  0.377663  1
  O  O35  1  0.000000  0.929276  0.000000  1
  O  O36  1  0.000000  0.778443  0.622337  1
  O  O37  1  0.793160  0.005690  0.399658  1
  O  O38  1  0.500000  0.922646  0.756516  1
  O  O39  1  0.500000  0.746881  0.623382  1
  O  O40  1  0.293160  0.005690  0.100342  1
  O  O41  1  0.753816  0.778843  0.000000  1
  O  O42  1  0.206840  0.005690  0.600342  1
  O  O43  1  0.246184  0.778843  0.000000  1
  O  O44  1  0.250000  0.753960  0.250000  1
  O  O45  1  0.000000  0.746881  0.876618  1
  O  O46  1  0.000000  0.922646  0.743484  1
  O  O47  1  0.000000  0.602153  0.740567  1
  O  O48  1  0.500000  0.778443  0.877663  1
  O  O49  1  0.500000  0.922646  0.243484  1
  O  O50  1  0.706840  0.005690  0.100342  1
  O  O51  1  0.000000  0.604925  0.500000  1
  O  O52  1  0.293160  0.005690  0.899658  1
  O  O53  1  0.500000  0.602153  0.759433  1
  O  O54  1  0.000000  0.915805  0.500000  1
  O  O55  1  0.500000  0.915805  0.000000  1
  O  O56  1  0.500000  0.778443  0.122337  1
  O  O57  1  0.500000  0.604925  0.000000  1
  O  O58  1  0.793160  0.005690  0.600342  1
  O  O59  1  0.000000  0.602153  0.259433  1
  O  O60  1  0.706840  0.005690  0.899658  1
  O  O61  1  0.500000  0.597656  0.500000  1
  O  O62  1  0.500000  0.746881  0.376618  1
  O  O63  1  0.000000  0.597656  0.000000  1
