# generated using pymatgen
data_ZnHg2H14C4N6O13
_symmetry_space_group_name_H-M   'P 1'
_cell_length_a   6.61966540
_cell_length_b   9.58101267
_cell_length_c   16.50508782
_cell_angle_alpha   94.73293352
_cell_angle_beta   90.00000000
_cell_angle_gamma   110.20972586
_symmetry_Int_Tables_number   1
_chemical_formula_structural   ZnHg2H14C4N6O13
_chemical_formula_sum   'Zn2 Hg4 H28 C8 N12 O26'
_cell_volume   978.55216714
_cell_formula_units_Z   2
loop_
 _symmetry_equiv_pos_site_id
 _symmetry_equiv_pos_as_xyz
  1  'x, y, z'
loop_
 _atom_site_type_symbol
 _atom_site_label
 _atom_site_symmetry_multiplicity
 _atom_site_fract_x
 _atom_site_fract_y
 _atom_site_fract_z
 _atom_site_occupancy
  Zn  Zn0  1  0.000000  0.000000  0.500000  1
  Zn  Zn1  1  0.000000  0.000000  0.000000  1
  Hg  Hg2  1  0.478514  0.685810  0.085867  1
  Hg  Hg3  1  0.792704  0.314190  0.414133  1
  Hg  Hg4  1  0.521486  0.314190  0.914133  1
  Hg  Hg5  1  0.207296  0.685810  0.585867  1
  C  C6  1  0.275156  0.794689  0.054640  1
  C  C7  1  0.480467  0.205311  0.445360  1
  C  C8  1  0.724844  0.205311  0.945360  1
  C  C9  1  0.519533  0.794689  0.554640  1
  C  C10  1  0.675718  0.565277  0.103787  1
  C  C11  1  0.110442  0.434723  0.396213  1
  C  C12  1  0.324282  0.434723  0.896213  1
  C  C13  1  0.889558  0.565277  0.603787  1
  N  N14  1  0.166606  0.860409  0.035896  1
  N  N15  1  0.306197  0.139591  0.464104  1
  N  N16  1  0.833394  0.139591  0.964104  1
  N  N17  1  0.693803  0.860409  0.535896  1
  N  N18  1  0.787374  0.496826  0.114285  1
  N  N19  1  0.290549  0.503174  0.385715  1
  N  N20  1  0.212626  0.503174  0.885715  1
  N  N21  1  0.709451  0.496826  0.614285  1
  N  N22  1  0.390980  0.797869  0.282860  1
  N  N23  1  0.593111  0.202131  0.217140  1
  N  N24  1  0.609020  0.202131  0.717140  1
  N  N25  1  0.406889  0.797869  0.782860  1
  O  O26  1  0.065403  0.000000  0.250000  1
  O  O27  1  0.934597  0.000000  0.750000  1
  O  O28  1  0.749690  0.808711  0.943913  1
  O  O29  1  0.940979  0.191289  0.556087  1
  O  O30  1  0.250310  0.191289  0.056087  1
  O  O31  1  0.059021  0.808711  0.443913  1
  O  O32  1  0.824053  0.970425  0.111300  1
  O  O33  1  0.853628  0.029575  0.388700  1
  O  O34  1  0.175947  0.029575  0.888700  1
  O  O35  1  0.146372  0.970425  0.611300  1
  O  O36  1  0.152381  0.417539  0.137451  1
  O  O37  1  0.734842  0.582461  0.362549  1
  O  O38  1  0.847619  0.582461  0.862549  1
  O  O39  1  0.265158  0.417539  0.637451  1
  O  O40  1  0.424731  0.871497  0.353136  1
  O  O41  1  0.553234  0.128503  0.146864  1
  O  O42  1  0.575269  0.128503  0.646864  1
  O  O43  1  0.446766  0.871497  0.853136  1
  O  O44  1  0.206138  0.758592  0.248688  1
  O  O45  1  0.447546  0.241408  0.251312  1
  O  O46  1  0.793862  0.241408  0.751312  1
  O  O47  1  0.552454  0.758592  0.748688  1
  O  O48  1  0.542611  0.767021  0.249091  1
  O  O49  1  0.775590  0.232979  0.250909  1
  O  O50  1  0.457389  0.232979  0.750909  1
  O  O51  1  0.224411  0.767021  0.749091  1
  H  H52  1  0.111744  0.912075  0.252101  1
  H  H53  1  0.199668  0.087925  0.247899  1
  H  H54  1  0.888256  0.087925  0.747899  1
  H  H55  1  0.800332  0.912075  0.752101  1
  H  H56  1  0.351460  0.167661  0.092607  1
  H  H57  1  0.183799  0.832339  0.407393  1
  H  H58  1  0.648540  0.832339  0.907393  1
  H  H59  1  0.816201  0.167661  0.592607  1
  H  H60  1  0.204092  0.269219  0.086826  1
  H  H61  1  0.934873  0.730781  0.413174  1
  H  H62  1  0.795908  0.730781  0.913174  1
  H  H63  1  0.065127  0.269219  0.586826  1
  H  H64  1  0.913115  0.979482  0.161921  1
  H  H65  1  0.933633  0.020518  0.338079  1
  H  H66  1  0.086885  0.020518  0.838079  1
  H  H67  1  0.066367  0.979482  0.661921  1
  H  H68  1  0.741035  0.038547  0.123166  1
  H  H69  1  0.702488  0.961453  0.376834  1
  H  H70  1  0.258965  0.961453  0.876834  1
  H  H71  1  0.297512  0.038547  0.623166  1
  H  H72  1  0.014043  0.434762  0.129206  1
  H  H73  1  0.579280  0.565238  0.370794  1
  H  H74  1  0.985957  0.565238  0.870794  1
  H  H75  1  0.420720  0.434762  0.629206  1
  H  H76  1  0.167199  0.416140  0.196105  1
  H  H77  1  0.751060  0.583860  0.303895  1
  H  H78  1  0.832801  0.583860  0.803895  1
  H  H79  1  0.248940  0.416140  0.696105  1
