# generated using pymatgen
data_K3Nd(PS4)2
_symmetry_space_group_name_H-M   'P 1'
_cell_length_a   9.24675633
_cell_length_b   9.66927577
_cell_length_c   17.24130160
_cell_angle_alpha   90.00000000
_cell_angle_beta   90.00000000
_cell_angle_gamma   90.76795481
_symmetry_Int_Tables_number   1
_chemical_formula_structural   K3Nd(PS4)2
_chemical_formula_sum   'K12 Nd4 P8 S32'
_cell_volume   1541.39660284
_cell_formula_units_Z   4
loop_
 _symmetry_equiv_pos_site_id
 _symmetry_equiv_pos_as_xyz
  1  'x, y, z'
loop_
 _atom_site_type_symbol
 _atom_site_label
 _atom_site_symmetry_multiplicity
 _atom_site_fract_x
 _atom_site_fract_y
 _atom_site_fract_z
 _atom_site_occupancy
  Nd  Nd0  1  0.772410  0.974583  0.985449  1
  Nd  Nd1  1  0.227590  0.525417  0.485449  1
  Nd  Nd2  1  0.227590  0.025417  0.014551  1
  Nd  Nd3  1  0.772410  0.474583  0.514551  1
  P  P4  1  0.995502  0.743479  0.400397  1
  P  P5  1  0.004498  0.756521  0.900397  1
  P  P6  1  0.004498  0.256521  0.599603  1
  P  P7  1  0.995502  0.243479  0.099603  1
  P  P8  1  0.524693  0.719450  0.597694  1
  P  P9  1  0.475307  0.780550  0.097694  1
  P  P10  1  0.475307  0.280550  0.402306  1
  P  P11  1  0.524693  0.219450  0.902306  1
  S  S12  1  0.881673  0.860018  0.325457  1
  S  S13  1  0.118327  0.639982  0.825457  1
  S  S14  1  0.118327  0.139982  0.674543  1
  S  S15  1  0.881673  0.360018  0.174543  1
  S  S16  1  0.786044  0.726569  0.886945  1
  S  S17  1  0.213956  0.773431  0.386945  1
  S  S18  1  0.213956  0.273431  0.113055  1
  S  S19  1  0.786044  0.226569  0.613055  1
  S  S20  1  0.945250  0.757978  0.516546  1
  S  S21  1  0.054750  0.742022  0.016546  1
  S  S22  1  0.054750  0.242022  0.483454  1
  S  S23  1  0.945250  0.257978  0.983454  1
  S  S24  1  0.964933  0.533037  0.380276  1
  S  S25  1  0.035067  0.966963  0.880276  1
  S  S26  1  0.035067  0.466963  0.619724  1
  S  S27  1  0.964933  0.033037  0.119724  1
  S  S28  1  0.565223  0.919547  0.625325  1
  S  S29  1  0.434777  0.580453  0.125325  1
  S  S30  1  0.434777  0.080453  0.374675  1
  S  S31  1  0.565223  0.419547  0.874675  1
  S  S32  1  0.662784  0.591227  0.656310  1
  S  S33  1  0.337216  0.908773  0.156310  1
  S  S34  1  0.337216  0.408773  0.343690  1
  S  S35  1  0.662784  0.091227  0.843690  1
  S  S36  1  0.313914  0.670427  0.626578  1
  S  S37  1  0.686086  0.829573  0.126578  1
  S  S38  1  0.686086  0.329573  0.373422  1
  S  S39  1  0.313914  0.170427  0.873422  1
  S  S40  1  0.457764  0.821932  0.979719  1
  S  S41  1  0.542236  0.678068  0.479719  1
  S  S42  1  0.542236  0.178068  0.020281  1
  S  S43  1  0.457764  0.321932  0.520281  1
  K  K44  1  0.876954  0.875039  0.707098  1
  K  K45  1  0.123046  0.624961  0.207098  1
  K  K46  1  0.123046  0.124961  0.292902  1
  K  K47  1  0.876954  0.375039  0.792902  1
  K  K48  1  0.381676  0.870359  0.787989  1
  K  K49  1  0.618324  0.629641  0.287989  1
  K  K50  1  0.618324  0.129641  0.212011  1
  K  K51  1  0.381676  0.370359  0.712011  1
  K  K52  1  0.267494  0.986099  0.530307  1
  K  K53  1  0.732506  0.513901  0.030307  1
  K  K54  1  0.732506  0.013901  0.469693  1
  K  K55  1  0.267494  0.486099  0.969693  1
