# generated using pymatgen
data_EuSn
_symmetry_space_group_name_H-M   'P 1'
_cell_length_a   4.47163578
_cell_length_b   4.94142298
_cell_length_c   6.44248271
_cell_angle_alpha   112.55084097
_cell_angle_beta   90.00000000
_cell_angle_gamma   90.00000000
_symmetry_Int_Tables_number   1
_chemical_formula_structural   EuSn
_chemical_formula_sum   'Eu2 Sn2'
_cell_volume   131.47017337
_cell_formula_units_Z   2
loop_
 _symmetry_equiv_pos_site_id
 _symmetry_equiv_pos_as_xyz
  1  'x, y, z'
loop_
 _atom_site_type_symbol
 _atom_site_label
 _atom_site_symmetry_multiplicity
 _atom_site_fract_x
 _atom_site_fract_y
 _atom_site_fract_z
 _atom_site_occupancy
  Eu  Eu0  1  0.750000  0.134488  0.268976  1
  Eu  Eu1  1  0.250000  0.865512  0.731024  1
  Sn  Sn2  1  0.250000  0.582197  0.164395  1
  Sn  Sn3  1  0.750000  0.417803  0.835605  1
