# generated using pymatgen
data_SbH3CSCl6O
_symmetry_space_group_name_H-M   'P 1'
_cell_length_a   6.77427498
_cell_length_b   9.34652980
_cell_length_c   20.16560937
_cell_angle_alpha   90.00000000
_cell_angle_beta   90.00000000
_cell_angle_gamma   99.41004395
_symmetry_Int_Tables_number   1
_chemical_formula_structural   SbH3CSCl6O
_chemical_formula_sum   'Sb4 H12 C4 S4 Cl24 O4'
_cell_volume   1259.62366989
_cell_formula_units_Z   4
loop_
 _symmetry_equiv_pos_site_id
 _symmetry_equiv_pos_as_xyz
  1  'x, y, z'
loop_
 _atom_site_type_symbol
 _atom_site_label
 _atom_site_symmetry_multiplicity
 _atom_site_fract_x
 _atom_site_fract_y
 _atom_site_fract_z
 _atom_site_occupancy
  Sb  Sb0  1  0.664334  0.714727  0.374514  1
  Sb  Sb1  1  0.835666  0.785273  0.874514  1
  Sb  Sb2  1  0.335666  0.285273  0.625486  1
  Sb  Sb3  1  0.164334  0.214727  0.125486  1
  H  H4  1  0.253902  0.292845  0.862747  1
  H  H5  1  0.669874  0.630934  0.056693  1
  H  H6  1  0.246098  0.207155  0.362747  1
  H  H7  1  0.220725  0.476212  0.882409  1
  H  H8  1  0.830126  0.869066  0.556693  1
  H  H9  1  0.746098  0.707155  0.137253  1
  H  H10  1  0.753902  0.792845  0.637253  1
  H  H11  1  0.779275  0.523788  0.117591  1
  H  H12  1  0.720725  0.976212  0.617591  1
  H  H13  1  0.169874  0.130934  0.443307  1
  H  H14  1  0.279275  0.023788  0.382409  1
  H  H15  1  0.330126  0.369066  0.943307  1
  C  C16  1  0.686462  0.608424  0.109583  1
  C  C17  1  0.813538  0.891576  0.609583  1
  C  C18  1  0.186462  0.108424  0.390417  1
  C  C19  1  0.313538  0.391576  0.890417  1
  S  S20  1  0.947736  0.037608  0.355555  1
  S  S21  1  0.447736  0.537608  0.144445  1
  S  S22  1  0.052264  0.962392  0.644445  1
  S  S23  1  0.552264  0.462392  0.855555  1
  Cl  Cl24  1  0.452635  0.498303  0.343516  1
  Cl  Cl25  1  0.547365  0.501697  0.656484  1
  Cl  Cl26  1  0.972329  0.640459  0.793376  1
  Cl  Cl27  1  0.835154  0.608876  0.459230  1
  Cl  Cl28  1  0.027671  0.359541  0.206624  1
  Cl  Cl29  1  0.802887  0.208789  0.376411  1
  Cl  Cl30  1  0.472329  0.140459  0.706624  1
  Cl  Cl31  1  0.441345  0.785702  0.454776  1
  Cl  Cl32  1  0.527671  0.859541  0.293376  1
  Cl  Cl33  1  0.920062  0.682643  0.296599  1
  Cl  Cl34  1  0.164846  0.391124  0.540770  1
  Cl  Cl35  1  0.197113  0.791211  0.623589  1
  Cl  Cl36  1  0.079938  0.317357  0.703401  1
  Cl  Cl37  1  0.058655  0.714298  0.954776  1
  Cl  Cl38  1  0.579938  0.817357  0.796599  1
  Cl  Cl39  1  0.952635  0.998303  0.156484  1
  Cl  Cl40  1  0.558655  0.214298  0.545224  1
  Cl  Cl41  1  0.420062  0.182643  0.203401  1
  Cl  Cl42  1  0.335154  0.108876  0.040770  1
  Cl  Cl43  1  0.302887  0.708789  0.123589  1
  Cl  Cl44  1  0.047365  0.001697  0.843516  1
  Cl  Cl45  1  0.664846  0.891124  0.959230  1
  Cl  Cl46  1  0.697113  0.291211  0.876411  1
  Cl  Cl47  1  0.941345  0.285702  0.045224  1
  O  O48  1  0.630632  0.582777  0.905300  1
  O  O49  1  0.369368  0.417223  0.094700  1
  O  O50  1  0.869368  0.917223  0.405300  1
  O  O51  1  0.130632  0.082777  0.594700  1
