# generated using pymatgen
data_Dy2Ni7Sn3
_symmetry_space_group_name_H-M   'P 1'
_cell_length_a   7.55798908
_cell_length_b   8.59536257
_cell_length_c   12.62326500
_cell_angle_alpha   109.90472854
_cell_angle_beta   90.00000000
_cell_angle_gamma   90.00000000
_symmetry_Int_Tables_number   1
_chemical_formula_structural   Dy2Ni7Sn3
_chemical_formula_sum   'Dy8 Ni28 Sn12'
_cell_volume   771.06348480
_cell_formula_units_Z   4
loop_
 _symmetry_equiv_pos_site_id
 _symmetry_equiv_pos_as_xyz
  1  'x, y, z'
loop_
 _atom_site_type_symbol
 _atom_site_label
 _atom_site_symmetry_multiplicity
 _atom_site_fract_x
 _atom_site_fract_y
 _atom_site_fract_z
 _atom_site_occupancy
  Dy  Dy0  1  0.500000  0.706673  0.000000  1
  Dy  Dy1  1  0.427061  0.806450  0.612900  1
  Dy  Dy2  1  0.000000  0.793327  1.000000  1
  Dy  Dy3  1  0.572939  0.193550  0.387100  1
  Dy  Dy4  1  0.000000  0.206673  0.000000  1
  Dy  Dy5  1  0.500000  0.293327  1.000000  1
  Dy  Dy6  1  0.927061  0.693550  0.387100  1
  Dy  Dy7  1  0.072939  0.306450  0.612900  1
  Ni  Ni8  1  0.809905  0.834893  0.669786  1
  Ni  Ni9  1  0.408163  0.355582  0.232365  1
  Ni  Ni10  1  0.908163  0.623218  0.767635  1
  Ni  Ni11  1  0.578453  0.846232  0.394904  1
  Ni  Ni12  1  0.421547  0.153768  0.605096  1
  Ni  Ni13  1  0.921547  0.346232  0.394904  1
  Ni  Ni14  1  0.591837  0.644418  0.767635  1
  Ni  Ni15  1  0.921547  0.048672  0.394904  1
  Ni  Ni16  1  0.578453  0.548672  0.394904  1
  Ni  Ni17  1  0.444559  0.399065  0.798130  1
  Ni  Ni18  1  0.055441  0.899065  0.798130  1
  Ni  Ni19  1  0.408163  0.876782  0.232365  1
  Ni  Ni20  1  0.690095  0.334893  0.669786  1
  Ni  Ni21  1  0.078453  0.951328  0.605096  1
  Ni  Ni22  1  0.091837  0.855582  0.232365  1
  Ni  Ni23  1  0.078453  0.653768  0.605096  1
  Ni  Ni24  1  0.091837  0.376782  0.232365  1
  Ni  Ni25  1  0.646725  0.046447  0.092895  1
  Ni  Ni26  1  0.944559  0.100935  0.201870  1
  Ni  Ni27  1  0.190095  0.165107  0.330214  1
  Ni  Ni28  1  0.908163  0.144418  0.767635  1
  Ni  Ni29  1  0.421547  0.451328  0.605096  1
  Ni  Ni30  1  0.555441  0.600935  0.201870  1
  Ni  Ni31  1  0.353275  0.953553  0.907105  1
  Ni  Ni32  1  0.146725  0.453553  0.907105  1
  Ni  Ni33  1  0.853275  0.546447  0.092895  1
  Ni  Ni34  1  0.591837  0.123218  0.767635  1
  Ni  Ni35  1  0.309905  0.665107  0.330214  1
  Sn  Sn36  1  0.250000  0.468494  0.436988  1
  Sn  Sn37  1  0.750000  0.031506  0.563012  1
  Sn  Sn38  1  0.204866  0.561965  0.123931  1
  Sn  Sn39  1  0.250000  0.143949  0.787897  1
  Sn  Sn40  1  0.750000  0.356051  0.212103  1
  Sn  Sn41  1  0.704866  0.938035  0.876069  1
  Sn  Sn42  1  0.750000  0.856051  0.212103  1
  Sn  Sn43  1  0.250000  0.968494  0.436988  1
  Sn  Sn44  1  0.795134  0.438035  0.876069  1
  Sn  Sn45  1  0.295134  0.061965  0.123931  1
  Sn  Sn46  1  0.750000  0.531506  0.563012  1
  Sn  Sn47  1  0.250000  0.643949  0.787897  1
