# generated using pymatgen
data_HfNCl
_symmetry_space_group_name_H-M   'P 1'
_cell_length_a   9.72879250
_cell_length_b   9.72879269
_cell_length_c   9.72879310
_cell_angle_alpha   21.26021723
_cell_angle_beta   21.26021448
_cell_angle_gamma   21.26021475
_symmetry_Int_Tables_number   1
_chemical_formula_structural   HfNCl
_chemical_formula_sum   'Hf2 N2 Cl2'
_cell_volume   106.05375852
_cell_formula_units_Z   2
loop_
 _symmetry_equiv_pos_site_id
 _symmetry_equiv_pos_as_xyz
  1  'x, y, z'
loop_
 _atom_site_type_symbol
 _atom_site_label
 _atom_site_symmetry_multiplicity
 _atom_site_fract_x
 _atom_site_fract_y
 _atom_site_fract_z
 _atom_site_occupancy
  Hf  Hf0  1  0.121014  0.121014  0.121014  1
  Hf  Hf1  1  0.878986  0.878986  0.878986  1
  Cl  Cl2  1  0.390791  0.390791  0.390791  1
  Cl  Cl3  1  0.609209  0.609209  0.609209  1
  N  N4  1  0.196833  0.196833  0.196833  1
  N  N5  1  0.803167  0.803167  0.803167  1
