# generated using pymatgen
data_BaCu(SiO3)2
_symmetry_space_group_name_H-M   'P 1'
_cell_length_a   10.07341955
_cell_length_b   10.07340566
_cell_length_c   13.47706203
_cell_angle_alpha   111.95219599
_cell_angle_beta   111.95215484
_cell_angle_gamma   90.00089070
_symmetry_Int_Tables_number   1
_chemical_formula_structural   BaCu(SiO3)2
_chemical_formula_sum   'Ba8 Cu8 Si16 O48'
_cell_volume   1160.81681562
_cell_formula_units_Z   8
loop_
 _symmetry_equiv_pos_site_id
 _symmetry_equiv_pos_as_xyz
  1  'x, y, z'
loop_
 _atom_site_type_symbol
 _atom_site_label
 _atom_site_symmetry_multiplicity
 _atom_site_fract_x
 _atom_site_fract_y
 _atom_site_fract_z
 _atom_site_occupancy
  Ba  Ba0  1  0.512967  0.750003  0.500014  1
  Ba  Ba1  1  0.987036  0.250002  0.499969  1
  Ba  Ba2  1  0.012963  0.749981  0.500023  1
  Ba  Ba3  1  0.487042  0.249984  0.499991  1
  Ba  Ba4  1  0.250004  0.012950  1.000007  1
  Ba  Ba5  1  0.249995  0.512967  1.000024  1
  Ba  Ba6  1  0.750009  0.487032  -0.000024  1
  Ba  Ba7  1  0.749998  0.987039  -0.000009  1
  Cu  Cu8  1  0.066537  0.316520  0.133032  1
  Cu  Cu9  1  0.683454  0.933496  0.366955  1
  Si  Si10  1  0.099467  0.126684  0.750782  1
  Si  Si11  1  0.126673  0.651308  0.250804  1
  Si  Si12  1  0.373312  0.400530  0.749217  1
  Si  Si13  1  0.599467  0.624116  0.750791  1
  Si  Si14  1  0.624133  0.151310  0.250788  1
  Si  Si15  1  0.124125  0.099478  0.250792  1
  Si  Si16  1  0.900523  0.873314  0.249223  1
  Si  Si17  1  0.875877  0.900522  0.749204  1
  Cu  Cu18  1  0.566500  0.816543  0.133068  1
  Cu  Cu19  1  0.183532  0.433502  0.366971  1
  Cu  Cu20  1  0.933452  0.683457  0.866927  1
  Si  Si21  1  0.873333  0.348688  0.749198  1
  Si  Si22  1  0.848716  0.373331  0.249200  1
  Si  Si23  1  0.151302  0.626662  0.750800  1
  Cu  Cu24  1  0.816513  0.566488  0.633051  1
  Si  Si25  1  0.651293  0.124122  0.750782  1
  Cu  Cu26  1  0.316481  0.066515  0.633052  1
  Si  Si27  1  0.400542  0.375876  0.249207  1
  Si  Si28  1  0.375873  0.848703  0.749216  1
  Si  Si29  1  0.626691  0.599476  0.250779  1
  Si  Si30  1  0.348688  0.875871  0.249213  1
  Cu  Cu31  1  0.433469  0.183532  0.866955  1
  O  O32  1  0.719011  0.741762  0.369436  1
  O  O33  1  0.875065  0.965548  0.366950  1
  O  O34  1  0.534451  0.624933  0.133053  1
  O  O35  1  0.008101  0.534439  0.633055  1
  O  O36  1  0.735927  0.484876  0.215805  1
  O  O37  1  0.349463  0.872252  0.630537  1
  O  O38  1  0.235951  0.730920  0.215868  1
  O  O39  1  0.780993  0.372257  0.630538  1
  O  O40  1  0.901466  0.875083  0.866950  1
  O  O41  1  0.280976  0.258253  0.630561  1
  O  O42  1  0.479909  0.230915  0.215853  1
  O  O43  1  0.491904  0.901477  0.366964  1
  O  O44  1  0.965549  0.491896  0.866939  1
  O  O45  1  0.515131  0.520084  0.284155  1
  O  O46  1  0.627743  0.150534  0.869461  1
  O  O47  1  0.741746  0.650501  0.869455  1
  O  O48  1  0.269079  0.020092  0.284148  1
  O  O49  1  0.219020  0.627733  0.369462  1
  O  O50  1  0.508062  0.098518  0.633040  1
  O  O51  1  0.984880  0.235916  0.715800  1
  O  O52  1  0.769085  0.264053  0.284132  1
  O  O53  1  0.150527  0.241764  0.369458  1
  O  O54  1  0.849490  0.758229  0.630543  1
  O  O55  1  0.241741  0.219023  0.869440  1
  O  O56  1  0.264075  0.515113  0.784196  1
  O  O57  1  0.020089  0.015114  0.784155  1
  O  O58  1  0.991927  0.465544  0.366943  1
  O  O59  1  0.258266  0.349494  0.130541  1
  O  O60  1  0.127715  0.718996  0.869458  1
  O  O61  1  0.372231  0.849474  0.130537  1
  O  O62  1  0.124902  0.034443  0.633048  1
  O  O63  1  0.758237  0.780990  0.130567  1
  O  O64  1  0.872300  0.281003  0.130540  1
  O  O65  1  0.624915  0.598524  0.633049  1
  O  O66  1  0.979920  0.984876  0.215846  1
  O  O67  1  0.520088  0.769074  0.784148  1
  O  O68  1  0.598522  0.008092  0.133040  1
  O  O69  1  0.375114  0.401467  0.366955  1
  O  O70  1  0.015120  0.764075  0.284197  1
  O  O71  1  0.034458  0.508110  0.133053  1
  O  O72  1  0.230929  0.735936  0.715866  1
  O  O73  1  0.650529  0.127770  0.369467  1
  O  O74  1  0.730920  0.979903  0.715851  1
  O  O75  1  0.465555  0.375103  0.866954  1
  O  O76  1  0.484880  0.479903  0.715842  1
  O  O77  1  0.401476  0.991939  0.866957  1
  O  O78  1  0.098542  0.124929  0.133051  1
  O  O79  1  0.764056  0.269065  0.784132  1
