# generated using pymatgen
data_La2Si2O7
_symmetry_space_group_name_H-M   'P 1'
_cell_length_a   5.52720238
_cell_length_b   8.85116856
_cell_length_c   13.25321756
_cell_angle_alpha   90.00000000
_cell_angle_beta   89.83819444
_cell_angle_gamma   90.00000000
_symmetry_Int_Tables_number   1
_chemical_formula_structural   La2Si2O7
_chemical_formula_sum   'La8 Si8 O28'
_cell_volume   648.37397364
_cell_formula_units_Z   4
loop_
 _symmetry_equiv_pos_site_id
 _symmetry_equiv_pos_as_xyz
  1  'x, y, z'
loop_
 _atom_site_type_symbol
 _atom_site_label
 _atom_site_symmetry_multiplicity
 _atom_site_fract_x
 _atom_site_fract_y
 _atom_site_fract_z
 _atom_site_occupancy
  O  O0  1  0.361623  0.829774  0.669981  1
  O  O1  1  0.138377  0.329774  0.830019  1
  O  O2  1  0.638377  0.170226  0.330019  1
  O  O3  1  0.861623  0.670226  0.169981  1
  O  O4  1  0.499155  0.087629  0.740229  1
  O  O5  1  0.000845  0.587629  0.759771  1
  O  O6  1  0.500845  0.912371  0.259771  1
  O  O7  1  0.999155  0.412371  0.240229  1
  O  O8  1  0.031161  0.023486  0.749461  1
  O  O9  1  0.468839  0.523486  0.750539  1
  O  O10  1  0.968839  0.976514  0.250539  1
  O  O11  1  0.531161  0.476514  0.249461  1
  O  O12  1  0.155793  0.257982  0.406844  1
  O  O13  1  0.344207  0.757982  0.093156  1
  O  O14  1  0.844207  0.742018  0.593156  1
  O  O15  1  0.655793  0.242018  0.906844  1
  O  O16  1  0.731428  0.419512  0.067640  1
  O  O17  1  0.768572  0.919512  0.432360  1
  O  O18  1  0.268572  0.580488  0.932360  1
  O  O19  1  0.231428  0.080488  0.567640  1
  O  O20  1  0.974710  0.153255  0.052527  1
  O  O21  1  0.525290  0.653255  0.447473  1
  O  O22  1  0.025290  0.846745  0.947473  1
  O  O23  1  0.474710  0.346745  0.552527  1
  O  O24  1  0.503000  0.144660  0.080245  1
  O  O25  1  0.997000  0.644660  0.419755  1
  O  O26  1  0.497000  0.855340  0.919755  1
  O  O27  1  0.003000  0.355340  0.580245  1
  Si  Si28  1  0.276791  0.005646  0.679120  1
  Si  Si29  1  0.223209  0.505646  0.820880  1
  Si  Si30  1  0.723209  0.994354  0.320880  1
  Si  Si31  1  0.776791  0.494354  0.179120  1
  Si  Si32  1  0.223802  0.254742  0.526407  1
  Si  Si33  1  0.276198  0.754742  0.973593  1
  Si  Si34  1  0.776198  0.745258  0.473593  1
  Si  Si35  1  0.723802  0.245258  0.026407  1
  La  La36  1  0.742773  0.892043  0.089235  1
  La  La37  1  0.757227  0.392043  0.410765  1
  La  La38  1  0.257227  0.107957  0.910765  1
  La  La39  1  0.242773  0.607957  0.589235  1
  La  La40  1  0.251339  0.688470  0.266460  1
  La  La41  1  0.248661  0.188470  0.233540  1
  La  La42  1  0.748661  0.311530  0.733540  1
  La  La43  1  0.751339  0.811530  0.766460  1
