# generated using pymatgen
data_AgClO2
_symmetry_space_group_name_H-M   'P 1'
_cell_length_a   4.84239811
_cell_length_b   4.84239762
_cell_length_c   7.02282657
_cell_angle_alpha   89.96785086
_cell_angle_beta   89.96785083
_cell_angle_gamma   89.63340581
_symmetry_Int_Tables_number   1
_chemical_formula_structural   AgClO2
_chemical_formula_sum   'Ag2 Cl2 O4'
_cell_volume   164.67355334
_cell_formula_units_Z   2
loop_
 _symmetry_equiv_pos_site_id
 _symmetry_equiv_pos_as_xyz
  1  'x, y, z'
loop_
 _atom_site_type_symbol
 _atom_site_label
 _atom_site_symmetry_multiplicity
 _atom_site_fract_x
 _atom_site_fract_y
 _atom_site_fract_z
 _atom_site_occupancy
  Ag  Ag0  1  0.749945  0.249945  0.389458  1
  O  O1  1  0.069688  0.569688  0.308061  1
  O  O2  1  0.930294  0.430294  0.691932  1
  O  O3  1  0.569694  0.069694  0.691991  1
  Cl  Cl4  1  0.250091  0.750091  0.164174  1
  Cl  Cl5  1  0.749919  0.249919  0.835800  1
  Ag  Ag6  1  0.250042  0.750042  0.610578  1
  O  O7  1  0.430326  0.930326  0.308006  1
