# generated using pymatgen
data_Na3FeS3
_symmetry_space_group_name_H-M   'P 1'
_cell_length_a   12.01287606
_cell_length_b   7.45367203
_cell_length_c   7.10849678
_cell_angle_alpha   90.00000000
_cell_angle_beta   90.00000000
_cell_angle_gamma   91.22655587
_symmetry_Int_Tables_number   1
_chemical_formula_structural   Na3FeS3
_chemical_formula_sum   'Na12 Fe4 S12'
_cell_volume   636.34923339
_cell_formula_units_Z   4
loop_
 _symmetry_equiv_pos_site_id
 _symmetry_equiv_pos_as_xyz
  1  'x, y, z'
loop_
 _atom_site_type_symbol
 _atom_site_label
 _atom_site_symmetry_multiplicity
 _atom_site_fract_x
 _atom_site_fract_y
 _atom_site_fract_z
 _atom_site_occupancy
  Na  Na0  1  0.605185  0.659851  0.482946  1
  Na  Na1  1  0.720091  0.203085  0.985834  1
  Na  Na2  1  0.108196  0.171144  0.490759  1
  Na  Na3  1  0.891804  0.828856  0.509241  1
  Na  Na4  1  0.608196  0.671144  0.009241  1
  Na  Na5  1  0.779909  0.296915  0.485834  1
  Na  Na6  1  0.391804  0.328856  0.990759  1
  Na  Na7  1  0.279909  0.796915  0.014166  1
  Na  Na8  1  0.394815  0.340149  0.517054  1
  Na  Na9  1  0.220091  0.703085  0.514166  1
  Na  Na10  1  0.894815  0.840149  0.982946  1
  Na  Na11  1  0.105185  0.159851  0.017054  1
  Fe  Fe12  1  0.927138  0.434035  0.865559  1
  Fe  Fe13  1  0.572862  0.065965  0.365559  1
  Fe  Fe14  1  0.072862  0.565965  0.134441  1
  Fe  Fe15  1  0.427138  0.934035  0.634441  1
  S  S16  1  0.930019  0.148827  0.750865  1
  S  S17  1  0.086538  0.588039  0.818516  1
  S  S18  1  0.586538  0.088039  0.681484  1
  S  S19  1  0.281549  0.083680  0.746475  1
  S  S20  1  0.218451  0.416320  0.246475  1
  S  S21  1  0.069981  0.851173  0.249135  1
  S  S22  1  0.718451  0.916320  0.253525  1
  S  S23  1  0.913462  0.411961  0.181484  1
  S  S24  1  0.413462  0.911961  0.318516  1
  S  S25  1  0.569981  0.351173  0.250865  1
  S  S26  1  0.430019  0.648827  0.749135  1
  S  S27  1  0.781549  0.583680  0.753525  1
