# generated using pymatgen
data_CsW3Br3Cl4
_symmetry_space_group_name_H-M   'P 1'
_cell_length_a   10.33226043
_cell_length_b   10.33226060
_cell_length_c   15.91975829
_cell_angle_alpha   90.00000000
_cell_angle_beta   90.00000000
_cell_angle_gamma   119.99999947
_symmetry_Int_Tables_number   1
_chemical_formula_structural   CsW3Br3Cl4
_chemical_formula_sum   'Cs4 W12 Br12 Cl16'
_cell_volume   1471.83050365
_cell_formula_units_Z   4
loop_
 _symmetry_equiv_pos_site_id
 _symmetry_equiv_pos_as_xyz
  1  'x, y, z'
loop_
 _atom_site_type_symbol
 _atom_site_label
 _atom_site_symmetry_multiplicity
 _atom_site_fract_x
 _atom_site_fract_y
 _atom_site_fract_z
 _atom_site_occupancy
  Cs  Cs0  1  0.000000  0.000000  0.515923  1
  Cs  Cs1  1  0.000000  0.000000  0.015923  1
  Cs  Cs2  1  0.333333  0.666667  0.242136  1
  Cs  Cs3  1  0.666667  0.333333  0.742136  1
  W  W4  1  0.181980  0.523461  0.679767  1
  W  W5  1  0.658519  0.476539  0.179767  1
  W  W6  1  0.523461  0.181980  0.179767  1
  W  W7  1  0.326704  0.515916  0.814703  1
  W  W8  1  0.476539  0.658519  0.679767  1
  W  W9  1  0.189211  0.673296  0.814703  1
  W  W10  1  0.810789  0.484084  0.314703  1
  W  W11  1  0.341481  0.818020  0.679767  1
  W  W12  1  0.673296  0.189211  0.314703  1
  W  W13  1  0.818020  0.341481  0.179767  1
  W  W14  1  0.484084  0.810789  0.814703  1
  W  W15  1  0.515916  0.326704  0.314703  1
  Br  Br16  1  0.023921  0.696693  0.402832  1
  Br  Br17  1  0.696693  0.023921  0.902832  1
  Br  Br18  1  0.321132  0.959658  0.091300  1
  Br  Br19  1  0.040342  0.361474  0.091300  1
  Br  Br20  1  0.976079  0.672772  0.902832  1
  Br  Br21  1  0.678868  0.638526  0.591300  1
  Br  Br22  1  0.959658  0.321132  0.591300  1
  Br  Br23  1  0.327228  0.303307  0.902832  1
  Br  Br24  1  0.672772  0.976079  0.402832  1
  Br  Br25  1  0.303307  0.327228  0.402832  1
  Br  Br26  1  0.361474  0.040342  0.591300  1
  Br  Br27  1  0.638526  0.678868  0.091300  1
  Cl  Cl28  1  0.608461  0.655391  0.813210  1
  Cl  Cl29  1  0.666667  0.333333  0.439680  1
  Cl  Cl30  1  0.333333  0.666667  0.939680  1
  Cl  Cl31  1  0.344609  0.953070  0.813210  1
  Cl  Cl32  1  0.683591  0.061027  0.181229  1
  Cl  Cl33  1  0.953070  0.344609  0.313210  1
  Cl  Cl34  1  0.046930  0.391539  0.813210  1
  Cl  Cl35  1  0.061027  0.683591  0.681229  1
  Cl  Cl36  1  0.391539  0.046930  0.313210  1
  Cl  Cl37  1  0.377436  0.316409  0.181229  1
  Cl  Cl38  1  0.938973  0.622564  0.181229  1
  Cl  Cl39  1  0.666667  0.333333  0.054340  1
  Cl  Cl40  1  0.316409  0.377436  0.681229  1
  Cl  Cl41  1  0.655391  0.608461  0.313210  1
  Cl  Cl42  1  0.333333  0.666667  0.554340  1
  Cl  Cl43  1  0.622564  0.938973  0.681229  1
