# generated using pymatgen
data_Rb4Ti3S14
_symmetry_space_group_name_H-M   'P 1'
_cell_length_a   8.33286650
_cell_length_b   11.53894120
_cell_length_c   13.70156891
_cell_angle_alpha   112.23154101
_cell_angle_beta   90.00000000
_cell_angle_gamma   111.16628367
_symmetry_Int_Tables_number   1
_chemical_formula_structural   Rb4Ti3S14
_chemical_formula_sum   'Rb8 Ti6 S28'
_cell_volume   1122.89997876
_cell_formula_units_Z   2
loop_
 _symmetry_equiv_pos_site_id
 _symmetry_equiv_pos_as_xyz
  1  'x, y, z'
loop_
 _atom_site_type_symbol
 _atom_site_label
 _atom_site_symmetry_multiplicity
 _atom_site_fract_x
 _atom_site_fract_y
 _atom_site_fract_z
 _atom_site_occupancy
  Rb  Rb0  1  0.118848  0.594720  0.886507  1
  Rb  Rb1  1  0.524128  0.405280  0.613493  1
  Rb  Rb2  1  0.881152  0.405280  0.113493  1
  Rb  Rb3  1  0.475872  0.594720  0.386507  1
  Rb  Rb4  1  0.828708  0.132087  0.647018  1
  Rb  Rb5  1  0.696621  0.867913  0.852982  1
  Rb  Rb6  1  0.171292  0.867913  0.352982  1
  Rb  Rb7  1  0.303379  0.132087  0.147018  1
  Ti  Ti8  1  0.088611  0.665389  0.583117  1
  Ti  Ti9  1  0.423223  0.334611  0.916883  1
  Ti  Ti10  1  0.911389  0.334611  0.416882  1
  Ti  Ti11  1  0.576777  0.665389  0.083117  1
  Ti  Ti12  1  0.264356  0.000000  0.750000  1
  Ti  Ti13  1  0.735644  0.000000  0.250000  1
  S  S14  1  0.069967  0.809282  0.785924  1
  S  S15  1  0.260684  0.190718  0.714076  1
  S  S16  1  0.930033  0.190718  0.214076  1
  S  S17  1  0.739316  0.809282  0.285924  1
  S  S18  1  0.935224  0.443337  0.598502  1
  S  S19  1  0.491887  0.556663  0.901498  1
  S  S20  1  0.064776  0.556663  0.401498  1
  S  S21  1  0.508113  0.443337  0.098502  1
  S  S22  1  0.974943  0.138682  0.415848  1
  S  S23  1  0.836260  0.861318  0.084152  1
  S  S24  1  0.025057  0.861318  0.584152  1
  S  S25  1  0.163740  0.138682  0.915848  1
  S  S26  1  0.315053  0.656543  0.160454  1
  S  S27  1  0.658510  0.343457  0.339546  1
  S  S28  1  0.684947  0.343457  0.839546  1
  S  S29  1  0.341490  0.656543  0.660454  1
  S  S30  1  0.305427  0.922891  0.889671  1
  S  S31  1  0.382537  0.077109  0.610329  1
  S  S32  1  0.694573  0.077109  0.110329  1
  S  S33  1  0.617463  0.922891  0.389671  1
  S  S34  1  0.435168  0.829281  0.131114  1
  S  S35  1  0.605887  0.170719  0.368886  1
  S  S36  1  0.564832  0.170719  0.868886  1
  S  S37  1  0.394113  0.829281  0.631114  1
  S  S38  1  0.108879  0.292192  0.898038  1
  S  S39  1  0.816687  0.707808  0.601962  1
  S  S40  1  0.891121  0.707808  0.101962  1
  S  S41  1  0.183313  0.292192  0.398037  1
