# generated using pymatgen
data_BaNa2V2CuO8
_symmetry_space_group_name_H-M   'P 1'
_cell_length_a   5.57934280
_cell_length_b   5.57934292
_cell_length_c   14.19100773
_cell_angle_alpha   87.01604069
_cell_angle_beta   87.01604063
_cell_angle_gamma   63.27402275
_symmetry_Int_Tables_number   1
_chemical_formula_structural   BaNa2V2CuO8
_chemical_formula_sum   'Ba2 Na4 V4 Cu2 O16'
_cell_volume   393.82109134
_cell_formula_units_Z   2
loop_
 _symmetry_equiv_pos_site_id
 _symmetry_equiv_pos_as_xyz
  1  'x, y, z'
loop_
 _atom_site_type_symbol
 _atom_site_label
 _atom_site_symmetry_multiplicity
 _atom_site_fract_x
 _atom_site_fract_y
 _atom_site_fract_z
 _atom_site_occupancy
  O  O0  1  0.128280  0.757826  0.393119  1
  O  O1  1  0.242173  0.871721  0.106881  1
  O  O2  1  0.871721  0.242174  0.606882  1
  O  O3  1  0.757827  0.128279  0.893118  1
  O  O4  1  0.994031  0.300809  0.416061  1
  O  O5  1  0.699190  0.005969  0.083939  1
  O  O6  1  0.005970  0.699191  0.583939  1
  O  O7  1  0.300809  0.994029  0.916061  1
  O  O8  1  0.278317  0.355708  0.252562  1
  O  O9  1  0.644292  0.721683  0.247438  1
  O  O10  1  0.721682  0.644292  0.747438  1
  O  O11  1  0.355707  0.278317  0.752563  1
  O  O12  1  0.469057  0.790831  0.577057  1
  O  O13  1  0.209168  0.530943  0.922943  1
  O  O14  1  0.790831  0.469057  0.077058  1
  O  O15  1  0.530942  0.209169  0.422942  1
  Na  Na16  1  0.421486  0.260517  0.588690  1
  Na  Na17  1  0.578514  0.739481  0.411310  1
  Na  Na18  1  0.739483  0.578514  0.911309  1
  Na  Na19  1  0.260518  0.421487  0.088690  1
  V  V20  1  0.769769  0.589298  0.628348  1
  V  V21  1  0.589297  0.769771  0.128348  1
  V  V22  1  0.410702  0.230229  0.871652  1
  V  V23  1  0.230230  0.410702  0.371652  1
  Cu  Cu24  1  0.000000  0.000000  0.000000  1
  Cu  Cu25  1  0.000000  0.000000  0.500000  1
  Ba  Ba26  1  0.128314  0.871686  0.750000  1
  Ba  Ba27  1  0.871687  0.128314  0.250000  1
