# generated using pymatgen
data_K4CO4
_symmetry_space_group_name_H-M   'P 1'
_cell_length_a   6.39166217
_cell_length_b   5.63558658
_cell_length_c   5.64137226
_cell_angle_alpha   87.18710763
_cell_angle_beta   107.00483702
_cell_angle_gamma   106.91190654
_symmetry_Int_Tables_number   1
_chemical_formula_structural   K4CO4
_chemical_formula_sum   'K4 C1 O4'
_cell_volume   185.77456231
_cell_formula_units_Z   1
loop_
 _symmetry_equiv_pos_site_id
 _symmetry_equiv_pos_as_xyz
  1  'x, y, z'
loop_
 _atom_site_type_symbol
 _atom_site_label
 _atom_site_symmetry_multiplicity
 _atom_site_fract_x
 _atom_site_fract_y
 _atom_site_fract_z
 _atom_site_occupancy
  K  K0  1  0.093185  0.434525  0.970515  1
  C  C1  1  0.415062  0.980442  0.980313  1
  O  O2  1  0.364912  0.794095  0.794168  1
  O  O3  1  0.325426  0.874280  0.174688  1
  O  O4  1  0.671037  0.083586  0.083775  1
  O  O5  1  0.325216  0.174883  0.874209  1
  K  K6  1  0.625208  0.571628  0.075926  1
  K  K7  1  0.625200  0.075795  0.571703  1
  K  K8  1  0.093194  0.970516  0.434453  1
