# generated using pymatgen
data_Bi4I
_symmetry_space_group_name_H-M   'P 1'
_cell_length_a   4.48431662
_cell_length_b   13.38222431
_cell_length_c   13.52519345
_cell_angle_alpha   104.52753758
_cell_angle_beta   90.00000000
_cell_angle_gamma   99.64525638
_symmetry_Int_Tables_number   1
_chemical_formula_structural   Bi4I
_chemical_formula_sum   'Bi16 I4'
_cell_volume   773.83981370
_cell_formula_units_Z   4
loop_
 _symmetry_equiv_pos_site_id
 _symmetry_equiv_pos_as_xyz
  1  'x, y, z'
loop_
 _atom_site_type_symbol
 _atom_site_label
 _atom_site_symmetry_multiplicity
 _atom_site_fract_x
 _atom_site_fract_y
 _atom_site_fract_z
 _atom_site_occupancy
  Bi  Bi0  1  0.113635  0.227270  0.118724  1
  Bi  Bi1  1  0.886365  0.772730  0.881276  1
  Bi  Bi2  1  0.341371  0.682741  0.129295  1
  Bi  Bi3  1  0.435758  0.871516  0.630639  1
  Bi  Bi4  1  0.080034  0.160067  0.882475  1
  Bi  Bi5  1  0.986334  0.972669  0.380846  1
  Bi  Bi6  1  0.919966  0.839933  0.117525  1
  Bi  Bi7  1  0.790526  0.581051  0.372231  1
  Bi  Bi8  1  0.464608  0.929215  0.868887  1
  Bi  Bi9  1  0.564242  0.128484  0.369361  1
  Bi  Bi10  1  0.013666  0.027331  0.619154  1
  Bi  Bi11  1  0.535392  0.070785  0.131113  1
  Bi  Bi12  1  0.658629  0.317259  0.870705  1
  Bi  Bi13  1  0.629017  0.258035  0.635776  1
  Bi  Bi14  1  0.370983  0.741965  0.364224  1
  Bi  Bi15  1  0.209474  0.418949  0.627769  1
  I  I16  1  0.268929  0.537859  0.863162  1
  I  I17  1  0.731071  0.462141  0.136838  1
  I  I18  1  0.819290  0.638581  0.610459  1
  I  I19  1  0.180710  0.361419  0.389541  1
