# generated using pymatgen
data_Li3Gd(BO3)2
_symmetry_space_group_name_H-M   'P 1'
_cell_length_a   6.50026239
_cell_length_b   8.80703126
_cell_length_c   10.00206693
_cell_angle_alpha   114.84016379
_cell_angle_beta   90.00000000
_cell_angle_gamma   90.00000000
_symmetry_Int_Tables_number   1
_chemical_formula_structural   Li3Gd(BO3)2
_chemical_formula_sum   'Li12 Gd4 B8 O24'
_cell_volume   519.62350400
_cell_formula_units_Z   4
loop_
 _symmetry_equiv_pos_site_id
 _symmetry_equiv_pos_as_xyz
  1  'x, y, z'
loop_
 _atom_site_type_symbol
 _atom_site_label
 _atom_site_symmetry_multiplicity
 _atom_site_fract_x
 _atom_site_fract_y
 _atom_site_fract_z
 _atom_site_occupancy
  Li  Li0  1  0.438231  0.038278  0.333802  1
  Li  Li1  1  0.743826  0.126439  0.521740  1
  Li  Li2  1  0.756174  0.626439  0.021740  1
  Li  Li3  1  0.243826  0.373561  0.978260  1
  Li  Li4  1  0.219196  0.295381  0.459317  1
  Li  Li5  1  0.938231  0.461722  0.166198  1
  Li  Li6  1  0.561769  0.961722  0.666198  1
  Li  Li7  1  0.780804  0.704619  0.540683  1
  Li  Li8  1  0.256174  0.873561  0.478260  1
  Li  Li9  1  0.719196  0.204619  0.040683  1
  Li  Li10  1  0.280804  0.795381  0.959317  1
  Li  Li11  1  0.061769  0.538278  0.833802  1
  Gd  Gd12  1  0.027662  0.982684  0.800080  1
  Gd  Gd13  1  0.527662  0.517316  0.699920  1
  Gd  Gd14  1  0.972338  0.017316  0.199920  1
  Gd  Gd15  1  0.472338  0.482684  0.300080  1
  B  B16  1  0.337143  0.217836  0.677340  1
  B  B17  1  0.327755  0.159826  0.107578  1
  B  B18  1  0.662857  0.782164  0.322660  1
  B  B19  1  0.162857  0.717836  0.177340  1
  B  B20  1  0.827755  0.340174  0.392422  1
  B  B21  1  0.672245  0.840174  0.892422  1
  B  B22  1  0.837143  0.282164  0.822660  1
  B  B23  1  0.172245  0.659826  0.607578  1
  O  O24  1  0.289992  0.070718  0.688731  1
  O  O25  1  0.560427  0.784440  0.447427  1
  O  O26  1  0.214126  0.024324  0.013625  1
  O  O27  1  0.710008  0.929282  0.311269  1
  O  O28  1  0.180334  0.698669  0.757748  1
  O  O29  1  0.789992  0.429282  0.811269  1
  O  O30  1  0.439573  0.215560  0.552573  1
  O  O31  1  0.291548  0.376463  0.786540  1
  O  O32  1  0.060427  0.715560  0.052573  1
  O  O33  1  0.939573  0.284440  0.947427  1
  O  O34  1  0.714126  0.475676  0.486375  1
  O  O35  1  0.785874  0.975676  0.986375  1
  O  O36  1  0.564801  0.736293  0.938882  1
  O  O37  1  0.210008  0.570718  0.188731  1
  O  O38  1  0.208452  0.876463  0.286540  1
  O  O39  1  0.064801  0.763707  0.561118  1
  O  O40  1  0.680334  0.801331  0.742252  1
  O  O41  1  0.435199  0.263707  0.061118  1
  O  O42  1  0.819666  0.301331  0.242252  1
  O  O43  1  0.708452  0.623537  0.213460  1
  O  O44  1  0.791548  0.123537  0.713460  1
  O  O45  1  0.285874  0.524324  0.513625  1
  O  O46  1  0.935199  0.236293  0.438882  1
  O  O47  1  0.319666  0.198669  0.257748  1
