# generated using pymatgen
data_CrHg3O5
_symmetry_space_group_name_H-M   'P 1'
_cell_length_a   9.63754826
_cell_length_b   10.66908905
_cell_length_c   11.80618313
_cell_angle_alpha   90.00000000
_cell_angle_beta   90.00000000
_cell_angle_gamma   90.00000000
_symmetry_Int_Tables_number   1
_chemical_formula_structural   CrHg3O5
_chemical_formula_sum   'Cr8 Hg24 O40'
_cell_volume   1213.95732849
_cell_formula_units_Z   8
loop_
 _symmetry_equiv_pos_site_id
 _symmetry_equiv_pos_as_xyz
  1  'x, y, z'
loop_
 _atom_site_type_symbol
 _atom_site_label
 _atom_site_symmetry_multiplicity
 _atom_site_fract_x
 _atom_site_fract_y
 _atom_site_fract_z
 _atom_site_occupancy
  Cr  Cr0  1  0.947061  0.578840  0.863796  1
  Cr  Cr1  1  0.448493  0.579240  0.856301  1
  Cr  Cr2  1  0.551507  0.079240  0.143699  1
  Cr  Cr3  1  0.448493  0.079240  0.643699  1
  Cr  Cr4  1  0.052939  0.078840  0.136204  1
  Cr  Cr5  1  0.551507  0.579240  0.356301  1
  Cr  Cr6  1  0.947061  0.078840  0.636204  1
  Cr  Cr7  1  0.052939  0.578840  0.363796  1
  Hg  Hg8  1  0.264928  0.828870  0.252341  1
  Hg  Hg9  1  0.735072  0.328870  0.747659  1
  Hg  Hg10  1  0.425368  0.910833  0.906230  1
  Hg  Hg11  1  0.735072  0.828870  0.752341  1
  Hg  Hg12  1  0.245062  0.578430  0.089881  1
  Hg  Hg13  1  0.068049  0.259977  0.878638  1
  Hg  Hg14  1  0.754938  0.078430  0.910119  1
  Hg  Hg15  1  0.338798  0.247415  0.902688  1
  Hg  Hg16  1  0.155390  0.402477  0.614966  1
  Hg  Hg17  1  0.425368  0.410833  0.593770  1
  Hg  Hg18  1  0.844610  0.902477  0.385034  1
  Hg  Hg19  1  0.661202  0.747415  0.097312  1
  Hg  Hg20  1  0.754938  0.578430  0.589881  1
  Hg  Hg21  1  0.574632  0.910833  0.406230  1
  Hg  Hg22  1  0.264928  0.328870  0.247659  1
  Hg  Hg23  1  0.245062  0.078430  0.410119  1
  Hg  Hg24  1  0.931951  0.759977  0.121362  1
  Hg  Hg25  1  0.931951  0.259977  0.378638  1
  Hg  Hg26  1  0.068049  0.759977  0.621362  1
  Hg  Hg27  1  0.338798  0.747415  0.597312  1
  Hg  Hg28  1  0.155390  0.902477  0.885034  1
  Hg  Hg29  1  0.574632  0.410833  0.093770  1
  Hg  Hg30  1  0.844610  0.402477  0.114966  1
  Hg  Hg31  1  0.661202  0.247415  0.402688  1
  O  O32  1  0.998059  0.729898  0.860511  1
  O  O33  1  0.994902  0.004838  0.018487  1
  O  O34  1  0.163829  0.258674  0.391217  1
  O  O35  1  0.657861  0.402350  0.596219  1
  O  O36  1  0.501145  0.427802  0.862279  1
  O  O37  1  0.994902  0.504838  0.481513  1
  O  O38  1  0.498855  0.427802  0.362279  1
  O  O39  1  0.005098  0.004838  0.518487  1
  O  O40  1  0.342139  0.902350  0.403781  1
  O  O41  1  0.836171  0.758674  0.608783  1
  O  O42  1  0.001941  0.729898  0.360511  1
  O  O43  1  0.222871  0.578128  0.366494  1
  O  O44  1  0.998059  0.229898  0.639489  1
  O  O45  1  0.005098  0.504838  0.981513  1
  O  O46  1  0.501145  0.927802  0.637721  1
  O  O47  1  0.493184  0.650627  0.238509  1
  O  O48  1  0.777129  0.578128  0.866494  1
  O  O49  1  0.720588  0.080001  0.148075  1
  O  O50  1  0.498855  0.927802  0.137721  1
  O  O51  1  0.657861  0.902350  0.903781  1
  O  O52  1  0.494720  0.658474  0.975462  1
  O  O53  1  0.279412  0.080001  0.648075  1
  O  O54  1  0.342139  0.402350  0.096219  1
  O  O55  1  0.720588  0.580001  0.351925  1
  O  O56  1  0.505280  0.158474  0.024538  1
  O  O57  1  0.506816  0.650627  0.738509  1
  O  O58  1  0.994651  0.501157  0.745791  1
  O  O59  1  0.005349  0.501157  0.245791  1
  O  O60  1  0.994651  0.001157  0.754209  1
  O  O61  1  0.493184  0.150627  0.261491  1
  O  O62  1  0.005349  0.001157  0.254209  1
  O  O63  1  0.505280  0.658474  0.475462  1
  O  O64  1  0.001941  0.229898  0.139489  1
  O  O65  1  0.279412  0.580001  0.851925  1
  O  O66  1  0.222871  0.078128  0.133506  1
  O  O67  1  0.163829  0.758674  0.108783  1
  O  O68  1  0.777129  0.078128  0.633506  1
  O  O69  1  0.836171  0.258674  0.891217  1
  O  O70  1  0.494720  0.158474  0.524538  1
  O  O71  1  0.506816  0.150627  0.761491  1
