# generated using pymatgen
data_La3C3Cl2
_symmetry_space_group_name_H-M   'P 1'
_cell_length_a   6.99133963
_cell_length_b   7.82984814
_cell_length_c   12.90624196
_cell_angle_alpha   90.00000000
_cell_angle_beta   90.00000000
_cell_angle_gamma   104.68053639
_symmetry_Int_Tables_number   1
_chemical_formula_structural   La3C3Cl2
_chemical_formula_sum   'La12 C12 Cl8'
_cell_volume   683.43769425
_cell_formula_units_Z   4
loop_
 _symmetry_equiv_pos_site_id
 _symmetry_equiv_pos_as_xyz
  1  'x, y, z'
loop_
 _atom_site_type_symbol
 _atom_site_label
 _atom_site_symmetry_multiplicity
 _atom_site_fract_x
 _atom_site_fract_y
 _atom_site_fract_z
 _atom_site_occupancy
  La  La0  1  0.863074  0.264340  0.849801  1
  La  La1  1  0.636926  0.735660  0.349801  1
  La  La2  1  0.131715  0.880997  0.821244  1
  La  La3  1  0.375724  0.190393  0.007731  1
  La  La4  1  0.875724  0.190393  0.492269  1
  La  La5  1  0.631715  0.880997  0.678756  1
  La  La6  1  0.868285  0.119003  0.178756  1
  La  La7  1  0.363074  0.264340  0.650199  1
  La  La8  1  0.368285  0.119003  0.321244  1
  La  La9  1  0.124276  0.809607  0.507731  1
  La  La10  1  0.136926  0.735660  0.150199  1
  La  La11  1  0.624276  0.809607  0.992269  1
  C  C12  1  0.976460  0.113907  0.704164  1
  C  C13  1  0.974890  0.994786  0.367961  1
  C  C14  1  0.523540  0.886093  0.204164  1
  C  C15  1  0.474890  0.994786  0.132039  1
  C  C16  1  0.471246  0.058731  0.530038  1
  C  C17  1  0.023540  0.886093  0.295836  1
  C  C18  1  0.525110  0.005214  0.867961  1
  C  C19  1  0.476460  0.113907  0.795836  1
  C  C20  1  0.528754  0.941269  0.469962  1
  C  C21  1  0.971246  0.058731  0.969962  1
  C  C22  1  0.028754  0.941269  0.030038  1
  C  C23  1  0.025110  0.005214  0.632039  1
  Cl  Cl24  1  0.231812  0.614310  0.686163  1
  Cl  Cl25  1  0.262333  0.449855  0.443020  1
  Cl  Cl26  1  0.737667  0.550145  0.556980  1
  Cl  Cl27  1  0.731812  0.614310  0.813837  1
  Cl  Cl28  1  0.762333  0.449855  0.056980  1
  Cl  Cl29  1  0.268188  0.385690  0.186163  1
  Cl  Cl30  1  0.237667  0.550145  0.943020  1
  Cl  Cl31  1  0.768188  0.385690  0.313837  1
