# generated using pymatgen
data_MnFeH4O2F5
_symmetry_space_group_name_H-M   'P 1'
_cell_length_a   6.65233934
_cell_length_b   7.55266003
_cell_length_c   7.55266002
_cell_angle_alpha   61.28083912
_cell_angle_beta   63.87077737
_cell_angle_gamma   63.87077810
_symmetry_Int_Tables_number   1
_chemical_formula_structural   MnFeH4O2F5
_chemical_formula_sum   'Mn2 Fe2 H8 O4 F10'
_cell_volume   285.88679944
_cell_formula_units_Z   2
loop_
 _symmetry_equiv_pos_site_id
 _symmetry_equiv_pos_as_xyz
  1  'x, y, z'
loop_
 _atom_site_type_symbol
 _atom_site_label
 _atom_site_symmetry_multiplicity
 _atom_site_fract_x
 _atom_site_fract_y
 _atom_site_fract_z
 _atom_site_occupancy
  Mn  Mn0  1  0.000000  0.000000  0.000000  1
  Mn  Mn1  1  0.500000  0.500000  0.500000  1
  Fe  Fe2  1  0.500000  0.000000  0.500000  1
  Fe  Fe3  1  0.500000  0.500000  0.000000  1
  F  F4  1  0.422453  0.839163  0.411918  1
  F  F5  1  0.173533  0.660837  0.088082  1
  F  F6  1  0.577547  0.588082  0.160837  1
  F  F7  1  0.826467  0.911918  0.339163  1
  F  F8  1  0.577547  0.160837  0.588082  1
  F  F9  1  0.826467  0.339163  0.911918  1
  F  F10  1  0.422453  0.411918  0.839163  1
  F  F11  1  0.173533  0.088082  0.660837  1
  F  F12  1  0.432157  0.250000  0.250000  1
  F  F13  1  0.567843  0.750000  0.750000  1
  O  O14  1  0.232969  0.070252  0.070252  1
  O  O15  1  0.873473  0.429748  0.429748  1
  O  O16  1  0.767031  0.929748  0.929748  1
  O  O17  1  0.126527  0.570252  0.570252  1
  H  H18  1  0.291918  0.989689  0.194419  1
  H  H19  1  0.976026  0.510311  0.305581  1
  H  H20  1  0.708082  0.805581  0.010311  1
  H  H21  1  0.023974  0.694419  0.489689  1
  H  H22  1  0.708082  0.010311  0.805581  1
  H  H23  1  0.023974  0.489689  0.694419  1
  H  H24  1  0.291918  0.194419  0.989689  1
  H  H25  1  0.976026  0.305581  0.510311  1
