# generated using pymatgen
data_Mn(AgO2)2
_symmetry_space_group_name_H-M   'P 1'
_cell_length_a   5.59108078
_cell_length_b   6.97639055
_cell_length_c   9.88747307
_cell_angle_alpha   90.00000000
_cell_angle_beta   90.00000000
_cell_angle_gamma   90.00000000
_symmetry_Int_Tables_number   1
_chemical_formula_structural   Mn(AgO2)2
_chemical_formula_sum   'Mn4 Ag8 O16'
_cell_volume   385.66645491
_cell_formula_units_Z   4
loop_
 _symmetry_equiv_pos_site_id
 _symmetry_equiv_pos_as_xyz
  1  'x, y, z'
loop_
 _atom_site_type_symbol
 _atom_site_label
 _atom_site_symmetry_multiplicity
 _atom_site_fract_x
 _atom_site_fract_y
 _atom_site_fract_z
 _atom_site_occupancy
  Mn  Mn0  1  0.967857  0.750000  0.685555  1
  Mn  Mn1  1  0.467857  0.250000  0.814445  1
  Mn  Mn2  1  0.032143  0.250000  0.314445  1
  Mn  Mn3  1  0.532143  0.750000  0.185555  1
  Ag  Ag4  1  0.500000  0.500000  0.500000  1
  Ag  Ag5  1  0.000000  0.500000  0.000000  1
  Ag  Ag6  1  0.500000  0.000000  0.500000  1
  Ag  Ag7  1  0.000000  0.000000  0.000000  1
  Ag  Ag8  1  0.018128  0.750000  0.352384  1
  Ag  Ag9  1  0.518128  0.250000  0.147616  1
  Ag  Ag10  1  0.981872  0.250000  0.647616  1
  Ag  Ag11  1  0.481872  0.750000  0.852384  1
  O  O12  1  0.591946  0.750000  0.360453  1
  O  O13  1  0.091946  0.250000  0.139547  1
  O  O14  1  0.408054  0.250000  0.639547  1
  O  O15  1  0.908054  0.750000  0.860453  1
  O  O16  1  0.235677  0.750000  0.150365  1
  O  O17  1  0.735677  0.250000  0.349635  1
  O  O18  1  0.764323  0.250000  0.849635  1
  O  O19  1  0.264323  0.750000  0.650365  1
  O  O20  1  0.666511  0.549618  0.116629  1
  O  O21  1  0.166511  0.450382  0.383371  1
  O  O22  1  0.333489  0.049618  0.883371  1
  O  O23  1  0.833489  0.950382  0.616629  1
  O  O24  1  0.333489  0.450382  0.883371  1
  O  O25  1  0.833489  0.549618  0.616629  1
  O  O26  1  0.666511  0.950382  0.116629  1
  O  O27  1  0.166511  0.049618  0.383371  1
