# generated using pymatgen
data_Cu9S5
_symmetry_space_group_name_H-M   'P 1'
_cell_length_a   16.22725093
_cell_length_b   16.22725092
_cell_length_c   16.22725047
_cell_angle_alpha   13.71040591
_cell_angle_beta   13.71040597
_cell_angle_gamma   13.71040786
_symmetry_Int_Tables_number   1
_chemical_formula_structural   Cu9S5
_chemical_formula_sum   'Cu9 S5'
_cell_volume   208.87331637
_cell_formula_units_Z   1
loop_
 _symmetry_equiv_pos_site_id
 _symmetry_equiv_pos_as_xyz
  1  'x, y, z'
loop_
 _atom_site_type_symbol
 _atom_site_label
 _atom_site_symmetry_multiplicity
 _atom_site_fract_x
 _atom_site_fract_y
 _atom_site_fract_z
 _atom_site_occupancy
  S  S0  1  0.000000  0.000000  0.000000  1
  S  S1  1  0.201168  0.201168  0.201168  1
  S  S2  1  0.798832  0.798832  0.798832  1
  S  S3  1  0.400131  0.400131  0.400131  1
  S  S4  1  0.599869  0.599869  0.599869  1
  Cu  Cu5  1  0.500000  0.500000  0.500000  1
  Cu  Cu6  1  0.052041  0.052041  0.052041  1
  Cu  Cu7  1  0.947959  0.947959  0.947959  1
  Cu  Cu8  1  0.137050  0.137050  0.137050  1
  Cu  Cu9  1  0.862950  0.862950  0.862950  1
  Cu  Cu10  1  0.248110  0.248110  0.248110  1
  Cu  Cu11  1  0.751890  0.751890  0.751890  1
  Cu  Cu12  1  0.351710  0.351710  0.351710  1
  Cu  Cu13  1  0.648290  0.648290  0.648290  1
