# generated using pymatgen
data_NaGd(PO3)4
_symmetry_space_group_name_H-M   'P 1'
_cell_length_a   7.28370176
_cell_length_b   9.90441543
_cell_length_c   13.24072822
_cell_angle_alpha   90.00000000
_cell_angle_beta   90.00000000
_cell_angle_gamma   89.59912978
_symmetry_Int_Tables_number   1
_chemical_formula_structural   NaGd(PO3)4
_chemical_formula_sum   'Na4 Gd4 P16 O48'
_cell_volume   955.17345422
_cell_formula_units_Z   4
loop_
 _symmetry_equiv_pos_site_id
 _symmetry_equiv_pos_as_xyz
  1  'x, y, z'
loop_
 _atom_site_type_symbol
 _atom_site_label
 _atom_site_symmetry_multiplicity
 _atom_site_fract_x
 _atom_site_fract_y
 _atom_site_fract_z
 _atom_site_occupancy
  Na  Na0  1  0.001061  0.063103  0.721476  1
  Na  Na1  1  0.498939  0.436897  0.221476  1
  Na  Na2  1  0.501061  0.563103  0.778524  1
  Na  Na3  1  0.998939  0.936897  0.278524  1
  Gd  Gd4  1  0.012741  0.522915  0.219513  1
  Gd  Gd5  1  0.987259  0.477085  0.780487  1
  Gd  Gd6  1  0.512741  0.022915  0.280487  1
  Gd  Gd7  1  0.487259  0.977085  0.719513  1
  P  P8  1  0.249805  0.743945  0.898011  1
  P  P9  1  0.750195  0.256055  0.101989  1
  P  P10  1  0.250195  0.756055  0.398011  1
  P  P11  1  0.376874  0.736447  0.114543  1
  P  P12  1  0.853619  0.803695  0.872380  1
  P  P13  1  0.646381  0.696305  0.372380  1
  P  P14  1  0.353619  0.303695  0.627620  1
  P  P15  1  0.268091  0.299128  0.408585  1
  P  P16  1  0.146381  0.196305  0.127620  1
  P  P17  1  0.731909  0.700872  0.591415  1
  P  P18  1  0.231909  0.200872  0.908585  1
  P  P19  1  0.749805  0.243945  0.601989  1
  P  P20  1  0.876874  0.236447  0.385457  1
  P  P21  1  0.768091  0.799128  0.091415  1
  P  P22  1  0.123126  0.763553  0.614543  1
  P  P23  1  0.623126  0.263553  0.885457  1
  O  O24  1  0.220273  0.104844  0.208730  1
  O  O25  1  0.200164  0.897014  0.646935  1
  O  O26  1  0.904976  0.296885  0.666086  1
  O  O27  1  0.761737  0.583982  0.661902  1
  O  O28  1  0.070906  0.834741  0.875428  1
  O  O29  1  0.868149  0.351379  0.312271  1
  O  O30  1  0.715925  0.209770  0.987321  1
  O  O31  1  0.779727  0.895156  0.791270  1
  O  O32  1  0.799836  0.102986  0.353065  1
  O  O33  1  0.700164  0.397014  0.853065  1
  O  O34  1  0.586367  0.707293  0.080799  1
  O  O35  1  0.913633  0.792707  0.580799  1
  O  O36  1  0.720273  0.604844  0.291270  1
  O  O37  1  0.712884  0.094888  0.609895  1
  O  O38  1  0.787116  0.405112  0.109895  1
  O  O39  1  0.238263  0.416018  0.338098  1
  O  O40  1  0.738263  0.916018  0.161902  1
  O  O41  1  0.426609  0.205422  0.387611  1
  O  O42  1  0.279727  0.395156  0.708730  1
  O  O43  1  0.299836  0.602986  0.146935  1
  O  O44  1  0.784075  0.290230  0.487321  1
  O  O45  1  0.212884  0.594888  0.890105  1
  O  O46  1  0.287116  0.905112  0.390105  1
  O  O47  1  0.631851  0.148621  0.812271  1
  O  O48  1  0.284055  0.363039  0.520720  1
  O  O49  1  0.086367  0.207293  0.419201  1
  O  O50  1  0.131851  0.648621  0.687729  1
  O  O51  1  0.177118  0.345663  0.133867  1
  O  O52  1  0.677118  0.845663  0.366133  1
  O  O53  1  0.429094  0.665259  0.375428  1
  O  O54  1  0.929094  0.165259  0.124572  1
  O  O55  1  0.322882  0.154337  0.633867  1
  O  O56  1  0.095024  0.703115  0.333914  1
  O  O57  1  0.368149  0.851379  0.187729  1
  O  O58  1  0.926609  0.705422  0.112389  1
  O  O59  1  0.784055  0.863039  0.979280  1
  O  O60  1  0.715945  0.636961  0.479280  1
  O  O61  1  0.404976  0.796885  0.833914  1
  O  O62  1  0.573391  0.794578  0.612389  1
  O  O63  1  0.215925  0.709770  0.512679  1
  O  O64  1  0.595024  0.203115  0.166086  1
  O  O65  1  0.570906  0.334741  0.624572  1
  O  O66  1  0.822882  0.654337  0.866133  1
  O  O67  1  0.413633  0.292707  0.919201  1
  O  O68  1  0.261737  0.083982  0.838098  1
  O  O69  1  0.284075  0.790230  0.012679  1
  O  O70  1  0.073391  0.294578  0.887611  1
  O  O71  1  0.215945  0.136961  0.020720  1
