# generated using pymatgen
data_Ca20Er10F69
_symmetry_space_group_name_H-M   'P 1'
_cell_length_a   8.78343487
_cell_length_b   8.78423478
_cell_length_c   20.72974051
_cell_angle_alpha   114.81847223
_cell_angle_beta   114.88777505
_cell_angle_gamma   90.00728975
_symmetry_Int_Tables_number   1
_chemical_formula_structural   Ca20Er10F69
_chemical_formula_sum   'Ca20 Er10 F69'
_cell_volume   1286.17653129
_cell_formula_units_Z   1
loop_
 _symmetry_equiv_pos_site_id
 _symmetry_equiv_pos_as_xyz
  1  'x, y, z'
loop_
 _atom_site_type_symbol
 _atom_site_label
 _atom_site_symmetry_multiplicity
 _atom_site_fract_x
 _atom_site_fract_y
 _atom_site_fract_z
 _atom_site_occupancy
  Ca  Ca0  1  0.029343  0.456195  0.836788  1
  Ca  Ca1  1  0.215825  0.029286  0.838202  1
  Ca  Ca2  1  0.455774  0.642197  0.836189  1
  Ca  Ca3  1  0.025553  0.437703  0.331379  1
  Ca  Ca4  1  0.362173  0.776475  0.667721  1
  Ca  Ca5  1  0.645016  0.215029  0.837503  1
  Ca  Ca6  1  0.224228  0.025881  0.332670  1
  Ca  Ca7  1  0.562223  0.364326  0.668896  1
  Ca  Ca8  1  0.177852  0.176785  0.178111  1
  Ca  Ca9  1  0.500000  0.500000  0.500000  1
  Ca  Ca10  1  0.822148  0.823215  0.821889  1
  Ca  Ca11  1  0.437777  0.635674  0.331104  1
  Ca  Ca12  1  0.775772  0.974119  0.667330  1
  Ca  Ca13  1  0.354984  0.784971  0.162497  1
  Ca  Ca14  1  0.637827  0.223525  0.332279  1
  Ca  Ca15  1  0.974447  0.562297  0.668621  1
  Ca  Ca16  1  0.544226  0.357803  0.163811  1
  Ca  Ca17  1  0.500000  0.500000  0.000000  1
  Ca  Ca18  1  0.784175  0.970714  0.161798  1
  Ca  Ca19  1  0.970657  0.543805  0.163212  1
  Er  Er20  1  0.179569  0.178356  0.679741  1
  Er  Er21  1  0.106475  0.310580  0.499699  1
  Er  Er22  1  0.310522  0.892962  0.499706  1
  Er  Er23  1  0.107866  0.314494  0.999799  1
  Er  Er24  1  0.689478  0.107038  0.500294  1
  Er  Er25  1  0.314385  0.891620  -0.000297  1
  Er  Er26  1  0.893525  0.689420  0.500301  1
  Er  Er27  1  0.820431  0.821644  0.320259  1
  Er  Er28  1  0.685615  0.108380  1.000297  1
  Er  Er29  1  0.892134  0.685506  0.000201  1
  F  F30  1  0.101012  0.797352  0.877095  1
  F  F31  1  0.061495  0.165172  0.758190  1
  F  F32  1  0.214084  0.340369  0.919607  1
  F  F33  1  0.164796  0.453310  0.757274  1
  F  F34  1  0.046453  0.906377  0.622767  1
  F  F35  1  0.337676  0.624561  0.919026  1
  F  F36  1  0.081246  0.580109  0.581208  1
  F  F37  1  0.251033  0.750477  0.751065  1
  F  F38  1  0.421818  0.917170  0.918914  1
  F  F39  1  0.198479  0.334232  0.621509  1
  F  F40  1  0.350488  0.060782  0.758122  1
  F  F41  1  0.145378  0.709838  0.500673  1
  F  F42  1  0.499517  0.214551  0.919774  1
  F  F43  1  0.093088  0.803152  0.377507  1
  F  F44  1  0.453847  0.349058  0.757297  1
  F  F45  1  0.335458  0.043045  0.621847  1
  F  F46  1  0.056185  0.158976  0.260737  1
  F  F47  1  0.624466  0.501042  0.919242  1
  F  F48  1  0.213373  0.337661  0.420360  1
  F  F49  1  0.287896  0.141846  0.497086  1
  F  F50  1  0.373007  0.494347  0.579866  1
  F  F51  1  0.657426  0.964629  0.877887  1
  F  F52  1  0.535456  0.639840  0.739787  1
  F  F53  1  0.158913  0.463662  0.259935  1
  F  F54  1  0.040354  0.898905  0.123048  1
  F  F55  1  0.335072  0.627060  0.419944  1
  F  F56  1  0.495960  0.786307  0.579459  1
  F  F57  1  0.081408  0.580274  0.081118  1
  F  F58  1  0.638279  0.944087  0.738948  1
  F  F59  1  0.248635  0.748600  0.249007  1
  F  F60  1  0.794523  0.657855  0.878083  1
  F  F61  1  0.421299  0.917179  0.418832  1
  F  F62  1  0.578701  0.082821  0.581168  1
  F  F63  1  0.205477  0.342145  0.121917  1
  F  F64  1  0.751365  0.251400  0.750993  1
  F  F65  1  0.361721  0.055913  0.261052  1
  F  F66  1  0.918592  0.419726  0.918882  1
  F  F67  1  0.147012  0.705989  0.000076  1
  F  F68  1  0.504040  0.213693  0.420541  1
  F  F69  1  0.664928  0.372940  0.580056  1
  F  F70  1  0.959646  0.101095  0.876952  1
  F  F71  1  0.841087  0.536338  0.740065  1
  F  F72  1  0.464544  0.360160  0.260213  1
  F  F73  1  0.342574  0.035371  0.122113  1
  F  F74  1  0.626993  0.505653  0.420134  1
  F  F75  1  0.712104  0.858154  0.502914  1
  F  F76  1  0.786627  0.662339  0.579640  1
  F  F77  1  0.291143  0.143997  0.997006  1
  F  F78  1  0.375534  0.498958  0.080758  1
  F  F79  1  0.943815  0.841024  0.739263  1
  F  F80  1  0.664542  0.956955  0.378153  1
  F  F81  1  0.546153  0.650942  0.242703  1
  F  F82  1  0.906912  0.196848  0.622493  1
  F  F83  1  0.500483  0.785449  0.080226  1
  F  F84  1  0.854622  0.290162  0.499327  1
  F  F85  1  0.649512  0.939218  0.241878  1
  F  F86  1  0.801521  0.665768  0.378491  1
  F  F87  1  0.578182  0.082830  0.081086  1
  F  F88  1  0.748967  0.249523  0.248935  1
  F  F89  1  0.918754  0.419891  0.418792  1
  F  F90  1  0.000000  0.000000  0.500000  1
  F  F91  1  0.662324  0.375439  0.080974  1
  F  F92  1  0.953547  0.093623  0.377233  1
  F  F93  1  0.835204  0.546690  0.242726  1
  F  F94  1  0.708857  0.856003  0.002994  1
  F  F95  1  0.785916  0.659631  0.080393  1
  F  F96  1  0.938505  0.834828  0.241810  1
  F  F97  1  0.898988  0.202648  0.122905  1
  F  F98  1  0.852988  0.294011  0.999924  1
