# generated using pymatgen
data_Ba2Fe2S2OF2
_symmetry_space_group_name_H-M   'P 1'
_cell_length_a   4.19685185
_cell_length_b   4.19641919
_cell_length_c   10.14811623
_cell_angle_alpha   101.93605612
_cell_angle_beta   101.93860995
_cell_angle_gamma   89.98635932
_symmetry_Int_Tables_number   1
_chemical_formula_structural   Ba2Fe2S2OF2
_chemical_formula_sum   'Ba2 Fe2 S2 O1 F2'
_cell_volume   170.91048464
_cell_formula_units_Z   1
loop_
 _symmetry_equiv_pos_site_id
 _symmetry_equiv_pos_as_xyz
  1  'x, y, z'
loop_
 _atom_site_type_symbol
 _atom_site_label
 _atom_site_symmetry_multiplicity
 _atom_site_fract_x
 _atom_site_fract_y
 _atom_site_fract_z
 _atom_site_occupancy
  Ba  Ba0  1  0.333216  0.333214  0.666446  1
  Ba  Ba1  1  0.666777  0.666783  0.333558  1
  Fe  Fe2  1  0.500034  0.999987  0.999980  1
  Fe  Fe3  1  0.999991  0.500020  0.000005  1
  S  S4  1  0.912711  0.912718  0.825284  1
  S  S5  1  0.087281  0.087281  0.174718  1
  O  O6  1  0.499992  0.499998  0.000000  1
  F  F7  1  0.749993  0.250019  0.500018  1
  F  F8  1  0.250004  0.749981  0.499992  1
