# generated using pymatgen
data_Ba3MgIr2O9
_symmetry_space_group_name_H-M   'P 1'
_cell_length_a   5.83885793
_cell_length_b   5.83885791
_cell_length_c   14.46708802
_cell_angle_alpha   90.00000000
_cell_angle_beta   90.00000000
_cell_angle_gamma   120.00000017
_symmetry_Int_Tables_number   1
_chemical_formula_structural   Ba3MgIr2O9
_chemical_formula_sum   'Ba6 Mg2 Ir4 O18'
_cell_volume   427.13737036
_cell_formula_units_Z   2
loop_
 _symmetry_equiv_pos_site_id
 _symmetry_equiv_pos_as_xyz
  1  'x, y, z'
loop_
 _atom_site_type_symbol
 _atom_site_label
 _atom_site_symmetry_multiplicity
 _atom_site_fract_x
 _atom_site_fract_y
 _atom_site_fract_z
 _atom_site_occupancy
  Ba  Ba0  1  0.333333  0.666667  0.913843  1
  Ba  Ba1  1  0.666667  0.333333  0.413843  1
  Ba  Ba2  1  0.333333  0.666667  0.586157  1
  Ba  Ba3  1  0.000000  0.000000  0.250000  1
  Ba  Ba4  1  0.666667  0.333333  0.086157  1
  Ba  Ba5  1  0.000000  0.000000  0.750000  1
  Mg  Mg6  1  0.000000  0.000000  0.500000  1
  Mg  Mg7  1  0.000000  0.000000  0.000000  1
  Ir  Ir8  1  0.333333  0.666667  0.344379  1
  Ir  Ir9  1  0.666667  0.333333  0.655621  1
  Ir  Ir10  1  0.333333  0.666667  0.155621  1
  Ir  Ir11  1  0.666667  0.333333  0.844379  1
  O  O12  1  0.170865  0.829135  0.081890  1
  O  O13  1  0.829135  0.658269  0.581890  1
  O  O14  1  0.515787  0.484213  0.750000  1
  O  O15  1  0.341731  0.170865  0.918110  1
  O  O16  1  0.484213  0.515787  0.250000  1
  O  O17  1  0.341731  0.170865  0.581890  1
  O  O18  1  0.031574  0.515787  0.250000  1
  O  O19  1  0.829135  0.170865  0.581890  1
  O  O20  1  0.515787  0.031574  0.750000  1
  O  O21  1  0.658269  0.829135  0.081890  1
  O  O22  1  0.170865  0.829135  0.418110  1
  O  O23  1  0.968426  0.484213  0.750000  1
  O  O24  1  0.829135  0.170865  0.918110  1
  O  O25  1  0.658269  0.829135  0.418110  1
  O  O26  1  0.170865  0.341731  0.418110  1
  O  O27  1  0.170865  0.341731  0.081890  1
  O  O28  1  0.484213  0.968426  0.250000  1
  O  O29  1  0.829135  0.658269  0.918110  1
