# generated using pymatgen
data_La2(MoO4)3
_symmetry_space_group_name_H-M   'P 1'
_cell_length_a   10.54049070
_cell_length_b   10.54049143
_cell_length_c   16.32258197
_cell_angle_alpha   75.06629645
_cell_angle_beta   75.06629538
_cell_angle_gamma   70.19968041
_symmetry_Int_Tables_number   1
_chemical_formula_structural   La2(MoO4)3
_chemical_formula_sum   'La12 Mo18 O72'
_cell_volume   1619.40502441
_cell_formula_units_Z   6
loop_
 _symmetry_equiv_pos_site_id
 _symmetry_equiv_pos_as_xyz
  1  'x, y, z'
loop_
 _atom_site_type_symbol
 _atom_site_label
 _atom_site_symmetry_multiplicity
 _atom_site_fract_x
 _atom_site_fract_y
 _atom_site_fract_z
 _atom_site_occupancy
  La  La0  1  0.617662  0.368866  0.588808  1
  La  La1  1  0.382338  0.631134  0.411192  1
  La  La2  1  0.295116  0.036565  0.697420  1
  La  La3  1  0.631134  0.382338  0.911192  1
  La  La4  1  0.963435  0.704884  0.802580  1
  La  La5  1  0.704884  0.963435  0.302580  1
  La  La6  1  0.713253  0.955725  0.976554  1
  La  La7  1  0.044275  0.286747  0.523446  1
  La  La8  1  0.286747  0.044275  0.023446  1
  La  La9  1  0.036565  0.295116  0.197420  1
  La  La10  1  0.368866  0.617662  0.088808  1
  La  La11  1  0.955725  0.713253  0.476554  1
  Mo  Mo12  1  0.136381  0.877615  0.578728  1
  Mo  Mo13  1  0.795214  0.547269  0.363074  1
  Mo  Mo14  1  0.200039  0.466924  0.309559  1
  Mo  Mo15  1  0.547269  0.795214  0.863074  1
  Mo  Mo16  1  0.776042  0.548700  0.033814  1
  Mo  Mo17  1  0.533076  0.799961  0.190441  1
  Mo  Mo18  1  0.466924  0.200039  0.809559  1
  Mo  Mo19  1  0.877615  0.136381  0.078728  1
  Mo  Mo20  1  0.863619  0.122385  0.421272  1
  Mo  Mo21  1  0.223958  0.451300  0.966186  1
  Mo  Mo22  1  0.204786  0.452731  0.636926  1
  Mo  Mo23  1  0.548700  0.776042  0.533814  1
  Mo  Mo24  1  0.124857  0.875143  0.250000  1
  Mo  Mo25  1  0.875143  0.124857  0.750000  1
  Mo  Mo26  1  0.452731  0.204786  0.136926  1
  Mo  Mo27  1  0.451300  0.223958  0.466186  1
  Mo  Mo28  1  0.122385  0.863619  0.921272  1
  Mo  Mo29  1  0.799961  0.533076  0.690441  1
  O  O30  1  0.357224  0.467930  0.332598  1
  O  O31  1  0.423972  0.816292  0.964437  1
  O  O32  1  0.462980  0.108194  0.566550  1
  O  O33  1  0.153583  0.579805  0.880907  1
  O  O34  1  0.709698  0.808049  0.875493  1
  O  O35  1  0.717749  0.751440  0.551619  1
  O  O36  1  0.248504  0.847920  0.147755  1
  O  O37  1  0.760659  0.150891  0.178349  1
  O  O38  1  0.616348  0.531246  0.016521  1
  O  O39  1  0.891806  0.537020  0.933450  1
  O  O40  1  0.725571  0.183958  0.504909  1
  O  O41  1  0.685481  0.801881  0.218608  1
  O  O42  1  0.642776  0.532070  0.667402  1
  O  O43  1  0.872583  0.983468  0.051797  1
  O  O44  1  0.859631  0.956794  0.404160  1
  O  O45  1  0.468754  0.383652  0.483479  1
  O  O46  1  0.569981  0.629649  0.843990  1
  O  O47  1  0.400932  0.822799  0.284407  1
  O  O48  1  0.274429  0.816042  0.495091  1
  O  O49  1  0.152080  0.751496  0.352245  1
  O  O50  1  0.177201  0.599068  0.215593  1
  O  O51  1  0.383652  0.468754  0.983479  1
  O  O52  1  0.576028  0.183708  0.035563  1
  O  O53  1  0.816042  0.274429  0.995091  1
  O  O54  1  0.531246  0.616348  0.516521  1
  O  O55  1  0.043206  0.140369  0.095840  1
  O  O56  1  0.191951  0.290302  0.624507  1
  O  O57  1  0.248560  0.282251  0.948381  1
  O  O58  1  0.487948  0.922171  0.774851  1
  O  O59  1  0.290302  0.191951  0.124507  1
  O  O60  1  0.150891  0.760659  0.678349  1
  O  O61  1  0.140369  0.043206  0.595840  1
  O  O62  1  0.108194  0.462980  0.066550  1
  O  O63  1  0.537020  0.891806  0.433450  1
  O  O64  1  0.183958  0.725571  0.004909  1
  O  O65  1  0.111381  0.039380  0.265894  1
  O  O66  1  0.499410  0.935703  0.093810  1
  O  O67  1  0.888619  0.960620  0.734106  1
  O  O68  1  0.808049  0.709698  0.375493  1
  O  O69  1  0.983468  0.872583  0.551797  1
  O  O70  1  0.282251  0.248560  0.448381  1
  O  O71  1  0.532070  0.642776  0.167402  1
  O  O72  1  0.420195  0.846417  0.619093  1
  O  O73  1  0.960620  0.888619  0.234106  1
  O  O74  1  0.512052  0.077829  0.225149  1
  O  O75  1  0.039380  0.111381  0.765894  1
  O  O76  1  0.922171  0.487948  0.274851  1
  O  O77  1  0.016532  0.127417  0.448203  1
  O  O78  1  0.801881  0.685481  0.718608  1
  O  O79  1  0.467930  0.357224  0.832598  1
  O  O80  1  0.599068  0.177201  0.715593  1
  O  O81  1  0.198119  0.314519  0.281392  1
  O  O82  1  0.751440  0.717749  0.051619  1
  O  O83  1  0.183708  0.576028  0.535563  1
  O  O84  1  0.077829  0.512052  0.725149  1
  O  O85  1  0.816292  0.423972  0.464437  1
  O  O86  1  0.127417  0.016532  0.948203  1
  O  O87  1  0.629649  0.569981  0.343990  1
  O  O88  1  0.956794  0.859631  0.904160  1
  O  O89  1  0.579805  0.153583  0.380907  1
  O  O90  1  0.822799  0.400932  0.784407  1
  O  O91  1  0.064297  0.500591  0.406190  1
  O  O92  1  0.500591  0.064297  0.906190  1
  O  O93  1  0.370351  0.430019  0.656010  1
  O  O94  1  0.846417  0.420195  0.119093  1
  O  O95  1  0.430019  0.370351  0.156010  1
  O  O96  1  0.935703  0.499410  0.593810  1
  O  O97  1  0.239341  0.849109  0.821651  1
  O  O98  1  0.314519  0.198119  0.781392  1
  O  O99  1  0.847920  0.248504  0.647755  1
  O  O100  1  0.849109  0.239341  0.321651  1
  O  O101  1  0.751496  0.152080  0.852245  1
