# generated using pymatgen
data_NaFeF4
_symmetry_space_group_name_H-M   'P 1'
_cell_length_a   5.41255190
_cell_length_b   7.64330898
_cell_length_c   8.03212743
_cell_angle_alpha   101.73563499
_cell_angle_beta   90.00000000
_cell_angle_gamma   90.00000000
_symmetry_Int_Tables_number   1
_chemical_formula_structural   NaFeF4
_chemical_formula_sum   'Na4 Fe4 F16'
_cell_volume   325.34158427
_cell_formula_units_Z   4
loop_
 _symmetry_equiv_pos_site_id
 _symmetry_equiv_pos_as_xyz
  1  'x, y, z'
loop_
 _atom_site_type_symbol
 _atom_site_label
 _atom_site_symmetry_multiplicity
 _atom_site_fract_x
 _atom_site_fract_y
 _atom_site_fract_z
 _atom_site_occupancy
  F  F0  1  0.523853  0.875269  0.310669  1
  F  F1  1  0.023853  0.624731  0.689331  1
  F  F2  1  0.476147  0.124731  0.689331  1
  F  F3  1  0.976147  0.375269  0.310669  1
  F  F4  1  0.044624  0.813199  0.371166  1
  F  F5  1  0.544624  0.686801  0.628834  1
  F  F6  1  0.955376  0.186801  0.628834  1
  F  F7  1  0.455376  0.313199  0.371166  1
  F  F8  1  0.143409  0.049790  0.168970  1
  F  F9  1  0.643409  0.450210  0.831030  1
  F  F10  1  0.856591  0.950210  0.831030  1
  F  F11  1  0.356591  0.549790  0.168970  1
  F  F12  1  0.556604  0.208157  0.038179  1
  F  F13  1  0.056604  0.291843  0.961821  1
  F  F14  1  0.443396  0.791843  0.961821  1
  F  F15  1  0.943396  0.708157  0.038179  1
  Na  Na16  1  0.779469  0.113274  0.363601  1
  Na  Na17  1  0.279469  0.386726  0.636399  1
  Na  Na18  1  0.220531  0.886726  0.636399  1
  Na  Na19  1  0.720531  0.613274  0.363601  1
  Fe  Fe20  1  0.255152  0.300366  0.171618  1
  Fe  Fe21  1  0.755152  0.199634  0.828382  1
  Fe  Fe22  1  0.744848  0.699634  0.828382  1
  Fe  Fe23  1  0.244848  0.800366  0.171618  1
