# generated using pymatgen
data_ZnS
_symmetry_space_group_name_H-M   'P 1'
_cell_length_a   3.85111144
_cell_length_b   3.85111134
_cell_length_c   75.53825599
_cell_angle_alpha   90.00000000
_cell_angle_beta   90.00000000
_cell_angle_gamma   120.00000089
_symmetry_Int_Tables_number   1
_chemical_formula_structural   ZnS
_chemical_formula_sum   'Zn24 S24'
_cell_volume   970.21892540
_cell_formula_units_Z   24
loop_
 _symmetry_equiv_pos_site_id
 _symmetry_equiv_pos_as_xyz
  1  'x, y, z'
loop_
 _atom_site_type_symbol
 _atom_site_label
 _atom_site_symmetry_multiplicity
 _atom_site_fract_x
 _atom_site_fract_y
 _atom_site_fract_z
 _atom_site_occupancy
  Zn  Zn0  1  0.666667  0.333333  0.708347  1
  Zn  Zn1  1  0.333333  0.666667  0.791690  1
  Zn  Zn2  1  0.666667  0.333333  0.333321  1
  Zn  Zn3  1  0.000000  0.000000  0.416665  1
  Zn  Zn4  1  0.666667  0.333333  0.083324  1
  Zn  Zn5  1  0.333333  0.666667  0.208358  1
  Zn  Zn6  1  0.666667  0.333333  0.833337  1
  Zn  Zn7  1  0.666667  0.333333  0.916665  1
  Zn  Zn8  1  0.000000  0.000000  0.124999  1
  Zn  Zn9  1  0.666667  0.333333  0.166697  1
  Zn  Zn10  1  0.000000  0.000000  0.583331  1
  Zn  Zn11  1  0.333333  0.666667  0.666670  1
  Zn  Zn12  1  0.333333  0.666667  0.041667  1
  Zn  Zn13  1  0.666667  0.333333  0.458331  1
  Zn  Zn14  1  0.000000  0.000000  0.750022  1
  Zn  Zn15  1  0.333333  0.666667  0.291680  1
  Zn  Zn16  1  0.333333  0.666667  0.374992  1
  Zn  Zn17  1  0.333333  0.666667  0.958319  1
  Zn  Zn18  1  0.000000  0.000000  0.874990  1
  Zn  Zn19  1  0.666667  0.333333  0.541686  1
  Zn  Zn20  1  0.666667  0.333333  0.625001  1
  Zn  Zn21  1  0.000000  0.000000  0.999986  1
  Zn  Zn22  1  0.333333  0.666667  0.500008  1
  Zn  Zn23  1  0.000000  0.000000  0.250014  1
  S  S24  1  0.333333  0.666667  0.531276  1
  S  S25  1  0.333333  0.666667  0.322894  1
  S  S26  1  0.666667  0.333333  0.864553  1
  S  S27  1  0.000000  0.000000  0.781259  1
  S  S28  1  0.666667  0.333333  0.947903  1
  S  S29  1  0.333333  0.666667  0.989548  1
  S  S30  1  0.666667  0.333333  0.114550  1
  S  S31  1  0.000000  0.000000  0.614591  1
  S  S32  1  0.000000  0.000000  0.031256  1
  S  S33  1  0.000000  0.000000  0.906252  1
  S  S34  1  0.666667  0.333333  0.489562  1
  S  S35  1  0.000000  0.000000  0.281273  1
  S  S36  1  0.666667  0.333333  0.364584  1
  S  S37  1  0.333333  0.666667  0.822923  1
  S  S38  1  0.666667  0.333333  0.656227  1
  S  S39  1  0.333333  0.666667  0.072906  1
  S  S40  1  0.666667  0.333333  0.739586  1
  S  S41  1  0.333333  0.666667  0.697934  1
  S  S42  1  0.000000  0.000000  0.156269  1
  S  S43  1  0.333333  0.666667  0.239572  1
  S  S44  1  0.666667  0.333333  0.572900  1
  S  S45  1  0.333333  0.666667  0.406241  1
  S  S46  1  0.000000  0.000000  0.447912  1
  S  S47  1  0.666667  0.333333  0.197929  1
