# generated using pymatgen
data_SrVZnP2O9
_symmetry_space_group_name_H-M   'P 1'
_cell_length_a   9.14686751
_cell_length_b   9.26147549
_cell_length_c   17.72525053
_cell_angle_alpha   90.00000000
_cell_angle_beta   90.00000000
_cell_angle_gamma   90.00000000
_symmetry_Int_Tables_number   1
_chemical_formula_structural   SrVZnP2O9
_chemical_formula_sum   'Sr8 V8 Zn8 P16 O72'
_cell_volume   1501.56782030
_cell_formula_units_Z   8
loop_
 _symmetry_equiv_pos_site_id
 _symmetry_equiv_pos_as_xyz
  1  'x, y, z'
loop_
 _atom_site_type_symbol
 _atom_site_label
 _atom_site_symmetry_multiplicity
 _atom_site_fract_x
 _atom_site_fract_y
 _atom_site_fract_z
 _atom_site_occupancy
  Sr  Sr0  1  0.067752  0.361989  0.899834  1
  Sr  Sr1  1  0.567752  0.638011  0.600166  1
  Sr  Sr2  1  0.432248  0.861989  0.100166  1
  Sr  Sr3  1  0.932248  0.138011  0.399834  1
  Sr  Sr4  1  0.932248  0.638011  0.100166  1
  Sr  Sr5  1  0.432248  0.361989  0.399834  1
  Sr  Sr6  1  0.567752  0.138011  0.899834  1
  Sr  Sr7  1  0.067752  0.861989  0.600166  1
  V  V8  1  0.754811  0.494383  0.788935  1
  V  V9  1  0.254811  0.505617  0.711065  1
  V  V10  1  0.745189  0.994383  0.211065  1
  V  V11  1  0.245189  0.005617  0.288935  1
  V  V12  1  0.245189  0.505617  0.211065  1
  V  V13  1  0.745189  0.494383  0.288935  1
  V  V14  1  0.254811  0.005617  0.788935  1
  V  V15  1  0.754811  0.994383  0.711065  1
  Zn  Zn16  1  0.071915  0.305502  0.563762  1
  Zn  Zn17  1  0.571915  0.694498  0.936238  1
  Zn  Zn18  1  0.428085  0.805502  0.436238  1
  Zn  Zn19  1  0.928085  0.194498  0.063762  1
  Zn  Zn20  1  0.928085  0.694498  0.436238  1
  Zn  Zn21  1  0.428085  0.305502  0.063762  1
  Zn  Zn22  1  0.571915  0.194498  0.563762  1
  Zn  Zn23  1  0.071915  0.805502  0.936238  1
  P  P24  1  0.234057  0.070211  0.988082  1
  P  P25  1  0.734057  0.929789  0.511918  1
  P  P26  1  0.265943  0.570211  0.011918  1
  P  P27  1  0.765943  0.429789  0.488082  1
  P  P28  1  0.765943  0.929789  0.011918  1
  P  P29  1  0.265943  0.070211  0.488082  1
  P  P30  1  0.734057  0.429789  0.988082  1
  P  P31  1  0.234057  0.570211  0.511918  1
  P  P32  1  0.504346  0.255759  0.728062  1
  P  P33  1  0.004346  0.744241  0.771938  1
  P  P34  1  0.995654  0.755759  0.271938  1
  P  P35  1  0.495654  0.244241  0.228062  1
  P  P36  1  0.495654  0.744241  0.271938  1
  P  P37  1  0.995654  0.255759  0.228062  1
  P  P38  1  0.004346  0.244241  0.728062  1
  P  P39  1  0.504346  0.755759  0.771938  1
  O  O40  1  0.415588  0.360139  0.678276  1
  O  O41  1  0.915588  0.639861  0.821724  1
  O  O42  1  0.084412  0.860139  0.321724  1
  O  O43  1  0.584412  0.139861  0.178276  1
  O  O44  1  0.584412  0.639861  0.321724  1
  O  O45  1  0.084412  0.360139  0.178276  1
  O  O46  1  0.915588  0.139861  0.678276  1
  O  O47  1  0.415588  0.860139  0.821724  1
  O  O48  1  0.601951  0.334154  0.786364  1
  O  O49  1  0.101951  0.665846  0.713636  1
  O  O50  1  0.898049  0.834154  0.213636  1
  O  O51  1  0.398049  0.165846  0.286364  1
  O  O52  1  0.398049  0.665846  0.213636  1
  O  O53  1  0.898049  0.334154  0.286364  1
  O  O54  1  0.101951  0.165846  0.786364  1
  O  O55  1  0.601951  0.834154  0.713636  1
  O  O56  1  0.190277  0.915423  0.010873  1
  O  O57  1  0.690277  0.084577  0.489127  1
  O  O58  1  0.309723  0.415423  0.989127  1
  O  O59  1  0.809723  0.584577  0.510873  1
  O  O60  1  0.809723  0.084577  0.989127  1
  O  O61  1  0.309723  0.915423  0.510873  1
  O  O62  1  0.690277  0.584577  0.010873  1
  O  O63  1  0.190277  0.415423  0.489127  1
  O  O64  1  0.598647  0.158204  0.672042  1
  O  O65  1  0.098647  0.841796  0.827958  1
  O  O66  1  0.901353  0.658204  0.327958  1
  O  O67  1  0.736492  0.543835  0.699866  1
  O  O68  1  0.401353  0.341796  0.172042  1
  O  O69  1  0.901353  0.158204  0.172042  1
  O  O70  1  0.098647  0.341796  0.672042  1
  O  O71  1  0.598647  0.658204  0.827958  1
  O  O72  1  0.377405  0.104943  0.033102  1
  O  O73  1  0.877405  0.895057  0.466898  1
  O  O74  1  0.122595  0.604943  0.966898  1
  O  O75  1  0.622595  0.395057  0.533102  1
  O  O76  1  0.622595  0.895057  0.966898  1
  O  O77  1  0.122595  0.104943  0.533102  1
  O  O78  1  0.877405  0.395057  0.033102  1
  O  O79  1  0.377405  0.604943  0.466898  1
  O  O80  1  0.227621  0.080801  0.403103  1
  O  O81  1  0.727621  0.919199  0.096897  1
  O  O82  1  0.272379  0.580801  0.596897  1
  O  O83  1  0.772379  0.419199  0.903103  1
  O  O84  1  0.772379  0.919199  0.596897  1
  O  O85  1  0.272379  0.080801  0.903103  1
  O  O86  1  0.727621  0.419199  0.403103  1
  O  O87  1  0.227621  0.580801  0.096897  1
  O  O88  1  0.912279  0.846562  0.722286  1
  O  O89  1  0.412279  0.153438  0.777714  1
  O  O90  1  0.587721  0.346562  0.277714  1
  O  O91  1  0.087721  0.653438  0.222286  1
  O  O92  1  0.087721  0.153438  0.277714  1
  O  O93  1  0.587721  0.846562  0.222286  1
  O  O94  1  0.412279  0.653438  0.722286  1
  O  O95  1  0.912279  0.346562  0.777714  1
  O  O96  1  0.111999  0.680421  0.494288  1
  O  O97  1  0.611999  0.319579  0.005712  1
  O  O98  1  0.388001  0.180421  0.505712  1
  O  O99  1  0.888001  0.819579  0.994288  1
  O  O100  1  0.888001  0.319579  0.505712  1
  O  O101  1  0.388001  0.680421  0.994288  1
  O  O102  1  0.611999  0.819579  0.494288  1
  O  O103  1  0.111999  0.180421  0.005712  1
  O  O104  1  0.736492  0.043835  0.800134  1
  O  O105  1  0.236492  0.956165  0.699866  1
  O  O106  1  0.763508  0.543835  0.199866  1
  O  O107  1  0.263508  0.456165  0.300134  1
  O  O108  1  0.263508  0.956165  0.199866  1
  O  O109  1  0.763508  0.043835  0.300134  1
  O  O110  1  0.236492  0.456165  0.800134  1
  O  O111  1  0.401353  0.841796  0.327958  1
