# generated using pymatgen
data_Na5(W7O22)2
_symmetry_space_group_name_H-M   'P 1'
_cell_length_a   7.45016538
_cell_length_b   7.46503676
_cell_length_c   18.72063316
_cell_angle_alpha   96.30109499
_cell_angle_beta   90.43646869
_cell_angle_gamma   119.85030815
_symmetry_Int_Tables_number   1
_chemical_formula_structural   Na5(W7O22)2
_chemical_formula_sum   'Na5 W14 O44'
_cell_volume   895.23184898
_cell_formula_units_Z   1
loop_
 _symmetry_equiv_pos_site_id
 _symmetry_equiv_pos_as_xyz
  1  'x, y, z'
loop_
 _atom_site_type_symbol
 _atom_site_label
 _atom_site_symmetry_multiplicity
 _atom_site_fract_x
 _atom_site_fract_y
 _atom_site_fract_z
 _atom_site_occupancy
  O  O0  1  0.745297  0.006581  0.505930  1
  O  O1  1  0.254702  0.993418  0.494069  1
  O  O2  1  0.484341  0.833422  0.613437  1
  O  O3  1  0.515659  0.166577  0.386563  1
  O  O4  1  0.063654  0.257946  0.609019  1
  O  O5  1  0.936347  0.742055  0.390981  1
  O  O6  1  0.255339  0.510086  0.501024  1
  O  O7  1  0.744662  0.489915  0.498976  1
  O  O8  1  0.795918  0.591590  0.716671  1
  O  O9  1  0.204083  0.408411  0.283329  1
  O  O10  1  0.060680  0.619729  0.608719  1
  O  O11  1  0.939320  0.380270  0.391281  1
  O  O12  1  0.695868  0.255441  0.614773  1
  O  O13  1  0.304132  0.744560  0.385228  1
  O  O14  1  0.483358  0.466000  0.608908  1
  O  O15  1  0.516643  0.534001  0.391092  1
  O  O16  1  0.709965  0.417717  0.282658  1
  O  O17  1  0.150927  0.170272  0.392054  1
  O  O18  1  0.290035  0.582283  0.717342  1
  O  O19  1  0.334082  0.682851  0.931102  1
  O  O20  1  0.665917  0.317148  0.068898  1
  O  O21  1  0.216669  0.424441  0.047566  1
  O  O22  1  0.783332  0.575560  0.952434  1
  O  O23  1  0.619982  0.825114  0.060874  1
  O  O24  1  0.380018  0.174885  0.939126  1
  O  O25  1  0.205475  0.820880  0.064894  1
  O  O26  1  0.794526  0.179121  0.935106  1
  O  O27  1  0.612654  0.581031  0.167053  1
  O  O28  1  0.387346  0.418970  0.832947  1
  O  O29  1  0.981907  0.946570  0.152610  1
  O  O30  1  0.018094  0.053431  0.847390  1
  O  O31  1  0.770340  0.158838  0.173275  1
  O  O32  1  0.229658  0.841161  0.826725  1
  O  O33  1  0.401817  0.790744  0.178389  1
  O  O34  1  0.598183  0.209255  0.821611  1
  O  O35  1  0.749788  0.909947  0.273539  1
  O  O36  1  0.250212  0.090053  0.726461  1
  O  O37  1  0.980086  0.585176  0.172489  1
  O  O38  1  0.019915  0.414825  0.827511  1
  O  O39  1  0.396767  0.157782  0.173474  1
  O  O40  1  0.603234  0.842219  0.826526  1
  O  O41  1  0.191025  0.916795  0.278923  1
  O  O42  1  0.808976  0.083206  0.721077  1
  O  O43  1  0.849073  0.829727  0.607946  1
  Na  Na44  1  0.288563  0.048464  0.611573  1
  Na  Na45  1  0.711438  0.951536  0.388427  1
  Na  Na46  1  0.810403  0.648250  0.835503  1
  Na  Na47  1  0.189596  0.351749  0.164496  1
  Na  Na48  1  0.000000  0.000000  0.000000  1
  W  W49  1  0.775213  0.547788  0.622380  1
  W  W50  1  0.226642  0.959660  0.399830  1
  W  W51  1  0.271938  0.541655  0.598048  1
  W  W52  1  0.728063  0.458345  0.401952  1
  W  W53  1  0.773358  0.040339  0.600170  1
  W  W54  1  0.224787  0.452213  0.377620  1
  W  W55  1  0.308512  0.625597  0.815018  1
  W  W56  1  0.691488  0.374402  0.184982  1
  W  W57  1  0.808967  0.126885  0.817697  1
  W  W58  1  0.191034  0.873116  0.182303  1
  W  W59  1  0.298347  0.125076  0.820077  1
  W  W60  1  0.701653  0.874923  0.179923  1
  W  W61  1  0.655771  0.312783  0.972154  1
  W  W62  1  0.344228  0.687217  0.027846  1
