# generated using pymatgen
data_PbCl4
_symmetry_space_group_name_H-M   'P 1'
_cell_length_a   5.83978351
_cell_length_b   7.14003856
_cell_length_c   10.78027367
_cell_angle_alpha   76.63822526
_cell_angle_beta   74.28417898
_cell_angle_gamma   65.86163683
_symmetry_Int_Tables_number   1
_chemical_formula_structural   PbCl4
_chemical_formula_sum   'Pb2 Cl8'
_cell_volume   391.13717941
_cell_formula_units_Z   2
loop_
 _symmetry_equiv_pos_site_id
 _symmetry_equiv_pos_as_xyz
  1  'x, y, z'
loop_
 _atom_site_type_symbol
 _atom_site_label
 _atom_site_symmetry_multiplicity
 _atom_site_fract_x
 _atom_site_fract_y
 _atom_site_fract_z
 _atom_site_occupancy
  Pb  Pb0  1  0.261158  0.750002  0.250002  1
  Pb  Pb1  1  0.738842  0.249998  0.749998  1
  Cl  Cl2  1  0.143843  0.448073  0.308229  1
  Cl  Cl3  1  0.856157  0.551927  0.691771  1
  Cl  Cl4  1  0.627017  0.189207  0.566843  1
  Cl  Cl5  1  0.383068  0.310795  0.933156  1
  Cl  Cl6  1  0.900148  0.051924  0.191772  1
  Cl  Cl7  1  0.099852  0.948076  0.808228  1
  Cl  Cl8  1  0.372983  0.810793  0.433157  1
  Cl  Cl9  1  0.616931  0.689205  0.066844  1
