# generated using pymatgen
data_K2EuTa5O15
_symmetry_space_group_name_H-M   'P 1'
_cell_length_a   3.95401405
_cell_length_b   12.70928374
_cell_length_c   12.70928374
_cell_angle_alpha   90.00000000
_cell_angle_beta   90.00000000
_cell_angle_gamma   90.00000000
_symmetry_Int_Tables_number   1
_chemical_formula_structural   K2EuTa5O15
_chemical_formula_sum   'K4 Eu2 Ta10 O30'
_cell_volume   638.67565109
_cell_formula_units_Z   2
loop_
 _symmetry_equiv_pos_site_id
 _symmetry_equiv_pos_as_xyz
  1  'x, y, z'
loop_
 _atom_site_type_symbol
 _atom_site_label
 _atom_site_symmetry_multiplicity
 _atom_site_fract_x
 _atom_site_fract_y
 _atom_site_fract_z
 _atom_site_occupancy
  Eu  Eu0  1  0.000000  0.000000  0.000000  1
  Eu  Eu1  1  0.000000  0.500000  0.500000  1
  K  K2  1  0.000000  0.330222  0.169778  1
  K  K3  1  0.000000  0.169778  0.669778  1
  K  K4  1  0.000000  0.830222  0.330222  1
  K  K5  1  0.000000  0.669778  0.830222  1
  Ta  Ta6  1  0.500000  0.786870  0.076183  1
  Ta  Ta7  1  0.500000  0.076183  0.213130  1
  Ta  Ta8  1  0.500000  0.500000  0.000000  1
  Ta  Ta9  1  0.500000  0.576183  0.286870  1
  Ta  Ta10  1  0.500000  0.423817  0.713130  1
  Ta  Ta11  1  0.500000  0.923817  0.786870  1
  Ta  Ta12  1  0.500000  0.713130  0.576183  1
  Ta  Ta13  1  0.500000  0.286870  0.423817  1
  Ta  Ta14  1  0.500000  0.213130  0.923817  1
  Ta  Ta15  1  0.500000  0.000000  0.500000  1
  O  O16  1  0.500000  0.342853  0.001359  1
  O  O17  1  0.000000  0.423643  0.693838  1
  O  O18  1  0.500000  0.215286  0.284714  1
  O  O19  1  0.500000  0.062019  0.866542  1
  O  O20  1  0.500000  0.715286  0.215286  1
  O  O21  1  0.000000  0.076357  0.193838  1
  O  O22  1  0.000000  0.306162  0.423643  1
  O  O23  1  0.500000  0.937981  0.133458  1
  O  O24  1  0.000000  0.923643  0.806162  1
  O  O25  1  0.500000  0.562019  0.633458  1
  O  O26  1  0.500000  0.784714  0.715286  1
  O  O27  1  0.500000  0.437981  0.366542  1
  O  O28  1  0.500000  0.498641  0.157147  1
  O  O29  1  0.500000  0.998641  0.342853  1
  O  O30  1  0.000000  0.806162  0.076357  1
  O  O31  1  0.500000  0.284714  0.784714  1
  O  O32  1  0.500000  0.501359  0.842853  1
  O  O33  1  0.000000  0.193838  0.923643  1
  O  O34  1  0.500000  0.001359  0.657147  1
  O  O35  1  0.500000  0.866542  0.937981  1
  O  O36  1  0.500000  0.133458  0.062019  1
  O  O37  1  0.500000  0.657147  0.998641  1
  O  O38  1  0.500000  0.842853  0.498641  1
  O  O39  1  0.000000  0.693838  0.576357  1
  O  O40  1  0.500000  0.366542  0.562019  1
  O  O41  1  0.500000  0.633458  0.437981  1
  O  O42  1  0.000000  0.000000  0.500000  1
  O  O43  1  0.000000  0.576357  0.306162  1
  O  O44  1  0.500000  0.157147  0.501359  1
  O  O45  1  0.000000  0.500000  0.000000  1
