# generated using pymatgen
data_Pr7BP2O17
_symmetry_space_group_name_H-M   'P 1'
_cell_length_a   6.98309521
_cell_length_b   12.55757920
_cell_length_c   17.93867610
_cell_angle_alpha   90.00000000
_cell_angle_beta   90.00000000
_cell_angle_gamma   97.40531670
_symmetry_Int_Tables_number   1
_chemical_formula_structural   Pr7BP2O17
_chemical_formula_sum   'Pr28 B4 P8 O68'
_cell_volume   1559.93580254
_cell_formula_units_Z   4
loop_
 _symmetry_equiv_pos_site_id
 _symmetry_equiv_pos_as_xyz
  1  'x, y, z'
loop_
 _atom_site_type_symbol
 _atom_site_label
 _atom_site_symmetry_multiplicity
 _atom_site_fract_x
 _atom_site_fract_y
 _atom_site_fract_z
 _atom_site_occupancy
  Pr  Pr0  1  0.024091  0.820840  0.725396  1
  Pr  Pr1  1  0.475909  0.679160  0.225396  1
  Pr  Pr2  1  0.989161  0.788485  0.518257  1
  Pr  Pr3  1  0.687788  0.403438  0.223257  1
  Pr  Pr4  1  0.995519  0.302302  0.894470  1
  Pr  Pr5  1  0.504481  0.197698  0.394470  1
  Pr  Pr6  1  0.209087  0.429934  0.133328  1
  Pr  Pr7  1  0.187788  0.903438  0.276743  1
  Pr  Pr8  1  0.975909  0.179160  0.274604  1
  Pr  Pr9  1  0.004481  0.697698  0.105530  1
  Pr  Pr10  1  0.290913  0.070066  0.633328  1
  Pr  Pr11  1  0.709087  0.929934  0.366672  1
  Pr  Pr12  1  0.225933  0.509626  0.554470  1
  Pr  Pr13  1  0.774067  0.490374  0.445530  1
  Pr  Pr14  1  0.510839  0.711515  0.018257  1
  Pr  Pr15  1  0.259649  0.072736  0.845647  1
  Pr  Pr16  1  0.759649  0.572736  0.654353  1
  Pr  Pr17  1  0.524091  0.320840  0.774604  1
  Pr  Pr18  1  0.725933  0.009626  0.945530  1
  Pr  Pr19  1  0.812212  0.096562  0.723257  1
  Pr  Pr20  1  0.274067  0.990374  0.054470  1
  Pr  Pr21  1  0.740351  0.927264  0.154353  1
  Pr  Pr22  1  0.489161  0.288485  0.981743  1
  Pr  Pr23  1  0.240351  0.427264  0.345647  1
  Pr  Pr24  1  0.312212  0.596562  0.776743  1
  Pr  Pr25  1  0.010839  0.211515  0.481743  1
  Pr  Pr26  1  0.790913  0.570066  0.866672  1
  Pr  Pr27  1  0.495519  0.802302  0.605530  1
  B  B28  1  0.250894  0.500426  0.931827  1
  B  B29  1  0.750894  0.000426  0.568173  1
  B  B30  1  0.749106  0.499574  0.068173  1
  B  B31  1  0.249106  0.999574  0.431827  1
  P  P32  1  0.948651  0.663144  0.301130  1
  P  P33  1  0.551349  0.836856  0.801130  1
  P  P34  1  0.537424  0.316914  0.561391  1
  P  P35  1  0.962576  0.183086  0.061391  1
  P  P36  1  0.462576  0.683086  0.438609  1
  P  P37  1  0.448651  0.163144  0.198870  1
  P  P38  1  0.051349  0.336856  0.698870  1
  P  P39  1  0.037424  0.816914  0.938609  1
  O  O40  1  0.227842  0.420380  0.985777  1
  O  O41  1  0.506998  0.874414  0.245194  1
  O  O42  1  0.038900  0.403411  0.457792  1
  O  O43  1  0.006998  0.374414  0.254806  1
  O  O44  1  0.883591  0.307764  0.756759  1
  O  O45  1  0.984011  0.406829  0.635580  1
  O  O46  1  0.304875  0.625138  0.109512  1
  O  O47  1  0.398659  0.491300  0.233001  1
  O  O48  1  0.599136  0.001048  0.620496  1
  O  O49  1  0.319207  0.723064  0.496097  1
  O  O50  1  0.616409  0.192236  0.256759  1
  O  O51  1  0.603011  0.727354  0.828806  1
  O  O52  1  0.272158  0.079620  0.485777  1
  O  O53  1  0.993002  0.625586  0.745194  1
  O  O54  1  0.383591  0.807764  0.743241  1
  O  O55  1  0.515989  0.093171  0.135580  1
  O  O56  1  0.691598  0.741033  0.132413  1
  O  O57  1  0.412934  0.573259  0.919391  1
  O  O58  1  0.772158  0.579620  0.014223  1
  O  O59  1  0.770840  0.598620  0.262766  1
  O  O60  1  0.308402  0.258967  0.867587  1
  O  O61  1  0.819207  0.223064  0.003903  1
  O  O62  1  0.099136  0.501048  0.879504  1
  O  O63  1  0.229160  0.401380  0.737234  1
  O  O64  1  0.538900  0.903411  0.042208  1
  O  O65  1  0.195125  0.874862  0.609512  1
  O  O66  1  0.917330  0.119469  0.855234  1
  O  O67  1  0.417330  0.619469  0.644766  1
  O  O68  1  0.729160  0.901380  0.762766  1
  O  O69  1  0.912934  0.073259  0.580609  1
  O  O70  1  0.049126  0.761753  0.863153  1
  O  O71  1  0.727842  0.920380  0.514223  1
  O  O72  1  0.900864  0.498952  0.120496  1
  O  O73  1  0.668950  0.702403  0.471593  1
  O  O74  1  0.484011  0.906829  0.864420  1
  O  O75  1  0.180793  0.776936  0.996097  1
  O  O76  1  0.950874  0.238247  0.136847  1
  O  O77  1  0.331050  0.297598  0.528407  1
  O  O78  1  0.831050  0.797597  0.971593  1
  O  O79  1  0.808402  0.758967  0.632413  1
  O  O80  1  0.168950  0.202403  0.028407  1
  O  O81  1  0.450874  0.738247  0.363153  1
  O  O82  1  0.586459  0.442171  0.565377  1
  O  O83  1  0.582670  0.380531  0.355234  1
  O  O84  1  0.087066  0.926741  0.419391  1
  O  O85  1  0.103011  0.227354  0.671194  1
  O  O86  1  0.082670  0.880531  0.144766  1
  O  O87  1  0.898659  0.991300  0.266999  1
  O  O88  1  0.587066  0.426741  0.080609  1
  O  O89  1  0.913541  0.057829  0.065377  1
  O  O90  1  0.116409  0.692236  0.243241  1
  O  O91  1  0.400864  0.998952  0.379504  1
  O  O92  1  0.680793  0.276936  0.503903  1
  O  O93  1  0.086459  0.942171  0.934623  1
  O  O94  1  0.270840  0.098620  0.237234  1
  O  O95  1  0.896989  0.772646  0.328806  1
  O  O96  1  0.695125  0.374862  0.890488  1
  O  O97  1  0.804875  0.125138  0.390488  1
  O  O98  1  0.015989  0.593171  0.364420  1
  O  O99  1  0.601341  0.508700  0.766999  1
  O  O100  1  0.191598  0.241033  0.367587  1
  O  O101  1  0.461100  0.096589  0.957792  1
  O  O102  1  0.101341  0.008700  0.733001  1
  O  O103  1  0.961100  0.596589  0.542208  1
  O  O104  1  0.493002  0.125586  0.754806  1
  O  O105  1  0.396989  0.272646  0.171194  1
  O  O106  1  0.549126  0.261753  0.636847  1
  O  O107  1  0.413541  0.557829  0.434623  1
