# generated using pymatgen
data_Dy3Si2Cl5O6
_symmetry_space_group_name_H-M   'P 1'
_cell_length_a   7.45469026
_cell_length_b   7.45469059
_cell_length_c   11.70447640
_cell_angle_alpha   80.56145207
_cell_angle_beta   80.56145162
_cell_angle_gamma   88.58584906
_symmetry_Int_Tables_number   1
_chemical_formula_structural   Dy3Si2Cl5O6
_chemical_formula_sum   'Dy6 Si4 Cl10 O12'
_cell_volume   632.95212257
_cell_formula_units_Z   2
loop_
 _symmetry_equiv_pos_site_id
 _symmetry_equiv_pos_as_xyz
  1  'x, y, z'
loop_
 _atom_site_type_symbol
 _atom_site_label
 _atom_site_symmetry_multiplicity
 _atom_site_fract_x
 _atom_site_fract_y
 _atom_site_fract_z
 _atom_site_occupancy
  Dy  Dy0  1  0.416000  0.918524  0.330404  1
  Dy  Dy1  1  0.081476  0.584000  0.669596  1
  Dy  Dy2  1  0.584000  0.081476  0.669596  1
  Dy  Dy3  1  0.918524  0.416000  0.330404  1
  Dy  Dy4  1  0.500000  0.000000  0.000000  1
  Dy  Dy5  1  0.000000  0.500000  0.000000  1
  Si  Si6  1  0.182785  0.889811  0.855312  1
  Si  Si7  1  0.110189  0.817215  0.144688  1
  Si  Si8  1  0.817215  0.110189  0.144688  1
  Si  Si9  1  0.889811  0.182785  0.855312  1
  Cl  Cl10  1  0.683858  0.683858  0.003050  1
  Cl  Cl11  1  0.220865  0.220865  0.336745  1
  Cl  Cl12  1  0.316142  0.316142  0.996950  1
  Cl  Cl13  1  0.378140  0.378140  0.643039  1
  Cl  Cl14  1  0.621860  0.621860  0.356961  1
  Cl  Cl15  1  0.115394  0.673613  0.420946  1
  Cl  Cl16  1  0.884606  0.326387  0.579054  1
  Cl  Cl17  1  0.673613  0.115394  0.420946  1
  Cl  Cl18  1  0.326387  0.884606  0.579054  1
  Cl  Cl19  1  0.779135  0.779135  0.663255  1
  O  O20  1  0.691691  0.132381  0.827947  1
  O  O21  1  0.605816  0.044944  0.172054  1
  O  O22  1  0.044944  0.605816  0.172054  1
  O  O23  1  0.394184  0.955056  0.827946  1
  O  O24  1  0.951740  0.951740  0.195166  1
  O  O25  1  0.955056  0.394184  0.827946  1
  O  O26  1  0.132381  0.691691  0.827947  1
  O  O27  1  0.867619  0.308309  0.172053  1
  O  O28  1  0.142282  0.857718  1.000000  1
  O  O29  1  0.857718  0.142282  0.000000  1
  O  O30  1  0.308309  0.867619  0.172053  1
  O  O31  1  0.048260  0.048260  0.804834  1
