# generated using pymatgen
data_H6RuN3Cl3O
_symmetry_space_group_name_H-M   'P 1'
_cell_length_a   6.79399368
_cell_length_b   10.01606685
_cell_length_c   11.64596276
_cell_angle_alpha   89.99752796
_cell_angle_beta   90.00354547
_cell_angle_gamma   97.34221793
_symmetry_Int_Tables_number   1
_chemical_formula_structural   H6RuN3Cl3O
_chemical_formula_sum   'H24 Ru4 N12 Cl12 O4'
_cell_volume   785.99917888
_cell_formula_units_Z   4
loop_
 _symmetry_equiv_pos_site_id
 _symmetry_equiv_pos_as_xyz
  1  'x, y, z'
loop_
 _atom_site_type_symbol
 _atom_site_label
 _atom_site_symmetry_multiplicity
 _atom_site_fract_x
 _atom_site_fract_y
 _atom_site_fract_z
 _atom_site_occupancy
  H  H0  1  0.448322  0.172551  0.404357  1
  H  H1  1  0.626521  0.142718  0.111953  1
  H  H2  1  0.098076  0.578024  0.256370  1
  H  H3  1  0.051683  0.327444  0.904368  1
  H  H4  1  0.126532  0.642716  0.388044  1
  H  H5  1  0.873465  0.357281  0.611954  1
  H  H6  1  0.460025  0.327410  0.459560  1
  H  H7  1  0.204263  0.222858  0.858581  1
  H  H8  1  0.948316  0.672554  0.095631  1
  Ru  Ru9  1  0.846578  0.150844  0.759879  1
  H  H10  1  0.295739  0.277143  0.358571  1
  H  H11  1  0.039997  0.172584  0.959573  1
  H  H12  1  0.175252  0.862415  0.805855  1
  H  H13  1  0.960002  0.827417  0.040426  1
  H  H14  1  0.675253  0.362425  0.694143  1
  Ru  Ru15  1  0.653398  0.349162  0.259852  1
  H  H16  1  0.795739  0.777141  0.141419  1
  H  H17  1  0.551683  0.827451  0.595638  1
  H  H18  1  0.598088  0.078028  0.243632  1
  H  H19  1  0.704268  0.722859  0.641423  1
  H  H20  1  0.373479  0.857284  0.888045  1
  H  H21  1  0.324747  0.637572  0.305857  1
  Ru  Ru22  1  0.153396  0.849161  0.240143  1
  Ru  Ru23  1  0.346619  0.650835  0.740155  1
  H  H24  1  0.539979  0.672592  0.540436  1
  H  H25  1  0.824745  0.137584  0.194143  1
  H  H26  1  0.901922  0.421973  0.743630  1
  H  H27  1  0.401913  0.921974  0.756365  1
  N  N28  1  0.518429  0.620088  0.844889  1
  N  N29  1  0.177460  0.652818  0.304996  1
  N  N30  1  0.481577  0.379913  0.155109  1
  N  N31  1  0.438484  0.271976  0.385335  1
  N  N32  1  0.938476  0.771978  0.114653  1
  N  N33  1  0.322542  0.847178  0.804994  1
  N  N34  1  0.981585  0.879913  0.344876  1
  N  N35  1  0.561522  0.728026  0.614661  1
  N  N36  1  0.822537  0.347180  0.695005  1
  N  N37  1  0.061521  0.228022  0.885348  1
  N  N38  1  0.018393  0.120091  0.655139  1
  N  N39  1  0.677459  0.152822  0.195002  1
  Cl  Cl40  1  0.850062  0.930479  0.845375  1
  Cl  Cl41  1  0.649929  0.569520  0.345357  1
  Cl  Cl42  1  0.149940  0.069523  0.154626  1
  Cl  Cl43  1  0.894467  0.304141  0.396346  1
  Cl  Cl44  1  0.921322  0.430212  0.133197  1
  Cl  Cl45  1  0.578665  0.069790  0.633208  1
  Cl  Cl46  1  0.421338  0.930206  0.366796  1
  Cl  Cl47  1  0.078681  0.569788  0.866799  1
  Cl  Cl48  1  0.350082  0.430484  0.654641  1
  Cl  Cl49  1  0.605527  0.195863  0.896352  1
  Cl  Cl50  1  0.394470  0.804134  0.103648  1
  Cl  Cl51  1  0.105531  0.695862  0.603648  1
  O  O52  1  0.875411  0.903402  0.418844  1
  O  O53  1  0.624615  0.596592  0.918869  1
  O  O54  1  0.124575  0.096597  0.581155  1
  O  O55  1  0.375397  0.403402  0.081129  1
