# generated using pymatgen
data_Sm4Se3O4
_symmetry_space_group_name_H-M   'P 1'
_cell_length_a   3.97209277
_cell_length_b   6.71990216
_cell_length_c   8.43478928
_cell_angle_alpha   89.99985735
_cell_angle_beta   90.00000000
_cell_angle_gamma   107.19033592
_symmetry_Int_Tables_number   1
_chemical_formula_structural   Sm4Se3O4
_chemical_formula_sum   'Sm4 Se3 O4'
_cell_volume   215.08453256
_cell_formula_units_Z   1
loop_
 _symmetry_equiv_pos_site_id
 _symmetry_equiv_pos_as_xyz
  1  'x, y, z'
loop_
 _atom_site_type_symbol
 _atom_site_label
 _atom_site_symmetry_multiplicity
 _atom_site_fract_x
 _atom_site_fract_y
 _atom_site_fract_z
 _atom_site_occupancy
  Sm  Sm0  1  0.681639  0.363279  0.237174  1
  Sm  Sm1  1  0.681640  0.363279  0.762826  1
  Sm  Sm2  1  0.018042  0.036083  0.500000  1
  Sm  Sm3  1  0.001276  0.002552  -0.000000  1
  O  O4  1  0.615760  0.231521  0.500000  1
  Se  Se5  1  0.312402  0.624803  1.000000  1
  Se  Se6  1  0.355105  0.710210  0.649327  1
  O  O7  1  0.086972  0.173943  0.755902  1
  O  O8  1  0.587658  0.175316  1.000001  1
  O  O9  1  0.086972  0.173943  0.244099  1
  Se  Se10  1  0.355105  0.710210  0.350673  1
