# generated using pymatgen
data_S5N4O3
_symmetry_space_group_name_H-M   'P 1'
_cell_length_a   7.44404295
_cell_length_b   10.96161522
_cell_length_c   11.19812241
_cell_angle_alpha   90.00000000
_cell_angle_beta   95.60872195
_cell_angle_gamma   90.00000000
_symmetry_Int_Tables_number   1
_chemical_formula_structural   S5N4O3
_chemical_formula_sum   'S20 N16 O12'
_cell_volume   909.37805775
_cell_formula_units_Z   4
loop_
 _symmetry_equiv_pos_site_id
 _symmetry_equiv_pos_as_xyz
  1  'x, y, z'
loop_
 _atom_site_type_symbol
 _atom_site_label
 _atom_site_symmetry_multiplicity
 _atom_site_fract_x
 _atom_site_fract_y
 _atom_site_fract_z
 _atom_site_occupancy
  S  S0  1  0.217994  0.430778  0.094680  1
  S  S1  1  0.282006  0.930778  0.405320  1
  S  S2  1  0.782006  0.569222  0.905320  1
  S  S3  1  0.717994  0.069222  0.594680  1
  S  S4  1  0.054453  0.458593  0.324040  1
  S  S5  1  0.445547  0.958593  0.175960  1
  S  S6  1  0.945547  0.541407  0.675960  1
  S  S7  1  0.554453  0.041407  0.824040  1
  S  S8  1  0.385211  0.340476  0.446536  1
  S  S9  1  0.114789  0.840476  0.053464  1
  S  S10  1  0.614789  0.659524  0.553464  1
  S  S11  1  0.885211  0.159524  0.946536  1
  S  S12  1  0.540280  0.332949  0.212571  1
  S  S13  1  0.959720  0.832949  0.287429  1
  S  S14  1  0.459720  0.667051  0.787429  1
  S  S15  1  0.040280  0.167051  0.712571  1
  S  S16  1  0.498590  0.612316  0.198356  1
  S  S17  1  0.001410  0.112316  0.301644  1
  S  S18  1  0.501410  0.387684  0.801644  1
  S  S19  1  0.998590  0.887684  0.698356  1
  O  O20  1  0.505676  0.663284  0.078920  1
  O  O21  1  0.994324  0.163284  0.421080  1
  O  O22  1  0.494324  0.336716  0.921080  1
  O  O23  1  0.005676  0.836716  0.578920  1
  O  O24  1  0.356424  0.662148  0.264491  1
  O  O25  1  0.143576  0.162148  0.235509  1
  O  O26  1  0.643576  0.337852  0.735509  1
  O  O27  1  0.856424  0.837852  0.764491  1
  O  O28  1  0.670670  0.588104  0.267251  1
  O  O29  1  0.829330  0.088104  0.232749  1
  O  O30  1  0.329330  0.411896  0.732749  1
  O  O31  1  0.170670  0.911896  0.767251  1
  N  N32  1  0.421776  0.456114  0.165885  1
  N  N33  1  0.078224  0.956114  0.334115  1
  N  N34  1  0.578224  0.543886  0.834115  1
  N  N35  1  0.921776  0.043886  0.665885  1
  N  N36  1  0.067508  0.445507  0.186342  1
  N  N37  1  0.432492  0.945507  0.313658  1
  N  N38  1  0.932492  0.554493  0.813658  1
  N  N39  1  0.567508  0.054493  0.686342  1
  N  N40  1  0.227689  0.436916  0.416172  1
  N  N41  1  0.272311  0.936916  0.083828  1
  N  N42  1  0.772311  0.563084  0.583828  1
  N  N43  1  0.727689  0.063084  0.916172  1
  N  N44  1  0.504887  0.299643  0.346719  1
  N  N45  1  0.995113  0.799643  0.153281  1
  N  N46  1  0.495113  0.700357  0.653281  1
  N  N47  1  0.004887  0.200357  0.846719  1
