# generated using pymatgen
data_YAl3(Si5N8)3
_symmetry_space_group_name_H-M   'P 1'
_cell_length_a   7.91128173
_cell_length_b   7.90463455
_cell_length_c   17.19440129
_cell_angle_alpha   89.80207683
_cell_angle_beta   90.30632529
_cell_angle_gamma   120.26249096
_symmetry_Int_Tables_number   1
_chemical_formula_structural   YAl3(Si5N8)3
_chemical_formula_sum   'Y2 Al6 Si30 N48'
_cell_volume   928.72075468
_cell_formula_units_Z   2
loop_
 _symmetry_equiv_pos_site_id
 _symmetry_equiv_pos_as_xyz
  1  'x, y, z'
loop_
 _atom_site_type_symbol
 _atom_site_label
 _atom_site_symmetry_multiplicity
 _atom_site_fract_x
 _atom_site_fract_y
 _atom_site_fract_z
 _atom_site_occupancy
  Al  Al0  1  0.488779  0.584163  0.565846  1
  Al  Al1  1  0.486775  0.584632  0.901826  1
  Al  Al2  1  0.929264  0.431309  0.736724  1
  Al  Al3  1  0.834688  0.085716  0.169161  1
  Al  Al4  1  0.834219  0.078728  0.498666  1
  Al  Al5  1  0.829963  0.078405  0.835369  1
  N  N6  1  0.006706  0.686215  0.249373  1
  N  N7  1  0.987815  0.670183  0.583211  1
  N  N8  1  0.986728  0.673231  0.918763  1
  N  N9  1  0.047597  0.390466  0.327790  1
  N  N10  1  0.051711  0.385832  0.652882  1
  N  N11  1  0.049031  0.394769  0.995646  1
  N  N12  1  0.342105  0.959608  0.326577  1
  N  N13  1  0.338279  0.956403  0.657454  1
  N  N14  1  0.337222  0.959958  0.992937  1
  N  N15  1  0.993716  0.002410  1.000056  1
  N  N16  1  0.009753  0.995310  0.166775  1
  N  N17  1  0.997015  0.999701  0.333669  1
  N  N18  1  0.012557  0.993680  0.499840  1
  N  N19  1  0.995954  0.000781  0.665016  1
  N  N20  1  0.334491  0.667669  0.220918  1
  N  N21  1  0.007527  0.993829  0.834044  1
  N  N22  1  0.325447  0.673927  0.542343  1
  N  N23  1  0.320692  0.672322  0.878852  1
  N  N24  1  0.312899  0.319200  0.248492  1
  N  N25  1  0.329541  0.310119  0.581867  1
  N  N26  1  0.319498  0.311707  0.916900  1
  N  N27  1  0.320759  0.312462  0.082536  1
  N  N28  1  0.319589  0.313680  0.414364  1
  N  N29  1  0.313853  0.316287  0.748520  1
  N  N30  1  0.674392  0.991021  0.253141  1
  N  N31  1  0.672327  0.002994  0.586509  1
  N  N32  1  0.666265  0.996549  0.921579  1
  N  N33  1  0.612275  0.651339  0.327082  1
  N  N34  1  0.618088  0.657564  0.662430  1
  N  N35  1  0.618881  0.654449  0.997170  1
  N  N36  1  0.656891  0.607284  0.163295  1
  N  N37  1  0.667580  0.596456  0.491621  1
  N  N38  1  0.665375  0.591717  0.827356  1
  N  N39  1  0.395904  0.048930  0.162229  1
  N  N40  1  0.411516  0.063503  0.495131  1
  N  N41  1  0.408945  0.066493  0.830005  1
  N  N42  1  0.667854  0.333630  0.050612  1
  N  N43  1  0.668634  0.331135  0.383835  1
  N  N44  1  0.655022  0.328105  0.711343  1
  N  N45  1  0.993675  0.682963  0.081882  1
  N  N46  1  0.004178  0.684023  0.412636  1
  N  N47  1  0.009797  0.693994  0.748117  1
  N  N48  1  0.674097  -0.002508  0.081314  1
  N  N49  1  0.674487  0.990857  0.413263  1
  N  N50  1  0.674826  0.997739  0.746976  1
  N  N51  1  0.960642  0.357686  0.161932  1
  N  N52  1  0.941490  0.354307  0.495050  1
  N  N53  1  0.933014  0.348673  0.837813  1
  Si  Si54  1  0.086641  0.837117  0.331442  1
  Si  Si55  1  0.078657  0.832841  0.665911  1
  Si  Si56  1  0.076230  0.834870  0.001285  1
  Si  Si57  1  0.084579  0.515423  0.237314  1
  Si  Si58  1  0.091248  0.517651  0.566874  1
  Si  Si59  1  0.086683  0.517464  0.905058  1
  Si  Si60  1  0.432910  0.918261  0.238405  1
  Si  Si61  1  0.424128  0.910099  0.568816  1
  Si  Si62  1  0.419862  0.909542  0.904935  1
  Si  Si63  1  0.165336  0.251708  0.332182  1
  Si  Si64  1  0.170169  0.250664  0.662570  1
  Si  Si65  1  0.168601  0.252436  0.000897  1
  Si  Si66  1  0.253929  0.163921  0.167936  1
  Si  Si67  1  0.254770  0.165535  0.497566  1
  Si  Si68  1  0.248547  0.167997  0.832608  1
  Si  Si69  1  0.487367  0.570658  0.237574  1
  Si  Si70  1  0.741757  0.910546  0.333243  1
  Si  Si71  1  0.742613  0.914455  0.668014  1
  Si  Si72  1  0.739184  0.911743  0.003752  1
  Si  Si73  1  0.569386  0.492209  0.073870  1
  Si  Si74  1  0.571282  0.483181  0.399922  1
  Si  Si75  1  0.566531  0.488138  0.735809  1
  Si  Si76  1  0.508264  0.074114  0.072868  1
  Si  Si77  1  0.517667  0.078726  0.399350  1
  Si  Si78  1  0.509170  0.075521  0.735018  1
  Si  Si79  1  0.917523  0.748203  0.167994  1
  Si  Si80  1  0.923868  0.748948  0.829630  1
  Si  Si81  1  0.923588  0.748060  0.495225  1
  Si  Si82  1  0.927747  0.436470  0.074394  1
  Si  Si83  1  0.920545  0.433257  0.400602  1
  Y  Y84  1  0.667832  0.337047  0.577611  1
  Y  Y85  1  0.666391  0.338258  0.915389  1
