# generated using pymatgen
data_H32WC8N4Cl7
_symmetry_space_group_name_H-M   'P 1'
_cell_length_a   8.81591064
_cell_length_b   10.30205291
_cell_length_c   13.19379766
_cell_angle_alpha   90.00000000
_cell_angle_beta   90.00000000
_cell_angle_gamma   90.00000000
_symmetry_Int_Tables_number   1
_chemical_formula_structural   H32WC8N4Cl7
_chemical_formula_sum   'H64 W2 C16 N8 Cl14'
_cell_volume   1198.28679901
_cell_formula_units_Z   2
loop_
 _symmetry_equiv_pos_site_id
 _symmetry_equiv_pos_as_xyz
  1  'x, y, z'
loop_
 _atom_site_type_symbol
 _atom_site_label
 _atom_site_symmetry_multiplicity
 _atom_site_fract_x
 _atom_site_fract_y
 _atom_site_fract_z
 _atom_site_occupancy
  H  H0  1  0.045835  0.662528  0.254787  1
  H  H1  1  0.195265  0.234328  0.084806  1
  H  H2  1  0.284665  0.608055  0.174486  1
  H  H3  1  0.478760  0.123645  0.239992  1
  H  H4  1  0.521240  0.376355  0.739992  1
  H  H5  1  0.100182  0.156539  0.981882  1
  H  H6  1  0.048755  0.824783  0.442396  1
  H  H7  1  0.804735  0.734328  0.415194  1
  H  H8  1  0.284665  0.391945  0.825514  1
  H  H9  1  0.195265  0.765672  0.915194  1
  H  H10  1  0.112307  0.076897  0.102249  1
  H  H11  1  0.045835  0.337472  0.745213  1
  H  H12  1  0.332230  0.107865  0.443154  1
  H  H13  1  0.164212  0.198913  0.722989  1
  H  H14  1  0.804735  0.265672  0.584806  1
  H  H15  1  0.164212  0.801087  0.277011  1
  H  H16  1  0.761799  0.359674  0.826490  1
  H  H17  1  0.037924  0.320263  0.229378  1
  H  H18  1  0.954165  0.837472  0.754787  1
  H  H19  1  0.899818  0.656539  0.518118  1
  H  H20  1  0.864917  0.821734  0.929173  1
  H  H21  1  0.617176  0.910109  0.556852  1
  H  H22  1  0.604570  0.965168  0.347386  1
  H  H23  1  0.835788  0.698913  0.777011  1
  H  H24  1  0.112307  0.923103  0.897751  1
  H  H25  1  0.962076  0.820263  0.270622  1
  H  H26  1  0.951245  0.675217  0.942396  1
  H  H27  1  0.887693  0.576897  0.397751  1
  H  H28  1  0.676883  0.483688  0.152856  1
  H  H29  1  0.135083  0.678266  0.429173  1
  H  H30  1  0.951245  0.324783  0.057604  1
  H  H31  1  0.490171  0.234979  0.331719  1
  H  H32  1  0.048755  0.175217  0.557604  1
  H  H33  1  0.395430  0.534832  0.847386  1
  H  H34  1  0.238201  0.859674  0.673510  1
  H  H35  1  0.037924  0.679737  0.770622  1
  H  H36  1  0.761799  0.640326  0.173510  1
  H  H37  1  0.238201  0.140326  0.326490  1
  H  H38  1  0.604570  0.034832  0.652614  1
  H  H39  1  0.864917  0.178266  0.070827  1
  H  H40  1  0.323117  0.016312  0.652856  1
  H  H41  1  0.962076  0.179737  0.729378  1
  H  H42  1  0.887693  0.423103  0.602249  1
  H  H43  1  0.667770  0.607865  0.056846  1
  H  H44  1  0.954165  0.162528  0.245213  1
  H  H45  1  0.100182  0.843461  0.018118  1
  H  H46  1  0.323117  0.983688  0.347144  1
  H  H47  1  0.332230  0.892135  0.556846  1
  H  H48  1  0.521240  0.623645  0.260008  1
  H  H49  1  0.478760  0.876355  0.760008  1
  H  H50  1  0.835788  0.301087  0.222989  1
  H  H51  1  0.509829  0.265021  0.831719  1
  H  H52  1  0.715335  0.891945  0.674486  1
  H  H53  1  0.715335  0.108055  0.325514  1
  H  H54  1  0.490171  0.765021  0.668281  1
  H  H55  1  0.667770  0.392135  0.943154  1
  H  H56  1  0.509829  0.734979  0.168281  1
  H  H57  1  0.899818  0.343461  0.481882  1
  H  H58  1  0.617176  0.089891  0.443148  1
  H  H59  1  0.382824  0.410109  0.943148  1
  H  H60  1  0.135083  0.321734  0.570827  1
  H  H61  1  0.382824  0.589891  0.056852  1
  H  H62  1  0.676883  0.516312  0.847144  1
  H  H63  1  0.395430  0.465168  0.152614  1
  W  W64  1  0.577653  0.000000  0.000000  1
  W  W65  1  0.422347  0.500000  0.500000  1
  C  C66  1  0.899187  0.329399  0.564003  1
  C  C67  1  0.054689  0.244066  0.705879  1
  C  C68  1  0.332203  0.912082  0.638267  1
  C  C69  1  0.054689  0.755934  0.294121  1
  C  C70  1  0.667797  0.412082  0.861733  1
  C  C71  1  0.945311  0.744066  0.794121  1
  C  C72  1  0.945311  0.255934  0.205879  1
  C  C73  1  0.613516  0.069522  0.361829  1
  C  C74  1  0.899187  0.670601  0.435997  1
  C  C75  1  0.332203  0.087918  0.361733  1
  C  C76  1  0.386484  0.430478  0.861829  1
  C  C77  1  0.667797  0.587918  0.138267  1
  C  C78  1  0.386484  0.569522  0.138171  1
  C  C79  1  0.100813  0.829399  0.935997  1
  C  C80  1  0.613516  0.930478  0.638171  1
  C  C81  1  0.100813  0.170601  0.064003  1
  N  N82  1  0.522049  0.635493  0.181643  1
  N  N83  1  0.956271  0.233511  0.094909  1
  N  N84  1  0.956271  0.766489  0.905092  1
  N  N85  1  0.477951  0.135493  0.318357  1
  N  N86  1  0.522049  0.364507  0.818357  1
  N  N87  1  0.043729  0.266489  0.594908  1
  N  N88  1  0.477951  0.864507  0.681643  1
  N  N89  1  0.043729  0.733511  0.405091  1
  Cl  Cl90  1  0.569349  0.786610  0.914296  1
  Cl  Cl91  1  0.993395  0.000000  0.500000  1
  Cl  Cl92  1  0.430651  0.713390  0.414296  1
  Cl  Cl93  1  0.006605  0.500000  0.000000  1
  Cl  Cl94  1  0.611655  0.578543  0.624510  1
  Cl  Cl95  1  0.221504  0.573416  0.616267  1
  Cl  Cl96  1  0.778496  0.926584  0.116267  1
  Cl  Cl97  1  0.388345  0.078543  0.875490  1
  Cl  Cl98  1  0.388345  0.921457  0.124510  1
  Cl  Cl99  1  0.611655  0.421457  0.375490  1
  Cl  Cl100  1  0.778496  0.073416  0.883733  1
  Cl  Cl101  1  0.569349  0.213390  0.085704  1
  Cl  Cl102  1  0.430651  0.286610  0.585704  1
  Cl  Cl103  1  0.221504  0.426584  0.383733  1
