# generated using pymatgen
data_Ca10(Al2Ge3)3
_symmetry_space_group_name_H-M   'P 1'
_cell_length_a   10.71080869
_cell_length_b   10.71080818
_cell_length_c   10.71080816
_cell_angle_alpha   81.37178327
_cell_angle_beta   81.37178370
_cell_angle_gamma   81.37178273
_symmetry_Int_Tables_number   1
_chemical_formula_structural   Ca10(Al2Ge3)3
_chemical_formula_sum   'Ca20 Al12 Ge18'
_cell_volume   1190.83998380
_cell_formula_units_Z   2
loop_
 _symmetry_equiv_pos_site_id
 _symmetry_equiv_pos_as_xyz
  1  'x, y, z'
loop_
 _atom_site_type_symbol
 _atom_site_label
 _atom_site_symmetry_multiplicity
 _atom_site_fract_x
 _atom_site_fract_y
 _atom_site_fract_z
 _atom_site_occupancy
  Ca  Ca0  1  0.207080  0.500000  0.792920  1
  Ca  Ca1  1  0.792920  0.207080  0.500000  1
  Ca  Ca2  1  0.708557  0.000000  0.291443  1
  Ca  Ca3  1  0.207080  0.792920  0.500000  1
  Ca  Ca4  1  0.000000  0.291443  0.708557  1
  Ca  Ca5  1  0.344035  0.344035  0.053206  1
  Ca  Ca6  1  0.655965  0.946794  0.655965  1
  Ca  Ca7  1  0.000000  0.708557  0.291443  1
  Ca  Ca8  1  0.655965  0.655965  0.946794  1
  Ca  Ca9  1  0.053206  0.344035  0.344035  1
  Ca  Ca10  1  0.792920  0.500000  0.207080  1
  Ca  Ca11  1  0.500000  0.792920  0.207080  1
  Ca  Ca12  1  0.946794  0.655965  0.655965  1
  Ca  Ca13  1  0.000000  0.000000  0.000000  1
  Ca  Ca14  1  0.291443  1.000000  0.708557  1
  Ca  Ca15  1  0.344035  0.053206  0.344035  1
  Ca  Ca16  1  0.500000  0.500000  0.500000  1
  Ca  Ca17  1  0.708557  0.291443  0.000000  1
  Ca  Ca18  1  0.500000  0.207080  0.792920  1
  Ca  Ca19  1  0.291443  0.708557  1.000000  1
  Al  Al20  1  0.968871  0.682426  0.968871  1
  Al  Al21  1  0.714589  0.499675  0.714589  1
  Al  Al22  1  0.285411  0.285411  0.500325  1
  Al  Al23  1  0.682426  0.968871  0.968871  1
  Al  Al24  1  0.317574  0.031129  0.031129  1
  Al  Al25  1  0.714589  0.714589  0.499675  1
  Al  Al26  1  0.500325  0.285411  0.285411  1
  Al  Al27  1  0.031129  0.317574  0.031129  1
  Al  Al28  1  0.285411  0.500325  0.285411  1
  Al  Al29  1  0.499675  0.714589  0.714589  1
  Al  Al30  1  0.968871  0.968871  0.682426  1
  Al  Al31  1  0.031129  0.031129  0.317574  1
  Ge  Ge32  1  0.890869  0.890869  0.486382  1
  Ge  Ge33  1  0.486848  0.486848  0.814077  1
  Ge  Ge34  1  0.814077  0.486848  0.486848  1
  Ge  Ge35  1  0.109131  0.513618  0.109131  1
  Ge  Ge36  1  0.795480  0.795480  0.116390  1
  Ge  Ge37  1  0.513152  0.513152  0.185923  1
  Ge  Ge38  1  0.883610  0.204520  0.204520  1
  Ge  Ge39  1  0.513618  0.109131  0.109131  1
  Ge  Ge40  1  0.486382  0.890869  0.890869  1
  Ge  Ge41  1  0.116390  0.795480  0.795480  1
  Ge  Ge42  1  0.890869  0.486382  0.890869  1
  Ge  Ge43  1  0.204520  0.883610  0.204520  1
  Ge  Ge44  1  0.204520  0.204520  0.883610  1
  Ge  Ge45  1  0.109131  0.109131  0.513618  1
  Ge  Ge46  1  0.513152  0.185923  0.513152  1
  Ge  Ge47  1  0.486848  0.814077  0.486848  1
  Ge  Ge48  1  0.795480  0.116390  0.795480  1
  Ge  Ge49  1  0.185923  0.513152  0.513152  1
