# generated using pymatgen
data_Mn2Ru(CN)6
_symmetry_space_group_name_H-M   'P 1'
_cell_length_a   6.07953394
_cell_length_b   6.07953359
_cell_length_c   6.77942114
_cell_angle_alpha   90.00000000
_cell_angle_beta   90.00000000
_cell_angle_gamma   120.00000196
_symmetry_Int_Tables_number   1
_chemical_formula_structural   Mn2Ru(CN)6
_chemical_formula_sum   'Mn2 Ru1 C6 N6'
_cell_volume   217.00202481
_cell_formula_units_Z   1
loop_
 _symmetry_equiv_pos_site_id
 _symmetry_equiv_pos_as_xyz
  1  'x, y, z'
loop_
 _atom_site_type_symbol
 _atom_site_label
 _atom_site_symmetry_multiplicity
 _atom_site_fract_x
 _atom_site_fract_y
 _atom_site_fract_z
 _atom_site_occupancy
  Mn  Mn0  1  0.666667  0.333333  0.498783  1
  Mn  Mn1  1  0.333333  0.666667  0.501217  1
  Ru  Ru2  1  0.000000  0.000000  0.000000  1
  C  C3  1  0.998949  0.744832  0.812003  1
  C  C4  1  0.001051  0.255168  0.187997  1
  C  C5  1  0.255168  0.254117  0.812003  1
  C  C6  1  0.745883  0.001051  0.812003  1
  C  C7  1  0.254117  0.998949  0.187997  1
  C  C8  1  0.744832  0.745883  0.187997  1
  N  N9  1  0.383887  0.999338  0.318917  1
  N  N10  1  0.615451  0.616113  0.318917  1
  N  N11  1  0.384549  0.383887  0.681083  1
  N  N12  1  0.000662  0.384549  0.318917  1
  N  N13  1  0.999338  0.615451  0.681083  1
  N  N14  1  0.616113  0.000662  0.681083  1
