# generated using pymatgen
data_KGdCO3F2
_symmetry_space_group_name_H-M   'P 1'
_cell_length_a   6.67499838
_cell_length_b   6.67499375
_cell_length_c   11.59189244
_cell_angle_alpha   99.28056414
_cell_angle_beta   99.28048974
_cell_angle_gamma   116.09283370
_symmetry_Int_Tables_number   1
_chemical_formula_structural   KGdCO3F2
_chemical_formula_sum   'K4 Gd4 C4 O12 F8'
_cell_volume   441.78498688
_cell_formula_units_Z   4
loop_
 _symmetry_equiv_pos_site_id
 _symmetry_equiv_pos_as_xyz
  1  'x, y, z'
loop_
 _atom_site_type_symbol
 _atom_site_label
 _atom_site_symmetry_multiplicity
 _atom_site_fract_x
 _atom_site_fract_y
 _atom_site_fract_z
 _atom_site_occupancy
  K  K0  1  0.207225  0.957331  0.914689  1
  K  K1  1  0.042667  0.792773  0.585310  1
  K  K2  1  0.957333  0.207227  0.414690  1
  K  K3  1  0.792775  0.042669  0.085311  1
  Gd  Gd4  1  0.807579  0.192421  0.750000  1
  Gd  Gd5  1  0.557594  0.442406  0.250000  1
  Gd  Gd6  1  0.442406  0.557594  0.750000  1
  Gd  Gd7  1  0.192421  0.807579  0.250000  1
  C  C8  1  0.497230  0.747214  0.494399  1
  C  C9  1  0.252786  0.502770  0.005600  1
  C  C10  1  0.502770  0.252786  0.505601  1
  C  C11  1  0.747214  0.497230  0.994400  1
  O  O12  1  0.562363  0.312309  0.624716  1
  O  O13  1  0.437637  0.687691  0.375284  1
  O  O14  1  0.633321  0.385048  0.448498  1
  O  O15  1  0.614951  0.366679  0.051502  1
  O  O16  1  0.063479  0.315072  0.948497  1
  O  O17  1  0.687691  0.437637  0.875284  1
  O  O18  1  0.315072  0.063479  0.448497  1
  O  O19  1  0.936521  0.684928  0.051503  1
  O  O20  1  0.366679  0.614952  0.551502  1
  O  O21  1  0.385049  0.633321  0.948498  1
  O  O22  1  0.312309  0.562363  0.124716  1
  O  O23  1  0.684928  0.936521  0.551503  1
  F  F24  1  0.068078  0.526959  0.717597  1
  F  F25  1  0.149503  0.190690  0.717545  1
  F  F26  1  0.473041  0.931922  0.782404  1
  F  F27  1  0.931922  0.473041  0.282403  1
  F  F28  1  0.809309  0.850497  0.782455  1
  F  F29  1  0.190691  0.149503  0.217545  1
  F  F30  1  0.850497  0.809310  0.282455  1
  F  F31  1  0.526959  0.068078  0.217596  1
