# generated using pymatgen
data_RbCdAg3(CN)6
_symmetry_space_group_name_H-M   'P 1'
_cell_length_a   7.28577552
_cell_length_b   7.28577583
_cell_length_c   8.27832097
_cell_angle_alpha   90.00000000
_cell_angle_beta   90.00000000
_cell_angle_gamma   119.99999861
_symmetry_Int_Tables_number   1
_chemical_formula_structural   RbCdAg3(CN)6
_chemical_formula_sum   'Rb1 Cd1 Ag3 C6 N6'
_cell_volume   380.56118384
_cell_formula_units_Z   1
loop_
 _symmetry_equiv_pos_site_id
 _symmetry_equiv_pos_as_xyz
  1  'x, y, z'
loop_
 _atom_site_type_symbol
 _atom_site_label
 _atom_site_symmetry_multiplicity
 _atom_site_fract_x
 _atom_site_fract_y
 _atom_site_fract_z
 _atom_site_occupancy
  Rb  Rb0  1  0.333333  0.666667  0.000000  1
  Cd  Cd1  1  0.000000  0.000000  0.000000  1
  Ag  Ag2  1  0.509657  0.019314  0.500000  1
  Ag  Ag3  1  0.509657  0.490343  0.500000  1
  Ag  Ag4  1  0.980686  0.490343  0.500000  1
  C  C5  1  0.659194  0.009707  0.707564  1
  C  C6  1  0.659194  0.649487  0.292436  1
  C  C7  1  0.350513  0.009707  0.292436  1
  C  C8  1  0.990293  0.649487  0.707564  1
  C  C9  1  0.350513  0.340806  0.707564  1
  C  C10  1  0.990293  0.340806  0.292436  1
  N  N11  1  0.741504  0.741961  0.173813  1
  N  N12  1  0.741504  -0.000457  0.826187  1
  N  N13  1  0.258039  0.258496  0.826187  1
  N  N14  1  0.258039  -0.000457  0.173813  1
  N  N15  1  1.000457  0.258496  0.173813  1
  N  N16  1  1.000457  0.741961  0.826187  1
