# generated using pymatgen
data_Cs3Li2F5
_symmetry_space_group_name_H-M   'P 1'
_cell_length_a   4.24612413
_cell_length_b   4.24612501
_cell_length_c   11.71798415
_cell_angle_alpha   100.53957846
_cell_angle_beta   100.53958749
_cell_angle_gamma   89.47536693
_symmetry_Int_Tables_number   1
_chemical_formula_structural   Cs3Li2F5
_chemical_formula_sum   'Cs3 Li2 F5'
_cell_volume   204.13706727
_cell_formula_units_Z   1
loop_
 _symmetry_equiv_pos_site_id
 _symmetry_equiv_pos_as_xyz
  1  'x, y, z'
loop_
 _atom_site_type_symbol
 _atom_site_label
 _atom_site_symmetry_multiplicity
 _atom_site_fract_x
 _atom_site_fract_y
 _atom_site_fract_z
 _atom_site_occupancy
  Cs  Cs0  1  0.049123  0.049122  -0.000004  1
  Cs  Cs1  1  0.410087  0.410087  0.726245  1
  Cs  Cs2  1  0.683634  0.683634  0.273771  1
  Li  Li3  1  0.282581  0.282581  0.439027  1
  Li  Li4  1  0.843669  0.843669  0.560955  1
  F  F5  1  0.549781  0.549781  0.000056  1
  F  F6  1  0.179425  0.179426  0.272303  1
  F  F7  1  0.233625  0.733616  0.499978  1
  F  F8  1  0.733616  0.233624  0.499978  1
  F  F9  1  0.907301  0.907300  0.727691  1
