# generated using pymatgen
data_RuCl3
_symmetry_space_group_name_H-M   'P 1'
_cell_length_a   6.05994157
_cell_length_b   6.05994120
_cell_length_c   19.91745744
_cell_angle_alpha   90.00000000
_cell_angle_beta   90.00000000
_cell_angle_gamma   120.00000197
_symmetry_Int_Tables_number   1
_chemical_formula_structural   RuCl3
_chemical_formula_sum   'Ru6 Cl18'
_cell_volume   633.43399573
_cell_formula_units_Z   6
loop_
 _symmetry_equiv_pos_site_id
 _symmetry_equiv_pos_as_xyz
  1  'x, y, z'
loop_
 _atom_site_type_symbol
 _atom_site_label
 _atom_site_symmetry_multiplicity
 _atom_site_fract_x
 _atom_site_fract_y
 _atom_site_fract_z
 _atom_site_occupancy
  Ru  Ru0  1  0.555511  0.111022  0.166667  1
  Ru  Ru1  1  0.888978  0.444489  0.500000  1
  Ru  Ru2  1  0.555511  0.444489  0.833333  1
  Ru  Ru3  1  0.222080  0.444160  0.166667  1
  Ru  Ru4  1  0.555840  0.777920  0.500000  1
  Ru  Ru5  1  0.222080  0.777920  0.833333  1
  Cl  Cl6  1  0.535987  0.758429  0.766134  1
  Cl  Cl7  1  0.888705  0.758239  0.900651  1
  Cl  Cl8  1  0.535742  0.111160  0.900639  1
  Cl  Cl9  1  0.869535  0.758239  0.432682  1
  Cl  Cl10  1  0.222442  0.464013  0.432801  1
  Cl  Cl11  1  0.888705  0.130465  0.099349  1
  Cl  Cl12  1  0.535987  0.777558  0.233866  1
  Cl  Cl13  1  0.888840  0.464258  0.766027  1
  Cl  Cl14  1  0.241571  0.464013  0.900532  1
  Cl  Cl15  1  0.575418  0.464258  0.567306  1
  Cl  Cl16  1  0.869535  0.111295  0.567318  1
  Cl  Cl17  1  0.222442  0.758429  0.567199  1
  Cl  Cl18  1  0.241761  0.130465  0.233985  1
  Cl  Cl19  1  0.575418  0.111160  0.432694  1
  Cl  Cl20  1  0.888840  0.424582  0.233973  1
  Cl  Cl21  1  0.535742  0.424582  0.099361  1
  Cl  Cl22  1  0.241761  0.111295  0.766015  1
  Cl  Cl23  1  0.241571  0.777558  0.099468  1
