# generated using pymatgen
data_Co2Hg2H2S2O11
_symmetry_space_group_name_H-M   'P 1'
_cell_length_a   6.19621597
_cell_length_b   11.37153015
_cell_length_c   13.32938832
_cell_angle_alpha   90.00000000
_cell_angle_beta   90.00000000
_cell_angle_gamma   90.00000000
_symmetry_Int_Tables_number   1
_chemical_formula_structural   Co2Hg2H2S2O11
_chemical_formula_sum   'Co8 Hg8 H8 S8 O44'
_cell_volume   939.19478881
_cell_formula_units_Z   4
loop_
 _symmetry_equiv_pos_site_id
 _symmetry_equiv_pos_as_xyz
  1  'x, y, z'
loop_
 _atom_site_type_symbol
 _atom_site_label
 _atom_site_symmetry_multiplicity
 _atom_site_fract_x
 _atom_site_fract_y
 _atom_site_fract_z
 _atom_site_occupancy
  Hg  Hg0  1  0.200938  0.419917  0.250000  1
  Hg  Hg1  1  0.200938  0.080083  0.750000  1
  Hg  Hg2  1  0.799062  0.919917  0.250000  1
  Hg  Hg3  1  0.799062  0.580083  0.750000  1
  Hg  Hg4  1  0.523719  0.170095  0.250000  1
  Hg  Hg5  1  0.523719  0.329905  0.750000  1
  Hg  Hg6  1  0.476281  0.670095  0.250000  1
  Hg  Hg7  1  0.476281  0.829905  0.750000  1
  Co  Co8  1  0.019317  0.168680  0.124508  1
  Co  Co9  1  0.019317  0.331320  0.875492  1
  Co  Co10  1  0.980683  0.668680  0.375492  1
  Co  Co11  1  0.980683  0.831320  0.624508  1
  Co  Co12  1  0.980683  0.831320  0.875492  1
  Co  Co13  1  0.980683  0.668680  0.124508  1
  Co  Co14  1  0.019317  0.331320  0.624508  1
  Co  Co15  1  0.019317  0.168680  0.375492  1
  S  S16  1  0.733416  0.410742  0.077133  1
  S  S17  1  0.733416  0.089258  0.922867  1
  S  S18  1  0.266584  0.910742  0.422867  1
  S  S19  1  0.266584  0.589258  0.577133  1
  S  S20  1  0.266584  0.589258  0.922867  1
  S  S21  1  0.266584  0.910742  0.077133  1
  S  S22  1  0.733416  0.089258  0.577133  1
  S  S23  1  0.733416  0.410742  0.422867  1
  O  O24  1  0.115047  0.833783  0.135877  1
  O  O25  1  0.115047  0.666217  0.864123  1
  O  O26  1  0.884953  0.333783  0.364123  1
  O  O27  1  0.884953  0.166217  0.635877  1
  O  O28  1  0.884953  0.166217  0.864123  1
  O  O29  1  0.884953  0.333783  0.135877  1
  O  O30  1  0.115047  0.666217  0.635877  1
  O  O31  1  0.115047  0.833783  0.364123  1
  O  O32  1  0.213503  0.594882  0.031584  1
  O  O33  1  0.213503  0.905118  0.968416  1
  O  O34  1  0.786497  0.094882  0.468416  1
  O  O35  1  0.786497  0.405118  0.531584  1
  O  O36  1  0.786497  0.405118  0.968416  1
  O  O37  1  0.786497  0.094882  0.031584  1
  O  O38  1  0.213503  0.905118  0.531584  1
  O  O39  1  0.213503  0.594882  0.468416  1
  O  O40  1  0.241930  0.033130  0.116074  1
  O  O41  1  0.241930  0.466870  0.883926  1
  O  O42  1  0.758070  0.533130  0.383926  1
  O  O43  1  0.758070  0.966870  0.616074  1
  O  O44  1  0.758070  0.966870  0.883926  1
  O  O45  1  0.758070  0.533130  0.116074  1
  O  O46  1  0.241930  0.466870  0.616074  1
  O  O47  1  0.241930  0.033130  0.383926  1
  O  O48  1  0.509227  0.371594  0.095634  1
  O  O49  1  0.509227  0.128406  0.904366  1
  O  O50  1  0.490773  0.871594  0.404366  1
  O  O51  1  0.490773  0.628406  0.595634  1
  O  O52  1  0.490773  0.628406  0.904366  1
  O  O53  1  0.490773  0.871594  0.095634  1
  O  O54  1  0.509227  0.128406  0.595634  1
  O  O55  1  0.509227  0.371594  0.404366  1
  O  O56  1  0.163676  0.603553  0.250000  1
  O  O57  1  0.163676  0.896447  0.750000  1
  O  O58  1  0.836324  0.103553  0.250000  1
  O  O59  1  0.836324  0.396447  0.750000  1
  O  O60  1  0.211830  0.233674  0.250000  1
  O  O61  1  0.211830  0.266326  0.750000  1
  O  O62  1  0.788170  0.733674  0.250000  1
  O  O63  1  0.788170  0.766326  0.750000  1
  O  O64  1  0.205772  0.250000  0.000000  1
  O  O65  1  0.794228  0.750000  0.500000  1
  O  O66  1  0.794228  0.750000  0.000000  1
  O  O67  1  0.205772  0.250000  0.500000  1
  H  H68  1  0.308666  0.308831  0.029321  1
  H  H69  1  0.308666  0.191169  0.970679  1
  H  H70  1  0.691334  0.808831  0.470679  1
  H  H71  1  0.691334  0.691169  0.529321  1
  H  H72  1  0.691334  0.691169  0.970679  1
  H  H73  1  0.691334  0.808831  0.029321  1
  H  H74  1  0.308666  0.191169  0.529321  1
  H  H75  1  0.308666  0.308831  0.470679  1
