# generated using pymatgen
data_K2LaP2S7
_symmetry_space_group_name_H-M   'P 1'
_cell_length_a   6.93051804
_cell_length_b   9.27786296
_cell_length_c   20.34493700
_cell_angle_alpha   96.70531624
_cell_angle_beta   90.00000000
_cell_angle_gamma   90.00000000
_symmetry_Int_Tables_number   1
_chemical_formula_structural   K2LaP2S7
_chemical_formula_sum   'K8 La4 P8 S28'
_cell_volume   1299.23927968
_cell_formula_units_Z   4
loop_
 _symmetry_equiv_pos_site_id
 _symmetry_equiv_pos_as_xyz
  1  'x, y, z'
loop_
 _atom_site_type_symbol
 _atom_site_label
 _atom_site_symmetry_multiplicity
 _atom_site_fract_x
 _atom_site_fract_y
 _atom_site_fract_z
 _atom_site_occupancy
  La  La0  1  0.026575  0.688926  0.849532  1
  La  La1  1  0.526575  0.811074  0.650468  1
  La  La2  1  0.973425  0.311074  0.150468  1
  La  La3  1  0.473425  0.188926  0.349532  1
  P  P4  1  0.483060  0.903055  0.830780  1
  P  P5  1  0.983060  0.596945  0.669220  1
  P  P6  1  0.516940  0.096945  0.169220  1
  P  P7  1  0.016940  0.403055  0.330780  1
  P  P8  1  0.989207  0.416557  0.956088  1
  P  P9  1  0.489207  0.083443  0.543912  1
  P  P10  1  0.010793  0.583443  0.043912  1
  P  P11  1  0.510793  0.916557  0.456088  1
  S  S12  1  0.033826  0.773478  0.005514  1
  S  S13  1  0.533826  0.726522  0.494486  1
  S  S14  1  0.966174  0.226522  0.994487  1
  S  S15  1  0.466174  0.273478  0.505513  1
  S  S16  1  0.426220  0.699057  0.781790  1
  S  S17  1  0.926220  0.800943  0.718210  1
  S  S18  1  0.573780  0.300943  0.218210  1
  S  S19  1  0.073780  0.199057  0.281790  1
  S  S20  1  0.011859  0.455382  0.739182  1
  S  S21  1  0.511859  0.044618  0.760818  1
  S  S22  1  0.988141  0.544618  0.260818  1
  S  S23  1  0.488141  0.955382  0.239182  1
  S  S24  1  0.722910  0.911620  0.889775  1
  S  S25  1  0.222910  0.588380  0.610225  1
  S  S26  1  0.277090  0.088380  0.110225  1
  S  S27  1  0.777090  0.411620  0.389775  1
  S  S28  1  0.231638  0.441300  0.901277  1
  S  S29  1  0.731638  0.058700  0.598723  1
  S  S30  1  0.768362  0.558700  0.098723  1
  S  S31  1  0.268362  0.941300  0.401277  1
  S  S32  1  0.755796  0.472423  0.903699  1
  S  S33  1  0.255796  0.027577  0.596301  1
  S  S34  1  0.244204  0.527577  0.096301  1
  S  S35  1  0.744204  0.972423  0.403699  1
  S  S36  1  0.253435  0.957890  0.891584  1
  S  S37  1  0.753435  0.542110  0.608416  1
  S  S38  1  0.746565  0.042110  0.108416  1
  S  S39  1  0.246565  0.457890  0.391584  1
  K  K40  1  0.969857  0.150582  0.810322  1
  K  K41  1  0.469857  0.349418  0.689678  1
  K  K42  1  0.030143  0.849418  0.189678  1
  K  K43  1  0.530143  0.650582  0.310322  1
  K  K44  1  0.487501  0.238044  0.989744  1
  K  K45  1  0.987501  0.261956  0.510256  1
  K  K46  1  0.512499  0.761956  0.010256  1
  K  K47  1  0.012499  0.738044  0.489744  1
