# generated using pymatgen
data_SiBr4
_symmetry_space_group_name_H-M   'P 1'
_cell_length_a   12.19233827
_cell_length_b   12.19233827
_cell_length_c   12.19233827
_cell_angle_alpha   90.00000000
_cell_angle_beta   90.00000000
_cell_angle_gamma   90.00000000
_symmetry_Int_Tables_number   1
_chemical_formula_structural   SiBr4
_chemical_formula_sum   'Si8 Br32'
_cell_volume   1812.42903237
_cell_formula_units_Z   8
loop_
 _symmetry_equiv_pos_site_id
 _symmetry_equiv_pos_as_xyz
  1  'x, y, z'
loop_
 _atom_site_type_symbol
 _atom_site_label
 _atom_site_symmetry_multiplicity
 _atom_site_fract_x
 _atom_site_fract_y
 _atom_site_fract_z
 _atom_site_occupancy
  Si  Si0  1  0.368223  0.631777  0.131777  1
  Si  Si1  1  0.131777  0.131777  0.131777  1
  Si  Si2  1  0.868223  0.868223  0.868223  1
  Si  Si3  1  0.131777  0.368223  0.631777  1
  Si  Si4  1  0.631777  0.131777  0.368223  1
  Si  Si5  1  0.868223  0.631777  0.368223  1
  Si  Si6  1  0.368223  0.868223  0.631777  1
  Si  Si7  1  0.631777  0.368223  0.868223  1
  Br  Br8  1  0.263500  0.763500  0.736500  1
  Br  Br9  1  0.736979  0.466219  0.979289  1
  Br  Br10  1  0.520711  0.236979  0.466219  1
  Br  Br11  1  0.763021  0.966219  0.979289  1
  Br  Br12  1  0.033781  0.020711  0.236979  1
  Br  Br13  1  0.736500  0.236500  0.263500  1
  Br  Br14  1  0.736500  0.263500  0.763500  1
  Br  Br15  1  0.520711  0.263021  0.966219  1
  Br  Br16  1  0.033781  0.479289  0.736979  1
  Br  Br17  1  0.466219  0.520711  0.236979  1
  Br  Br18  1  0.533781  0.479289  0.763021  1
  Br  Br19  1  0.966219  0.520711  0.263021  1
  Br  Br20  1  0.979289  0.736979  0.466219  1
  Br  Br21  1  0.263021  0.966219  0.520711  1
  Br  Br22  1  0.533781  0.020711  0.263021  1
  Br  Br23  1  0.236979  0.466219  0.520711  1
  Br  Br24  1  0.236500  0.236500  0.236500  1
  Br  Br25  1  0.236500  0.263500  0.736500  1
  Br  Br26  1  0.020711  0.263021  0.533781  1
  Br  Br27  1  0.763021  0.533781  0.479289  1
  Br  Br28  1  0.966219  0.979289  0.763021  1
  Br  Br29  1  0.020711  0.236979  0.033781  1
  Br  Br30  1  0.736979  0.033781  0.479289  1
  Br  Br31  1  0.236979  0.033781  0.020711  1
  Br  Br32  1  0.466219  0.979289  0.736979  1
  Br  Br33  1  0.763500  0.736500  0.263500  1
  Br  Br34  1  0.479289  0.763021  0.533781  1
  Br  Br35  1  0.263500  0.736500  0.236500  1
  Br  Br36  1  0.763500  0.763500  0.763500  1
  Br  Br37  1  0.979289  0.763021  0.966219  1
  Br  Br38  1  0.263021  0.533781  0.020711  1
  Br  Br39  1  0.479289  0.736979  0.033781  1
