# generated using pymatgen
data_K9Eu3Si12(O16F)2
_symmetry_space_group_name_H-M   'P 1'
_cell_length_a   6.99416424
_cell_length_b   11.58452457
_cell_length_c   11.66484920
_cell_angle_alpha   87.82303474
_cell_angle_beta   89.68711256
_cell_angle_gamma   79.83142310
_symmetry_Int_Tables_number   1
_chemical_formula_structural   K9Eu3Si12(O16F)2
_chemical_formula_sum   'K9 Eu3 Si12 O32 F2'
_cell_volume   929.61575668
_cell_formula_units_Z   1
loop_
 _symmetry_equiv_pos_site_id
 _symmetry_equiv_pos_as_xyz
  1  'x, y, z'
loop_
 _atom_site_type_symbol
 _atom_site_label
 _atom_site_symmetry_multiplicity
 _atom_site_fract_x
 _atom_site_fract_y
 _atom_site_fract_z
 _atom_site_occupancy
  Eu  Eu0  1  0.514223  0.512059  0.666439  1
  Eu  Eu1  1  0.485777  0.487941  0.333560  1
  Eu  Eu2  1  0.000000  0.000000  0.500000  1
  K  K3  1  0.986338  0.669991  0.491100  1
  K  K4  1  0.730423  0.383427  0.982385  1
  K  K5  1  0.831750  0.150730  0.786707  1
  K  K6  1  0.830211  0.189508  0.221753  1
  K  K7  1  0.269577  0.616573  0.017615  1
  K  K8  1  0.013662  0.330009  0.508900  1
  K  K9  1  0.168250  0.849270  0.213293  1
  K  K10  1  0.500000  0.000000  0.000000  1
  K  K11  1  0.169789  0.810492  0.778247  1
  Si  Si12  1  0.338181  0.136285  0.310309  1
  Si  Si13  1  0.661819  0.863715  0.689691  1
  Si  Si14  1  0.551654  0.231407  0.510649  1
  Si  Si15  1  0.690704  0.696207  0.157777  1
  Si  Si16  1  0.343900  0.090952  0.696350  1
  Si  Si17  1  0.448346  0.768593  0.489351  1
  Si  Si18  1  0.016383  0.513487  0.743530  1
  Si  Si19  1  0.309296  0.303793  0.842223  1
  Si  Si20  1  0.716231  0.667681  0.881705  1
  Si  Si21  1  0.283769  0.332319  0.118295  1
  Si  Si22  1  0.656100  0.909048  0.303650  1
  Si  Si23  1  0.983617  0.486513  0.256470  1
  O  O24  1  0.456421  0.396838  0.155989  1
  O  O25  1  0.528221  0.373108  0.515816  1
  O  O26  1  0.711647  0.691230  0.018547  1
  O  O27  1  0.934075  0.585524  0.861151  1
  O  O28  1  0.157323  0.033785  0.670314  1
  O  O29  1  0.688845  0.836065  0.183486  1
  O  O30  1  0.508980  0.793797  0.624423  1
  O  O31  1  0.156819  0.488978  0.347236  1
  O  O32  1  0.311155  0.163935  0.816514  1
  O  O33  1  0.714265  0.796962  0.816524  1
  O  O34  1  0.843181  0.511022  0.652764  1
  O  O35  1  0.497368  0.350709  0.793415  1
  O  O36  1  0.288353  0.308770  0.981453  1
  O  O37  1  0.502632  0.649291  0.206585  1
  O  O38  1  0.187081  0.574892  0.687631  1
  O  O39  1  0.542961  0.994168  0.725054  1
  O  O40  1  0.385287  0.183600  0.592990  1
  O  O41  1  0.543579  0.603162  0.844011  1
  O  O42  1  0.065925  0.414476  0.138849  1
  O  O43  1  0.900353  0.624690  0.210975  1
  O  O44  1  0.231855  0.836079  0.458130  1
  O  O45  1  0.812919  0.425108  0.312369  1
  O  O46  1  0.285735  0.203038  0.183476  1
  O  O47  1  0.491020  0.206203  0.375577  1
  O  O48  1  0.457039  0.005832  0.274946  1
  O  O49  1  0.842677  0.966215  0.329686  1
  O  O50  1  0.144083  0.127611  0.380059  1
  O  O51  1  0.614713  0.816400  0.407010  1
  O  O52  1  0.099647  0.375310  0.789025  1
  O  O53  1  0.855917  0.872389  0.619941  1
  O  O54  1  0.471779  0.626892  0.484184  1
  O  O55  1  0.768145  0.163921  0.541870  1
  F  F56  1  0.244506  0.844429  0.995575  1
  F  F57  1  0.755494  0.155571  0.004425  1
