# generated using pymatgen
data_Ca3(PO4)2
_symmetry_space_group_name_H-M   'P 1'
_cell_length_a   13.95813661
_cell_length_b   13.95813611
_cell_length_c   13.95813663
_cell_angle_alpha   44.40588881
_cell_angle_beta   44.40589090
_cell_angle_gamma   44.40589016
_symmetry_Int_Tables_number   1
_chemical_formula_structural   Ca3(PO4)2
_chemical_formula_sum   'Ca21 P14 O56'
_cell_volume   1210.41804868
_cell_formula_units_Z   7
loop_
 _symmetry_equiv_pos_site_id
 _symmetry_equiv_pos_as_xyz
  1  'x, y, z'
loop_
 _atom_site_type_symbol
 _atom_site_label
 _atom_site_symmetry_multiplicity
 _atom_site_fract_x
 _atom_site_fract_y
 _atom_site_fract_z
 _atom_site_occupancy
  Ca  Ca0  1  0.235011  0.235011  0.235011  1
  Ca  Ca1  1  0.145138  0.580499  0.179241  1
  Ca  Ca2  1  0.179241  0.145138  0.580499  1
  Ca  Ca3  1  0.580499  0.179241  0.145138  1
  Ca  Ca4  1  0.186957  0.219673  0.782605  1
  Ca  Ca5  1  0.219673  0.782605  0.186957  1
  Ca  Ca6  1  0.085473  0.642496  0.671013  1
  Ca  Ca7  1  0.782605  0.186957  0.219673  1
  Ca  Ca8  1  0.302321  0.307741  0.890826  1
  Ca  Ca9  1  0.307741  0.890826  0.302321  1
  Ca  Ca10  1  0.642496  0.671013  0.085473  1
  Ca  Ca11  1  0.671013  0.085473  0.642496  1
  Ca  Ca12  1  0.301012  0.699533  0.678186  1
  Ca  Ca13  1  0.890826  0.302321  0.307741  1
  Ca  Ca14  1  0.678186  0.301012  0.699533  1
  Ca  Ca15  1  0.699533  0.678186  0.301012  1
  Ca  Ca16  1  0.392473  0.808609  0.798554  1
  Ca  Ca17  1  0.798554  0.392473  0.808609  1
  Ca  Ca18  1  0.808609  0.798554  0.392473  1
  Ca  Ca19  1  0.734737  0.734737  0.734737  1
  Ca  Ca20  1  0.922851  0.922851  0.922851  1
  O  O21  1  0.040075  0.040075  0.040075  1
  O  O22  1  0.100249  0.100598  0.394077  1
  O  O23  1  0.100598  0.394077  0.100249  1
  O  O24  1  0.985686  0.659022  0.079079  1
  O  O25  1  0.394077  0.100249  0.100598  1
  O  O26  1  0.079079  0.985686  0.659022  1
  O  O27  1  0.095375  0.356190  0.379441  1
  O  O28  1  0.356190  0.379441  0.095375  1
  O  O29  1  0.659022  0.079079  0.985686  1
  O  O30  1  0.379441  0.095375  0.356190  1
  O  O31  1  0.077073  0.340667  0.625347  1
  O  O32  1  0.116106  0.579343  0.370560  1
  O  O33  1  0.340667  0.625347  0.077073  1
  O  O34  1  0.370560  0.116106  0.579343  1
  O  O35  1  0.123131  0.504040  0.596453  1
  O  O36  1  0.579343  0.370560  0.116106  1
  O  O37  1  0.625347  0.077073  0.340667  1
  O  O38  1  0.133093  0.830104  0.375991  1
  O  O39  1  0.091925  0.358807  0.905387  1
  O  O40  1  0.504040  0.596453  0.123131  1
  O  O41  1  0.596453  0.123131  0.504040  1
  O  O42  1  0.375991  0.133093  0.830104  1
  O  O43  1  0.358807  0.905387  0.091925  1
  O  O44  1  0.065450  0.632217  0.867773  1
  O  O45  1  0.131479  0.838421  0.574246  1
  O  O46  1  0.346101  0.495629  0.628590  1
  O  O47  1  0.495629  0.628590  0.346101  1
  O  O48  1  0.830104  0.375991  0.133093  1
  O  O49  1  0.905387  0.091925  0.358807  1
  O  O50  1  0.628590  0.346101  0.495629  1
  O  O51  1  0.574246  0.131479  0.838421  1
  O  O52  1  0.632217  0.867773  0.065450  1
  O  O53  1  0.400467  0.422976  0.855349  1
  O  O54  1  0.543751  0.543751  0.543751  1
  O  O55  1  0.422976  0.855349  0.400467  1
  O  O56  1  0.838421  0.574246  0.131479  1
  O  O57  1  0.867773  0.065450  0.632217  1
  O  O58  1  0.326391  0.633768  0.875899  1
  O  O59  1  0.404629  0.858148  0.590003  1
  O  O60  1  0.121149  0.982841  0.846386  1
  O  O61  1  0.855349  0.400467  0.422976  1
  O  O62  1  0.633768  0.875899  0.326391  1
  O  O63  1  0.590003  0.404629  0.858148  1
  O  O64  1  0.875899  0.326391  0.633768  1
  O  O65  1  0.858148  0.590003  0.404629  1
  O  O66  1  0.846386  0.121149  0.982841  1
  O  O67  1  0.352028  0.923792  0.904076  1
  O  O68  1  0.604265  0.878074  0.598348  1
  O  O69  1  0.598348  0.604265  0.878074  1
  O  O70  1  0.982841  0.846386  0.121149  1
  O  O71  1  0.878074  0.598348  0.604265  1
  O  O72  1  0.904076  0.352028  0.923792  1
  O  O73  1  0.923792  0.904076  0.352028  1
  O  O74  1  0.594419  0.879023  0.856762  1
  O  O75  1  0.856762  0.594419  0.879023  1
  O  O76  1  0.879023  0.856762  0.594419  1
  P  P77  1  -0.000423  -0.000423  -0.000423  1
  P  P78  1  0.998862  0.567209  0.040073  1
  P  P79  1  0.040073  0.998862  0.567209  1
  P  P80  1  0.567209  0.040073  0.998862  1
  P  P81  1  0.054314  0.506740  0.544027  1
  P  P82  1  0.506740  0.544027  0.054314  1
  P  P83  1  0.544027  0.054314  0.506740  1
  P  P84  1  0.502004  0.502004  0.502004  1
  P  P85  1  0.419495  0.461603  0.919791  1
  P  P86  1  0.461603  0.919791  0.419495  1
  P  P87  1  0.919791  0.419495  0.461603  1
  P  P88  1  0.419213  0.960925  0.921450  1
  P  P89  1  0.921450  0.419213  0.960925  1
  P  P90  1  0.960925  0.921450  0.419213  1
