# generated using pymatgen
data_Nb3H12C4NCl9
_symmetry_space_group_name_H-M   'P 1'
_cell_length_a   11.14832340
_cell_length_b   11.14832374
_cell_length_c   8.91287283
_cell_angle_alpha   90.00000000
_cell_angle_beta   90.00000000
_cell_angle_gamma   119.99999898
_symmetry_Int_Tables_number   1
_chemical_formula_structural   Nb3H12C4NCl9
_chemical_formula_sum   'Nb6 H24 C8 N2 Cl18'
_cell_volume   959.32878697
_cell_formula_units_Z   2
loop_
 _symmetry_equiv_pos_site_id
 _symmetry_equiv_pos_as_xyz
  1  'x, y, z'
loop_
 _atom_site_type_symbol
 _atom_site_label
 _atom_site_symmetry_multiplicity
 _atom_site_fract_x
 _atom_site_fract_y
 _atom_site_fract_z
 _atom_site_occupancy
  Nb  Nb0  1  0.908509  0.091491  0.859616  1
  Nb  Nb1  1  0.091491  0.182982  0.140384  1
  Nb  Nb2  1  0.182982  0.091491  0.859616  1
  Nb  Nb3  1  0.908509  0.817018  0.859616  1
  Nb  Nb4  1  0.817018  0.908509  0.140384  1
  Nb  Nb5  1  0.091491  0.908509  0.140384  1
  H  H6  1  0.593963  0.187925  0.471378  1
  H  H7  1  0.406037  0.812075  0.528622  1
  H  H8  1  0.440545  0.720273  0.916814  1
  H  H9  1  0.720273  0.279727  0.083186  1
  H  H10  1  0.279727  0.720273  0.916814  1
  H  H11  1  0.513608  0.647415  0.692993  1
  H  H12  1  0.187925  0.593963  0.528622  1
  H  H13  1  0.279727  0.559455  0.916814  1
  H  H14  1  0.866194  0.352585  0.307007  1
  H  H15  1  0.486392  0.352585  0.307007  1
  H  H16  1  0.486392  0.133806  0.307007  1
  H  H17  1  0.647415  0.513608  0.307007  1
  H  H18  1  0.720273  0.440545  0.083186  1
  H  H19  1  0.593963  0.406037  0.471378  1
  H  H20  1  0.133806  0.647415  0.692993  1
  H  H21  1  0.866194  0.513608  0.307007  1
  H  H22  1  0.352585  0.486392  0.692993  1
  H  H23  1  0.513608  0.866194  0.692993  1
  H  H24  1  0.559455  0.279727  0.083186  1
  H  H25  1  0.812075  0.406037  0.471378  1
  H  H26  1  0.647415  0.133806  0.307007  1
  H  H27  1  0.406037  0.593963  0.528622  1
  H  H28  1  0.352585  0.866194  0.692993  1
  H  H29  1  0.133806  0.486392  0.692993  1
  C  C30  1  0.813628  0.406814  0.348493  1
  C  C31  1  0.666667  0.333333  0.123325  1
  C  C32  1  0.593186  0.406814  0.348493  1
  C  C33  1  0.593186  0.186372  0.348493  1
  C  C34  1  0.406814  0.593186  0.651507  1
  C  C35  1  0.333333  0.666667  0.876675  1
  C  C36  1  0.186372  0.593186  0.651507  1
  C  C37  1  0.406814  0.813628  0.651507  1
  N  N38  1  0.666667  0.333333  0.291931  1
  N  N39  1  0.333333  0.666667  0.708069  1
  Cl  Cl40  1  0.205350  0.102675  0.316428  1
  Cl  Cl41  1  1.000000  0.689493  0.000000  1
  Cl  Cl42  1  0.102675  0.897325  0.683572  1
  Cl  Cl43  1  0.802114  0.197886  0.700074  1
  Cl  Cl44  1  0.897325  0.102675  0.316428  1
  Cl  Cl45  1  0.197886  0.802114  0.299926  1
  Cl  Cl46  1  0.310507  0.000000  0.000000  1
  Cl  Cl47  1  0.310507  0.310507  0.000000  1
  Cl  Cl48  1  0.395772  0.197886  0.700074  1
  Cl  Cl49  1  0.197886  0.395772  0.299926  1
  Cl  Cl50  1  0.802114  0.604228  0.700074  1
  Cl  Cl51  1  0.689493  0.000000  0.000000  1
  Cl  Cl52  1  0.604228  0.802114  0.299926  1
  Cl  Cl53  1  0.000000  0.310507  0.000000  1
  Cl  Cl54  1  0.794650  0.897325  0.683572  1
  Cl  Cl55  1  0.897325  0.794650  0.316428  1
  Cl  Cl56  1  0.102675  0.205350  0.683572  1
  Cl  Cl57  1  0.689493  0.689493  0.000000  1
