# generated using pymatgen
data_CaCuAsHO5
_symmetry_space_group_name_H-M   'P 1'
_cell_length_a   5.88755764
_cell_length_b   7.43266400
_cell_length_c   9.49257048
_cell_angle_alpha   90.00000000
_cell_angle_beta   90.00000000
_cell_angle_gamma   90.00000000
_symmetry_Int_Tables_number   1
_chemical_formula_structural   CaCuAsHO5
_chemical_formula_sum   'Ca4 Cu4 As4 H4 O20'
_cell_volume   415.39714077
_cell_formula_units_Z   4
loop_
 _symmetry_equiv_pos_site_id
 _symmetry_equiv_pos_as_xyz
  1  'x, y, z'
loop_
 _atom_site_type_symbol
 _atom_site_label
 _atom_site_symmetry_multiplicity
 _atom_site_fract_x
 _atom_site_fract_y
 _atom_site_fract_z
 _atom_site_occupancy
  Ca  Ca0  1  0.270020  0.383155  0.929189  1
  Ca  Ca1  1  0.770020  0.616845  0.570811  1
  Ca  Ca2  1  0.229980  0.883155  0.070811  1
  Ca  Ca3  1  0.729980  0.116845  0.429189  1
  Cu  Cu4  1  0.001429  1.003368  0.750772  1
  Cu  Cu5  1  0.501429  -0.003368  0.749228  1
  Cu  Cu6  1  0.498571  0.503368  0.249228  1
  Cu  Cu7  1  0.998571  0.496632  0.250772  1
  As  As8  1  0.735431  0.631338  0.913536  1
  As  As9  1  0.235431  0.368662  0.586464  1
  As  As10  1  0.764569  0.131338  0.086464  1
  As  As11  1  0.264569  0.868662  0.413536  1
  O  O12  1  0.754718  0.812093  0.791843  1
  O  O13  1  0.254718  0.187907  0.708157  1
  O  O14  1  0.745282  0.312093  0.208157  1
  O  O15  1  0.245282  0.687907  0.291843  1
  O  O16  1  0.665656  0.456932  0.802637  1
  O  O17  1  0.165656  0.543068  0.697363  1
  O  O18  1  0.834344  0.956932  0.197363  1
  O  O19  1  0.334344  0.043068  0.302637  1
  O  O20  1  0.504685  0.648612  0.023906  1
  O  O21  1  0.004685  0.351388  0.476094  1
  O  O22  1  0.995315  0.148612  0.976094  1
  O  O23  1  0.495315  0.851388  0.523906  1
  O  O24  1  0.988150  0.612947  0.002129  1
  O  O25  1  0.488150  0.387053  0.497871  1
  O  O26  1  0.511850  0.112947  0.997871  1
  O  O27  1  0.011850  0.887053  0.502129  1
  O  O28  1  0.749148  0.140438  0.682882  1
  O  O29  1  0.249148  0.859562  0.817118  1
  O  O30  1  0.750852  0.640438  0.317118  1
  O  O31  1  0.250852  0.359562  0.182882  1
  H  H32  1  0.739112  0.258715  0.733336  1
  H  H33  1  0.239112  0.741285  0.766664  1
  H  H34  1  0.760888  0.758715  0.266664  1
  H  H35  1  0.260888  0.241285  0.233336  1
