# generated using pymatgen
data_Mn5Pb(SO4)6
_symmetry_space_group_name_H-M   'P 1'
_cell_length_a   14.86085960
_cell_length_b   14.86085944
_cell_length_c   7.61216243
_cell_angle_alpha   90.00000000
_cell_angle_beta   90.00000000
_cell_angle_gamma   120.00000038
_symmetry_Int_Tables_number   1
_chemical_formula_structural   Mn5Pb(SO4)6
_chemical_formula_sum   'Mn15 Pb3 S18 O72'
_cell_volume   1455.88319977
_cell_formula_units_Z   3
loop_
 _symmetry_equiv_pos_site_id
 _symmetry_equiv_pos_as_xyz
  1  'x, y, z'
loop_
 _atom_site_type_symbol
 _atom_site_label
 _atom_site_symmetry_multiplicity
 _atom_site_fract_x
 _atom_site_fract_y
 _atom_site_fract_z
 _atom_site_occupancy
  Mn  Mn0  1  0.348013  0.345265  0.034462  1
  Mn  Mn1  1  0.651987  0.654735  0.965538  1
  Mn  Mn2  1  0.678221  0.996793  0.453109  1
  Mn  Mn3  1  0.002747  0.348013  0.965538  1
  Mn  Mn4  1  0.003207  0.681427  0.453109  1
  Mn  Mn5  1  0.997253  0.651987  0.034462  1
  Mn  Mn6  1  0.318573  0.321779  0.453109  1
  Mn  Mn7  1  0.000000  0.000000  0.000000  1
  Mn  Mn8  1  0.345265  0.997253  0.965538  1
  Mn  Mn9  1  0.654735  0.002747  0.034462  1
  Mn  Mn10  1  0.333333  0.666667  0.498441  1
  Mn  Mn11  1  0.666667  0.333333  0.501559  1
  Mn  Mn12  1  0.996793  0.318573  0.546891  1
  Mn  Mn13  1  0.681427  0.678221  0.546891  1
  Mn  Mn14  1  0.321779  0.003207  0.546891  1
  Pb  Pb15  1  0.333333  0.666667  0.001589  1
  Pb  Pb16  1  0.666667  0.333333  0.998411  1
  Pb  Pb17  1  0.000000  0.000000  0.500000  1
  S  S18  1  0.226727  0.096986  0.243133  1
  S  S19  1  0.773273  0.903014  0.756867  1
  S  S20  1  0.234578  0.794193  0.256866  1
  S  S21  1  0.765422  0.205807  0.743134  1
  S  S22  1  0.205807  0.440385  0.256866  1
  S  S23  1  0.462057  0.892366  0.739680  1
  S  S24  1  0.107634  0.569691  0.739680  1
  S  S25  1  0.903014  0.129741  0.243133  1
  S  S26  1  0.569691  0.462057  0.260320  1
  S  S27  1  0.129741  0.226727  0.756867  1
  S  S28  1  0.430309  0.537943  0.739680  1
  S  S29  1  0.440385  0.234578  0.743134  1
  S  S30  1  0.537943  0.107634  0.260320  1
  S  S31  1  0.559615  0.765422  0.256866  1
  S  S32  1  0.870259  0.773273  0.243133  1
  S  S33  1  0.794193  0.559615  0.743134  1
  S  S34  1  0.096986  0.870259  0.756867  1
  S  S35  1  0.892366  0.430309  0.260320  1
  O  O36  1  0.786741  0.744154  0.114270  1
  O  O37  1  0.590545  0.725906  0.407928  1
  O  O38  1  0.454968  0.423385  0.256204  1
  O  O39  1  0.833234  0.776281  0.424506  1
  O  O40  1  0.135361  0.409455  0.407928  1
  O  O41  1  0.957413  0.213259  0.114270  1
  O  O42  1  0.958962  0.879205  0.203616  1
  O  O43  1  0.879205  0.920243  0.796384  1
  O  O44  1  0.620406  0.540000  0.398844  1
  O  O45  1  0.845638  0.556818  0.909328  1
  O  O46  1  0.725906  0.135361  0.592072  1
  O  O47  1  0.880029  0.245990  0.762272  1
  O  O48  1  0.080406  0.620406  0.601156  1
  O  O49  1  0.556818  0.711180  0.090672  1
  O  O50  1  0.540000  0.919594  0.601156  1
  O  O51  1  0.634039  0.880029  0.237728  1
  O  O52  1  0.494368  0.108085  0.083541  1
  O  O53  1  0.585694  0.371920  0.293390  1
  O  O54  1  0.613718  0.505632  0.083541  1
  O  O55  1  0.409455  0.274094  0.592072  1
  O  O56  1  0.042587  0.786741  0.885730  1
  O  O57  1  0.154362  0.443182  0.090672  1
  O  O58  1  0.919594  0.379594  0.398844  1
  O  O59  1  0.505632  0.891915  0.916459  1
  O  O60  1  0.365961  0.119971  0.762272  1
  O  O61  1  0.423385  0.968417  0.743796  1
  O  O62  1  0.211677  0.909223  0.760870  1
  O  O63  1  0.213774  0.585694  0.706610  1
  O  O64  1  0.166766  0.223719  0.575494  1
  O  O65  1  0.749130  0.296222  0.712232  1
  O  O66  1  0.288820  0.845638  0.090672  1
  O  O67  1  0.703778  0.452908  0.712232  1
  O  O68  1  0.371920  0.786226  0.706610  1
  O  O69  1  0.754010  0.634039  0.762272  1
  O  O70  1  0.250870  0.703778  0.287768  1
  O  O71  1  0.379594  0.460000  0.601156  1
  O  O72  1  0.274094  0.864639  0.407928  1
  O  O73  1  0.711180  0.154362  0.909328  1
  O  O74  1  0.414306  0.628080  0.706610  1
  O  O75  1  0.460000  0.080406  0.398844  1
  O  O76  1  0.891915  0.386282  0.083541  1
  O  O77  1  0.909223  0.697547  0.239130  1
  O  O78  1  0.120795  0.079757  0.203616  1
  O  O79  1  0.943047  0.166766  0.424506  1
  O  O80  1  0.119971  0.754010  0.237728  1
  O  O81  1  0.108085  0.613718  0.916459  1
  O  O82  1  0.744154  0.957413  0.885730  1
  O  O83  1  0.386282  0.494368  0.916459  1
  O  O84  1  0.697547  0.788323  0.760870  1
  O  O85  1  0.788323  0.090777  0.239130  1
  O  O86  1  0.245990  0.365961  0.237728  1
  O  O87  1  0.628080  0.213774  0.293390  1
  O  O88  1  0.786226  0.414306  0.293390  1
  O  O89  1  0.576615  0.031583  0.256204  1
  O  O90  1  0.296222  0.547092  0.287768  1
  O  O91  1  0.223719  0.056953  0.424506  1
  O  O92  1  0.255846  0.042587  0.114270  1
  O  O93  1  0.547092  0.250870  0.712232  1
  O  O94  1  0.545032  0.576615  0.743796  1
  O  O95  1  0.079757  0.958962  0.796384  1
  O  O96  1  0.302453  0.211677  0.239130  1
  O  O97  1  0.031583  0.454968  0.743796  1
  O  O98  1  0.452908  0.749130  0.287768  1
  O  O99  1  0.041038  0.120795  0.796384  1
  O  O100  1  0.920243  0.041038  0.203616  1
  O  O101  1  0.213259  0.255846  0.885730  1
  O  O102  1  0.968417  0.545032  0.256204  1
  O  O103  1  0.443182  0.288820  0.909328  1
  O  O104  1  0.864639  0.590545  0.592072  1
  O  O105  1  0.090777  0.302453  0.760870  1
  O  O106  1  0.056953  0.833234  0.575494  1
  O  O107  1  0.776281  0.943047  0.575494  1
