# generated using pymatgen
data_Na5Ga3F14
_symmetry_space_group_name_H-M   'P 1'
_cell_length_a   7.34739648
_cell_length_b   7.39938997
_cell_length_c   10.55124143
_cell_angle_alpha   90.78541169
_cell_angle_beta   90.00000000
_cell_angle_gamma   90.00000000
_symmetry_Int_Tables_number   1
_chemical_formula_structural   Na5Ga3F14
_chemical_formula_sum   'Na10 Ga6 F28'
_cell_volume   573.57755428
_cell_formula_units_Z   2
loop_
 _symmetry_equiv_pos_site_id
 _symmetry_equiv_pos_as_xyz
  1  'x, y, z'
loop_
 _atom_site_type_symbol
 _atom_site_label
 _atom_site_symmetry_multiplicity
 _atom_site_fract_x
 _atom_site_fract_y
 _atom_site_fract_z
 _atom_site_occupancy
  Na  Na0  1  0.764882  0.723472  0.241417  1
  Na  Na1  1  0.798975  0.737490  0.748703  1
  Na  Na2  1  0.500000  0.500000  0.000000  1
  Na  Na3  1  0.235118  0.276528  0.758583  1
  Na  Na4  1  0.264882  0.776528  0.258583  1
  Na  Na5  1  0.298975  0.762510  0.751297  1
  Na  Na6  1  0.735118  0.223472  0.741417  1
  Na  Na7  1  0.201025  0.262510  0.251297  1
  Na  Na8  1  0.701025  0.237490  0.248703  1
  Na  Na9  1  0.000000  0.000000  0.500000  1
  Ga  Ga10  1  0.500000  0.000000  0.500000  1
  Ga  Ga11  1  0.500000  0.500000  0.500000  1
  Ga  Ga12  1  0.000000  0.500000  0.000000  1
  Ga  Ga13  1  0.000000  0.000000  0.000000  1
  Ga  Ga14  1  0.500000  0.000000  0.000000  1
  Ga  Ga15  1  0.000000  0.500000  0.500000  1
  F  F16  1  0.253106  0.429970  0.459981  1
  F  F17  1  0.836540  0.466120  0.861693  1
  F  F18  1  0.560092  0.827232  0.871274  1
  F  F19  1  0.439908  0.172768  0.128726  1
  F  F20  1  0.077839  0.247286  -0.000756  1
  F  F21  1  0.663460  0.966120  0.361693  1
  F  F22  1  0.246894  0.929970  0.959981  1
  F  F23  1  0.702264  0.962866  0.610843  1
  F  F24  1  0.990879  0.304757  0.617273  1
  F  F25  1  0.456292  0.489560  0.675671  1
  F  F26  1  0.753106  0.070030  0.040019  1
  F  F27  1  0.746894  0.570030  0.540019  1
  F  F28  1  0.956292  0.010440  0.824329  1
  F  F29  1  0.060092  0.672768  0.628726  1
  F  F30  1  0.490879  0.195243  0.882727  1
  F  F31  1  0.509121  0.804757  0.117273  1
  F  F32  1  0.422161  0.747286  0.499244  1
  F  F33  1  0.163460  0.533880  0.138307  1
  F  F34  1  0.922161  0.752714  1.000756  1
  F  F35  1  0.577839  0.252714  0.500756  1
  F  F36  1  0.202264  0.537134  0.889157  1
  F  F37  1  0.297736  0.037134  0.389157  1
  F  F38  1  0.543708  0.510440  0.324329  1
  F  F39  1  0.336540  0.033880  0.638307  1
  F  F40  1  0.939908  0.327232  0.371274  1
  F  F41  1  0.009121  0.695243  0.382727  1
  F  F42  1  0.797736  0.462866  0.110843  1
  F  F43  1  0.043708  0.989560  0.175671  1
