# generated using pymatgen
data_Cs3CoI5
_symmetry_space_group_name_H-M   'P 1'
_cell_length_a   10.19380377
_cell_length_b   11.78605510
_cell_length_c   15.06255234
_cell_angle_alpha   90.00000000
_cell_angle_beta   90.00000000
_cell_angle_gamma   90.00000000
_symmetry_Int_Tables_number   1
_chemical_formula_structural   Cs3CoI5
_chemical_formula_sum   'Cs12 Co4 I20'
_cell_volume   1809.68632786
_cell_formula_units_Z   4
loop_
 _symmetry_equiv_pos_site_id
 _symmetry_equiv_pos_as_xyz
  1  'x, y, z'
loop_
 _atom_site_type_symbol
 _atom_site_label
 _atom_site_symmetry_multiplicity
 _atom_site_fract_x
 _atom_site_fract_y
 _atom_site_fract_z
 _atom_site_occupancy
  Cs  Cs0  1  0.587356  0.750000  0.046392  1
  Cs  Cs1  1  0.082415  0.515827  0.172669  1
  Cs  Cs2  1  0.912644  0.250000  0.546392  1
  Cs  Cs3  1  0.082415  0.984173  0.172669  1
  Cs  Cs4  1  0.917585  0.015827  0.827331  1
  Cs  Cs5  1  0.417585  0.484173  0.672669  1
  Cs  Cs6  1  0.087356  0.750000  0.453608  1
  Cs  Cs7  1  0.582415  0.515827  0.327331  1
  Cs  Cs8  1  0.417585  0.015827  0.672669  1
  Cs  Cs9  1  0.412644  0.250000  0.953608  1
  Cs  Cs10  1  0.917585  0.484173  0.827331  1
  Cs  Cs11  1  0.582415  0.984173  0.327331  1
  Co  Co12  1  0.186777  0.750000  0.893513  1
  Co  Co13  1  0.813223  0.250000  0.106487  1
  Co  Co14  1  0.686777  0.750000  0.606487  1
  Co  Co15  1  0.313223  0.250000  0.393513  1
  I  I16  1  0.527576  0.250000  0.486297  1
  I  I17  1  0.692210  0.435172  0.064626  1
  I  I18  1  0.807790  0.564828  0.564626  1
  I  I19  1  0.833112  0.750000  0.262724  1
  I  I20  1  0.192210  0.435172  0.435374  1
  I  I21  1  0.333112  0.750000  0.237276  1
  I  I22  1  0.166888  0.250000  0.737276  1
  I  I23  1  0.307790  0.564828  0.935374  1
  I  I24  1  0.640957  0.750000  0.775151  1
  I  I25  1  0.472424  0.750000  0.513703  1
  I  I26  1  0.972424  0.750000  0.986297  1
  I  I27  1  0.140957  0.750000  0.724849  1
  I  I28  1  0.307790  0.935172  0.935374  1
  I  I29  1  0.692210  0.064828  0.064626  1
  I  I30  1  0.807790  0.935172  0.564626  1
  I  I31  1  0.192210  0.064828  0.435374  1
  I  I32  1  0.027576  0.250000  0.013703  1
  I  I33  1  0.666888  0.250000  0.762724  1
  I  I34  1  0.359043  0.250000  0.224849  1
  I  I35  1  0.859043  0.250000  0.275151  1
