# generated using pymatgen
data_CoSeO4
_symmetry_space_group_name_H-M   'P 1'
_cell_length_a   4.97760877
_cell_length_b   4.98082844
_cell_length_c   6.66997657
_cell_angle_alpha   90.03528548
_cell_angle_beta   89.97443873
_cell_angle_gamma   112.61822461
_symmetry_Int_Tables_number   1
_chemical_formula_structural   CoSeO4
_chemical_formula_sum   'Co2 Se2 O8'
_cell_volume   152.64747735
_cell_formula_units_Z   2
loop_
 _symmetry_equiv_pos_site_id
 _symmetry_equiv_pos_as_xyz
  1  'x, y, z'
loop_
 _atom_site_type_symbol
 _atom_site_label
 _atom_site_symmetry_multiplicity
 _atom_site_fract_x
 _atom_site_fract_y
 _atom_site_fract_z
 _atom_site_occupancy
  Co  Co0  1  0.000000  0.000000  0.000000  1
  Co  Co1  1  0.000000  0.000000  0.500000  1
  Se  Se2  1  0.651668  0.348379  0.250037  1
  Se  Se3  1  0.348332  0.651621  0.749963  1
  O  O4  1  0.758670  0.241445  0.460985  1
  O  O5  1  0.241330  0.758555  0.539015  1
  O  O6  1  0.221619  0.281365  0.749876  1
  O  O7  1  0.778381  0.718635  0.250124  1
  O  O8  1  0.758894  0.241479  0.038920  1
  O  O9  1  0.241106  0.758521  0.961080  1
  O  O10  1  0.718972  0.778938  0.749958  1
  O  O11  1  0.281028  0.221062  0.250042  1
