# generated using pymatgen
data_SiO2
_symmetry_space_group_name_H-M   'P 1'
_cell_length_a   4.84799284
_cell_length_b   4.81179107
_cell_length_c   5.93379456
_cell_angle_alpha   93.53408958
_cell_angle_beta   90.80516886
_cell_angle_gamma   104.73512571
_symmetry_Int_Tables_number   1
_chemical_formula_structural   SiO2
_chemical_formula_sum   'Si4 O8'
_cell_volume   133.55040923
_cell_formula_units_Z   4
loop_
 _symmetry_equiv_pos_site_id
 _symmetry_equiv_pos_as_xyz
  1  'x, y, z'
loop_
 _atom_site_type_symbol
 _atom_site_label
 _atom_site_symmetry_multiplicity
 _atom_site_fract_x
 _atom_site_fract_y
 _atom_site_fract_z
 _atom_site_occupancy
  Si  Si0  1  0.113462  0.076704  0.896884  1
  Si  Si1  1  0.323894  0.948850  0.445414  1
  Si  Si2  1  0.831645  0.430079  0.198963  1
  Si  Si3  1  0.522887  0.721101  0.828976  1
  O  O4  1  0.005001  0.739556  0.340222  1
  O  O5  1  0.104580  0.295628  0.120481  1
  O  O6  1  0.640949  0.498853  0.981014  1
  O  O7  1  0.253075  0.811453  0.954356  1
  O  O8  1  0.446164  0.693911  0.555979  1
  O  O9  1  0.250332  0.166391  0.651739  1
  O  O10  1  0.779331  0.004584  0.838366  1
  O  O11  1  0.593400  0.172690  0.321537  1
