# generated using pymatgen
data_Na2SnAs2
_symmetry_space_group_name_H-M   'P 1'
_cell_length_a   14.36184342
_cell_length_b   14.36184326
_cell_length_c   14.84043441
_cell_angle_alpha   118.93882190
_cell_angle_beta   118.93882150
_cell_angle_gamma   89.99999874
_symmetry_Int_Tables_number   1
_chemical_formula_structural   Na2SnAs2
_chemical_formula_sum   'Na32 Sn16 As32'
_cell_volume   2232.09253742
_cell_formula_units_Z   16
loop_
 _symmetry_equiv_pos_site_id
 _symmetry_equiv_pos_as_xyz
  1  'x, y, z'
loop_
 _atom_site_type_symbol
 _atom_site_label
 _atom_site_symmetry_multiplicity
 _atom_site_fract_x
 _atom_site_fract_y
 _atom_site_fract_z
 _atom_site_occupancy
  Na  Na0  1  0.024629  0.475371  0.750000  1
  Na  Na1  1  0.913720  0.620460  0.062206  1
  Na  Na2  1  0.879540  0.586280  0.437794  1
  Na  Na3  1  0.586280  0.558254  0.937794  1
  Na  Na4  1  0.648485  0.120460  0.062206  1
  Na  Na5  1  0.620460  0.148485  0.562206  1
  Na  Na6  1  0.558254  0.351515  0.437794  1
  Na  Na7  1  0.475371  0.725371  0.250000  1
  Na  Na8  1  0.024820  0.274820  0.250000  1
  Na  Na9  1  0.225371  0.975371  0.750000  1
  Na  Na10  1  0.225180  0.475180  0.250000  1
  Na  Na11  1  0.524629  0.274629  0.750000  1
  Na  Na12  1  0.975371  0.524629  0.250000  1
  Na  Na13  1  0.774629  0.024629  0.250000  1
  Na  Na14  1  0.120460  0.413720  0.562206  1
  Na  Na15  1  0.441746  0.648485  0.562206  1
  Na  Na16  1  0.475180  0.024820  0.750000  1
  Na  Na17  1  0.975180  0.725180  0.750000  1
  Na  Na18  1  0.274629  0.225371  0.250000  1
  Na  Na19  1  0.148485  0.941746  0.062206  1
  Na  Na20  1  0.774820  0.524820  0.750000  1
  Na  Na21  1  0.351515  0.879540  0.937794  1
  Na  Na22  1  0.086280  0.379540  0.937794  1
  Na  Na23  1  0.274820  0.225180  0.750000  1
  Na  Na24  1  0.524820  0.975180  0.250000  1
  Na  Na25  1  0.851515  0.058254  0.937794  1
  Na  Na26  1  0.413720  0.441746  0.062206  1
  Na  Na27  1  0.058254  0.086280  0.437794  1
  Na  Na28  1  0.725371  0.774629  0.750000  1
  Na  Na29  1  0.379540  0.851515  0.437794  1
  Na  Na30  1  0.941746  0.913720  0.562206  1
  Na  Na31  1  0.725180  0.774820  0.250000  1
  Sn  Sn32  1  0.775132  0.324139  0.387748  1
  Sn  Sn33  1  0.063609  0.112616  0.887748  1
  Sn  Sn34  1  0.387384  0.436391  0.612252  1
  Sn  Sn35  1  0.324139  0.612616  0.887748  1
  Sn  Sn36  1  0.936391  0.887384  0.112252  1
  Sn  Sn37  1  0.887384  0.175861  0.612252  1
  Sn  Sn38  1  0.724868  0.936391  0.612252  1
  Sn  Sn39  1  0.436391  0.224868  0.112252  1
  Sn  Sn40  1  0.824139  0.275132  0.887748  1
  Sn  Sn41  1  0.563609  0.775132  0.887748  1
  Sn  Sn42  1  0.224868  0.675861  0.612252  1
  Sn  Sn43  1  0.175861  0.724868  0.112252  1
  Sn  Sn44  1  0.612616  0.563609  0.387748  1
  Sn  Sn45  1  0.275132  0.063609  0.387748  1
  Sn  Sn46  1  0.112616  0.824139  0.387748  1
  Sn  Sn47  1  0.675861  0.387384  0.112252  1
  As  As48  1  0.432790  0.250000  0.500000  1
  As  As49  1  0.067210  0.750000  0.500000  1
  As  As50  1  0.915355  0.843052  0.255906  1
  As  As51  1  0.084645  0.156948  0.744094  1
  As  As52  1  0.023076  0.273076  0.046152  1
  As  As53  1  0.250000  0.567210  0.000000  1
  As  As54  1  0.659450  0.087147  0.744094  1
  As  As55  1  0.773076  0.523076  0.546152  1
  As  As56  1  0.932790  0.250000  0.500000  1
  As  As57  1  0.976924  0.726924  0.953848  1
  As  As58  1  0.656948  0.584645  0.244094  1
  As  As59  1  0.912853  0.915355  0.755906  1
  As  As60  1  0.159450  0.656948  0.744094  1
  As  As61  1  0.273076  0.023076  0.546152  1
  As  As62  1  0.156948  0.659450  0.244094  1
  As  As63  1  0.843052  0.340550  0.755906  1
  As  As64  1  0.087147  0.084645  0.244094  1
  As  As65  1  0.412853  0.840550  0.755906  1
  As  As66  1  0.226924  0.476924  0.453848  1
  As  As67  1  0.750000  0.932790  1.000000  1
  As  As68  1  0.567210  0.750000  0.500000  1
  As  As69  1  0.726924  0.976924  0.453848  1
  As  As70  1  0.343052  0.415355  0.755906  1
  As  As71  1  0.250000  0.067210  0.000000  1
  As  As72  1  0.523076  0.773076  0.046152  1
  As  As73  1  0.750000  0.432790  1.000000  1
  As  As74  1  0.840550  0.343052  0.255906  1
  As  As75  1  0.476924  0.226924  0.953848  1
  As  As76  1  0.340550  0.912853  0.255906  1
  As  As77  1  0.584645  0.587147  0.744094  1
  As  As78  1  0.587147  0.159450  0.244094  1
  As  As79  1  0.415355  0.412853  0.255906  1
