# generated using pymatgen
data_Na2Cu5(Si2O7)2
_symmetry_space_group_name_H-M   'P 1'
_cell_length_a   5.82162594
_cell_length_b   7.89681283
_cell_length_c   8.11798125
_cell_angle_alpha   63.33077174
_cell_angle_beta   87.31459299
_cell_angle_gamma   69.24467651
_symmetry_Int_Tables_number   1
_chemical_formula_structural   Na2Cu5(Si2O7)2
_chemical_formula_sum   'Na2 Si4 Cu5 O14'
_cell_volume   309.03058204
_cell_formula_units_Z   1
loop_
 _symmetry_equiv_pos_site_id
 _symmetry_equiv_pos_as_xyz
  1  'x, y, z'
loop_
 _atom_site_type_symbol
 _atom_site_label
 _atom_site_symmetry_multiplicity
 _atom_site_fract_x
 _atom_site_fract_y
 _atom_site_fract_z
 _atom_site_occupancy
  Na  Na0  1  0.232607  0.631343  0.058075  1
  Na  Na1  1  0.767393  0.368657  0.941925  1
  Si  Si2  1  0.692836  0.713899  0.091354  1
  Cu  Cu3  1  0.812570  0.067676  0.772472  1
  Si  Si4  1  0.986199  0.261279  0.364963  1
  Cu  Cu5  1  0.500000  0.500000  0.500000  1
  Cu  Cu6  1  0.187430  0.932324  0.227528  1
  Cu  Cu7  1  0.416570  0.896250  0.681129  1
  Si  Si8  1  0.013801  0.738721  0.635037  1
  Cu  Cu9  1  0.583430  0.103750  0.318871  1
  Si  Si10  1  0.307164  0.286101  0.908646  1
  O  O11  1  0.194430  0.108564  0.970793  1
  O  O12  1  0.061782  0.503841  0.794124  1
  O  O13  1  0.091072  0.858874  0.733299  1
  O  O14  1  0.908929  0.141126  0.266701  1
  O  O15  1  0.281625  0.144816  0.449143  1
  O  O16  1  0.421415  0.304069  0.077271  1
  O  O17  1  0.938218  0.496159  0.205876  1
  O  O18  1  0.805570  0.891436  0.029207  1
  O  O19  1  0.718375  0.855184  0.550857  1
  O  O20  1  0.808303  0.280577  0.523575  1
  O  O21  1  0.487688  0.703621  0.241983  1
  O  O22  1  0.512312  0.296379  0.758017  1
  O  O23  1  0.191697  0.719423  0.476425  1
  O  O24  1  0.578585  0.695931  0.922729  1
