# generated using pymatgen
data_Rb4Zr3Te16
_symmetry_space_group_name_H-M   'P 1'
_cell_length_a   11.36030308
_cell_length_b   11.36030255
_cell_length_c   15.65465388
_cell_angle_alpha   96.80409924
_cell_angle_beta   96.80409888
_cell_angle_gamma   115.31020185
_symmetry_Int_Tables_number   1
_chemical_formula_structural   Rb4Zr3Te16
_chemical_formula_sum   'Rb8 Zr6 Te32'
_cell_volume   1781.05225803
_cell_formula_units_Z   2
loop_
 _symmetry_equiv_pos_site_id
 _symmetry_equiv_pos_as_xyz
  1  'x, y, z'
loop_
 _atom_site_type_symbol
 _atom_site_label
 _atom_site_symmetry_multiplicity
 _atom_site_fract_x
 _atom_site_fract_y
 _atom_site_fract_z
 _atom_site_occupancy
  Rb  Rb0  1  0.748788  0.450591  0.432062  1
  Rb  Rb1  1  0.549409  0.251212  0.067938  1
  Rb  Rb2  1  0.251212  0.549409  0.567938  1
  Rb  Rb3  1  0.450591  0.748788  0.932062  1
  Rb  Rb4  1  0.247132  0.971037  0.374816  1
  Rb  Rb5  1  0.028963  0.752868  0.125184  1
  Rb  Rb6  1  0.752868  0.028963  0.625184  1
  Rb  Rb7  1  0.971037  0.247132  0.874816  1
  Zr  Zr8  1  0.208419  0.432288  0.228903  1
  Zr  Zr9  1  0.567712  0.791581  0.271097  1
  Zr  Zr10  1  0.791581  0.567712  0.771097  1
  Zr  Zr11  1  0.432288  0.208419  0.728903  1
  Zr  Zr12  1  0.891723  0.108277  0.250000  1
  Zr  Zr13  1  0.108277  0.891723  0.750000  1
  Te  Te14  1  0.152833  0.248242  0.368711  1
  Te  Te15  1  0.751758  0.847167  0.131289  1
  Te  Te16  1  0.847167  0.751758  0.631289  1
  Te  Te17  1  0.248242  0.152833  0.868711  1
  Te  Te18  1  0.906208  0.198309  0.439538  1
  Te  Te19  1  0.801691  0.093792  0.060462  1
  Te  Te20  1  0.093792  0.801691  0.560462  1
  Te  Te21  1  0.198309  0.906208  0.939538  1
  Te  Te22  1  0.845148  0.916819  0.372308  1
  Te  Te23  1  0.083181  0.154852  0.127692  1
  Te  Te24  1  0.154852  0.083181  0.627692  1
  Te  Te25  1  0.916819  0.845148  0.872308  1
  Te  Te26  1  0.733981  0.647923  0.244266  1
  Te  Te27  1  0.352077  0.266019  0.255734  1
  Te  Te28  1  0.266019  0.352077  0.755734  1
  Te  Te29  1  0.647923  0.733981  0.744266  1
  Te  Te30  1  0.921988  0.375261  0.215190  1
  Te  Te31  1  0.624739  0.078011  0.284810  1
  Te  Te32  1  0.078011  0.624739  0.784810  1
  Te  Te33  1  0.375261  0.921988  0.715190  1
  Te  Te34  1  0.118954  0.593324  0.337726  1
  Te  Te35  1  0.406676  0.881046  0.162274  1
  Te  Te36  1  0.881046  0.406676  0.662274  1
  Te  Te37  1  0.593324  0.118954  0.837726  1
  Te  Te38  1  0.451723  0.575913  0.372623  1
  Te  Te39  1  0.424087  0.548277  0.127377  1
  Te  Te40  1  0.548277  0.424087  0.627377  1
  Te  Te41  1  0.575913  0.451723  0.872623  1
  Te  Te42  1  0.472815  0.827550  0.437492  1
  Te  Te43  1  0.172450  0.527185  0.062508  1
  Te  Te44  1  0.527185  0.172450  0.562508  1
  Te  Te45  1  0.827550  0.472815  0.937492  1
