# generated using pymatgen
data_Ta4Se9I8
_symmetry_space_group_name_H-M   'P 1'
_cell_length_a   13.66602253
_cell_length_b   15.04542063
_cell_length_c   15.52433093
_cell_angle_alpha   90.00000000
_cell_angle_beta   90.00000000
_cell_angle_gamma   90.00000000
_symmetry_Int_Tables_number   1
_chemical_formula_structural   Ta4Se9I8
_chemical_formula_sum   'Ta16 Se36 I32'
_cell_volume   3191.97409644
_cell_formula_units_Z   4
loop_
 _symmetry_equiv_pos_site_id
 _symmetry_equiv_pos_as_xyz
  1  'x, y, z'
loop_
 _atom_site_type_symbol
 _atom_site_label
 _atom_site_symmetry_multiplicity
 _atom_site_fract_x
 _atom_site_fract_y
 _atom_site_fract_z
 _atom_site_occupancy
  Ta  Ta0  1  0.261321  0.313856  0.498999  1
  Ta  Ta1  1  0.383879  0.821110  0.193655  1
  Ta  Ta2  1  0.261321  0.813856  1.001001  1
  Ta  Ta3  1  0.883879  0.178890  0.806345  1
  Ta  Ta4  1  0.883879  0.678890  0.693655  1
  Ta  Ta5  1  0.045603  0.790743  0.109740  1
  Ta  Ta6  1  0.166702  0.797722  0.297875  1
  Ta  Ta7  1  0.666702  0.702278  0.797875  1
  Ta  Ta8  1  0.166702  0.297722  0.202125  1
  Ta  Ta9  1  0.761321  0.186144  -0.001001  1
  Ta  Ta10  1  0.045603  0.290743  0.390260  1
  Ta  Ta11  1  0.383879  0.321110  0.306345  1
  Ta  Ta12  1  0.666702  0.202278  0.702125  1
  Ta  Ta13  1  0.545603  0.209257  0.890260  1
  Ta  Ta14  1  0.761321  0.686144  0.501001  1
  Ta  Ta15  1  0.545603  0.709257  0.609740  1
  Se  Se16  1  0.581174  0.711607  0.439792  1
  Se  Se17  1  0.081174  0.788393  0.939792  1
  Se  Se18  1  0.975623  0.772579  0.269166  1
  Se  Se19  1  0.109328  0.423816  0.487473  1
  Se  Se20  1  0.287760  0.934342  0.294840  1
  Se  Se21  1  0.357091  0.946118  0.076182  1
  Se  Se22  1  0.348267  0.804571  0.362308  1
  Se  Se23  1  0.848267  0.695429  0.862308  1
  Se  Se24  1  0.222604  0.739335  0.148757  1
  Se  Se25  1  0.975623  0.272579  0.230834  1
  Se  Se26  1  0.722604  0.260665  0.851243  1
  Se  Se27  1  0.848267  0.195429  0.637692  1
  Se  Se28  1  0.357091  0.446118  0.423818  1
  Se  Se29  1  0.787760  0.065658  0.705160  1
  Se  Se30  1  0.542152  0.586574  0.733460  1
  Se  Se31  1  0.475623  0.727421  0.769166  1
  Se  Se32  1  0.787760  0.565658  0.794840  1
  Se  Se33  1  0.857091  0.053882  0.923818  1
  Se  Se34  1  0.857091  0.553882  0.576182  1
  Se  Se35  1  0.454385  0.322993  0.468089  1
  Se  Se36  1  0.954385  0.177007  0.968089  1
  Se  Se37  1  0.081174  0.288393  0.560208  1
  Se  Se38  1  0.042152  0.413426  0.266540  1
  Se  Se39  1  0.542152  0.086574  0.766540  1
  Se  Se40  1  0.954385  0.677007  0.531911  1
  Se  Se41  1  0.454385  0.822993  0.031911  1
  Se  Se42  1  0.609328  0.076184  0.987473  1
  Se  Se43  1  0.109328  0.923816  0.012527  1
  Se  Se44  1  0.222604  0.239335  0.351243  1
  Se  Se45  1  0.609328  0.576184  0.512527  1
  Se  Se46  1  0.042152  0.913426  0.233460  1
  Se  Se47  1  0.581174  0.211607  0.060208  1
  Se  Se48  1  0.722604  0.760665  0.648757  1
  Se  Se49  1  0.475623  0.227421  0.730834  1
  Se  Se50  1  0.287760  0.434342  0.205160  1
  Se  Se51  1  0.348267  0.304571  0.137692  1
  I  I52  1  0.856976  0.339824  0.432703  1
  I  I53  1  0.055589  0.596979  0.740410  1
  I  I54  1  0.672414  0.885007  0.841057  1
  I  I55  1  0.292872  0.642061  0.949252  1
  I  I56  1  0.111010  0.347396  0.037175  1
  I  I57  1  0.803141  0.108604  0.156239  1
  I  I58  1  0.172414  0.114993  0.158943  1
  I  I59  1  0.555589  0.903021  0.240410  1
  I  I60  1  0.011880  0.111530  0.408919  1
  I  I61  1  0.803141  0.608604  0.343761  1
  I  I62  1  0.511880  0.888470  0.591081  1
  I  I63  1  0.611010  0.652604  0.962825  1
  I  I64  1  0.555589  0.403021  0.259590  1
  I  I65  1  0.957159  0.848658  0.702851  1
  I  I66  1  0.672414  0.385007  0.658943  1
  I  I67  1  0.792872  0.857939  0.449252  1
  I  I68  1  0.356976  0.660176  0.567297  1
  I  I69  1  0.511880  0.388470  0.908919  1
  I  I70  1  0.303141  0.391396  0.656239  1
  I  I71  1  0.792872  0.357939  0.050748  1
  I  I72  1  0.303141  0.891396  0.843761  1
  I  I73  1  0.356976  0.160176  0.932703  1
  I  I74  1  0.457159  0.651342  0.202851  1
  I  I75  1  0.055589  0.096979  0.759590  1
  I  I76  1  0.111010  0.847396  0.462825  1
  I  I77  1  0.611010  0.152604  0.537175  1
  I  I78  1  0.457159  0.151342  0.297149  1
  I  I79  1  0.292872  0.142061  0.550748  1
  I  I80  1  0.957159  0.348658  0.797149  1
  I  I81  1  0.856976  0.839824  0.067297  1
  I  I82  1  0.011880  0.611530  0.091081  1
  I  I83  1  0.172414  0.614993  0.341057  1
