# generated using pymatgen
data_CsAl(SiO3)2
_symmetry_space_group_name_H-M   'P 1'
_cell_length_a   12.07489405
_cell_length_b   12.07489436
_cell_length_c   12.07489338
_cell_angle_alpha   108.96379695
_cell_angle_beta   109.72552747
_cell_angle_gamma   109.72552755
_symmetry_Int_Tables_number   1
_chemical_formula_structural   CsAl(SiO3)2
_chemical_formula_sum   'Cs8 Al8 Si16 O48'
_cell_volume   1355.19738090
_cell_formula_units_Z   8
loop_
 _symmetry_equiv_pos_site_id
 _symmetry_equiv_pos_as_xyz
  1  'x, y, z'
loop_
 _atom_site_type_symbol
 _atom_site_label
 _atom_site_symmetry_multiplicity
 _atom_site_fract_x
 _atom_site_fract_y
 _atom_site_fract_z
 _atom_site_occupancy
  Cs  Cs0  1  0.504526  0.502263  0.752263  1
  Cs  Cs1  1  0.995474  0.747737  0.997737  1
  Cs  Cs2  1  0.750000  0.002263  0.497737  1
  Cs  Cs3  1  0.250000  0.997737  0.502263  1
  Cs  Cs4  1  0.004526  0.252263  0.002263  1
  Cs  Cs5  1  0.495474  0.497737  0.247737  1
  Cs  Cs6  1  0.750000  0.247737  0.252263  1
  Cs  Cs7  1  0.250000  0.752263  0.747737  1
  Al  Al8  1  0.424914  0.962457  0.212457  1
  Al  Al9  1  0.924914  0.712457  0.462457  1
  Al  Al10  1  0.750000  0.787543  0.712457  1
  Al  Al11  1  0.250000  0.537543  0.962457  1
  Al  Al12  1  0.075086  0.287543  0.537543  1
  Al  Al13  1  0.250000  0.212457  0.287543  1
  Al  Al14  1  0.750000  0.462457  0.037543  1
  Al  Al15  1  0.575086  0.037543  0.787543  1
  Si  Si16  1  0.539194  0.792271  0.074168  1
  Si  Si17  1  0.718103  0.925832  0.965026  1
  Si  Si18  1  0.039194  0.965026  0.746923  1
  Si  Si19  1  0.218103  0.465026  0.425832  1
  Si  Si20  1  0.960806  0.034974  0.253077  1
  Si  Si21  1  0.960806  0.425832  0.707729  1
  Si  Si22  1  0.281897  0.074168  0.034974  1
  Si  Si23  1  0.718103  0.292271  0.753077  1
  Si  Si24  1  0.281897  0.707729  0.246923  1
  Si  Si25  1  0.218103  0.253077  0.792271  1
  Si  Si26  1  0.781897  0.746923  0.207729  1
  Si  Si27  1  0.539194  0.246923  0.465026  1
  Si  Si28  1  0.460806  0.753077  0.534974  1
  Si  Si29  1  0.039194  0.574168  0.292271  1
  Si  Si30  1  0.460806  0.207729  0.925832  1
  Si  Si31  1  0.781897  0.534974  0.574168  1
  O  O32  1  0.646288  0.763903  0.172264  1
  O  O33  1  0.353712  0.236097  0.827736  1
  O  O34  1  0.608066  0.343774  0.026457  1
  O  O35  1  0.853712  0.327736  0.736097  1
  O  O36  1  0.963006  0.135725  0.381845  1
  O  O37  1  0.536994  0.118155  0.364275  1
  O  O38  1  0.182683  0.418391  0.526457  1
  O  O39  1  0.853712  0.025976  0.117616  1
  O  O40  1  0.036994  0.864275  0.618155  1
  O  O41  1  0.646288  0.382384  0.474024  1
  O  O42  1  0.463006  0.081160  0.827281  1
  O  O43  1  0.682683  0.156226  0.764292  1
  O  O44  1  0.891934  0.473543  0.156226  1
  O  O45  1  0.146288  0.672264  0.263903  1
  O  O46  1  0.608066  0.764292  0.581609  1
  O  O47  1  0.908361  0.882384  0.236097  1
  O  O48  1  0.908361  0.525976  0.672264  1
  O  O49  1  0.091639  0.117616  0.763903  1
  O  O50  1  0.891934  0.918391  0.735708  1
  O  O51  1  0.391934  0.656226  0.973543  1
  O  O52  1  0.108066  0.081609  0.264292  1
  O  O53  1  0.753880  0.635725  0.672719  1
  O  O54  1  0.746120  0.418839  0.881845  1
  O  O55  1  0.463006  0.881845  0.635725  1
  O  O56  1  0.753880  0.618155  0.081160  1
  O  O57  1  0.682683  0.026457  0.918391  1
  O  O58  1  0.317317  0.843774  0.235708  1
  O  O59  1  0.146288  0.974024  0.882384  1
  O  O60  1  0.253880  0.172719  0.135725  1
  O  O61  1  0.408361  0.736097  0.382384  1
  O  O62  1  0.391934  0.235708  0.418391  1
  O  O63  1  0.817317  0.581609  0.473543  1
  O  O64  1  0.108066  0.526457  0.843774  1
  O  O65  1  0.036994  0.672719  0.418839  1
  O  O66  1  0.182683  0.264292  0.656226  1
  O  O67  1  0.817317  0.735708  0.343774  1
  O  O68  1  0.536994  0.918840  0.172719  1
  O  O69  1  0.591639  0.827736  0.974024  1
  O  O70  1  0.353712  0.617616  0.525976  1
  O  O71  1  0.246120  0.364275  0.327281  1
  O  O72  1  0.746120  0.827281  0.864275  1
  O  O73  1  0.591639  0.263903  0.617616  1
  O  O74  1  0.317317  0.973543  0.081609  1
  O  O75  1  0.091639  0.474024  0.327736  1
  O  O76  1  0.408361  0.172264  0.025976  1
  O  O77  1  0.963006  0.327281  0.581160  1
  O  O78  1  0.246120  0.381845  0.918840  1
  O  O79  1  0.253880  0.581160  0.118155  1
