# generated using pymatgen
data_AlCuAsO5
_symmetry_space_group_name_H-M   'P 1'
_cell_length_a   5.72510110
_cell_length_b   7.44807102
_cell_length_c   10.35546586
_cell_angle_alpha   90.00000000
_cell_angle_beta   90.00000000
_cell_angle_gamma   100.59836865
_symmetry_Int_Tables_number   1
_chemical_formula_structural   AlCuAsO5
_chemical_formula_sum   'Al4 Cu4 As4 O20'
_cell_volume   434.03412708
_cell_formula_units_Z   4
loop_
 _symmetry_equiv_pos_site_id
 _symmetry_equiv_pos_as_xyz
  1  'x, y, z'
loop_
 _atom_site_type_symbol
 _atom_site_label
 _atom_site_symmetry_multiplicity
 _atom_site_fract_x
 _atom_site_fract_y
 _atom_site_fract_z
 _atom_site_occupancy
  Al  Al0  1  0.063400  0.853224  0.678090  1
  Al  Al1  1  0.936600  0.146776  0.321910  1
  Al  Al2  1  0.563400  0.853224  0.821910  1
  Al  Al3  1  0.436600  0.146776  0.178090  1
  Cu  Cu4  1  0.408146  0.460220  0.357030  1
  Cu  Cu5  1  0.908146  0.460220  0.142970  1
  Cu  Cu6  1  0.591854  0.539780  0.642970  1
  Cu  Cu7  1  0.091854  0.539780  0.857030  1
  As  As8  1  0.077718  0.273674  0.609088  1
  As  As9  1  0.422282  0.726326  0.109088  1
  As  As10  1  0.577718  0.273674  0.890912  1
  As  As11  1  0.922282  0.726326  0.390912  1
  O  O12  1  0.373698  0.906218  0.201134  1
  O  O13  1  0.650389  0.620004  0.461053  1
  O  O14  1  0.733538  0.233870  0.222264  1
  O  O15  1  0.885020  0.197617  0.486004  1
  O  O16  1  0.766462  0.766130  0.722264  1
  O  O17  1  0.454012  0.430533  0.804800  1
  O  O18  1  0.349611  0.379996  0.538947  1
  O  O19  1  0.849611  0.379996  0.961053  1
  O  O20  1  0.545988  0.569467  0.195200  1
  O  O21  1  0.114980  0.802383  0.513996  1
  O  O22  1  0.873698  0.906218  0.298866  1
  O  O23  1  0.626302  0.093782  0.798866  1
  O  O24  1  0.954012  0.430533  0.695200  1
  O  O25  1  0.385020  0.197617  0.013996  1
  O  O26  1  0.126302  0.093782  0.701134  1
  O  O27  1  0.045988  0.569467  0.304800  1
  O  O28  1  0.266462  0.766130  0.777736  1
  O  O29  1  0.233538  0.233870  0.277736  1
  O  O30  1  0.150389  0.620004  0.038947  1
  O  O31  1  0.614980  0.802383  0.986004  1
