# generated using pymatgen
data_Ca2P2H8O11
_symmetry_space_group_name_H-M   'P 1'
_cell_length_a   5.97329613
_cell_length_b   6.96477548
_cell_length_c   25.27542274
_cell_angle_alpha   90.00000000
_cell_angle_beta   90.00000000
_cell_angle_gamma   109.71574861
_symmetry_Int_Tables_number   1
_chemical_formula_structural   Ca2P2H8O11
_chemical_formula_sum   'Ca8 P8 H32 O44'
_cell_volume   989.88232934
_cell_formula_units_Z   4
loop_
 _symmetry_equiv_pos_site_id
 _symmetry_equiv_pos_as_xyz
  1  'x, y, z'
loop_
 _atom_site_type_symbol
 _atom_site_label
 _atom_site_symmetry_multiplicity
 _atom_site_fract_x
 _atom_site_fract_y
 _atom_site_fract_z
 _atom_site_occupancy
  Ca  Ca0  1  0.106296  0.602270  0.294631  1
  Ca  Ca1  1  0.893704  0.397730  0.705369  1
  Ca  Ca2  1  0.195109  0.395248  0.957579  1
  Ca  Ca3  1  0.106296  0.102270  0.205369  1
  Ca  Ca4  1  0.893704  0.897730  0.794631  1
  Ca  Ca5  1  0.195109  0.895248  0.542421  1
  Ca  Ca6  1  0.804891  0.104752  0.457579  1
  Ca  Ca7  1  0.804891  0.604752  0.042421  1
  P  P8  1  0.076053  0.089922  0.333282  1
  P  P9  1  0.923947  0.410078  0.833283  1
  P  P10  1  0.923947  0.910078  0.666717  1
  P  P11  1  0.193362  0.855030  0.418563  1
  P  P12  1  0.806638  0.644970  0.918563  1
  P  P13  1  0.193362  0.355030  0.081437  1
  P  P14  1  0.076053  0.589922  0.166717  1
  P  P15  1  0.806638  0.144970  0.581437  1
  H  H16  1  0.533707  0.865032  0.187074  1
  H  H17  1  0.612675  0.370262  0.173312  1
  H  H18  1  0.383047  0.195312  0.732429  1
  H  H19  1  0.616953  0.304688  0.232429  1
  H  H20  1  0.383047  0.695312  0.767571  1
  H  H21  1  0.197288  0.988176  0.074108  1
  H  H22  1  0.212982  0.489200  0.576961  1
  H  H23  1  0.787018  0.010800  0.076961  1
  H  H24  1  0.387325  0.129738  0.673312  1
  H  H25  1  0.197288  0.488176  0.425892  1
  H  H26  1  0.212982  0.989200  0.923039  1
  H  H27  1  0.758085  0.544021  0.513324  1
  H  H28  1  0.717428  0.753972  0.170631  1
  H  H29  1  0.466293  0.134968  0.812926  1
  H  H30  1  0.802712  0.511824  0.574108  1
  H  H31  1  0.758085  0.044021  0.986676  1
  H  H32  1  0.282572  0.246028  0.829369  1
  H  H33  1  0.466293  0.634968  0.687074  1
  H  H34  1  0.241915  0.955979  0.013324  1
  H  H35  1  0.802712  0.011824  0.925892  1
  H  H36  1  0.480277  0.603510  0.556567  1
  H  H37  1  0.519723  0.396490  0.443433  1
  H  H38  1  0.533707  0.365032  0.312926  1
  H  H39  1  0.717428  0.253972  0.329369  1
  H  H40  1  0.241915  0.455979  0.486676  1
  H  H41  1  0.787018  0.510800  0.423039  1
  H  H42  1  0.519723  0.896490  0.056567  1
  H  H43  1  0.480277  0.103510  0.943433  1
  H  H44  1  0.387325  0.629738  0.826688  1
  H  H45  1  0.616953  0.804688  0.267571  1
  H  H46  1  0.282572  0.746028  0.670631  1
  H  H47  1  0.612675  0.870262  0.326688  1
  O  O48  1  0.689850  0.908215  0.051848  1
  O  O49  1  0.212372  0.301747  0.311096  1
  O  O50  1  0.846083  0.080302  0.362517  1
  O  O51  1  0.109735  0.655651  0.386571  1
  O  O52  1  0.784703  0.114083  0.951847  1
  O  O53  1  0.998626  0.370071  0.043813  1
  O  O54  1  0.485053  0.220965  0.700821  1
  O  O55  1  0.699343  0.366645  0.307616  1
  O  O56  1  0.689850  0.408215  0.448152  1
  O  O57  1  0.001374  0.129929  0.543813  1
  O  O58  1  0.215297  0.885917  0.048153  1
  O  O59  1  0.514947  0.779035  0.299179  1
  O  O60  1  0.514947  0.279035  0.200821  1
  O  O61  1  0.744983  0.455716  0.876648  1
  O  O62  1  0.965434  0.573878  0.790012  1
  O  O63  1  0.001374  0.629929  0.956187  1
  O  O64  1  0.787628  0.698253  0.688904  1
  O  O65  1  0.034566  0.426122  0.209988  1
  O  O66  1  0.420978  0.387671  0.050098  1
  O  O67  1  0.965434  0.073878  0.709988  1
  O  O68  1  0.109735  0.155651  0.113429  1
  O  O69  1  0.300657  0.133355  0.807616  1
  O  O70  1  0.744983  0.955716  0.623352  1
  O  O71  1  0.699343  0.866645  0.192384  1
  O  O72  1  0.153917  0.919698  0.637483  1
  O  O73  1  0.310150  0.091785  0.948152  1
  O  O74  1  0.255017  0.544284  0.123352  1
  O  O75  1  0.300657  0.633355  0.692384  1
  O  O76  1  0.034566  0.926122  0.290012  1
  O  O77  1  0.420978  0.887671  0.449902  1
  O  O78  1  0.255017  0.044284  0.376648  1
  O  O79  1  0.310150  0.591785  0.551848  1
  O  O80  1  0.787628  0.198253  0.811096  1
  O  O81  1  0.485053  0.720965  0.799179  1
  O  O82  1  0.153917  0.419698  0.862517  1
  O  O83  1  0.579022  0.112329  0.550098  1
  O  O84  1  0.215297  0.385917  0.451847  1
  O  O85  1  0.998626  0.870071  0.456187  1
  O  O86  1  0.212372  0.801747  0.188904  1
  O  O87  1  0.890265  0.344349  0.613429  1
  O  O88  1  0.579022  0.612329  0.949902  1
  O  O89  1  0.846083  0.580302  0.137483  1
  O  O90  1  0.784703  0.614083  0.548153  1
  O  O91  1  0.890265  0.844349  0.886571  1
