# generated using pymatgen
data_Sr6Li2Cr2N8O
_symmetry_space_group_name_H-M   'P 1'
_cell_length_a   6.21138626
_cell_length_b   6.87008224
_cell_length_c   7.60088748
_cell_angle_alpha   82.29920883
_cell_angle_beta   75.07817736
_cell_angle_gamma   69.95756339
_symmetry_Int_Tables_number   1
_chemical_formula_structural   Sr6Li2Cr2N8O
_chemical_formula_sum   'Sr6 Li2 Cr2 N8 O1'
_cell_volume   294.05816170
_cell_formula_units_Z   1
loop_
 _symmetry_equiv_pos_site_id
 _symmetry_equiv_pos_as_xyz
  1  'x, y, z'
loop_
 _atom_site_type_symbol
 _atom_site_label
 _atom_site_symmetry_multiplicity
 _atom_site_fract_x
 _atom_site_fract_y
 _atom_site_fract_z
 _atom_site_occupancy
  Sr  Sr0  1  0.199872  0.379402  0.301979  1
  Sr  Sr1  1  0.292825  0.864556  0.070382  1
  Sr  Sr2  1  0.700057  0.188004  0.468009  1
  Sr  Sr3  1  0.299943  0.811996  0.531991  1
  Sr  Sr4  1  0.707175  0.135444  0.929618  1
  Sr  Sr5  1  0.800128  0.620598  0.698021  1
  Li  Li6  1  0.225395  0.509660  0.908311  1
  Li  Li7  1  0.774605  0.490340  0.091689  1
  Cr  Cr8  1  0.788236  0.787961  0.250783  1
  Cr  Cr9  1  0.211764  0.212039  0.749217  1
  N  N10  1  0.533550  0.011384  0.265466  1
  N  N11  1  0.987011  0.820084  0.364852  1
  N  N12  1  0.715083  0.568596  0.357549  1
  N  N13  1  0.922537  0.744678  0.020518  1
  N  N14  1  0.284917  0.431404  0.642451  1
  N  N15  1  0.466450  0.988616  0.734534  1
  N  N16  1  0.077463  0.255322  0.979482  1
  N  N17  1  0.012989  0.179916  0.635148  1
  O  O18  1  0.500000  0.500000  0.000000  1
