# generated using pymatgen
data_BaMo2(PO4)4
_symmetry_space_group_name_H-M   'P 1'
_cell_length_a   6.54752041
_cell_length_b   7.92238386
_cell_length_c   12.60619000
_cell_angle_alpha   90.00000000
_cell_angle_beta   90.00000000
_cell_angle_gamma   100.11041450
_symmetry_Int_Tables_number   1
_chemical_formula_structural   BaMo2(PO4)4
_chemical_formula_sum   'Ba2 Mo4 P8 O32'
_cell_volume   643.75356202
_cell_formula_units_Z   2
loop_
 _symmetry_equiv_pos_site_id
 _symmetry_equiv_pos_as_xyz
  1  'x, y, z'
loop_
 _atom_site_type_symbol
 _atom_site_label
 _atom_site_symmetry_multiplicity
 _atom_site_fract_x
 _atom_site_fract_y
 _atom_site_fract_z
 _atom_site_occupancy
  Ba  Ba0  1  0.500000  0.500000  0.000000  1
  Ba  Ba1  1  0.000000  0.000000  0.500000  1
  Mo  Mo2  1  0.796589  0.337201  0.689507  1
  Mo  Mo3  1  0.203411  0.662799  0.310493  1
  Mo  Mo4  1  0.296589  0.837201  0.810493  1
  Mo  Mo5  1  0.703411  0.162799  0.189507  1
  P  P6  1  0.690875  0.563826  0.306836  1
  P  P7  1  0.595156  0.251093  0.443396  1
  P  P8  1  0.904844  0.248907  0.943396  1
  P  P9  1  0.095156  0.751093  0.056604  1
  P  P10  1  0.404844  0.748907  0.556604  1
  P  P11  1  0.190875  0.063826  0.193164  1
  P  P12  1  0.309125  0.436174  0.693164  1
  P  P13  1  0.809125  0.936174  0.806836  1
  O  O14  1  0.627577  0.807605  0.531564  1
  O  O15  1  0.127577  0.307605  0.968436  1
  O  O16  1  0.786466  0.059722  0.716123  1
  O  O17  1  0.110442  0.305733  0.671336  1
  O  O18  1  0.811591  0.345403  0.852682  1
  O  O19  1  0.635903  0.452512  0.412665  1
  O  O20  1  0.364097  0.547488  0.587335  1
  O  O21  1  0.134218  0.452608  0.343635  1
  O  O22  1  0.513169  0.663376  0.289542  1
  O  O23  1  0.634218  0.952608  0.156365  1
  O  O24  1  0.188409  0.654597  0.147318  1
  O  O25  1  0.365782  0.047392  0.843635  1
  O  O26  1  0.213534  0.940278  0.283877  1
  O  O27  1  0.751920  0.257084  0.037425  1
  O  O28  1  0.372423  0.192395  0.468436  1
  O  O29  1  0.486831  0.336624  0.710458  1
  O  O30  1  0.865782  0.547392  0.656365  1
  O  O31  1  0.389558  0.194267  0.171336  1
  O  O32  1  0.748080  0.242916  0.537425  1
  O  O33  1  0.864097  0.047488  0.912665  1
  O  O34  1  0.135903  0.952512  0.087335  1
  O  O35  1  0.713534  0.440278  0.216123  1
  O  O36  1  0.986831  0.836624  0.789542  1
  O  O37  1  0.889558  0.694267  0.328664  1
  O  O38  1  0.872423  0.692395  0.031564  1
  O  O39  1  0.251920  0.757084  0.462575  1
  O  O40  1  0.248080  0.742916  0.962575  1
  O  O41  1  0.311591  0.845403  0.647318  1
  O  O42  1  0.013169  0.163376  0.210458  1
  O  O43  1  0.610442  0.805733  0.828664  1
  O  O44  1  0.688409  0.154597  0.352682  1
  O  O45  1  0.286466  0.559722  0.783877  1
