# generated using pymatgen
data_Na2U(WO5)2
_symmetry_space_group_name_H-M   'P 1'
_cell_length_a   6.82394866
_cell_length_b   7.66747685
_cell_length_c   8.63502180
_cell_angle_alpha   89.92008074
_cell_angle_beta   86.97710184
_cell_angle_gamma   73.44133536
_symmetry_Int_Tables_number   1
_chemical_formula_structural   Na2U(WO5)2
_chemical_formula_sum   'Na4 U2 W4 O20'
_cell_volume   432.42209274
_cell_formula_units_Z   2
loop_
 _symmetry_equiv_pos_site_id
 _symmetry_equiv_pos_as_xyz
  1  'x, y, z'
loop_
 _atom_site_type_symbol
 _atom_site_label
 _atom_site_symmetry_multiplicity
 _atom_site_fract_x
 _atom_site_fract_y
 _atom_site_fract_z
 _atom_site_occupancy
  Na  Na0  1  0.400825  0.904903  0.200516  1
  Na  Na1  1  0.586742  0.606337  0.792259  1
  Na  Na2  1  0.599175  0.095097  0.799484  1
  Na  Na3  1  0.413258  0.393663  0.207741  1
  U  U4  1  0.006274  0.249227  0.978111  1
  U  U5  1  0.993726  0.750773  0.021889  1
  W  W6  1  0.842404  0.039997  0.362262  1
  W  W7  1  0.840187  0.541977  0.363214  1
  W  W8  1  0.157596  0.960003  0.637738  1
  W  W9  1  0.159813  0.458023  0.636786  1
  O  O10  1  0.907539  0.773538  0.312893  1
  O  O11  1  0.421590  0.375085  0.682511  1
  O  O12  1  0.831509  0.015437  0.576452  1
  O  O13  1  0.724446  0.321328  0.958179  1
  O  O14  1  0.092461  0.226462  0.687107  1
  O  O15  1  0.839975  0.291153  0.364059  1
  O  O16  1  0.160025  0.708847  0.635941  1
  O  O17  1  0.168867  0.431466  0.422207  1
  O  O18  1  0.286499  0.178903  0.004423  1
  O  O19  1  0.981456  0.026922  0.147618  1
  O  O20  1  0.275554  0.678672  0.041821  1
  O  O21  1  0.976359  0.484273  0.147630  1
  O  O22  1  0.713501  0.821097  0.995577  1
  O  O23  1  0.578410  0.624915  0.317489  1
  O  O24  1  0.831133  0.568534  0.577793  1
  O  O25  1  0.582363  0.089716  0.311327  1
  O  O26  1  0.018544  0.973078  0.852382  1
  O  O27  1  0.168491  0.984563  0.423548  1
  O  O28  1  0.023641  0.515727  0.852370  1
  O  O29  1  0.417637  0.910284  0.688673  1
