# generated using pymatgen
data_V2B(PO4)3
_symmetry_space_group_name_H-M   'P 1'
_cell_length_a   14.15680739
_cell_length_b   14.15680780
_cell_length_c   7.62706622
_cell_angle_alpha   90.00000000
_cell_angle_beta   90.00000000
_cell_angle_gamma   119.99999909
_symmetry_Int_Tables_number   1
_chemical_formula_structural   V2B(PO4)3
_chemical_formula_sum   'V12 B6 P18 O72'
_cell_volume   1323.78913356
_cell_formula_units_Z   6
loop_
 _symmetry_equiv_pos_site_id
 _symmetry_equiv_pos_as_xyz
  1  'x, y, z'
loop_
 _atom_site_type_symbol
 _atom_site_label
 _atom_site_symmetry_multiplicity
 _atom_site_fract_x
 _atom_site_fract_y
 _atom_site_fract_z
 _atom_site_occupancy
  V  V0  1  0.975044  0.655385  0.554619  1
  V  V1  1  0.319659  0.975044  0.054619  1
  V  V2  1  0.975044  0.655385  0.945381  1
  V  V3  1  0.024956  0.344615  0.054619  1
  V  V4  1  0.680341  0.024956  0.554619  1
  V  V5  1  0.680341  0.024956  0.945381  1
  V  V6  1  0.344615  0.319659  0.945381  1
  V  V7  1  0.024956  0.344615  0.445381  1
  V  V8  1  0.655385  0.680341  0.445381  1
  V  V9  1  0.655385  0.680341  0.054619  1
  V  V10  1  0.344615  0.319659  0.554619  1
  V  V11  1  0.319659  0.975044  0.445381  1
  B  B12  1  0.333333  0.666667  0.250000  1
  B  B13  1  0.666667  0.333333  0.250000  1
  B  B14  1  0.333333  0.666667  0.750000  1
  B  B15  1  0.666667  0.333333  0.750000  1
  B  B16  1  0.000000  0.000000  0.250000  1
  B  B17  1  0.000000  0.000000  0.750000  1
  P  P18  1  0.410185  0.516501  0.250000  1
  P  P19  1  0.221487  0.444682  0.750000  1
  P  P20  1  0.223196  0.778513  0.750000  1
  P  P21  1  0.555318  0.776804  0.750000  1
  P  P22  1  0.853600  0.778793  0.750000  1
  P  P23  1  0.074807  0.853600  0.250000  1
  P  P24  1  0.925193  0.146400  0.750000  1
  P  P25  1  0.146400  0.221207  0.250000  1
  P  P26  1  0.893684  0.410185  0.750000  1
  P  P27  1  0.483499  0.893684  0.250000  1
  P  P28  1  0.106316  0.589815  0.250000  1
  P  P29  1  0.444682  0.223196  0.250000  1
  P  P30  1  0.516501  0.106316  0.750000  1
  P  P31  1  0.776804  0.221487  0.250000  1
  P  P32  1  0.778513  0.555318  0.250000  1
  P  P33  1  0.589815  0.483499  0.750000  1
  P  P34  1  0.221207  0.074807  0.750000  1
  P  P35  1  0.778793  0.925193  0.250000  1
  O  O36  1  0.326088  0.565990  0.750000  1
  O  O37  1  0.565907  0.725187  0.918036  1
  O  O38  1  0.760098  0.326088  0.250000  1
  O  O39  1  0.570697  0.235838  0.750000  1
  O  O40  1  0.434093  0.274813  0.418036  1
  O  O41  1  0.632434  0.902366  0.750000  1
  O  O42  1  0.451922  0.069043  0.919687  1
  O  O43  1  0.695928  0.798950  0.250000  1
  O  O44  1  0.966503  0.891359  0.750000  1
  O  O45  1  0.269932  0.367566  0.750000  1
  O  O46  1  0.069043  0.617121  0.080313  1
  O  O47  1  0.206434  0.229425  0.418756  1
  O  O48  1  0.235838  0.665140  0.250000  1
  O  O49  1  0.924856  0.033497  0.750000  1
  O  O50  1  0.764162  0.334860  0.750000  1
  O  O51  1  0.451922  0.069043  0.580313  1
  O  O52  1  0.467738  0.394180  0.750000  1
  O  O53  1  0.033497  0.108641  0.250000  1
  O  O54  1  0.770575  0.977009  0.081244  1
  O  O55  1  0.725187  0.159280  0.081964  1
  O  O56  1  0.022991  0.793566  0.418756  1
  O  O57  1  0.382879  0.451922  0.419687  1
  O  O58  1  0.069043  0.617121  0.419687  1
  O  O59  1  0.108641  0.075144  0.750000  1
  O  O60  1  0.097634  0.730068  0.750000  1
  O  O61  1  0.429303  0.764162  0.250000  1
  O  O62  1  0.793566  0.770575  0.581244  1
  O  O63  1  0.548078  0.930957  0.080313  1
  O  O64  1  0.434093  0.274813  0.081964  1
  O  O65  1  0.075144  0.966503  0.250000  1
  O  O66  1  0.902366  0.269932  0.250000  1
  O  O67  1  0.840720  0.565907  0.081964  1
  O  O68  1  0.201050  0.896978  0.250000  1
  O  O69  1  0.673912  0.434010  0.250000  1
  O  O70  1  0.605820  0.073558  0.750000  1
  O  O71  1  0.926442  0.532262  0.750000  1
  O  O72  1  0.565990  0.239902  0.250000  1
  O  O73  1  0.730068  0.632434  0.250000  1
  O  O74  1  0.274813  0.840720  0.581964  1
  O  O75  1  0.159280  0.434093  0.581964  1
  O  O76  1  0.229425  0.022991  0.918756  1
  O  O77  1  0.617121  0.548078  0.919687  1
  O  O78  1  0.930957  0.382879  0.919687  1
  O  O79  1  0.382879  0.451922  0.080313  1
  O  O80  1  0.229425  0.022991  0.581244  1
  O  O81  1  0.022991  0.793566  0.081244  1
  O  O82  1  0.977009  0.206434  0.581244  1
  O  O83  1  0.548078  0.930957  0.419687  1
  O  O84  1  0.103022  0.304072  0.250000  1
  O  O85  1  0.798950  0.103022  0.750000  1
  O  O86  1  0.896978  0.695928  0.750000  1
  O  O87  1  0.565907  0.725187  0.581964  1
  O  O88  1  0.073558  0.467738  0.250000  1
  O  O89  1  0.977009  0.206434  0.918756  1
  O  O90  1  0.770575  0.977009  0.418756  1
  O  O91  1  0.304072  0.201050  0.750000  1
  O  O92  1  0.725187  0.159280  0.418036  1
  O  O93  1  0.334860  0.570697  0.250000  1
  O  O94  1  0.532262  0.605820  0.250000  1
  O  O95  1  0.930957  0.382879  0.580313  1
  O  O96  1  0.617121  0.548078  0.580313  1
  O  O97  1  0.159280  0.434093  0.918036  1
  O  O98  1  0.274813  0.840720  0.918036  1
  O  O99  1  0.394180  0.926442  0.250000  1
  O  O100  1  0.239902  0.673912  0.750000  1
  O  O101  1  0.891359  0.924856  0.250000  1
  O  O102  1  0.206434  0.229425  0.081244  1
  O  O103  1  0.367566  0.097634  0.250000  1
  O  O104  1  0.840720  0.565907  0.418036  1
  O  O105  1  0.434010  0.760098  0.750000  1
  O  O106  1  0.665140  0.429303  0.750000  1
  O  O107  1  0.793566  0.770575  0.918756  1
