# generated using pymatgen
data_Li3Fe3(PO4)4
_symmetry_space_group_name_H-M   'P 1'
_cell_length_a   13.23359534
_cell_length_b   8.08883808
_cell_length_c   8.88007781
_cell_angle_alpha   90.21040266
_cell_angle_beta   84.81635032
_cell_angle_gamma   90.17370895
_symmetry_Int_Tables_number   1
_chemical_formula_structural   Li3Fe3(PO4)4
_chemical_formula_sum   'Li9 Fe9 P12 O48'
_cell_volume   946.66523686
_cell_formula_units_Z   3
loop_
 _symmetry_equiv_pos_site_id
 _symmetry_equiv_pos_as_xyz
  1  'x, y, z'
loop_
 _atom_site_type_symbol
 _atom_site_label
 _atom_site_symmetry_multiplicity
 _atom_site_fract_x
 _atom_site_fract_y
 _atom_site_fract_z
 _atom_site_occupancy
  Li  Li0  1  0.163697  0.863564  0.229489  1
  Li  Li1  1  0.838172  0.134574  0.758687  1
  Li  Li2  1  0.828036  0.863510  0.577539  1
  Li  Li3  1  0.835778  0.362162  0.272611  1
  Li  Li4  1  0.503645  0.362572  0.593406  1
  Li  Li5  1  0.173549  0.367060  0.922602  1
  Li  Li6  1  0.491930  0.631861  0.411216  1
  Li  Li7  1  0.162918  0.636122  0.739971  1
  Li  Li8  1  0.505276  0.136579  0.104138  1
  O  O9  1  0.568317  0.918541  0.074681  1
  O  O10  1  0.762063  0.071471  0.589423  1
  O  O11  1  0.582326  0.638472  0.860320  1
  O  O12  1  0.915253  0.636414  0.517334  1
  O  O13  1  0.748795  0.360793  0.811007  1
  O  O14  1  0.934557  0.308483  0.665304  1
  O  O15  1  0.903650  0.928087  0.745562  1
  O  O16  1  0.772346  0.133628  0.994882  1
  O  O17  1  0.898929  0.634547  0.854312  1
  O  O18  1  0.235306  0.871933  0.011223  1
  O  O19  1  0.104114  0.375776  0.159135  1
  O  O20  1  0.100057  0.080676  0.257977  1
  O  O21  1  0.061735  0.700446  0.322751  1
  O  O22  1  0.254875  0.642618  0.187484  1
  O  O23  1  0.085057  0.361703  0.473491  1
  O  O24  1  0.411971  0.355623  0.145042  1
  O  O25  1  0.268547  0.301758  0.344440  1
  O  O26  1  0.232262  0.934808  0.416264  1
  O  O27  1  0.605961  0.301214  0.012698  1
  O  O28  1  0.731122  0.688471  0.665257  1
  O  O29  1  0.101955  0.136947  0.645799  1
  O  O30  1  0.229421  0.637917  0.503846  1
  O  O31  1  0.562387  0.622944  0.173697  1
  O  O32  1  0.432481  0.126644  0.321474  1
  O  O33  1  0.095463  0.430271  0.755834  1
  O  O34  1  0.065409  0.810128  0.834034  1
  O  O35  1  0.430071  0.423258  0.423920  1
  O  O36  1  0.395088  0.811214  0.488631  1
  O  O37  1  0.767373  0.431145  0.085236  1
  O  O38  1  0.251341  0.863870  0.690294  1
  O  O39  1  0.728443  0.796083  0.152761  1
  O  O40  1  0.584752  0.859760  0.351397  1
  O  O41  1  0.083949  0.138611  0.981230  1
  O  O42  1  0.914619  0.859522  0.027132  1
  O  O43  1  0.415034  0.134739  0.643021  1
  O  O44  1  0.272216  0.188613  0.844956  1
  O  O45  1  0.747690  0.138075  0.310515  1
  O  O46  1  0.237304  0.574780  0.908408  1
  O  O47  1  0.600818  0.187471  0.504927  1
  O  O48  1  0.568139  0.570063  0.578818  1
  O  O49  1  0.939237  0.202002  0.177843  1
  O  O50  1  0.900375  0.579128  0.240322  1
  O  O51  1  0.398658  0.696685  0.988587  1
  O  O52  1  0.564745  0.863202  0.687938  1
  O  O53  1  0.763561  0.366680  0.489518  1
  O  O54  1  0.896964  0.873664  0.340756  1
  O  O55  1  0.435356  0.065060  0.917196  1
  O  O56  1  0.438145  0.361166  0.828660  1
  P  P57  1  0.389011  0.305826  0.313852  1
  P  P58  1  0.051380  0.316532  0.645899  1
  P  P59  1  0.278542  0.809605  0.524428  1
  P  P60  1  0.609556  0.795622  0.189062  1
  P  P61  1  0.388492  0.189588  0.808818  1
  P  P62  1  0.718367  0.187679  0.479114  1
  P  P63  1  0.614311  0.682895  0.687019  1
  P  P64  1  0.944687  0.700527  0.355364  1
  P  P65  1  0.722704  0.304403  0.975887  1
  P  P66  1  0.056448  0.202599  0.144000  1
  P  P67  1  0.277841  0.692233  0.018638  1
  P  P68  1  0.948833  0.815213  0.854048  1
  Fe  Fe69  1  0.827865  0.489868  0.652622  1
  Fe  Fe70  1  0.498813  0.855351  0.900762  1
  Fe  Fe71  1  0.838239  0.016440  0.170753  1
  Fe  Fe72  1  0.495264  0.005445  0.487296  1
  Fe  Fe73  1  0.172010  0.993916  0.846404  1
  Fe  Fe74  1  0.832727  0.640553  0.066383  1
  Fe  Fe75  1  0.167649  0.143992  0.432541  1
  Fe  Fe76  1  0.500432  0.481894  0.002443  1
  Fe  Fe77  1  0.165596  0.516712  0.329668  1
