# generated using pymatgen
data_CsFeF3
_symmetry_space_group_name_H-M   'P 1'
_cell_length_a   6.30370182
_cell_length_b   6.30370183
_cell_length_c   14.83237547
_cell_angle_alpha   90.00000000
_cell_angle_beta   90.00000000
_cell_angle_gamma   119.99999997
_symmetry_Int_Tables_number   1
_chemical_formula_structural   CsFeF3
_chemical_formula_sum   'Cs6 Fe6 F18'
_cell_volume   510.42585692
_cell_formula_units_Z   6
loop_
 _symmetry_equiv_pos_site_id
 _symmetry_equiv_pos_as_xyz
  1  'x, y, z'
loop_
 _atom_site_type_symbol
 _atom_site_label
 _atom_site_symmetry_multiplicity
 _atom_site_fract_x
 _atom_site_fract_y
 _atom_site_fract_z
 _atom_site_occupancy
  F  F0  1  0.332105  0.166052  0.078720  1
  F  F1  1  0.833948  0.166052  0.421280  1
  F  F2  1  0.833948  0.667895  0.421280  1
  F  F3  1  0.332105  0.166052  0.421280  1
  F  F4  1  0.667895  0.833948  0.921280  1
  F  F5  1  0.166052  0.332105  0.578720  1
  F  F6  1  0.522344  0.044687  0.250000  1
  F  F7  1  0.477656  0.522344  0.750000  1
  F  F8  1  0.044687  0.522344  0.750000  1
  F  F9  1  0.955313  0.477656  0.250000  1
  F  F10  1  0.522344  0.477656  0.250000  1
  F  F11  1  0.477656  0.955313  0.750000  1
  F  F12  1  0.833948  0.667895  0.078720  1
  F  F13  1  0.166052  0.833948  0.578720  1
  F  F14  1  0.667895  0.833948  0.578720  1
  F  F15  1  0.166052  0.332105  0.921280  1
  F  F16  1  0.833948  0.166052  0.078720  1
  F  F17  1  0.166052  0.833948  0.921280  1
  Fe  Fe18  1  0.000000  0.000000  0.000000  1
  Fe  Fe19  1  0.333333  0.666667  0.652662  1
  Fe  Fe20  1  0.666667  0.333333  0.152662  1
  Fe  Fe21  1  0.666667  0.333333  0.347338  1
  Fe  Fe22  1  0.333333  0.666667  0.847338  1
  Fe  Fe23  1  0.000000  0.000000  0.500000  1
  Cs  Cs24  1  0.000000  0.000000  0.250000  1
  Cs  Cs25  1  0.000000  0.000000  0.750000  1
  Cs  Cs26  1  0.333333  0.666667  0.096040  1
  Cs  Cs27  1  0.666667  0.333333  0.596040  1
  Cs  Cs28  1  0.666667  0.333333  0.903960  1
  Cs  Cs29  1  0.333333  0.666667  0.403960  1
