# generated using pymatgen
data_K2MgP2WO10
_symmetry_space_group_name_H-M   'P 1'
_cell_length_a   9.29841209
_cell_length_b   9.31377429
_cell_length_c   10.87991370
_cell_angle_alpha   90.27242828
_cell_angle_beta   90.44358527
_cell_angle_gamma   90.17461860
_symmetry_Int_Tables_number   1
_chemical_formula_structural   K2MgP2WO10
_chemical_formula_sum   'K8 Mg4 P8 W4 O40'
_cell_volume   942.19318311
_cell_formula_units_Z   4
loop_
 _symmetry_equiv_pos_site_id
 _symmetry_equiv_pos_as_xyz
  1  'x, y, z'
loop_
 _atom_site_type_symbol
 _atom_site_label
 _atom_site_symmetry_multiplicity
 _atom_site_fract_x
 _atom_site_fract_y
 _atom_site_fract_z
 _atom_site_occupancy
  K  K0  1  0.842730  0.500036  0.342318  1
  K  K1  1  0.508127  0.188339  0.199279  1
  K  K2  1  0.003584  0.335784  0.677434  1
  K  K3  1  0.662343  0.997766  0.873288  1
  K  K4  1  0.257282  0.007440  0.449982  1
  K  K5  1  0.516523  0.754452  0.575239  1
  K  K6  1  0.263007  0.476370  0.939298  1
  K  K7  1  0.989558  0.729779  0.052543  1
  Mg  Mg8  1  0.354137  0.356251  0.495065  1
  Mg  Mg9  1  0.866715  0.123225  0.241809  1
  Mg  Mg10  1  0.643283  0.625273  0.012783  1
  Mg  Mg11  1  0.155086  0.843169  0.750778  1
  P  P12  1  0.173257  0.317491  0.234575  1
  P  P13  1  0.834599  0.681685  0.760764  1
  P  P14  1  0.676020  0.183635  0.495063  1
  P  P15  1  0.677319  0.813606  0.267691  1
  P  P16  1  0.329388  0.157714  0.741513  1
  P  P17  1  0.824841  0.311910  0.988336  1
  P  P18  1  0.339601  0.821842  0.008254  1
  P  P19  1  0.166157  0.658590  0.496647  1
  W  W20  1  0.379761  0.611248  0.252452  1
  W  W21  1  0.119824  0.102008  0.993180  1
  W  W22  1  0.608771  0.392583  0.744620  1
  W  W23  1  0.892174  0.892196  0.509178  1
  O  O24  1  0.055372  0.978928  0.877252  1
  O  O25  1  0.997522  0.671367  0.771347  1
  O  O26  1  0.694711  0.970932  0.236329  1
  O  O27  1  0.256038  0.757095  0.899731  1
  O  O28  1  0.743428  0.776853  0.398199  1
  O  O29  1  0.334629  0.994981  0.729844  1
  O  O30  1  0.228133  0.247957  0.110485  1
  O  O31  1  0.510443  0.777974  0.287838  1
  O  O32  1  0.957255  0.990778  0.379232  1
  O  O33  1  0.771940  0.529454  0.716901  1
  O  O34  1  0.208342  0.484171  0.215259  1
  O  O35  1  0.739298  0.709274  0.172826  1
  O  O36  1  0.988841  0.269098  0.960329  1
  O  O37  1  0.278574  0.748045  0.127667  1
  O  O38  1  0.501754  0.808259  0.999786  1
  O  O39  1  0.730174  0.027973  0.537250  1
  O  O40  1  0.241847  0.713292  0.375897  1
  O  O41  1  0.003089  0.708827  0.480199  1
  O  O42  1  0.816686  0.470335  0.021603  1
  O  O43  1  0.298754  0.987069  0.025011  1
  O  O44  1  0.013502  0.033597  0.117243  1
  O  O45  1  0.484147  0.458133  0.630456  1
  O  O46  1  0.241616  0.208723  0.856942  1
  O  O47  1  0.446736  0.499597  0.374875  1
  O  O48  1  0.168510  0.495866  0.507218  1
  O  O49  1  0.488813  0.215664  0.769721  1
  O  O50  1  0.265452  0.258860  0.339627  1
  O  O51  1  0.236918  0.739726  0.603527  1
  O  O52  1  0.761639  0.728447  0.879863  1
  O  O53  1  0.488743  0.537860  0.130555  1
  O  O54  1  0.751040  0.279401  0.859640  1
  O  O55  1  0.266479  0.232961  0.628693  1
  O  O56  1  0.024492  0.953503  0.619188  1
  O  O57  1  0.012616  0.298850  0.250129  1
  O  O58  1  0.756899  0.230223  0.380136  1
  O  O59  1  0.764130  0.209438  0.084400  1
  O  O60  1  0.547428  0.496166  0.874360  1
  O  O61  1  0.722264  0.281268  0.607206  1
  O  O62  1  0.785530  0.785121  0.654640  1
  O  O63  1  0.513419  0.181306  0.477256  1
