# generated using pymatgen
data_PH6CNO3
_symmetry_space_group_name_H-M   'P 1'
_cell_length_a   7.32624965
_cell_length_b   12.30022996
_cell_length_c   15.56384464
_cell_angle_alpha   90.00000000
_cell_angle_beta   90.00000000
_cell_angle_gamma   97.32042346
_symmetry_Int_Tables_number   1
_chemical_formula_structural   PH6CNO3
_chemical_formula_sum   'P12 H72 C12 N12 O36'
_cell_volume   1391.09704867
_cell_formula_units_Z   12
loop_
 _symmetry_equiv_pos_site_id
 _symmetry_equiv_pos_as_xyz
  1  'x, y, z'
loop_
 _atom_site_type_symbol
 _atom_site_label
 _atom_site_symmetry_multiplicity
 _atom_site_fract_x
 _atom_site_fract_y
 _atom_site_fract_z
 _atom_site_occupancy
  P  P0  1  0.197603  0.868804  0.309794  1
  P  P1  1  0.697603  0.368804  0.190206  1
  P  P2  1  0.302397  0.631196  0.809794  1
  P  P3  1  0.295348  0.726382  0.981907  1
  P  P4  1  0.828557  0.155515  0.163992  1
  P  P5  1  0.328557  0.655515  0.336008  1
  P  P6  1  0.171443  0.844485  0.836008  1
  P  P7  1  0.704652  0.273618  0.018093  1
  P  P8  1  0.204652  0.773618  0.481907  1
  P  P9  1  0.802397  0.131196  0.690206  1
  P  P10  1  0.671443  0.344485  0.663992  1
  P  P11  1  0.795348  0.226382  0.518093  1
  H  H12  1  0.343569  0.453708  0.528700  1
  H  H13  1  0.627191  0.437517  0.393747  1
  H  H14  1  0.927575  0.721993  0.702367  1
  H  H15  1  0.366521  0.265549  0.428069  1
  H  H16  1  0.295637  0.383024  0.671557  1
  H  H17  1  0.204363  0.116976  0.171557  1
  H  H18  1  0.366477  0.032891  0.191295  1
  H  H19  1  0.261454  0.344959  0.870973  1
  H  H20  1  0.601644  0.746924  0.684998  1
  H  H21  1  0.133523  0.467109  0.691295  1
  H  H22  1  0.633479  0.734451  0.571931  1
  H  H23  1  0.841886  0.937972  0.472096  1
  H  H24  1  0.228209  0.566340  0.124010  1
  H  H25  1  0.738546  0.655041  0.129027  1
  H  H26  1  0.658114  0.562028  0.972096  1
  H  H27  1  0.168260  0.030135  0.680839  1
  H  H28  1  0.705970  0.828871  0.416740  1
  H  H29  1  0.133479  0.234451  0.928069  1
  H  H30  1  0.437339  0.194702  0.905468  1
  H  H31  1  0.303865  0.108518  0.840507  1
  H  H32  1  0.238546  0.155041  0.370973  1
  H  H33  1  0.898356  0.753076  0.184998  1
  H  H34  1  0.761454  0.844959  0.629027  1
  H  H35  1  0.903610  0.571893  0.974732  1
  H  H36  1  0.665111  0.037582  0.955744  1
  H  H37  1  0.866521  0.765549  0.071931  1
  H  H38  1  0.866477  0.532891  0.308705  1
  H  H39  1  0.633523  0.967109  0.808705  1
  H  H40  1  0.093815  0.366258  0.614622  1
  H  H41  1  0.101644  0.246924  0.815002  1
  H  H42  1  0.127191  0.937517  0.106253  1
  H  H43  1  0.834889  0.462418  0.455744  1
  H  H44  1  0.196135  0.391482  0.340507  1
  H  H45  1  0.158114  0.062028  0.527904  1
  H  H46  1  0.596390  0.928107  0.474732  1
  H  H47  1  0.097857  0.464601  0.178140  1
  H  H48  1  0.427575  0.221993  0.797633  1
  H  H49  1  0.398356  0.253076  0.315002  1
  H  H50  1  0.372809  0.562483  0.606253  1
  H  H51  1  0.902143  0.535399  0.821860  1
  H  H52  1  0.062661  0.305298  0.405468  1
  H  H53  1  0.096390  0.428107  0.025268  1
  H  H54  1  0.271791  0.933660  0.624010  1
  H  H55  1  0.696135  0.891482  0.159493  1
  H  H56  1  0.843569  0.953708  0.971300  1
  H  H57  1  0.668260  0.530135  0.819161  1
  H  H58  1  0.294030  0.171129  0.583260  1
  H  H59  1  0.562661  0.805298  0.094532  1
  H  H60  1  0.728209  0.066340  0.375990  1
  H  H61  1  0.331740  0.469865  0.180839  1
  H  H62  1  0.597857  0.964601  0.321860  1
  H  H63  1  0.794030  0.671129  0.916740  1
  H  H64  1  0.656431  0.546292  0.471300  1
  H  H65  1  0.803865  0.608518  0.659493  1
  H  H66  1  0.872809  0.062483  0.893747  1
  H  H67  1  0.937339  0.694702  0.594532  1
  H  H68  1  0.156431  0.046292  0.028700  1
  H  H69  1  0.334889  0.962418  0.044256  1
  H  H70  1  0.906185  0.633742  0.385378  1
  H  H71  1  0.831740  0.969865  0.319161  1
  H  H72  1  0.403610  0.071893  0.525268  1
  H  H73  1  0.771791  0.433660  0.875990  1
  H  H74  1  0.072425  0.278007  0.297633  1
  H  H75  1  0.341886  0.437972  0.027904  1
  H  H76  1  0.572425  0.778007  0.202367  1
  H  H77  1  0.205970  0.328871  0.083260  1
  H  H78  1  0.593815  0.866258  0.885378  1
  H  H79  1  0.406185  0.133742  0.114622  1
  H  H80  1  0.795637  0.883024  0.828443  1
  H  H81  1  0.402143  0.035399  0.678140  1
  H  H82  1  0.165111  0.537582  0.544256  1
  H  H83  1  0.704363  0.616976  0.328443  1
  C  C84  1  0.701662  0.758829  0.632706  1
  C  C85  1  0.274132  0.499717  0.576138  1
  C  C86  1  0.284517  0.084984  0.564568  1
  C  C87  1  0.798338  0.741171  0.132706  1
  C  C88  1  0.784517  0.584984  0.935432  1
  C  C89  1  0.225868  0.000283  0.076138  1
  C  C90  1  0.215483  0.415016  0.064568  1
  C  C91  1  0.774132  0.999717  0.923862  1
  C  C92  1  0.715483  0.915016  0.435432  1
  C  C93  1  0.725868  0.500283  0.423862  1
  C  C94  1  0.201662  0.258829  0.867294  1
  C  C95  1  0.298338  0.241171  0.367294  1
  N  N96  1  0.852476  0.690983  0.648902  1
  N  N97  1  0.192077  0.423139  0.643483  1
  N  N98  1  0.719487  0.983916  0.357050  1
  N  N99  1  0.647524  0.809017  0.148902  1
  N  N100  1  0.219487  0.483916  0.142950  1
  N  N101  1  0.307923  0.076861  0.143483  1
  N  N102  1  0.780513  0.516084  0.857050  1
  N  N103  1  0.807923  0.576861  0.356517  1
  N  N104  1  0.280513  0.016084  0.642950  1
  N  N105  1  0.147524  0.309017  0.351098  1
  N  N106  1  0.692077  0.923139  0.856517  1
  N  N107  1  0.352476  0.190983  0.851098  1
  O  O108  1  0.515908  0.207842  0.016388  1
  O  O109  1  0.850024  0.202478  0.065139  1
  O  O110  1  0.288375  0.816847  0.564411  1
  O  O111  1  0.484092  0.792158  0.983612  1
  O  O112  1  0.984617  0.820267  0.794715  1
  O  O113  1  0.350024  0.702478  0.434861  1
  O  O114  1  0.876382  0.427161  0.224405  1
  O  O115  1  0.519999  0.401202  0.221691  1
  O  O116  1  0.484617  0.320267  0.705285  1
  O  O117  1  0.984092  0.292158  0.516388  1
  O  O118  1  0.123618  0.572839  0.775595  1
  O  O119  1  0.515383  0.679733  0.294715  1
  O  O120  1  0.711625  0.183153  0.435589  1
  O  O121  1  0.271940  0.957870  0.835829  1
  O  O122  1  0.689564  0.236199  0.204833  1
  O  O123  1  0.149976  0.797522  0.934861  1
  O  O124  1  0.019999  0.901202  0.278309  1
  O  O125  1  0.294390  0.623930  0.914947  1
  O  O126  1  0.771941  0.457870  0.664171  1
  O  O127  1  0.480001  0.598798  0.778309  1
  O  O128  1  0.623618  0.072839  0.724405  1
  O  O129  1  0.015908  0.707842  0.483612  1
  O  O130  1  0.228059  0.542130  0.335829  1
  O  O131  1  0.205610  0.876070  0.414947  1
  O  O132  1  0.211625  0.683153  0.064411  1
  O  O133  1  0.015383  0.179733  0.205285  1
  O  O134  1  0.794390  0.123930  0.585053  1
  O  O135  1  0.728059  0.042130  0.164171  1
  O  O136  1  0.705610  0.376070  0.085053  1
  O  O137  1  0.788375  0.316847  0.935589  1
  O  O138  1  0.189564  0.736199  0.295167  1
  O  O139  1  0.649976  0.297522  0.565139  1
  O  O140  1  0.310436  0.763801  0.795167  1
  O  O141  1  0.376382  0.927161  0.275595  1
  O  O142  1  0.980001  0.098798  0.721691  1
  O  O143  1  0.810436  0.263801  0.704833  1
