# generated using pymatgen
data_Th7Ru3
_symmetry_space_group_name_H-M   'P 1'
_cell_length_a   9.96067390
_cell_length_b   9.96067369
_cell_length_c   6.34228159
_cell_angle_alpha   90.00000000
_cell_angle_beta   90.00000000
_cell_angle_gamma   120.00000071
_symmetry_Int_Tables_number   1
_chemical_formula_structural   Th7Ru3
_chemical_formula_sum   'Th14 Ru6'
_cell_volume   544.94614381
_cell_formula_units_Z   2
loop_
 _symmetry_equiv_pos_site_id
 _symmetry_equiv_pos_as_xyz
  1  'x, y, z'
loop_
 _atom_site_type_symbol
 _atom_site_label
 _atom_site_symmetry_multiplicity
 _atom_site_fract_x
 _atom_site_fract_y
 _atom_site_fract_z
 _atom_site_occupancy
  Th  Th0  1  0.459158  0.540842  0.299692  1
  Th  Th1  1  0.081684  0.540842  0.299692  1
  Th  Th2  1  0.918316  0.459158  0.799692  1
  Th  Th3  1  0.251737  0.125869  0.501916  1
  Th  Th4  1  0.540842  0.081684  0.799692  1
  Th  Th5  1  0.748263  0.874131  0.001916  1
  Th  Th6  1  0.666667  0.333333  0.292058  1
  Th  Th7  1  0.125869  0.874131  0.001916  1
  Th  Th8  1  0.459158  0.918316  0.299692  1
  Th  Th9  1  0.540842  0.459158  0.799692  1
  Th  Th10  1  0.874131  0.125869  0.501916  1
  Th  Th11  1  0.125869  0.251737  0.001916  1
  Th  Th12  1  0.874131  0.748263  0.501916  1
  Th  Th13  1  0.333333  0.666667  0.792058  1
  Ru  Ru14  1  0.813643  0.627287  0.048372  1
  Ru  Ru15  1  0.813643  0.186357  0.048372  1
  Ru  Ru16  1  0.627287  0.813643  0.548372  1
  Ru  Ru17  1  0.372713  0.186357  0.048372  1
  Ru  Ru18  1  0.186357  0.372713  0.548372  1
  Ru  Ru19  1  0.186357  0.813643  0.548372  1
