# generated using pymatgen
data_BaSi2O5
_symmetry_space_group_name_H-M   'P 1'
_cell_length_a   4.73088805
_cell_length_b   11.99362194
_cell_length_c   13.82168659
_cell_angle_alpha   97.21720939
_cell_angle_beta   90.00000000
_cell_angle_gamma   101.37474071
_symmetry_Int_Tables_number   1
_chemical_formula_structural   BaSi2O5
_chemical_formula_sum   'Ba6 Si12 O30'
_cell_volume   762.50600504
_cell_formula_units_Z   6
loop_
 _symmetry_equiv_pos_site_id
 _symmetry_equiv_pos_as_xyz
  1  'x, y, z'
loop_
 _atom_site_type_symbol
 _atom_site_label
 _atom_site_symmetry_multiplicity
 _atom_site_fract_x
 _atom_site_fract_y
 _atom_site_fract_z
 _atom_site_occupancy
  O  O0  1  0.664006  0.475552  0.280569  1
  O  O1  1  0.188454  0.524448  0.219431  1
  O  O2  1  0.335994  0.524448  0.719431  1
  O  O3  1  0.811546  0.475552  0.780569  1
  O  O4  1  0.774610  0.542113  0.094037  1
  O  O5  1  0.232497  0.457887  0.405963  1
  O  O6  1  0.225390  0.457887  0.905963  1
  O  O7  1  0.767503  0.542113  0.594037  1
  O  O8  1  0.831281  0.338319  0.135258  1
  O  O9  1  0.492962  0.661681  0.364742  1
  O  O10  1  0.168719  0.661681  0.864742  1
  O  O11  1  0.507038  0.338319  0.635258  1
  O  O12  1  0.537428  0.140324  0.049959  1
  O  O13  1  0.397105  0.859676  0.450041  1
  O  O14  1  0.462572  0.859676  0.950041  1
  O  O15  1  0.602896  0.140324  0.549959  1
  O  O16  1  0.949770  0.142251  0.179893  1
  O  O17  1  0.807519  0.857749  0.320107  1
  O  O18  1  0.782503  0.000000  0.750000  1
  O  O19  1  0.217497  0.000000  0.250000  1
  O  O20  1  0.096296  0.172780  0.878386  1
  O  O21  1  0.923516  0.827220  0.621614  1
  O  O22  1  0.903704  0.827220  0.121614  1
  O  O23  1  0.076484  0.172780  0.378386  1
  O  O24  1  0.727523  0.212957  0.748077  1
  O  O25  1  0.514567  0.787043  0.751923  1
  O  O26  1  0.272477  0.787043  0.251923  1
  O  O27  1  0.485434  0.212957  0.248077  1
  O  O28  1  0.192481  0.142251  0.679893  1
  O  O29  1  0.050230  0.857749  0.820107  1
  Si  Si30  1  0.852033  0.474730  0.179607  1
  Si  Si31  1  0.377304  0.525270  0.320393  1
  Si  Si32  1  0.147967  0.525270  0.820393  1
  Si  Si33  1  0.622696  0.474730  0.679607  1
  Si  Si34  1  0.686676  0.204640  0.150430  1
  Si  Si35  1  0.482036  0.795360  0.349570  1
  Si  Si36  1  0.313324  0.795360  0.849570  1
  Si  Si37  1  0.517964  0.204640  0.650430  1
  Si  Si38  1  0.168623  0.133238  0.270734  1
  Si  Si39  1  0.035385  0.866762  0.229266  1
  Si  Si40  1  0.831377  0.866762  0.729266  1
  Si  Si41  1  0.964615  0.133238  0.770734  1
  Ba  Ba42  1  0.710163  0.327086  0.435393  1
  Ba  Ba43  1  0.383076  0.672914  0.064607  1
  Ba  Ba44  1  0.289837  0.672914  0.564607  1
  Ba  Ba45  1  0.616924  0.327086  0.935393  1
  Ba  Ba46  1  0.000000  0.000000  0.000000  1
  Ba  Ba47  1  0.000000  0.000000  0.500000  1
