# generated using pymatgen
data_Na2YMoPO8
_symmetry_space_group_name_H-M   'P 1'
_cell_length_a   6.96967345
_cell_length_b   11.51558065
_cell_length_c   11.51558074
_cell_angle_alpha   104.57552461
_cell_angle_beta   107.61199545
_cell_angle_gamma   107.61199162
_symmetry_Int_Tables_number   1
_chemical_formula_structural   Na2YMoPO8
_chemical_formula_sum   'Na8 Y4 Mo4 P4 O32'
_cell_volume   777.40252219
_cell_formula_units_Z   4
loop_
 _symmetry_equiv_pos_site_id
 _symmetry_equiv_pos_as_xyz
  1  'x, y, z'
loop_
 _atom_site_type_symbol
 _atom_site_label
 _atom_site_symmetry_multiplicity
 _atom_site_fract_x
 _atom_site_fract_y
 _atom_site_fract_z
 _atom_site_occupancy
  Na  Na0  1  0.068612  0.405147  0.210846  1
  Na  Na1  1  0.046898  0.904966  0.710599  1
  Na  Na2  1  0.931388  0.594853  0.789154  1
  Na  Na3  1  0.431388  0.789154  0.594853  1
  Na  Na4  1  0.546898  0.710599  0.904966  1
  Na  Na5  1  0.953102  0.095034  0.289401  1
  Na  Na6  1  0.568612  0.210846  0.405147  1
  Na  Na7  1  0.453102  0.289401  0.095034  1
  Y  Y8  1  0.572130  0.822201  0.322053  1
  Y  Y9  1  0.427870  0.177799  0.677947  1
  Y  Y10  1  0.072130  0.322053  0.822201  1
  Y  Y11  1  0.927870  0.677947  0.177799  1
  Mo  Mo12  1  0.250000  0.928173  0.071827  1
  Mo  Mo13  1  0.750000  0.571995  0.428005  1
  Mo  Mo14  1  0.750000  0.071827  0.928173  1
  Mo  Mo15  1  0.250000  0.428005  0.571995  1
  P  P16  1  0.819049  0.069107  0.569102  1
  P  P17  1  0.319049  0.569102  0.069107  1
  P  P18  1  0.180951  0.930893  0.430898  1
  P  P19  1  0.680951  0.430898  0.930893  1
  O  O20  1  0.756823  0.061736  0.425610  1
  O  O21  1  0.483801  0.895514  0.152870  1
  O  O22  1  0.730352  0.925582  0.561616  1
  O  O23  1  0.828874  0.137373  0.101482  1
  O  O24  1  0.769648  0.438384  0.074418  1
  O  O25  1  0.090063  0.362473  0.398682  1
  O  O26  1  0.230352  0.561616  0.925582  1
  O  O27  1  0.724046  0.156405  0.639962  1
  O  O28  1  0.983801  0.152870  0.895514  1
  O  O29  1  0.224046  0.639962  0.156405  1
  O  O30  1  0.243177  0.938264  0.574390  1
  O  O31  1  0.671126  0.898518  0.862627  1
  O  O32  1  0.064562  0.395432  0.653036  1
  O  O33  1  0.275954  0.843595  0.360038  1
  O  O34  1  0.427786  0.343591  0.860134  1
  O  O35  1  0.256823  0.425610  0.061736  1
  O  O36  1  0.927786  0.860134  0.343591  1
  O  O37  1  0.935438  0.604568  0.346964  1
  O  O38  1  0.743177  0.574390  0.938264  1
  O  O39  1  0.909937  0.637527  0.601318  1
  O  O40  1  0.590063  0.398682  0.362473  1
  O  O41  1  0.269648  0.074418  0.438384  1
  O  O42  1  0.516199  0.104486  0.847130  1
  O  O43  1  0.572214  0.656409  0.139866  1
  O  O44  1  0.435438  0.346964  0.604568  1
  O  O45  1  0.016199  0.847130  0.104486  1
  O  O46  1  0.564562  0.653036  0.395432  1
  O  O47  1  0.328874  0.101482  0.137373  1
  O  O48  1  0.409937  0.601318  0.637527  1
  O  O49  1  0.072214  0.139866  0.656409  1
  O  O50  1  0.171126  0.862627  0.898518  1
  O  O51  1  0.775954  0.360038  0.843595  1
