# generated using pymatgen
data_TeS4(NCl)4
_symmetry_space_group_name_H-M   'P 1'
_cell_length_a   7.59835622
_cell_length_b   9.23679868
_cell_length_c   9.23679869
_cell_angle_alpha   84.24164531
_cell_angle_beta   81.63159898
_cell_angle_gamma   81.63160091
_symmetry_Int_Tables_number   1
_chemical_formula_structural   TeS4(NCl)4
_chemical_formula_sum   'Te2 S8 N8 Cl8'
_cell_volume   632.47057156
_cell_formula_units_Z   2
loop_
 _symmetry_equiv_pos_site_id
 _symmetry_equiv_pos_as_xyz
  1  'x, y, z'
loop_
 _atom_site_type_symbol
 _atom_site_label
 _atom_site_symmetry_multiplicity
 _atom_site_fract_x
 _atom_site_fract_y
 _atom_site_fract_z
 _atom_site_occupancy
  Te  Te0  1  0.588531  0.693655  0.949157  1
  Te  Te1  1  0.088531  0.949157  0.693655  1
  S  S2  1  0.008219  0.502324  0.969198  1
  S  S3  1  0.882715  0.255931  0.172162  1
  S  S4  1  0.900945  0.701648  0.180329  1
  S  S5  1  0.400945  0.180329  0.701648  1
  S  S6  1  0.382715  0.172162  0.255931  1
  S  S7  1  0.269511  0.400521  0.469897  1
  S  S8  1  0.769511  0.469897  0.400521  1
  S  S9  1  0.508219  0.969198  0.502324  1
  N  N10  1  0.494829  0.046038  0.341783  1
  N  N11  1  0.843691  0.624638  0.041460  1
  N  N12  1  0.257634  0.297474  0.344062  1
  N  N13  1  0.757634  0.344062  0.297474  1
  N  N14  1  0.849838  0.611921  0.333413  1
  N  N15  1  0.349838  0.333413  0.611921  1
  N  N16  1  0.343691  0.041460  0.624638  1
  N  N17  1  0.994829  0.341783  0.046038  1
  Cl  Cl18  1  0.173531  0.959416  0.945918  1
  Cl  Cl19  1  0.945040  0.208213  0.694796  1
  Cl  Cl20  1  0.801735  0.674356  0.711608  1
  Cl  Cl21  1  0.060930  0.952617  0.426681  1
  Cl  Cl22  1  0.445040  0.694796  0.208213  1
  Cl  Cl23  1  0.560930  0.426681  0.952617  1
  Cl  Cl24  1  0.301735  0.711608  0.674356  1
  Cl  Cl25  1  0.673531  0.945918  0.959416  1
