# generated using pymatgen
data_Cu29(Ag6As7)2
_symmetry_space_group_name_H-M   'P 1'
_cell_length_a   11.86992593
_cell_length_b   11.86673766
_cell_length_c   11.84539848
_cell_angle_alpha   90.14384273
_cell_angle_beta   90.03728748
_cell_angle_gamma   90.00195565
_symmetry_Int_Tables_number   1
_chemical_formula_structural   Cu29(Ag6As7)2
_chemical_formula_sum   'Cu58 Ag24 As28'
_cell_volume   1668.50520002
_cell_formula_units_Z   2
loop_
 _symmetry_equiv_pos_site_id
 _symmetry_equiv_pos_as_xyz
  1  'x, y, z'
loop_
 _atom_site_type_symbol
 _atom_site_label
 _atom_site_symmetry_multiplicity
 _atom_site_fract_x
 _atom_site_fract_y
 _atom_site_fract_z
 _atom_site_occupancy
  Ag  Ag0  1  0.002640  0.998302  0.821594  1
  Ag  Ag1  1  0.998265  0.821420  0.002668  1
  Ag  Ag2  1  0.004123  0.680524  0.495555  1
  Ag  Ag3  1  0.178472  0.997888  0.998605  1
  Ag  Ag4  1  0.182321  0.501619  0.498217  1
  Ag  Ag5  1  0.320060  0.499435  0.000308  1
  Ag  Ag6  1  0.318267  0.003762  0.504768  1
  Ag  Ag7  1  0.499660  0.499748  0.820315  1
  Ag  Ag8  1  0.497964  0.823476  0.501382  1
  Ag  Ag9  1  0.498114  0.181230  0.501776  1
  Ag  Ag10  1  0.499636  0.500213  0.179600  1
  Ag  Ag11  1  0.499296  0.677968  0.000391  1
  Ag  Ag12  1  0.498226  0.001051  0.323866  1
  Ag  Ag13  1  0.498907  0.320651  1.000412  1
  Ag  Ag14  1  0.494613  0.003479  0.680628  1
  Ag  Ag15  1  0.677550  0.498999  0.998931  1
  Ag  Ag16  1  0.675221  0.001299  0.501200  1
  Ag  Ag17  1  0.824967  0.501665  0.498443  1
  Ag  Ag18  1  0.823195  0.001167  0.999006  1
  Ag  Ag19  1  0.001579  0.176596  0.999809  1
  Ag  Ag20  1  0.001767  0.323063  0.498381  1
  Ag  Ag21  1  0.004780  0.503510  0.319304  1
  Ag  Ag22  1  0.001556  0.501180  0.675977  1
  Ag  Ag23  1  0.999136  0.998495  0.178601  1
  As  As24  1  0.001159  0.999635  0.499958  1
  As  As25  1  0.991569  0.239871  0.757880  1
  As  As26  1  0.998893  0.749717  0.250139  1
  As  As27  1  0.010423  0.759672  0.759893  1
  As  As28  1  0.243198  0.241196  0.009824  1
  As  As29  1  0.239558  0.008978  0.242006  1
  As  As30  1  0.251429  0.998077  0.748560  1
  As  As31  1  0.239460  0.758075  0.990774  1
  As  As32  1  0.257532  0.241479  0.509886  1
  As  As33  1  0.240765  0.508423  0.257964  1
  As  As34  1  0.250614  0.496734  0.749516  1
  As  As35  1  0.241060  0.742473  0.490211  1
  As  As36  1  0.500433  0.500326  0.500067  1
  As  As37  1  0.497311  -0.000448  0.999864  1
  As  As38  1  0.501032  0.250729  0.248024  1
  As  As39  1  0.490451  0.241407  0.742641  1
  As  As40  1  0.496409  0.750017  0.250813  1
  As  As41  1  0.500868  0.752056  0.750430  1
  As  As42  1  0.751274  0.249964  0.497365  1
  As  As43  1  0.751101  0.498168  0.248542  1
  As  As44  1  0.750112  0.501115  0.751700  1
  As  As45  1  0.750457  0.751835  0.502558  1
  As  As46  1  0.758228  0.241629  0.988235  1
  As  As47  1  0.759255  0.989871  0.240350  1
  As  As48  1  0.759471  0.010647  0.759794  1
  As  As49  1  0.759558  0.759821  0.011017  1
  As  As50  1  0.011314  0.241693  0.241463  1
  As  As51  1  0.001161  0.499803  0.000070  1
  Cu  Cu52  1  0.119049  0.120329  0.379509  1
  Cu  Cu53  1  0.120263  0.378355  0.121243  1
  Cu  Cu54  1  0.125060  0.116734  0.619680  1
  Cu  Cu55  1  0.116614  0.619159  0.125581  1
  Cu  Cu56  1  0.118926  0.379610  0.880868  1
  Cu  Cu57  1  0.116362  0.874799  0.380625  1
  Cu  Cu58  1  0.119061  0.621376  0.880115  1
  Cu  Cu59  1  0.119335  0.882174  0.624921  1
  Cu  Cu60  1  0.172574  0.329125  0.338590  1
  Cu  Cu61  1  0.159660  0.327192  0.670895  1
  Cu  Cu62  1  0.169107  0.668525  0.667857  1
  Cu  Cu63  1  0.171009  0.167446  0.830307  1
  Cu  Cu64  1  0.168425  0.829390  0.170626  1
  Cu  Cu65  1  0.326613  0.670345  0.159946  1
  Cu  Cu66  1  0.331879  0.667550  0.831750  1
  Cu  Cu67  1  0.327203  0.828179  0.662036  1
  Cu  Cu68  1  0.331301  0.168705  0.332441  1
  Cu  Cu69  1  0.328828  0.338946  0.171715  1
  Cu  Cu70  1  0.329054  0.327130  0.840341  1
  Cu  Cu71  1  0.327042  0.841543  0.330246  1
  Cu  Cu72  1  0.380772  0.381546  0.380887  1
  Cu  Cu73  1  0.378819  0.376907  0.621771  1
  Cu  Cu74  1  0.376676  0.622077  0.378275  1
  Cu  Cu75  1  0.381316  0.620687  0.618386  1
  Cu  Cu76  1  0.377441  0.120809  0.120591  1
  Cu  Cu77  1  0.380471  0.116854  0.874836  1
  Cu  Cu78  1  0.379387  0.880888  0.119505  1
  Cu  Cu79  1  0.373086  0.881144  0.878451  1
  Cu  Cu80  1  0.618832  0.118147  0.117672  1
  Cu  Cu81  1  0.620094  0.119300  0.880943  1
  Cu  Cu82  1  0.620768  0.880995  0.119265  1
  Cu  Cu83  1  0.619093  0.882100  0.882585  1
  Cu  Cu84  1  0.622986  0.378756  0.377745  1
  Cu  Cu85  1  0.619094  0.380880  0.619565  1
  Cu  Cu86  1  0.620034  0.619228  0.381074  1
  Cu  Cu87  1  0.622632  0.622780  0.622078  1
  Cu  Cu88  1  0.671668  0.159412  0.326994  1
  Cu  Cu89  1  0.672557  0.327381  0.158684  1
  Cu  Cu90  1  0.667876  0.168898  0.668272  1
  Cu  Cu91  1  0.660295  0.329070  0.828571  1
  Cu  Cu92  1  0.667283  0.667895  0.168320  1
  Cu  Cu93  1  0.667092  0.832427  0.332605  1
  Cu  Cu94  1  0.671755  0.672854  0.840999  1
  Cu  Cu95  1  0.671196  0.842263  0.672809  1
  Cu  Cu96  1  0.831634  0.169590  0.168156  1
  Cu  Cu97  1  0.830485  0.830635  0.830775  1
  Cu  Cu98  1  0.842027  0.328555  0.327092  1
  Cu  Cu99  1  0.833031  0.332564  0.667154  1
  Cu  Cu100  1  0.831292  0.669582  0.331026  1
  Cu  Cu101  1  0.841745  0.671848  0.671870  1
  Cu  Cu102  1  0.881831  0.118336  0.380730  1
  Cu  Cu103  1  0.880568  0.118916  0.620952  1
  Cu  Cu104  1  0.881728  0.380600  0.117105  1
  Cu  Cu105  1  0.879235  0.377967  0.880088  1
  Cu  Cu106  1  0.882461  0.625260  0.119209  1
  Cu  Cu107  1  0.882308  0.880872  0.374994  1
  Cu  Cu108  1  0.881496  0.618912  0.881983  1
  Cu  Cu109  1  0.881162  0.882748  0.619409  1
