# generated using pymatgen
data_La(IO3)3
_symmetry_space_group_name_H-M   'P 1'
_cell_length_a   7.19861684
_cell_length_b   7.27920300
_cell_length_c   27.85523896
_cell_angle_alpha   85.05178656
_cell_angle_beta   82.57974454
_cell_angle_gamma   60.36370610
_symmetry_Int_Tables_number   1
_chemical_formula_structural   La(IO3)3
_chemical_formula_sum   'La6 I18 O54'
_cell_volume   1257.62603779
_cell_formula_units_Z   6
loop_
 _symmetry_equiv_pos_site_id
 _symmetry_equiv_pos_as_xyz
  1  'x, y, z'
loop_
 _atom_site_type_symbol
 _atom_site_label
 _atom_site_symmetry_multiplicity
 _atom_site_fract_x
 _atom_site_fract_y
 _atom_site_fract_z
 _atom_site_occupancy
  La  La0  1  0.340246  0.770991  0.313724  1
  La  La1  1  0.865023  0.248070  0.955350  1
  La  La2  1  0.518217  0.109475  0.593283  1
  La  La3  1  0.779107  0.609449  0.093287  1
  La  La4  1  0.574987  0.270938  0.813721  1
  La  La5  1  0.931594  0.748090  0.455348  1
  I  I6  1  0.990686  0.488375  0.342304  1
  I  I7  1  0.443170  0.335918  0.069559  1
  I  I8  1  0.634048  0.831750  0.720166  1
  I  I9  1  0.965989  0.167105  0.692625  1
  I  I10  1  0.306365  0.009731  0.429668  1
  I  I11  1  0.706717  0.129095  0.340868  1
  I  I12  1  0.151483  0.835887  0.569561  1
  I  I13  1  0.592371  0.868581  0.978236  1
  I  I14  1  0.254292  0.509712  0.929680  1
  I  I15  1  0.174365  0.667144  0.192646  1
  I  I16  1  0.866174  0.479801  0.569584  1
  I  I17  1  0.084488  0.979746  0.069560  1
  I  I18  1  0.814088  0.331840  0.220175  1
  I  I19  1  0.269725  0.497329  0.697275  1
  I  I20  1  0.560690  0.368615  0.478211  1
  I  I21  1  0.178498  0.988338  0.842270  1
  I  I22  1  0.535544  0.997388  0.197257  1
  I  I23  1  0.823317  0.629053  0.840882  1
  O  O24  1  0.714872  0.659934  0.329302  1
  O  O25  1  0.492190  0.373249  0.003403  1
  O  O26  1  0.572205  0.655706  0.821040  1
  O  O27  1  0.163986  0.397619  0.072092  1
  O  O28  1  0.836286  0.448616  0.676005  1
  O  O29  1  0.209285  0.842953  0.408458  1
  O  O30  1  0.751580  0.594265  0.001171  1
  O  O31  1  0.512657  0.963689  0.041193  1
  O  O32  1  0.907032  0.867073  0.083572  1
  O  O33  1  0.671703  0.189531  0.247046  1
  O  O34  1  0.039284  0.948626  0.176008  1
  O  O35  1  0.961502  0.610509  0.181181  1
  O  O36  1  0.891867  0.689522  0.747056  1
  O  O37  1  0.600559  0.592971  0.240980  1
  O  O38  1  0.716251  0.866936  0.656808  1
  O  O39  1  0.167572  0.920522  0.005273  1
  O  O40  1  0.131209  0.873239  0.503406  1
  O  O41  1  0.652988  0.094290  0.501154  1
  O  O42  1  0.142307  0.367034  0.583586  1
  O  O43  1  0.405296  0.592705  0.088723  1
  O  O44  1  0.391130  0.257427  0.168365  1
  O  O45  1  0.295799  0.159828  0.829281  1
  O  O46  1  0.182975  0.757386  0.668390  1
  O  O47  1  0.565571  0.092884  0.740981  1
  O  O48  1  0.927793  0.178684  0.759744  1
  O  O49  1  0.501668  0.855956  0.149985  1
  O  O50  1  0.186445  0.566116  0.866088  1
  O  O51  1  0.222527  0.914473  0.905882  1
  O  O52  1  0.906495  0.420578  0.505296  1
  O  O53  1  0.032811  0.708115  0.358588  1
  O  O54  1  0.133822  0.678774  0.259762  1
  O  O55  1  0.299367  0.427824  0.461397  1
  O  O56  1  0.328004  0.026845  0.247464  1
  O  O57  1  0.828632  0.751527  0.555404  1
  O  O58  1  0.757809  0.905082  0.841730  1
  O  O59  1  0.900362  0.208076  0.858576  1
  O  O60  1  0.951057  0.155696  0.321051  1
  O  O61  1  0.397705  0.526739  0.747471  1
  O  O62  1  0.811267  0.927848  0.961427  1
  O  O63  1  0.482315  0.463697  0.541173  1
  O  O64  1  0.913399  0.092681  0.588725  1
  O  O65  1  0.246959  0.110428  0.681164  1
  O  O66  1  0.731324  0.098319  0.406878  1
  O  O67  1  0.565643  0.798272  0.447016  1
  O  O68  1  0.366454  0.897548  0.572095  1
  O  O69  1  0.381260  0.066247  0.366080  1
  O  O70  1  0.539350  0.342951  0.908467  1
  O  O71  1  0.864500  0.251502  0.055394  1
  O  O72  1  0.760070  0.366941  0.156813  1
  O  O73  1  0.189158  0.298262  0.947030  1
  O  O74  1  0.763487  0.598266  0.906889  1
  O  O75  1  0.956986  0.414505  0.405909  1
  O  O76  1  0.492326  0.355979  0.649997  1
  O  O77  1  0.495275  0.405095  0.341713  1
