# generated using pymatgen
data_Cs5Mo21Se23
_symmetry_space_group_name_H-M   'P 1'
_cell_length_a   9.88779977
_cell_length_b   9.88779979
_cell_length_c   30.19939650
_cell_angle_alpha   90.00000000
_cell_angle_beta   90.00000000
_cell_angle_gamma   119.99999996
_symmetry_Int_Tables_number   1
_chemical_formula_structural   Cs5Mo21Se23
_chemical_formula_sum   'Cs10 Mo42 Se46'
_cell_volume   2556.98525277
_cell_formula_units_Z   2
loop_
 _symmetry_equiv_pos_site_id
 _symmetry_equiv_pos_as_xyz
  1  'x, y, z'
loop_
 _atom_site_type_symbol
 _atom_site_label
 _atom_site_symmetry_multiplicity
 _atom_site_fract_x
 _atom_site_fract_y
 _atom_site_fract_z
 _atom_site_occupancy
  Cs  Cs0  1  0.666667  0.333333  0.332834  1
  Cs  Cs1  1  0.000000  0.000000  0.750000  1
  Cs  Cs2  1  0.666667  0.333333  0.167166  1
  Cs  Cs3  1  0.000000  0.000000  0.093482  1
  Cs  Cs4  1  0.333333  0.666667  0.667166  1
  Cs  Cs5  1  0.000000  0.000000  0.906518  1
  Cs  Cs6  1  0.000000  0.000000  0.593482  1
  Cs  Cs7  1  0.000000  0.000000  0.406518  1
  Cs  Cs8  1  0.000000  0.000000  0.250000  1
  Cs  Cs9  1  0.333333  0.666667  0.832834  1
  Mo  Mo10  1  0.498251  0.687297  0.250000  1
  Mo  Mo11  1  0.168509  0.646562  0.174809  1
  Mo  Mo12  1  0.831491  0.353438  0.825191  1
  Mo  Mo13  1  0.501749  0.312703  0.750000  1
  Mo  Mo14  1  0.646204  0.477468  0.976031  1
  Mo  Mo15  1  0.521947  0.168509  0.825191  1
  Mo  Mo16  1  0.478053  0.831491  0.174809  1
  Mo  Mo17  1  0.501911  0.315800  0.899975  1
  Mo  Mo18  1  0.646562  0.478053  0.674809  1
  Mo  Mo19  1  0.810955  0.498251  0.750000  1
  Mo  Mo20  1  0.353438  0.521947  0.325191  1
  Mo  Mo21  1  0.189045  0.501749  0.250000  1
  Mo  Mo22  1  0.353796  0.522532  0.023969  1
  Mo  Mo23  1  0.684200  0.186111  0.899975  1
  Mo  Mo24  1  0.168736  0.646204  0.476031  1
  Mo  Mo25  1  0.522532  0.168736  0.523969  1
  Mo  Mo26  1  0.186111  0.501911  0.100025  1
  Mo  Mo27  1  0.646562  0.478053  0.825191  1
  Mo  Mo28  1  0.501911  0.315800  0.600025  1
  Mo  Mo29  1  0.315800  0.813889  0.100025  1
  Mo  Mo30  1  0.521947  0.168509  0.674809  1
  Mo  Mo31  1  0.646204  0.477468  0.523969  1
  Mo  Mo32  1  0.684200  0.186111  0.600025  1
  Mo  Mo33  1  0.186111  0.501911  0.399975  1
  Mo  Mo34  1  0.687297  0.189045  0.750000  1
  Mo  Mo35  1  0.831491  0.353438  0.674809  1
  Mo  Mo36  1  0.353438  0.521947  0.174809  1
  Mo  Mo37  1  0.353796  0.522532  0.476031  1
  Mo  Mo38  1  0.477468  0.831264  0.023969  1
  Mo  Mo39  1  0.813889  0.498089  0.899975  1
  Mo  Mo40  1  0.831264  0.353796  0.976031  1
  Mo  Mo41  1  0.498089  0.684200  0.399975  1
  Mo  Mo42  1  0.831264  0.353796  0.523969  1
  Mo  Mo43  1  0.315800  0.813889  0.399975  1
  Mo  Mo44  1  0.813889  0.498089  0.600025  1
  Mo  Mo45  1  0.168509  0.646562  0.325191  1
  Mo  Mo46  1  0.312703  0.810955  0.250000  1
  Mo  Mo47  1  0.498089  0.684200  0.100025  1
  Mo  Mo48  1  0.522532  0.168736  0.976031  1
  Mo  Mo49  1  0.477468  0.831264  0.476031  1
  Mo  Mo50  1  0.478053  0.831491  0.325191  1
  Mo  Mo51  1  0.168736  0.646204  0.023969  1
  Se  Se52  1  0.703401  0.046622  0.529141  1
  Se  Se53  1  0.012080  0.630817  0.099150  1
  Se  Se54  1  0.296599  0.953378  0.029141  1
  Se  Se55  1  0.623532  0.617598  0.750000  1
  Se  Se56  1  0.708420  0.048300  0.824760  1
  Se  Se57  1  0.666667  0.333333  0.043154  1
  Se  Se58  1  0.012080  0.630817  0.400850  1
  Se  Se59  1  0.987920  0.369183  0.900850  1
  Se  Se60  1  0.630817  0.618737  0.900850  1
  Se  Se61  1  0.333333  0.666667  0.956846  1
  Se  Se62  1  0.382402  0.005934  0.750000  1
  Se  Se63  1  0.951700  0.660121  0.824760  1
  Se  Se64  1  0.994066  0.376468  0.750000  1
  Se  Se65  1  0.046622  0.343221  0.029141  1
  Se  Se66  1  0.369183  0.381263  0.099150  1
  Se  Se67  1  0.048300  0.339879  0.175240  1
  Se  Se68  1  0.951700  0.660121  0.675240  1
  Se  Se69  1  0.333333  0.666667  0.543154  1
  Se  Se70  1  0.291580  0.951700  0.175240  1
  Se  Se71  1  0.291580  0.951700  0.324760  1
  Se  Se72  1  0.296599  0.953378  0.470859  1
  Se  Se73  1  0.987920  0.369183  0.599150  1
  Se  Se74  1  0.630817  0.618737  0.599150  1
  Se  Se75  1  0.703401  0.046622  0.970859  1
  Se  Se76  1  0.618737  0.987920  0.099150  1
  Se  Se77  1  0.048300  0.339879  0.324760  1
  Se  Se78  1  0.381263  0.012080  0.599150  1
  Se  Se79  1  0.005934  0.623532  0.250000  1
  Se  Se80  1  0.656779  0.703401  0.029141  1
  Se  Se81  1  0.618737  0.987920  0.400850  1
  Se  Se82  1  0.343221  0.296599  0.970859  1
  Se  Se83  1  0.953378  0.656779  0.970859  1
  Se  Se84  1  0.376468  0.382402  0.250000  1
  Se  Se85  1  0.369183  0.381263  0.400850  1
  Se  Se86  1  0.617598  0.994066  0.250000  1
  Se  Se87  1  0.339879  0.291580  0.824760  1
  Se  Se88  1  0.660121  0.708420  0.175240  1
  Se  Se89  1  0.339879  0.291580  0.675240  1
  Se  Se90  1  0.660121  0.708420  0.324760  1
  Se  Se91  1  0.708420  0.048300  0.675240  1
  Se  Se92  1  0.046622  0.343221  0.470859  1
  Se  Se93  1  0.656779  0.703401  0.470859  1
  Se  Se94  1  0.953378  0.656779  0.529141  1
  Se  Se95  1  0.343221  0.296599  0.529141  1
  Se  Se96  1  0.381263  0.012080  0.900850  1
  Se  Se97  1  0.666667  0.333333  0.456846  1
