# generated using pymatgen
data_Li4Ni3P4O15
_symmetry_space_group_name_H-M   'P 1'
_cell_length_a   17.49305812
_cell_length_b   10.32644362
_cell_length_c   6.43708590
_cell_angle_alpha   90.00000000
_cell_angle_beta   90.00000000
_cell_angle_gamma   90.00000000
_symmetry_Int_Tables_number   1
_chemical_formula_structural   Li4Ni3P4O15
_chemical_formula_sum   'Li16 Ni12 P16 O60'
_cell_volume   1162.80213884
_cell_formula_units_Z   4
loop_
 _symmetry_equiv_pos_site_id
 _symmetry_equiv_pos_as_xyz
  1  'x, y, z'
loop_
 _atom_site_type_symbol
 _atom_site_label
 _atom_site_symmetry_multiplicity
 _atom_site_fract_x
 _atom_site_fract_y
 _atom_site_fract_z
 _atom_site_occupancy
  Li  Li0  1  0.001471  0.519366  0.234856  1
  Li  Li1  1  0.031744  0.953300  0.117716  1
  Li  Li2  1  0.097896  0.177087  0.840169  1
  Li  Li3  1  0.209082  0.767648  0.292993  1
  Li  Li4  1  0.290918  0.267648  0.792993  1
  Li  Li5  1  0.402104  0.677087  0.340169  1
  Li  Li6  1  0.468256  0.453300  0.617716  1
  Li  Li7  1  0.498529  0.019366  0.734856  1
  Li  Li8  1  0.501471  0.980634  0.234856  1
  Li  Li9  1  0.531744  0.546700  0.117716  1
  Li  Li10  1  0.597896  0.322913  0.840169  1
  Li  Li11  1  0.709082  0.732352  0.292993  1
  Li  Li12  1  0.790918  0.232352  0.792993  1
  Li  Li13  1  0.902104  0.822913  0.340169  1
  Li  Li14  1  0.968256  0.046700  0.617716  1
  Li  Li15  1  0.998529  0.480634  0.734856  1
  Ni  Ni16  1  0.132479  0.512366  0.489384  1
  Ni  Ni17  1  0.171098  1.000190  0.504447  1
  Ni  Ni18  1  0.236320  0.258362  0.231742  1
  Ni  Ni19  1  0.263680  0.758362  0.731742  1
  Ni  Ni20  1  0.328902  0.500190  0.004447  1
  Ni  Ni21  1  0.367521  0.012366  0.989384  1
  Ni  Ni22  1  0.632479  0.987634  0.489384  1
  Ni  Ni23  1  0.671098  0.499810  0.504447  1
  Ni  Ni24  1  0.736320  0.241638  0.231742  1
  Ni  Ni25  1  0.763680  0.741638  0.731742  1
  Ni  Ni26  1  0.828902  -0.000190  0.004447  1
  Ni  Ni27  1  0.867521  0.487634  0.989384  1
  O  O28  1  0.004216  0.877437  0.406264  1
  O  O29  1  0.019478  0.810334  0.777899  1
  O  O30  1  0.032298  0.637311  0.494696  1
  O  O31  1  0.047991  0.373739  0.459251  1
  O  O32  1  0.081117  0.137323  0.532408  1
  O  O33  1  0.118124  0.504904  0.798674  1
  O  O34  1  0.119572  0.235807  0.184654  1
  O  O35  1  0.123612  0.545090  0.181220  1
  O  O36  1  0.134134  0.810426  0.541699  1
  O  O37  1  0.155744  0.015785  0.815073  1
  O  O38  1  0.159516  0.958296  0.189561  1
  O  O39  1  0.225430  0.396244  0.002284  1
  O  O40  1  0.233035  0.631961  0.966859  1
  O  O41  1  0.228733  0.388047  0.464574  1
  O  O42  1  0.239898  0.620252  0.522646  1
  O  O43  1  0.260102  0.120252  0.022646  1
  O  O44  1  0.271267  0.888047  0.964574  1
  O  O45  1  0.266965  0.131961  0.466859  1
  O  O46  1  0.274570  0.896244  0.502284  1
  O  O47  1  0.340484  0.458296  0.689561  1
  O  O48  1  0.344256  0.515785  0.315073  1
  O  O49  1  0.365866  0.310426  0.041699  1
  O  O50  1  0.376388  0.045090  0.681220  1
  O  O51  1  0.380428  0.735807  0.684654  1
  O  O52  1  0.381876  0.004904  0.298674  1
  O  O53  1  0.418883  0.637323  0.032408  1
  O  O54  1  0.452009  0.873739  0.959251  1
  O  O55  1  0.467702  0.137311  0.994696  1
  O  O56  1  0.480521  0.310334  0.277899  1
  O  O57  1  0.495784  0.377437  0.906264  1
  O  O58  1  0.504216  0.622563  0.406264  1
  O  O59  1  0.519478  0.689666  0.777899  1
  O  O60  1  0.532298  0.862689  0.494696  1
  O  O61  1  0.547991  0.126261  0.459251  1
  O  O62  1  0.581117  0.362677  0.532408  1
  O  O63  1  0.618124  0.995096  0.798674  1
  O  O64  1  0.619572  0.264193  0.184654  1
  O  O65  1  0.623612  0.954910  0.181220  1
  O  O66  1  0.634134  0.689574  0.541699  1
  O  O67  1  0.655744  0.484215  0.815073  1
  O  O68  1  0.659516  0.541704  0.189561  1
  O  O69  1  0.725429  0.103756  0.002284  1
  O  O70  1  0.733035  0.868039  0.966859  1
  O  O71  1  0.728733  0.111953  0.464574  1
  O  O72  1  0.739898  0.879748  0.522646  1
  O  O73  1  0.760102  0.379748  0.022646  1
  O  O74  1  0.771267  0.611953  0.964574  1
  O  O75  1  0.766965  0.368039  0.466859  1
  O  O76  1  0.774571  0.603756  0.502284  1
  O  O77  1  0.840484  0.041704  0.689561  1
  O  O78  1  0.844256  0.984215  0.315073  1
  O  O79  1  0.865866  0.189574  0.041699  1
  O  O80  1  0.876388  0.454910  0.681220  1
  O  O81  1  0.880428  0.764193  0.684654  1
  O  O82  1  0.881876  0.495096  0.298674  1
  O  O83  1  0.918883  0.862677  0.032408  1
  O  O84  1  0.952009  0.626261  0.959251  1
  O  O85  1  0.967702  0.362689  0.994696  1
  O  O86  1  0.980522  0.189666  0.277899  1
  O  O87  1  0.995784  0.122563  0.906264  1
  P  P88  1  0.048788  0.780290  0.540007  1
  P  P89  1  0.063158  0.239652  0.365691  1
  P  P90  1  0.171597  0.519380  0.985812  1
  P  P91  1  0.209264  0.995224  -0.000483  1
  P  P92  1  0.290736  0.495225  0.499517  1
  P  P93  1  0.328403  0.019380  0.485812  1
  P  P94  1  0.436842  0.739652  0.865691  1
  P  P95  1  0.451212  0.280290  0.040007  1
  P  P96  1  0.548788  0.719710  0.540007  1
  P  P97  1  0.563158  0.260348  0.365691  1
  P  P98  1  0.671597  0.980620  0.985812  1
  P  P99  1  0.709264  0.504776  -0.000483  1
  P  P100  1  0.790736  0.004776  0.499517  1
  P  P101  1  0.828403  0.480620  0.485812  1
  P  P102  1  0.936842  0.760348  0.865691  1
  P  P103  1  0.951212  0.219710  0.040007  1
