# generated using pymatgen
data_K2Zn(SiO3)2
_symmetry_space_group_name_H-M   'P 1'
_cell_length_a   5.80540826
_cell_length_b   5.80540892
_cell_length_c   10.57091441
_cell_angle_alpha   90.00000000
_cell_angle_beta   90.00000000
_cell_angle_gamma   113.21660841
_symmetry_Int_Tables_number   1
_chemical_formula_structural   K2Zn(SiO3)2
_chemical_formula_sum   'K4 Zn2 Si4 O12'
_cell_volume   327.41880935
_cell_formula_units_Z   2
loop_
 _symmetry_equiv_pos_site_id
 _symmetry_equiv_pos_as_xyz
  1  'x, y, z'
loop_
 _atom_site_type_symbol
 _atom_site_label
 _atom_site_symmetry_multiplicity
 _atom_site_fract_x
 _atom_site_fract_y
 _atom_site_fract_z
 _atom_site_occupancy
  K  K0  1  0.281237  0.935147  0.575436  1
  K  K1  1  0.064853  0.718763  0.924564  1
  K  K2  1  0.718763  0.064853  0.075436  1
  K  K3  1  0.935147  0.281237  0.424564  1
  Zn  Zn4  1  0.193521  0.806479  0.250000  1
  Zn  Zn5  1  0.806479  0.193521  0.750000  1
  Si  Si6  1  0.365350  0.330812  0.863150  1
  Si  Si7  1  0.330812  0.365350  0.136850  1
  Si  Si8  1  0.669188  0.634650  0.636850  1
  Si  Si9  1  0.634650  0.669188  0.363150  1
  O  O10  1  0.547469  0.452531  0.250000  1
  O  O11  1  0.520164  0.878734  0.336540  1
  O  O12  1  0.515475  0.515475  0.500000  1
  O  O13  1  0.878734  0.520164  0.663460  1
  O  O14  1  0.479836  0.121266  0.836540  1
  O  O15  1  0.061930  0.218385  0.875986  1
  O  O16  1  0.938070  0.781615  0.375986  1
  O  O17  1  0.452531  0.547469  0.750000  1
  O  O18  1  0.121266  0.479836  0.163460  1
  O  O19  1  0.218385  0.061930  0.124014  1
  O  O20  1  0.781615  0.938070  0.624014  1
  O  O21  1  0.484525  0.484525  0.000000  1
