# generated using pymatgen
data_CdI2
_symmetry_space_group_name_H-M   'P 1'
_cell_length_a   4.33562154
_cell_length_b   4.33562181
_cell_length_c   89.78258394
_cell_angle_alpha   90.00000000
_cell_angle_beta   90.00000000
_cell_angle_gamma   119.99999792
_symmetry_Int_Tables_number   1
_chemical_formula_structural   CdI2
_chemical_formula_sum   'Cd12 I24'
_cell_volume   1461.58978436
_cell_formula_units_Z   12
loop_
 _symmetry_equiv_pos_site_id
 _symmetry_equiv_pos_as_xyz
  1  'x, y, z'
loop_
 _atom_site_type_symbol
 _atom_site_label
 _atom_site_symmetry_multiplicity
 _atom_site_fract_x
 _atom_site_fract_y
 _atom_site_fract_z
 _atom_site_occupancy
  Cd  Cd0  1  0.000000  0.000000  0.270815  1
  Cd  Cd1  1  0.666667  0.333333  0.020857  1
  Cd  Cd2  1  0.666667  0.333333  0.187527  1
  Cd  Cd3  1  0.000000  0.000000  0.854162  1
  Cd  Cd4  1  0.000000  0.000000  0.104147  1
  Cd  Cd5  1  0.666667  0.333333  0.354197  1
  Cd  Cd6  1  0.000000  0.000000  0.520824  1
  Cd  Cd7  1  0.000000  0.000000  0.770816  1
  Cd  Cd8  1  0.666667  0.333333  0.937498  1
  Cd  Cd9  1  0.666667  0.333333  0.687522  1
  Cd  Cd10  1  0.000000  0.000000  0.437483  1
  Cd  Cd11  1  0.666667  0.333333  0.604161  1
  I  I12  1  0.000000  0.000000  0.168332  1
  I  I13  1  0.666667  0.333333  0.834974  1
  I  I14  1  0.333333  0.666667  0.790008  1
  I  I15  1  0.666667  0.333333  0.084953  1
  I  I16  1  0.333333  0.666667  0.456674  1
  I  I17  1  0.333333  0.666667  0.206719  1
  I  I18  1  0.333333  0.666667  0.956689  1
  I  I19  1  0.000000  0.000000  0.668328  1
  I  I20  1  0.666667  0.333333  0.501638  1
  I  I21  1  0.666667  0.333333  0.751621  1
  I  I22  1  0.000000  0.000000  0.918302  1
  I  I23  1  0.000000  0.000000  0.584966  1
  I  I24  1  0.333333  0.666667  0.540011  1
  I  I25  1  0.333333  0.666667  0.123339  1
  I  I26  1  0.333333  0.666667  0.040047  1
  I  I27  1  0.000000  0.000000  0.001664  1
  I  I28  1  0.333333  0.666667  0.290007  1
  I  I29  1  0.333333  0.666667  0.373394  1
  I  I30  1  0.000000  0.000000  0.335002  1
  I  I31  1  0.333333  0.666667  0.623353  1
  I  I32  1  0.666667  0.333333  0.418288  1
  I  I33  1  0.333333  0.666667  0.706714  1
  I  I34  1  0.666667  0.333333  0.251620  1
  I  I35  1  0.333333  0.666667  0.873348  1
