# generated using pymatgen
data_KInSe2
_symmetry_space_group_name_H-M   'P 1'
_cell_length_a   8.25581870
_cell_length_b   8.25581893
_cell_length_c   15.95905288
_cell_angle_alpha   82.57018931
_cell_angle_beta   82.57018908
_cell_angle_gamma   89.97008721
_symmetry_Int_Tables_number   1
_chemical_formula_structural   KInSe2
_chemical_formula_sum   'K8 In8 Se16'
_cell_volume   1069.41193763
_cell_formula_units_Z   8
loop_
 _symmetry_equiv_pos_site_id
 _symmetry_equiv_pos_as_xyz
  1  'x, y, z'
loop_
 _atom_site_type_symbol
 _atom_site_label
 _atom_site_symmetry_multiplicity
 _atom_site_fract_x
 _atom_site_fract_y
 _atom_site_fract_z
 _atom_site_occupancy
  In  In0  1  0.289145  0.912332  0.843834  1
  In  In1  1  0.087668  0.710855  0.656166  1
  In  In2  1  0.710855  0.087668  0.156166  1
  In  In3  1  0.912332  0.289145  0.343834  1
  In  In4  1  0.584358  0.710905  0.656422  1
  In  In5  1  0.289095  0.415642  0.843578  1
  In  In6  1  0.415642  0.289095  0.343578  1
  In  In7  1  0.710905  0.584358  0.156422  1
  Se  Se8  1  0.575269  0.951155  0.749802  1
  Se  Se9  1  0.048845  0.424731  0.750198  1
  Se  Se10  1  0.424731  0.048845  0.250198  1
  Se  Se11  1  0.951155  0.575269  0.249802  1
  Se  Se12  1  0.262532  0.138811  0.945808  1
  Se  Se13  1  0.861189  0.737468  0.554192  1
  Se  Se14  1  0.737468  0.861189  0.054192  1
  Se  Se15  1  0.138811  0.262532  0.445808  1
  Se  Se16  1  0.049569  0.950431  0.750000  1
  Se  Se17  1  0.950431  0.049569  0.250000  1
  Se  Se18  1  0.263588  0.638015  0.946906  1
  Se  Se19  1  0.361985  0.736412  0.553094  1
  Se  Se20  1  0.736412  0.361985  0.053094  1
  Se  Se21  1  0.638015  0.263588  0.446906  1
  Se  Se22  1  0.575646  0.424354  0.750000  1
  Se  Se23  1  0.424354  0.575646  0.250000  1
  K  K24  1  0.780377  0.153697  0.886257  1
  K  K25  1  0.846303  0.219623  0.613743  1
  K  K26  1  0.219623  0.846303  0.113743  1
  K  K27  1  0.153697  0.780377  0.386257  1
  K  K28  1  0.343998  0.220714  0.618567  1
  K  K29  1  0.779286  0.656002  0.881433  1
  K  K30  1  0.656002  0.779286  0.381433  1
  K  K31  1  0.220714  0.343998  0.118567  1
