# generated using pymatgen
data_Li3Fe2(PO4)3
_symmetry_space_group_name_H-M   'P 1'
_cell_length_a   8.80144520
_cell_length_b   8.80144501
_cell_length_c   8.65729018
_cell_angle_alpha   57.71488499
_cell_angle_beta   122.28511426
_cell_angle_gamma   120.17332233
_symmetry_Int_Tables_number   1
_chemical_formula_structural   Li3Fe2(PO4)3
_chemical_formula_sum   'Li6 Fe4 P6 O24'
_cell_volume   456.61299706
_cell_formula_units_Z   2
loop_
 _symmetry_equiv_pos_site_id
 _symmetry_equiv_pos_as_xyz
  1  'x, y, z'
loop_
 _atom_site_type_symbol
 _atom_site_label
 _atom_site_symmetry_multiplicity
 _atom_site_fract_x
 _atom_site_fract_y
 _atom_site_fract_z
 _atom_site_occupancy
  Li  Li0  1  0.746872  0.142357  0.259352  1
  Li  Li1  1  0.142357  0.746872  0.240648  1
  Li  Li2  1  0.857643  0.253128  0.759352  1
  Li  Li3  1  0.000000  0.500000  0.000000  1
  Li  Li4  1  0.253128  0.857643  0.740648  1
  Li  Li5  1  0.500000  0.000000  0.500000  1
  Fe  Fe6  1  0.146977  0.359460  0.432758  1
  Fe  Fe7  1  0.640540  0.853023  0.932758  1
  Fe  Fe8  1  0.853023  0.640540  0.567242  1
  Fe  Fe9  1  0.359460  0.146977  0.067242  1
  P  P10  1  0.950915  0.950915  0.750000  1
  P  P11  1  0.747106  0.444459  0.267688  1
  P  P12  1  0.252894  0.555541  0.732312  1
  P  P13  1  0.049085  0.049085  0.250000  1
  P  P14  1  0.444459  0.747106  0.232312  1
  P  P15  1  0.555541  0.252894  0.767688  1
  O  O16  1  0.055926  0.234412  0.238753  1
  O  O17  1  0.905774  0.448321  0.231649  1
  O  O18  1  0.596098  0.248116  0.274842  1
  O  O19  1  0.982642  0.117790  0.561356  1
  O  O20  1  0.322151  0.387369  0.901282  1
  O  O21  1  0.387369  0.322151  0.598718  1
  O  O22  1  0.248116  0.596098  0.225158  1
  O  O23  1  0.612631  0.677849  0.401282  1
  O  O24  1  0.542957  0.186835  0.966097  1
  O  O25  1  0.677849  0.612631  0.098718  1
  O  O26  1  0.765588  0.944074  0.738753  1
  O  O27  1  0.882210  0.017358  0.061356  1
  O  O28  1  0.017358  0.882210  0.438644  1
  O  O29  1  0.234412  0.055926  0.261247  1
  O  O30  1  0.117790  0.982642  0.938644  1
  O  O31  1  0.944074  0.765588  0.761247  1
  O  O32  1  0.186835  0.542957  0.533903  1
  O  O33  1  0.751884  0.403902  0.774842  1
  O  O34  1  0.813165  0.457043  0.466097  1
  O  O35  1  0.094226  0.551679  0.768351  1
  O  O36  1  0.448321  0.905774  0.268351  1
  O  O37  1  0.403902  0.751884  0.725158  1
  O  O38  1  0.457043  0.813165  0.033903  1
  O  O39  1  0.551679  0.094226  0.731649  1
