# generated using pymatgen
data_Ce2Ge4Pt7
_symmetry_space_group_name_H-M   'P 1'
_cell_length_a   4.10844421
_cell_length_b   11.59261407
_cell_length_c   20.11886735
_cell_angle_alpha   90.00000000
_cell_angle_beta   90.00000000
_cell_angle_gamma   90.00000000
_symmetry_Int_Tables_number   1
_chemical_formula_structural   Ce2Ge4Pt7
_chemical_formula_sum   'Ce8 Ge16 Pt28'
_cell_volume   958.21353066
_cell_formula_units_Z   4
loop_
 _symmetry_equiv_pos_site_id
 _symmetry_equiv_pos_as_xyz
  1  'x, y, z'
loop_
 _atom_site_type_symbol
 _atom_site_label
 _atom_site_symmetry_multiplicity
 _atom_site_fract_x
 _atom_site_fract_y
 _atom_site_fract_z
 _atom_site_occupancy
  Ce  Ce0  1  0.750000  0.743091  0.028089  1
  Ce  Ce1  1  0.750000  0.756909  0.528089  1
  Ce  Ce2  1  0.250000  0.256909  0.971911  1
  Ce  Ce3  1  0.250000  0.013981  0.280641  1
  Ce  Ce4  1  0.250000  0.243091  0.471911  1
  Ce  Ce5  1  0.750000  0.986019  0.719359  1
  Ce  Ce6  1  0.250000  0.486019  0.780641  1
  Ce  Ce7  1  0.750000  0.513981  0.219359  1
  Ge  Ge8  1  0.750000  0.422904  0.414387  1
  Ge  Ge9  1  0.250000  0.292927  0.255778  1
  Ge  Ge10  1  0.250000  0.564115  0.086827  1
  Ge  Ge11  1  0.250000  0.922904  0.085613  1
  Ge  Ge12  1  0.250000  0.207073  0.755778  1
  Ge  Ge13  1  0.750000  0.246852  0.594864  1
  Ge  Ge14  1  0.750000  0.435885  0.913173  1
  Ge  Ge15  1  0.250000  0.746852  0.905136  1
  Ge  Ge16  1  0.250000  0.935885  0.586827  1
  Ge  Ge17  1  0.750000  0.064115  0.413173  1
  Ge  Ge18  1  0.750000  0.707073  0.744222  1
  Ge  Ge19  1  0.750000  0.792927  0.244222  1
  Ge  Ge20  1  0.250000  0.753148  0.405136  1
  Ge  Ge21  1  0.750000  0.253148  0.094864  1
  Ge  Ge22  1  0.250000  0.577096  0.585613  1
  Ge  Ge23  1  0.750000  0.077096  0.914387  1
  Pt  Pt24  1  0.750000  0.452497  0.041359  1
  Pt  Pt25  1  0.750000  0.620617  0.370145  1
  Pt  Pt26  1  0.750000  0.436868  0.534888  1
  Pt  Pt27  1  0.750000  0.879383  0.870145  1
  Pt  Pt28  1  0.750000  0.063132  0.034888  1
  Pt  Pt29  1  0.250000  0.547503  0.958641  1
  Pt  Pt30  1  0.250000  0.120617  0.129855  1
  Pt  Pt31  1  0.750000  0.551512  0.661949  1
  Pt  Pt32  1  0.750000  0.948488  0.161949  1
  Pt  Pt33  1  0.750000  0.256515  0.848520  1
  Pt  Pt34  1  0.250000  0.743485  0.151480  1
  Pt  Pt35  1  0.250000  0.379383  0.629855  1
  Pt  Pt36  1  0.250000  0.821514  0.782936  1
  Pt  Pt37  1  0.750000  0.243485  0.348520  1
  Pt  Pt38  1  0.750000  0.870802  0.363031  1
  Pt  Pt39  1  0.250000  0.936868  0.965112  1
  Pt  Pt40  1  0.250000  0.678486  0.282936  1
  Pt  Pt41  1  0.750000  0.321514  0.717064  1
  Pt  Pt42  1  0.750000  0.629198  0.863031  1
  Pt  Pt43  1  0.250000  0.051512  0.838051  1
  Pt  Pt44  1  0.250000  0.129198  0.636969  1
  Pt  Pt45  1  0.250000  0.952497  0.458641  1
  Pt  Pt46  1  0.750000  0.047503  0.541359  1
  Pt  Pt47  1  0.250000  0.563132  0.465112  1
  Pt  Pt48  1  0.250000  0.448488  0.338051  1
  Pt  Pt49  1  0.250000  0.756515  0.651480  1
  Pt  Pt50  1  0.250000  0.370802  0.136969  1
  Pt  Pt51  1  0.750000  0.178486  0.217064  1
