# generated using pymatgen
data_As2Se2S(NF6)2
_symmetry_space_group_name_H-M   'P 1'
_cell_length_a   7.79320827
_cell_length_b   7.79320884
_cell_length_c   10.94276936
_cell_angle_alpha   87.08508036
_cell_angle_beta   87.08508015
_cell_angle_gamma   68.74913733
_symmetry_Int_Tables_number   1
_chemical_formula_structural   As2Se2S(NF6)2
_chemical_formula_sum   'As4 Se4 S2 N4 F24'
_cell_volume   618.23130125
_cell_formula_units_Z   2
loop_
 _symmetry_equiv_pos_site_id
 _symmetry_equiv_pos_as_xyz
  1  'x, y, z'
loop_
 _atom_site_type_symbol
 _atom_site_label
 _atom_site_symmetry_multiplicity
 _atom_site_fract_x
 _atom_site_fract_y
 _atom_site_fract_z
 _atom_site_occupancy
  Se  Se0  1  0.845394  0.568211  0.857358  1
  Se  Se1  1  0.431789  0.154606  0.142642  1
  Se  Se2  1  0.861958  0.575905  0.638663  1
  Se  Se3  1  0.424095  0.138042  0.361337  1
  N  N4  1  0.615628  0.715237  0.863421  1
  N  N5  1  0.284763  0.384372  0.136579  1
  N  N6  1  0.633653  0.723798  0.627068  1
  N  N7  1  0.276202  0.366347  0.372932  1
  S  S8  1  0.501905  0.795021  0.743810  1
  S  S9  1  0.204979  0.498095  0.256190  1
  As  As10  1  0.383992  0.343993  0.747861  1
  As  As11  1  0.656007  0.616008  0.252139  1
  F  F12  1  0.447270  0.165620  0.863098  1
  F  F13  1  0.834380  0.552730  0.136902  1
  F  F14  1  0.312178  0.519933  0.632987  1
  F  F15  1  0.480067  0.687822  0.367013  1
  F  F16  1  0.604818  0.358040  0.743635  1
  F  F17  1  0.641960  0.395182  0.256365  1
  F  F18  1  0.452579  0.174254  0.634925  1
  F  F19  1  0.825746  0.547421  0.365075  1
  F  F20  1  0.154719  0.334206  0.751203  1
  F  F21  1  0.665794  0.845281  0.248797  1
  F  F22  1  0.306426  0.509499  0.862366  1
  F  F23  1  0.490501  0.693574  0.137634  1
  As  As24  1  0.002127  0.997873  0.500000  1
  F  F25  1  0.225773  0.940006  0.557256  1
  F  F26  1  0.059994  0.774227  0.442744  1
  F  F27  1  0.939036  0.221553  0.559383  1
  F  F28  1  0.778447  0.060964  0.440617  1
  F  F29  1  0.924770  0.917581  0.639844  1
  F  F30  1  0.082419  0.075230  0.360156  1
  As  As31  1  0.995063  0.004937  0.000000  1
  F  F32  1  0.189813  0.920649  0.900954  1
  F  F33  1  0.079351  0.810187  0.099046  1
  F  F34  1  0.876695  0.892306  0.917066  1
  F  F35  1  0.107694  0.123305  0.082934  1
  F  F36  1  0.903871  0.204435  0.901796  1
  F  F37  1  0.795565  0.096129  0.098204  1
