# generated using pymatgen
data_Ba5P9
_symmetry_space_group_name_H-M   'P 1'
_cell_length_a   9.45378284
_cell_length_b   9.45378311
_cell_length_c   10.92576560
_cell_angle_alpha   105.12294354
_cell_angle_beta   105.12294406
_cell_angle_gamma   113.38918928
_symmetry_Int_Tables_number   1
_chemical_formula_structural   Ba5P9
_chemical_formula_sum   'Ba10 P18'
_cell_volume   788.62024887
_cell_formula_units_Z   2
loop_
 _symmetry_equiv_pos_site_id
 _symmetry_equiv_pos_as_xyz
  1  'x, y, z'
loop_
 _atom_site_type_symbol
 _atom_site_label
 _atom_site_symmetry_multiplicity
 _atom_site_fract_x
 _atom_site_fract_y
 _atom_site_fract_z
 _atom_site_occupancy
  Ba  Ba0  1  0.011137  0.983916  0.633424  1
  Ba  Ba1  1  0.660803  0.160803  0.500000  1
  Ba  Ba2  1  0.627713  0.100492  0.866576  1
  Ba  Ba3  1  0.350492  0.377713  0.366576  1
  Ba  Ba4  1  0.682097  0.649955  0.781834  1
  Ba  Ba5  1  0.410803  0.410803  0.000000  1
  Ba  Ba6  1  0.150263  0.618122  0.718166  1
  Ba  Ba7  1  0.899955  0.432097  0.281834  1
  Ba  Ba8  1  0.868122  0.900263  0.218166  1
  Ba  Ba9  1  0.233916  0.761137  0.133424  1
  P  P10  1  0.614111  0.037444  0.145690  1
  P  P11  1  0.531791  0.805258  0.557152  1
  P  P12  1  0.767479  0.556822  0.520340  1
  P  P13  1  0.025902  0.025902  0.000000  1
  P  P14  1  0.224638  0.998106  0.942848  1
  P  P15  1  0.275902  0.775902  0.500000  1
  P  P16  1  0.036482  0.247140  0.479660  1
  P  P17  1  0.055258  0.281791  0.057152  1
  P  P18  1  0.248106  0.974638  0.442848  1
  P  P19  1  0.391273  0.192652  0.647701  1
  P  P20  1  0.287444  0.364111  0.645690  1
  P  P21  1  0.806822  0.517479  0.020340  1
  P  P22  1  0.891754  0.468421  0.854310  1
  P  P23  1  0.718421  0.641754  0.354310  1
  P  P24  1  0.497140  0.786482  0.979660  1
  P  P25  1  0.442652  0.141273  0.147701  1
  P  P26  1  0.544951  0.743572  0.352299  1
  P  P27  1  0.993572  0.294951  0.852299  1
