# generated using pymatgen
data_SiO2
_symmetry_space_group_name_H-M   'P 1'
_cell_length_a   5.76498262
_cell_length_b   5.76498265
_cell_length_c   11.31429953
_cell_angle_alpha   90.00000000
_cell_angle_beta   90.00000000
_cell_angle_gamma   94.07576519
_symmetry_Int_Tables_number   1
_chemical_formula_structural   SiO2
_chemical_formula_sum   'Si8 O16'
_cell_volume   375.08001878
_cell_formula_units_Z   8
loop_
 _symmetry_equiv_pos_site_id
 _symmetry_equiv_pos_as_xyz
  1  'x, y, z'
loop_
 _atom_site_type_symbol
 _atom_site_label
 _atom_site_symmetry_multiplicity
 _atom_site_fract_x
 _atom_site_fract_y
 _atom_site_fract_z
 _atom_site_occupancy
  Si  Si0  1  0.509744  0.381544  0.871237  1
  Si  Si1  1  0.618456  0.490256  0.371237  1
  Si  Si2  1  0.990256  0.118456  0.871237  1
  Si  Si3  1  0.009744  0.881544  0.128763  1
  Si  Si4  1  0.881544  0.009744  0.371237  1
  Si  Si5  1  0.490256  0.618456  0.128763  1
  Si  Si6  1  0.118456  0.990256  0.628763  1
  Si  Si7  1  0.381544  0.509744  0.628763  1
  O  O8  1  0.538714  0.538714  0.750000  1
  O  O9  1  0.750000  0.250000  0.872769  1
  O  O10  1  0.250000  0.250000  0.863760  1
  O  O11  1  0.500000  0.500000  0.500000  1
  O  O12  1  0.961286  0.961286  0.750000  1
  O  O13  1  0.750000  0.250000  0.372769  1
  O  O14  1  0.250000  0.750000  0.127231  1
  O  O15  1  0.750000  0.750000  0.136240  1
  O  O16  1  0.038714  0.038714  0.250000  1
  O  O17  1  0.500000  0.500000  0.000000  1
  O  O18  1  0.000000  0.000000  0.000000  1
  O  O19  1  0.461286  0.461286  0.250000  1
  O  O20  1  0.750000  0.750000  0.363760  1
  O  O21  1  0.250000  0.250000  0.636240  1
  O  O22  1  0.250000  0.750000  0.627231  1
  O  O23  1  0.000000  0.000000  0.500000  1
