# generated using pymatgen
data_Ba3Nb16O23
_symmetry_space_group_name_H-M   'P 1'
_cell_length_a   4.24082801
_cell_length_b   12.40273115
_cell_length_c   12.40273114
_cell_angle_alpha   118.44397560
_cell_angle_beta   90.00000000
_cell_angle_gamma   90.00000000
_symmetry_Int_Tables_number   1
_chemical_formula_structural   Ba3Nb16O23
_chemical_formula_sum   'Ba3 Nb16 O23'
_cell_volume   573.60658110
_cell_formula_units_Z   1
loop_
 _symmetry_equiv_pos_site_id
 _symmetry_equiv_pos_as_xyz
  1  'x, y, z'
loop_
 _atom_site_type_symbol
 _atom_site_label
 _atom_site_symmetry_multiplicity
 _atom_site_fract_x
 _atom_site_fract_y
 _atom_site_fract_z
 _atom_site_occupancy
  O  O0  1  0.499999  0.896923  0.103076  1
  O  O1  1  0.499999  0.103076  0.896923  1
  O  O2  1  0.499999  0.298353  0.701647  1
  O  O3  1  0.499999  0.701647  0.298353  1
  O  O4  1  0.000000  0.140599  0.539819  1
  O  O5  1  0.000000  0.859401  0.460181  1
  O  O6  1  0.000000  0.539819  0.140599  1
  O  O7  1  0.000000  0.460181  0.859401  1
  O  O8  1  0.499999  0.033960  0.634425  1
  O  O9  1  0.499999  0.966040  0.365575  1
  O  O10  1  0.499999  0.634425  0.033959  1
  O  O11  1  0.499999  0.365575  0.966041  1
  O  O12  1  0.000000  0.938039  0.739699  1
  O  O13  1  0.000000  0.061961  0.260301  1
  O  O14  1  0.000000  0.739699  0.938039  1
  O  O15  1  0.000000  0.260300  0.061961  1
  O  O16  1  0.499999  0.840832  0.840833  1
  O  O17  1  0.499999  0.159167  0.159167  1
  O  O18  1  0.000000  0.403498  0.596502  1
  O  O19  1  0.499999  0.500000  0.500000  1
  O  O20  1  0.000000  0.333872  0.333872  1
  O  O21  1  0.000000  0.596502  0.403498  1
  O  O22  1  0.000000  0.666128  0.666128  1
  Nb  Nb23  1  0.499999  0.862183  0.471705  1
  Nb  Nb24  1  0.499999  0.137817  0.528295  1
  Nb  Nb25  1  0.499999  0.471706  0.862184  1
  Nb  Nb26  1  0.499999  0.528295  0.137817  1
  Nb  Nb27  1  0.499999  0.932197  0.730191  1
  Nb  Nb28  1  0.499999  0.067802  0.269809  1
  Nb  Nb29  1  0.499999  0.730191  0.932198  1
  Nb  Nb30  1  0.499999  0.269810  0.067802  1
  Nb  Nb31  1  0.499999  0.398680  0.601320  1
  Nb  Nb32  1  0.499999  0.327691  0.327691  1
  Nb  Nb33  1  0.000000  0.772206  0.569318  1
  Nb  Nb34  1  0.000000  0.227794  0.430682  1
  Nb  Nb35  1  0.000000  0.569318  0.772206  1
  Nb  Nb36  1  0.000000  0.430682  0.227794  1
  Nb  Nb37  1  0.499999  0.672310  0.672309  1
  Nb  Nb38  1  0.499999  0.601320  0.398680  1
  Ba  Ba39  1  0.000000  0.798846  0.201154  1
  Ba  Ba40  1  0.000000  0.201154  0.798847  1
  Ba  Ba41  1  0.000000  0.000000  0.000000  1
