# generated using pymatgen
data_Cs2SnAs2Se9
_symmetry_space_group_name_H-M   'P 1'
_cell_length_a   7.42909259
_cell_length_b   7.99952475
_cell_length_c   18.19709443
_cell_angle_alpha   90.00000000
_cell_angle_beta   90.00000000
_cell_angle_gamma   115.21472106
_symmetry_Int_Tables_number   1
_chemical_formula_structural   Cs2SnAs2Se9
_chemical_formula_sum   'Cs4 Sn2 As4 Se18'
_cell_volume   978.39687706
_cell_formula_units_Z   2
loop_
 _symmetry_equiv_pos_site_id
 _symmetry_equiv_pos_as_xyz
  1  'x, y, z'
loop_
 _atom_site_type_symbol
 _atom_site_label
 _atom_site_symmetry_multiplicity
 _atom_site_fract_x
 _atom_site_fract_y
 _atom_site_fract_z
 _atom_site_occupancy
  Cs  Cs0  1  0.307727  0.242187  0.063467  1
  Cs  Cs1  1  0.914901  0.483210  0.791669  1
  Cs  Cs2  1  0.692273  0.757813  0.563467  1
  Cs  Cs3  1  0.085099  0.516790  0.291669  1
  Sn  Sn4  1  0.322712  0.118374  0.667949  1
  Sn  Sn5  1  0.677288  0.881626  0.167949  1
  As  As6  1  0.809119  0.935970  0.354653  1
  As  As7  1  0.638235  0.840631  0.953591  1
  As  As8  1  0.361765  0.159369  0.453591  1
  As  As9  1  0.190881  0.064030  0.854653  1
  Se  Se10  1  0.298549  0.792311  0.118406  1
  Se  Se11  1  0.972592  0.005720  0.753433  1
  Se  Se12  1  0.812520  0.227612  0.106136  1
  Se  Se13  1  0.567167  0.010129  0.292864  1
  Se  Se14  1  0.375451  0.412434  0.851385  1
  Se  Se15  1  0.292049  0.689582  0.995403  1
  Se  Se16  1  0.602683  0.535988  0.223696  1
  Se  Se17  1  0.624549  0.587566  0.351385  1
  Se  Se18  1  0.432833  0.989871  0.792864  1
  Se  Se19  1  0.800677  0.756203  0.048006  1
  Se  Se20  1  0.027408  0.994280  0.253433  1
  Se  Se21  1  0.255526  0.827119  0.478543  1
  Se  Se22  1  0.707951  0.310418  0.495403  1
  Se  Se23  1  0.397317  0.464012  0.723696  1
  Se  Se24  1  0.187480  0.772388  0.606136  1
  Se  Se25  1  0.199323  0.243797  0.548006  1
  Se  Se26  1  0.701451  0.207689  0.618406  1
  Se  Se27  1  0.744474  0.172881  0.978543  1
