# generated using pymatgen
data_Ca2NiOsO6
_symmetry_space_group_name_H-M   'P 1'
_cell_length_a   5.40496909
_cell_length_b   5.61569472
_cell_length_c   7.71227733
_cell_angle_alpha   90.00000000
_cell_angle_beta   90.26019831
_cell_angle_gamma   90.00000000
_symmetry_Int_Tables_number   1
_chemical_formula_structural   Ca2NiOsO6
_chemical_formula_sum   'Ca4 Ni2 Os2 O12'
_cell_volume   234.08569012
_cell_formula_units_Z   2
loop_
 _symmetry_equiv_pos_site_id
 _symmetry_equiv_pos_as_xyz
  1  'x, y, z'
loop_
 _atom_site_type_symbol
 _atom_site_label
 _atom_site_symmetry_multiplicity
 _atom_site_fract_x
 _atom_site_fract_y
 _atom_site_fract_z
 _atom_site_occupancy
  O  O0  1  0.686611  0.288803  0.448663  1
  O  O1  1  0.813389  0.788803  0.051337  1
  O  O2  1  0.313389  0.711197  0.551337  1
  O  O3  1  0.186611  0.211197  0.948663  1
  O  O4  1  0.208435  0.192450  0.547978  1
  O  O5  1  0.291565  0.692450  0.952022  1
  O  O6  1  0.791565  0.807550  0.452022  1
  O  O7  1  0.708435  0.307550  0.047978  1
  O  O8  1  0.095876  0.469620  0.241840  1
  O  O9  1  0.404124  0.969620  0.258160  1
  O  O10  1  0.904124  0.530380  0.758160  1
  O  O11  1  0.595876  0.030380  0.741840  1
  Ca  Ca12  1  0.985259  0.058890  0.251375  1
  Ca  Ca13  1  0.514741  0.558890  0.248625  1
  Ca  Ca14  1  0.485259  0.441110  0.751374  1
  Ca  Ca15  1  0.014741  0.941110  0.748626  1
  Ni  Ni16  1  0.000000  0.500000  0.500000  1
  Ni  Ni17  1  0.500000  0.000000  0.000000  1
  Os  Os18  1  0.500000  0.000000  0.500000  1
  Os  Os19  1  0.000000  0.500000  0.000000  1
