# generated using pymatgen
data_Ce(BO2)3
_symmetry_space_group_name_H-M   'P 1'
_cell_length_a   4.26268930
_cell_length_b   7.30804068
_cell_length_c   11.81006708
_cell_angle_alpha   90.00000000
_cell_angle_beta   90.00000000
_cell_angle_gamma   91.35578716
_symmetry_Int_Tables_number   1
_chemical_formula_structural   Ce(BO2)3
_chemical_formula_sum   'Ce4 B12 O24'
_cell_volume   367.80311158
_cell_formula_units_Z   4
loop_
 _symmetry_equiv_pos_site_id
 _symmetry_equiv_pos_as_xyz
  1  'x, y, z'
loop_
 _atom_site_type_symbol
 _atom_site_label
 _atom_site_symmetry_multiplicity
 _atom_site_fract_x
 _atom_site_fract_y
 _atom_site_fract_z
 _atom_site_occupancy
  Ce  Ce0  1  0.786215  0.619490  0.879664  1
  Ce  Ce1  1  0.213785  0.880510  0.379664  1
  Ce  Ce2  1  0.213785  0.380510  0.120336  1
  Ce  Ce3  1  0.786215  0.119490  0.620336  1
  B  B4  1  0.806095  0.126026  0.905942  1
  B  B5  1  0.311747  0.925924  0.878430  1
  B  B6  1  0.675088  0.711626  0.166607  1
  B  B7  1  0.324912  0.288374  0.833393  1
  B  B8  1  0.688253  0.074076  0.121570  1
  B  B9  1  0.193905  0.373974  0.405942  1
  B  B10  1  0.193905  0.873974  0.094058  1
  B  B11  1  0.675088  0.211626  0.333393  1
  B  B12  1  0.806095  0.626026  0.594058  1
  B  B13  1  0.688253  0.574076  0.378430  1
  B  B14  1  0.311747  0.425924  0.621570  1
  B  B15  1  0.324912  0.788374  0.666607  1
  O  O16  1  0.252594  0.438550  0.909413  1
  O  O17  1  0.348603  0.048273  0.119444  1
  O  O18  1  0.651397  0.451727  0.619444  1
  O  O19  1  0.154602  0.110294  0.873158  1
  O  O20  1  0.747406  0.061450  0.409413  1
  O  O21  1  0.780347  0.193940  0.215479  1
  O  O22  1  0.219653  0.806060  0.784521  1
  O  O23  1  0.780347  0.693940  0.284521  1
  O  O24  1  0.154602  0.610294  0.626842  1
  O  O25  1  0.845398  0.389706  0.373158  1
  O  O26  1  0.845398  0.889706  0.126842  1
  O  O27  1  0.747406  0.561450  0.090587  1
  O  O28  1  0.348603  0.548273  0.380556  1
  O  O29  1  0.651397  0.951727  0.880556  1
  O  O30  1  0.204480  0.816923  0.976177  1
  O  O31  1  0.330940  0.236204  0.331327  1
  O  O32  1  0.252594  0.938550  0.590587  1
  O  O33  1  0.219653  0.306060  0.715479  1
  O  O34  1  0.669060  0.763796  0.668673  1
  O  O35  1  0.795520  0.683077  0.476177  1
  O  O36  1  0.795520  0.183077  0.023823  1
  O  O37  1  0.669060  0.263796  0.831327  1
  O  O38  1  0.330940  0.736204  0.168673  1
  O  O39  1  0.204480  0.316923  0.523823  1
