# generated using pymatgen
data_UV3O10
_symmetry_space_group_name_H-M   'P 1'
_cell_length_a   7.01890065
_cell_length_b   7.05106333
_cell_length_c   8.90542700
_cell_angle_alpha   78.68860556
_cell_angle_beta   66.79140006
_cell_angle_gamma   60.15077103
_symmetry_Int_Tables_number   1
_chemical_formula_structural   UV3O10
_chemical_formula_sum   'U2 V6 O20'
_cell_volume   351.33257378
_cell_formula_units_Z   2
loop_
 _symmetry_equiv_pos_site_id
 _symmetry_equiv_pos_as_xyz
  1  'x, y, z'
loop_
 _atom_site_type_symbol
 _atom_site_label
 _atom_site_symmetry_multiplicity
 _atom_site_fract_x
 _atom_site_fract_y
 _atom_site_fract_z
 _atom_site_occupancy
  U  U0  1  0.125000  0.750000  0.750000  1
  U  U1  1  0.875000  0.250000  0.250000  1
  V  V2  1  0.625000  0.750000  0.750000  1
  V  V3  1  0.375000  0.250000  0.250000  1
  V  V4  1  0.848824  0.750000  0.302350  1
  V  V5  1  0.401176  0.750000  0.197650  1
  V  V6  1  0.151176  0.250000  0.697650  1
  V  V7  1  0.598824  0.250000  0.802350  1
  O  O8  1  0.326079  0.957322  0.743347  1
  O  O9  1  0.526750  0.542678  0.756653  1
  O  O10  1  0.716597  0.957322  0.756653  1
  O  O11  1  0.930574  0.542678  0.743347  1
  O  O12  1  0.673921  0.042678  0.256653  1
  O  O13  1  0.473250  0.457322  0.243347  1
  O  O14  1  0.283403  0.042678  0.243347  1
  O  O15  1  0.069426  0.457322  0.256653  1
  O  O16  1  0.745591  0.750000  0.508819  1
  O  O17  1  0.504409  0.750000  0.991181  1
  O  O18  1  0.254409  0.250000  0.491181  1
  O  O19  1  0.495591  0.250000  0.008819  1
  O  O20  1  0.014625  0.750000  0.970749  1
  O  O21  1  0.235375  0.750000  0.529251  1
  O  O22  1  0.985375  0.250000  0.029251  1
  O  O23  1  0.764625  0.250000  0.470749  1
  O  O24  1  0.916121  0.167756  0.750000  1
  O  O25  1  0.333879  0.332244  0.750000  1
  O  O26  1  0.083879  0.832244  0.250000  1
  O  O27  1  0.666121  0.667756  0.250000  1
