# generated using pymatgen
data_NdTl(PO3)4
_symmetry_space_group_name_H-M   'P 1'
_cell_length_a   9.13905733
_cell_length_b   10.61618486
_cell_length_c   11.15632312
_cell_angle_alpha   106.03281220
_cell_angle_beta   90.00000000
_cell_angle_gamma   90.00000000
_symmetry_Int_Tables_number   1
_chemical_formula_structural   NdTl(PO3)4
_chemical_formula_sum   'Nd4 Tl4 P16 O48'
_cell_volume   1040.30623498
_cell_formula_units_Z   4
loop_
 _symmetry_equiv_pos_site_id
 _symmetry_equiv_pos_as_xyz
  1  'x, y, z'
loop_
 _atom_site_type_symbol
 _atom_site_label
 _atom_site_symmetry_multiplicity
 _atom_site_fract_x
 _atom_site_fract_y
 _atom_site_fract_z
 _atom_site_occupancy
  Tl  Tl0  1  0.937231  0.208695  0.960814  1
  Tl  Tl1  1  0.437231  0.291305  0.539186  1
  Tl  Tl2  1  0.062769  0.791305  0.039186  1
  Tl  Tl3  1  0.562769  0.708695  0.460814  1
  Nd  Nd4  1  0.272108  0.499607  0.183313  1
  Nd  Nd5  1  0.772108  0.000393  0.316687  1
  Nd  Nd6  1  0.727892  0.500393  0.816687  1
  Nd  Nd7  1  0.227892  0.999607  0.683313  1
  P  P8  1  0.023719  0.250258  0.276356  1
  P  P9  1  0.523719  0.249742  0.223644  1
  P  P10  1  0.976281  0.749742  0.723644  1
  P  P11  1  0.476281  0.750258  0.776356  1
  P  P12  1  0.825980  0.959753  0.641096  1
  P  P13  1  0.325980  0.540247  0.858904  1
  P  P14  1  0.174020  0.040247  0.358904  1
  P  P15  1  0.674020  0.459753  0.141096  1
  P  P16  1  0.596954  0.146624  0.761110  1
  P  P17  1  0.096954  0.353376  0.738890  1
  P  P18  1  0.403046  0.853376  0.238890  1
  P  P19  1  0.903046  0.646624  0.261110  1
  P  P20  1  0.395145  0.177187  0.977364  1
  P  P21  1  0.895145  0.322813  0.522636  1
  P  P22  1  0.604855  0.822813  0.022636  1
  P  P23  1  0.104855  0.677187  0.477364  1
  O  O24  1  0.707997  0.024156  0.749695  1
  O  O25  1  0.207997  0.475844  0.750305  1
  O  O26  1  0.292003  0.975844  0.250305  1
  O  O27  1  0.792003  0.524156  0.249695  1
  O  O28  1  0.088186  0.852225  0.782186  1
  O  O29  1  0.588186  0.647775  0.717814  1
  O  O30  1  0.911814  0.147775  0.217814  1
  O  O31  1  0.411814  0.352225  0.282186  1
  O  O32  1  0.683095  0.262501  0.749156  1
  O  O33  1  0.183095  0.237499  0.750844  1
  O  O34  1  0.316905  0.737499  0.250844  1
  O  O35  1  0.816905  0.762501  0.249156  1
  O  O36  1  0.965641  0.036310  0.669780  1
  O  O37  1  0.465641  0.463690  0.830220  1
  O  O38  1  0.034359  0.963690  0.330220  1
  O  O39  1  0.534359  0.536310  0.169780  1
  O  O40  1  0.968024  0.396669  0.824445  1
  O  O41  1  0.468024  0.103331  0.675555  1
  O  O42  1  0.031976  0.603331  0.175555  1
  O  O43  1  0.531976  0.896669  0.324445  1
  O  O44  1  0.088305  0.328054  0.195547  1
  O  O45  1  0.588305  0.171946  0.304453  1
  O  O46  1  0.911695  0.671946  0.804453  1
  O  O47  1  0.411695  0.828054  0.695547  1
  O  O48  1  0.339206  0.315218  0.014339  1
  O  O49  1  0.839206  0.184782  0.485661  1
  O  O50  1  0.660794  0.684782  0.985661  1
  O  O51  1  0.160794  0.815218  0.514339  1
  O  O52  1  0.656785  0.317230  0.166754  1
  O  O53  1  0.156785  0.182770  0.333246  1
  O  O54  1  0.343215  0.682770  0.833246  1
  O  O55  1  0.843215  0.817230  0.666754  1
  O  O56  1  0.549958  0.169754  0.904095  1
  O  O57  1  0.049958  0.330246  0.595905  1
  O  O58  1  0.450042  0.830246  0.095905  1
  O  O59  1  0.950042  0.669754  0.404095  1
  O  O60  1  0.254034  0.564662  0.984484  1
  O  O61  1  0.754034  0.935338  0.515516  1
  O  O62  1  0.745966  0.435338  0.015516  1
  O  O63  1  0.245966  0.064662  0.484484  1
  O  O64  1  0.204927  0.570014  0.407291  1
  O  O65  1  0.704927  0.929986  0.092709  1
  O  O66  1  0.795073  0.429986  0.592709  1
  O  O67  1  0.295073  0.070014  0.907291  1
  O  O68  1  0.957614  0.355897  0.398661  1
  O  O69  1  0.457614  0.144103  0.101339  1
  O  O70  1  0.042386  0.644103  0.601339  1
  O  O71  1  0.542386  0.855897  0.898661  1
