# generated using pymatgen
data_La2AlNi9H
_symmetry_space_group_name_H-M   'P 1'
_cell_length_a   4.97689502
_cell_length_b   5.00964673
_cell_length_c   8.08988201
_cell_angle_alpha   89.99781362
_cell_angle_beta   90.00323390
_cell_angle_gamma   119.39359644
_symmetry_Int_Tables_number   1
_chemical_formula_structural   La2AlNi9H
_chemical_formula_sum   'La2 Al1 Ni9 H1'
_cell_volume   175.73564784
_cell_formula_units_Z   1
loop_
 _symmetry_equiv_pos_site_id
 _symmetry_equiv_pos_as_xyz
  1  'x, y, z'
loop_
 _atom_site_type_symbol
 _atom_site_label
 _atom_site_symmetry_multiplicity
 _atom_site_fract_x
 _atom_site_fract_y
 _atom_site_fract_z
 _atom_site_occupancy
  La  La0  1  0.004944  0.004061  0.016040  1
  La  La1  1  0.004985  0.004022  0.483954  1
  Al  Al2  1  0.508340  0.507055  0.749984  1
  Ni  Ni3  1  0.669237  0.333269  0.001951  1
  Ni  Ni4  1  0.669228  0.333165  0.498022  1
  Ni  Ni5  1  0.502708  0.503881  0.249997  1
  Ni  Ni6  1  0.340328  0.682538  0.002873  1
  Ni  Ni7  1  0.503310  0.002072  0.749999  1
  Ni  Ni8  1  0.003519  0.503243  0.249997  1
  Ni  Ni9  1  0.505424  0.005623  0.249986  1
  Ni  Ni10  1  0.340430  0.682522  0.497120  1
  Ni  Ni11  1  0.003314  0.495289  0.749984  1
  H  H12  1  0.079633  0.215859  0.749993  1
