# generated using pymatgen
data_Pu13Zn58
_symmetry_space_group_name_H-M   'P 1'
_cell_length_a   14.47072931
_cell_length_b   14.47072968
_cell_length_c   13.96482265
_cell_angle_alpha   90.00000000
_cell_angle_beta   90.00000000
_cell_angle_gamma   119.99999917
_symmetry_Int_Tables_number   1
_chemical_formula_structural   Pu13Zn58
_chemical_formula_sum   'Pu26 Zn116'
_cell_volume   2532.48516760
_cell_formula_units_Z   2
loop_
 _symmetry_equiv_pos_site_id
 _symmetry_equiv_pos_as_xyz
  1  'x, y, z'
loop_
 _atom_site_type_symbol
 _atom_site_label
 _atom_site_symmetry_multiplicity
 _atom_site_fract_x
 _atom_site_fract_y
 _atom_site_fract_z
 _atom_site_occupancy
  Pu  Pu0  1  0.409540  0.204770  0.552779  1
  Pu  Pu1  1  0.458429  0.541571  0.750000  1
  Pu  Pu2  1  0.874609  0.749219  0.250000  1
  Pu  Pu3  1  0.083143  0.541571  0.750000  1
  Pu  Pu4  1  0.795230  0.590460  0.947221  1
  Pu  Pu5  1  0.795230  0.204770  0.552779  1
  Pu  Pu6  1  0.458429  0.916857  0.750000  1
  Pu  Pu7  1  0.795230  0.204770  0.947221  1
  Pu  Pu8  1  0.795230  0.590460  0.552779  1
  Pu  Pu9  1  0.916857  0.458429  0.250000  1
  Pu  Pu10  1  0.125391  0.874609  0.750000  1
  Pu  Pu11  1  0.874609  0.125391  0.250000  1
  Pu  Pu12  1  0.590460  0.795230  0.052779  1
  Pu  Pu13  1  0.204770  0.409540  0.052779  1
  Pu  Pu14  1  0.590460  0.795230  0.447221  1
  Pu  Pu15  1  0.204770  0.795230  0.447221  1
  Pu  Pu16  1  0.000000  0.000000  0.000000  1
  Pu  Pu17  1  0.541571  0.083143  0.250000  1
  Pu  Pu18  1  0.250781  0.125391  0.250000  1
  Pu  Pu19  1  0.749219  0.874609  0.750000  1
  Pu  Pu20  1  0.204770  0.409540  0.447221  1
  Pu  Pu21  1  0.409540  0.204770  0.947221  1
  Pu  Pu22  1  0.125391  0.250781  0.750000  1
  Pu  Pu23  1  0.000000  0.000000  0.500000  1
  Pu  Pu24  1  0.204770  0.795230  0.052779  1
  Pu  Pu25  1  0.541571  0.458429  0.250000  1
  Zn  Zn26  1  0.471469  0.235735  0.158588  1
  Zn  Zn27  1  1.000000  0.200443  0.000000  1
  Zn  Zn28  1  0.634865  0.964330  0.602081  1
  Zn  Zn29  1  0.365135  0.329464  0.397919  1
  Zn  Zn30  1  0.601373  0.398627  0.051214  1
  Zn  Zn31  1  0.634865  0.670536  0.897919  1
  Zn  Zn32  1  0.964330  0.634865  0.102081  1
  Zn  Zn33  1  0.202745  0.601373  0.948786  1
  Zn  Zn34  1  0.095081  0.904919  0.344325  1
  Zn  Zn35  1  0.564131  0.128262  0.643623  1
  Zn  Zn36  1  0.809838  0.904919  0.344325  1
  Zn  Zn37  1  0.730761  0.269239  0.750000  1
  Zn  Zn38  1  0.435869  0.871738  0.356377  1
  Zn  Zn39  1  0.329464  0.365135  0.897919  1
  Zn  Zn40  1  0.035670  0.670536  0.897919  1
  Zn  Zn41  1  0.528531  0.764265  0.841412  1
  Zn  Zn42  1  0.799557  0.799557  0.000000  1
  Zn  Zn43  1  0.365135  0.035670  0.397919  1
  Zn  Zn44  1  0.904919  0.809838  0.655675  1
  Zn  Zn45  1  0.916032  0.635383  0.750000  1
  Zn  Zn46  1  0.200443  0.200443  0.500000  1
  Zn  Zn47  1  0.000000  0.000000  0.750000  1
  Zn  Zn48  1  0.670536  0.035670  0.102081  1
  Zn  Zn49  1  0.601373  0.398627  0.448786  1
  Zn  Zn50  1  0.235735  0.471469  0.841412  1
  Zn  Zn51  1  0.764265  0.528531  0.341412  1
  Zn  Zn52  1  0.764265  0.528531  0.158588  1
  Zn  Zn53  1  0.964330  0.329464  0.102081  1
  Zn  Zn54  1  0.280649  0.916032  0.250000  1
  Zn  Zn55  1  0.471469  0.235735  0.341412  1
  Zn  Zn56  1  0.035670  0.365135  0.602081  1
  Zn  Zn57  1  0.333333  0.666667  0.750000  1
  Zn  Zn58  1  0.904919  0.809838  0.844325  1
  Zn  Zn59  1  0.035670  0.365135  0.897919  1
  Zn  Zn60  1  0.799557  0.000000  0.000000  1
  Zn  Zn61  1  0.670536  0.035670  0.397919  1
  Zn  Zn62  1  0.365135  0.035670  0.102081  1
  Zn  Zn63  1  0.364617  0.083968  0.750000  1
  Zn  Zn64  1  0.916032  0.280649  0.750000  1
  Zn  Zn65  1  0.000000  0.799557  0.000000  1
  Zn  Zn66  1  0.435869  0.564131  0.143623  1
  Zn  Zn67  1  0.128262  0.564131  0.356377  1
  Zn  Zn68  1  0.719351  0.083968  0.750000  1
  Zn  Zn69  1  0.095081  0.190162  0.155675  1
  Zn  Zn70  1  0.035670  0.670536  0.602081  1
  Zn  Zn71  1  0.329464  0.365135  0.602081  1
  Zn  Zn72  1  0.564131  0.128262  0.856377  1
  Zn  Zn73  1  0.634865  0.670536  0.602081  1
  Zn  Zn74  1  0.365135  0.329464  0.102081  1
  Zn  Zn75  1  0.435869  0.564131  0.356377  1
  Zn  Zn76  1  0.500000  0.000000  0.500000  1
  Zn  Zn77  1  0.601373  0.202745  0.051214  1
  Zn  Zn78  1  0.797255  0.398627  0.448786  1
  Zn  Zn79  1  0.730761  0.461523  0.750000  1
  Zn  Zn80  1  0.398627  0.797255  0.948786  1
  Zn  Zn81  1  0.666667  0.333333  0.903818  1
  Zn  Zn82  1  0.670536  0.634865  0.102081  1
  Zn  Zn83  1  0.764265  0.235735  0.158588  1
  Zn  Zn84  1  0.280649  0.364617  0.250000  1
  Zn  Zn85  1  0.398627  0.601373  0.551214  1
  Zn  Zn86  1  0.000000  0.000000  0.250000  1
  Zn  Zn87  1  0.202745  0.601373  0.551214  1
  Zn  Zn88  1  0.764265  0.235735  0.341412  1
  Zn  Zn89  1  0.809838  0.904919  0.155675  1
  Zn  Zn90  1  0.329464  0.964330  0.897919  1
  Zn  Zn91  1  0.871738  0.435869  0.856377  1
  Zn  Zn92  1  0.128262  0.564131  0.143623  1
  Zn  Zn93  1  0.964330  0.329464  0.397919  1
  Zn  Zn94  1  0.635383  0.719351  0.250000  1
  Zn  Zn95  1  0.564131  0.435869  0.856377  1
  Zn  Zn96  1  0.904919  0.095081  0.655675  1
  Zn  Zn97  1  0.799557  0.799557  0.500000  1
  Zn  Zn98  1  0.000000  0.500000  0.000000  1
  Zn  Zn99  1  0.190162  0.095081  0.655675  1
  Zn  Zn100  1  0.200443  0.200443  0.000000  1
  Zn  Zn101  1  0.200443  0.000000  0.500000  1
  Zn  Zn102  1  0.083968  0.364617  0.250000  1
  Zn  Zn103  1  0.670536  0.634865  0.397919  1
  Zn  Zn104  1  0.528531  0.764265  0.658588  1
  Zn  Zn105  1  0.797255  0.398627  0.051214  1
  Zn  Zn106  1  1.000000  0.200443  0.500000  1
  Zn  Zn107  1  0.601373  0.202745  0.448786  1
  Zn  Zn108  1  0.235735  0.764265  0.841412  1
  Zn  Zn109  1  0.666667  0.333333  0.250000  1
  Zn  Zn110  1  0.435869  0.871738  0.143623  1
  Zn  Zn111  1  0.000000  0.500000  0.500000  1
  Zn  Zn112  1  0.500000  0.500000  0.000000  1
  Zn  Zn113  1  0.235735  0.764265  0.658588  1
  Zn  Zn114  1  0.333333  0.666667  0.403818  1
  Zn  Zn115  1  0.200443  0.000000  0.000000  1
  Zn  Zn116  1  0.083968  0.719351  0.250000  1
  Zn  Zn117  1  0.000000  0.799557  0.500000  1
  Zn  Zn118  1  0.634865  0.964330  0.897919  1
  Zn  Zn119  1  0.500000  0.500000  0.500000  1
  Zn  Zn120  1  0.190162  0.095081  0.844325  1
  Zn  Zn121  1  0.538477  0.269239  0.750000  1
  Zn  Zn122  1  0.095081  0.904919  0.155675  1
  Zn  Zn123  1  0.719351  0.635383  0.750000  1
  Zn  Zn124  1  0.564131  0.435869  0.643623  1
  Zn  Zn125  1  0.364617  0.280649  0.750000  1
  Zn  Zn126  1  0.269239  0.730761  0.250000  1
  Zn  Zn127  1  0.964330  0.634865  0.397919  1
  Zn  Zn128  1  0.333333  0.666667  0.096182  1
  Zn  Zn129  1  0.269239  0.538477  0.250000  1
  Zn  Zn130  1  0.799557  0.000000  0.500000  1
  Zn  Zn131  1  0.635383  0.916032  0.250000  1
  Zn  Zn132  1  0.500000  0.000000  0.000000  1
  Zn  Zn133  1  0.871738  0.435869  0.643623  1
  Zn  Zn134  1  0.329464  0.964330  0.602081  1
  Zn  Zn135  1  0.095081  0.190162  0.344325  1
  Zn  Zn136  1  0.398627  0.601373  0.948786  1
  Zn  Zn137  1  0.904919  0.095081  0.844325  1
  Zn  Zn138  1  0.235735  0.471469  0.658588  1
  Zn  Zn139  1  0.666667  0.333333  0.596182  1
  Zn  Zn140  1  0.398627  0.797255  0.551214  1
  Zn  Zn141  1  0.461523  0.730761  0.250000  1
