# generated using pymatgen
data_KEu2Si4O10F
_symmetry_space_group_name_H-M   'P 1'
_cell_length_a   8.58524316
_cell_length_b   11.58217488
_cell_length_c   11.72601405
_cell_angle_alpha   112.16632435
_cell_angle_beta   90.00000000
_cell_angle_gamma   90.00000000
_symmetry_Int_Tables_number   1
_chemical_formula_structural   KEu2Si4O10F
_chemical_formula_sum   'K4 Eu8 Si16 O40 F4'
_cell_volume   1079.81037558
_cell_formula_units_Z   4
loop_
 _symmetry_equiv_pos_site_id
 _symmetry_equiv_pos_as_xyz
  1  'x, y, z'
loop_
 _atom_site_type_symbol
 _atom_site_label
 _atom_site_symmetry_multiplicity
 _atom_site_fract_x
 _atom_site_fract_y
 _atom_site_fract_z
 _atom_site_occupancy
  Eu  Eu0  1  0.979107  0.213761  0.779717  1
  Eu  Eu1  1  0.479107  0.286239  0.720283  1
  Eu  Eu2  1  0.282105  0.542519  0.960582  1
  Eu  Eu3  1  0.520893  0.713761  0.279717  1
  Eu  Eu4  1  0.020893  0.786239  0.220283  1
  Eu  Eu5  1  0.782105  0.957481  0.539418  1
  Eu  Eu6  1  0.217895  0.042519  0.460582  1
  Eu  Eu7  1  0.717895  0.457481  0.039418  1
  K  K8  1  0.783050  0.533685  0.426104  1
  K  K9  1  0.216950  0.466315  0.573896  1
  K  K10  1  0.283050  0.966315  0.073896  1
  K  K11  1  0.716950  0.033685  0.926104  1
  Si  Si12  1  0.123437  0.751354  0.495982  1
  Si  Si13  1  0.623437  0.748646  0.004018  1
  Si  Si14  1  0.533387  0.617896  0.742585  1
  Si  Si15  1  0.158696  0.515992  0.268904  1
  Si  Si16  1  0.525259  0.223227  0.415482  1
  Si  Si17  1  0.466613  0.382104  0.257415  1
  Si  Si18  1  0.474741  0.776773  0.584518  1
  Si  Si19  1  0.966613  0.117896  0.242585  1
  Si  Si20  1  0.974741  0.723227  0.915482  1
  Si  Si21  1  0.658696  0.984008  0.231096  1
  Si  Si22  1  0.876563  0.248646  0.504018  1
  Si  Si23  1  0.025259  0.276773  0.084518  1
  Si  Si24  1  0.841304  0.484008  0.731096  1
  Si  Si25  1  0.376563  0.251354  0.995982  1
  Si  Si26  1  0.341304  0.015992  0.768904  1
  Si  Si27  1  0.033387  0.882104  0.757415  1
  O  O28  1  0.457560  0.353399  0.953054  1
  O  O29  1  0.377404  0.236589  0.503173  1
  O  O30  1  0.575061  0.483883  0.235635  1
  O  O31  1  0.042440  0.853399  0.453054  1
  O  O32  1  0.957254  0.834764  0.861396  1
  O  O33  1  0.184566  0.267681  0.000871  1
  O  O34  1  0.479301  0.913293  0.700608  1
  O  O35  1  0.281194  0.093677  0.689737  1
  O  O36  1  0.815434  0.732319  0.999129  1
  O  O37  1  0.418526  0.106702  0.903178  1
  O  O38  1  0.718806  0.906323  0.310263  1
  O  O39  1  0.075061  0.016117  0.264365  1
  O  O40  1  0.581474  0.893298  0.096822  1
  O  O41  1  0.520699  0.086707  0.299392  1
  O  O42  1  0.781194  0.406323  0.810263  1
  O  O43  1  0.206380  0.938715  0.811920  1
  O  O44  1  0.793620  0.061285  0.188080  1
  O  O45  1  0.918526  0.393298  0.596822  1
  O  O46  1  0.542746  0.334764  0.361396  1
  O  O47  1  0.293620  0.438715  0.311920  1
  O  O48  1  0.122596  0.736589  0.003173  1
  O  O49  1  0.315434  0.767681  0.500871  1
  O  O50  1  0.924939  0.983883  0.735635  1
  O  O51  1  0.877404  0.263411  0.996827  1
  O  O52  1  0.218806  0.593677  0.189737  1
  O  O53  1  0.424939  0.516117  0.764365  1
  O  O54  1  0.957560  0.146601  0.546946  1
  O  O55  1  0.438683  0.256199  0.130707  1
  O  O56  1  0.622596  0.763411  0.496827  1
  O  O57  1  0.979301  0.586707  0.799392  1
  O  O58  1  0.706380  0.561285  0.688080  1
  O  O59  1  0.542440  0.646601  0.046946  1
  O  O60  1  0.457254  0.665236  0.638604  1
  O  O61  1  0.081474  0.606702  0.403178  1
  O  O62  1  0.938683  0.243801  0.369293  1
  O  O63  1  0.020699  0.413293  0.200608  1
  O  O64  1  0.561317  0.743801  0.869293  1
  O  O65  1  0.042746  0.165236  0.138604  1
  O  O66  1  0.061317  0.756199  0.630707  1
  O  O67  1  0.684566  0.232319  0.499129  1
  F  F68  1  0.684710  0.139038  0.710512  1
  F  F69  1  0.315290  0.860962  0.289488  1
  F  F70  1  0.184710  0.360962  0.789488  1
  F  F71  1  0.815290  0.639038  0.210512  1
