# generated using pymatgen
data_CeTl5Cu2(NO2)12
_symmetry_space_group_name_H-M   'P 1'
_cell_length_a   10.77254725
_cell_length_b   10.77254725
_cell_length_c   10.77254725
_cell_angle_alpha   90.00000000
_cell_angle_beta   90.00000000
_cell_angle_gamma   90.00000000
_symmetry_Int_Tables_number   1
_chemical_formula_structural   CeTl5Cu2(NO2)12
_chemical_formula_sum   'Ce2 Tl10 Cu4 N24 O48'
_cell_volume   1250.13013140
_cell_formula_units_Z   2
loop_
 _symmetry_equiv_pos_site_id
 _symmetry_equiv_pos_as_xyz
  1  'x, y, z'
loop_
 _atom_site_type_symbol
 _atom_site_label
 _atom_site_symmetry_multiplicity
 _atom_site_fract_x
 _atom_site_fract_y
 _atom_site_fract_z
 _atom_site_occupancy
  Ce  Ce0  1  0.250000  0.250000  0.250000  1
  Ce  Ce1  1  0.750000  0.750000  0.750000  1
  Tl  Tl2  1  0.500000  0.500000  0.000000  1
  Tl  Tl3  1  0.500000  -0.000000  0.500000  1
  Tl  Tl4  1  0.250000  0.750000  0.750000  1
  Tl  Tl5  1  0.750000  0.250000  0.250000  1
  Tl  Tl6  1  0.750000  0.250000  0.750000  1
  Tl  Tl7  1  -0.000000  -0.000000  0.000000  1
  Tl  Tl8  1  0.750000  0.750000  0.250000  1
  Tl  Tl9  1  0.250000  0.750000  0.250000  1
  Tl  Tl10  1  -0.000000  0.500000  0.500000  1
  Tl  Tl11  1  0.250000  0.250000  0.750000  1
  Cu  Cu12  1  -0.000000  -0.000000  0.500000  1
  Cu  Cu13  1  0.500000  -0.000000  0.000000  1
  Cu  Cu14  1  -0.000000  0.500000  0.000000  1
  Cu  Cu15  1  0.500000  0.500000  0.500000  1
  N  N16  1  0.505852  0.502606  0.696457  1
  N  N17  1  0.803543  0.994148  0.502606  1
  N  N18  1  0.696457  0.994148  0.997394  1
  N  N19  1  0.502606  0.803543  0.994148  1
  N  N20  1  0.994148  0.997394  0.696457  1
  N  N21  1  0.002606  0.303543  0.005852  1
  N  N22  1  0.303543  0.005852  0.002606  1
  N  N23  1  0.803543  0.505852  0.997394  1
  N  N24  1  0.502606  0.696457  0.505852  1
  N  N25  1  0.005852  0.497394  0.196457  1
  N  N26  1  0.997394  0.803543  0.505852  1
  N  N27  1  0.494148  0.497394  0.303543  1
  N  N28  1  0.505852  0.997394  0.803543  1
  N  N29  1  0.002606  0.196457  0.494148  1
  N  N30  1  0.696457  0.505852  0.502606  1
  N  N31  1  0.497394  0.196457  0.005852  1
  N  N32  1  0.497394  0.303543  0.494148  1
  N  N33  1  0.196457  0.005852  0.497394  1
  N  N34  1  0.997394  0.696457  0.994148  1
  N  N35  1  0.994148  0.502606  0.803543  1
  N  N36  1  0.494148  0.002606  0.196457  1
  N  N37  1  0.005852  0.002606  0.303543  1
  N  N38  1  0.196457  0.494148  0.002606  1
  N  N39  1  0.303543  0.494148  0.497394  1
  O  O40  1  0.502669  0.256684  0.906400  1
  O  O41  1  0.002669  0.756684  0.093600  1
  O  O42  1  0.406400  0.002669  0.743316  1
  O  O43  1  0.243316  0.593600  0.502669  1
  O  O44  1  0.906400  0.502669  0.256684  1
  O  O45  1  0.254629  0.104897  0.469205  1
  O  O46  1  0.395103  0.469205  0.245371  1
  O  O47  1  0.969205  0.745371  0.604897  1
  O  O48  1  0.593600  0.997331  0.256684  1
  O  O49  1  0.030795  0.254629  0.395103  1
  O  O50  1  0.093600  0.002669  0.756684  1
  O  O51  1  0.395103  0.030795  0.254629  1
  O  O52  1  0.743316  0.406400  0.002669  1
  O  O53  1  0.895103  0.969205  0.754629  1
  O  O54  1  0.030795  0.245371  0.104897  1
  O  O55  1  0.906400  0.997331  0.243316  1
  O  O56  1  0.895103  0.530795  0.745371  1
  O  O57  1  0.256684  0.906400  0.502669  1
  O  O58  1  0.093600  0.497331  0.743316  1
  O  O59  1  0.104897  0.030795  0.245371  1
  O  O60  1  0.530795  0.745371  0.895103  1
  O  O61  1  0.256684  0.593600  0.997331  1
  O  O62  1  0.254629  0.395103  0.030795  1
  O  O63  1  0.743316  0.093600  0.497331  1
  O  O64  1  0.002669  0.743316  0.406400  1
  O  O65  1  0.245371  0.395103  0.469205  1
  O  O66  1  0.406400  0.497331  0.756684  1
  O  O67  1  0.997331  0.256684  0.593600  1
  O  O68  1  0.593600  0.502669  0.243316  1
  O  O69  1  0.530795  0.754629  0.604897  1
  O  O70  1  0.745371  0.604897  0.969205  1
  O  O71  1  0.604897  0.969205  0.745371  1
  O  O72  1  0.243316  0.906400  0.997331  1
  O  O73  1  0.754629  0.895103  0.969205  1
  O  O74  1  0.756684  0.093600  0.002669  1
  O  O75  1  0.502669  0.243316  0.593600  1
  O  O76  1  0.745371  0.895103  0.530795  1
  O  O77  1  0.756684  0.406400  0.497331  1
  O  O78  1  0.997331  0.243316  0.906400  1
  O  O79  1  0.497331  0.743316  0.093600  1
  O  O80  1  0.104897  0.469205  0.254629  1
  O  O81  1  0.245371  0.104897  0.030795  1
  O  O82  1  0.469205  0.245371  0.395103  1
  O  O83  1  0.604897  0.530795  0.754629  1
  O  O84  1  0.497331  0.756684  0.406400  1
  O  O85  1  0.969205  0.754629  0.895103  1
  O  O86  1  0.754629  0.604897  0.530795  1
  O  O87  1  0.469205  0.254629  0.104897  1
