# generated using pymatgen
data_BaSiF6
_symmetry_space_group_name_H-M   'P 1'
_cell_length_a   4.85069397
_cell_length_b   4.85069397
_cell_length_c   4.85069396
_cell_angle_alpha   98.20648431
_cell_angle_beta   98.20648431
_cell_angle_gamma   98.20648422
_symmetry_Int_Tables_number   1
_chemical_formula_structural   BaSiF6
_chemical_formula_sum   'Ba1 Si1 F6'
_cell_volume   110.24681089
_cell_formula_units_Z   1
loop_
 _symmetry_equiv_pos_site_id
 _symmetry_equiv_pos_as_xyz
  1  'x, y, z'
loop_
 _atom_site_type_symbol
 _atom_site_label
 _atom_site_symmetry_multiplicity
 _atom_site_fract_x
 _atom_site_fract_y
 _atom_site_fract_z
 _atom_site_occupancy
  F  F0  1  0.747997  0.747997  0.075819  1
  F  F1  1  0.747997  0.075819  0.747997  1
  F  F2  1  0.252003  0.924181  0.252003  1
  F  F3  1  0.252003  0.252003  0.924181  1
  F  F4  1  0.924181  0.252003  0.252003  1
  F  F5  1  0.075819  0.747997  0.747997  1
  Si  Si6  1  0.000000  0.000000  0.000000  1
  Ba  Ba7  1  0.500000  0.500000  0.500000  1
