# generated using pymatgen
data_Rb2Na2IrO4
_symmetry_space_group_name_H-M   'P 1'
_cell_length_a   6.31147642
_cell_length_b   9.23199427
_cell_length_c   11.25611880
_cell_angle_alpha   90.00000000
_cell_angle_beta   90.00000000
_cell_angle_gamma   103.40232114
_symmetry_Int_Tables_number   1
_chemical_formula_structural   Rb2Na2IrO4
_chemical_formula_sum   'Rb8 Na8 Ir4 O16'
_cell_volume   638.00452613
_cell_formula_units_Z   4
loop_
 _symmetry_equiv_pos_site_id
 _symmetry_equiv_pos_as_xyz
  1  'x, y, z'
loop_
 _atom_site_type_symbol
 _atom_site_label
 _atom_site_symmetry_multiplicity
 _atom_site_fract_x
 _atom_site_fract_y
 _atom_site_fract_z
 _atom_site_occupancy
  Rb  Rb0  1  0.879823  0.222019  0.133234  1
  Rb  Rb1  1  0.671373  0.996422  0.864611  1
  Rb  Rb2  1  0.828627  0.503578  0.364611  1
  Rb  Rb3  1  0.171373  0.496422  0.635389  1
  Rb  Rb4  1  0.620177  0.277981  0.633234  1
  Rb  Rb5  1  0.120177  0.777981  0.866766  1
  Rb  Rb6  1  0.379823  0.722019  0.366766  1
  Rb  Rb7  1  0.328627  0.003578  0.135389  1
  Na  Na8  1  0.968540  0.905575  0.388515  1
  Na  Na9  1  0.654458  0.090176  0.391122  1
  Na  Na10  1  0.154458  0.590176  0.108878  1
  Na  Na11  1  0.468540  0.405575  0.111485  1
  Na  Na12  1  0.845542  0.409824  0.891122  1
  Na  Na13  1  0.531460  0.594425  0.888515  1
  Na  Na14  1  0.345542  0.909824  0.608878  1
  Na  Na15  1  0.031460  0.094425  0.611485  1
  Ir  Ir16  1  0.753716  0.763434  0.132566  1
  Ir  Ir17  1  0.253716  0.263434  0.367434  1
  Ir  Ir18  1  0.746284  0.736566  0.632566  1
  Ir  Ir19  1  0.246284  0.236566  0.867434  1
  O  O20  1  0.796452  0.591732  0.042170  1
  O  O21  1  0.011235  0.740214  0.544733  1
  O  O22  1  0.485227  0.739484  0.722199  1
  O  O23  1  0.213298  0.428310  0.270653  1
  O  O24  1  0.786702  0.571690  0.729347  1
  O  O25  1  0.296452  0.091732  0.457830  1
  O  O26  1  0.014773  0.760516  0.222199  1
  O  O27  1  0.713298  0.928310  0.229347  1
  O  O28  1  0.488765  0.759786  0.044733  1
  O  O29  1  0.286702  0.071690  0.770653  1
  O  O30  1  0.203548  0.408268  0.957830  1
  O  O31  1  0.985227  0.239484  0.777801  1
  O  O32  1  0.988765  0.259786  0.455267  1
  O  O33  1  0.511235  0.240214  0.955267  1
  O  O34  1  0.514773  0.260516  0.277801  1
  O  O35  1  0.703548  0.908268  0.542170  1
