# generated using pymatgen
data_K3ReClF6
_symmetry_space_group_name_H-M   'P 1'
_cell_length_a   6.09198572
_cell_length_b   8.43464597
_cell_length_c   8.43464597
_cell_angle_alpha   90.00000000
_cell_angle_beta   90.00000000
_cell_angle_gamma   90.00000000
_symmetry_Int_Tables_number   1
_chemical_formula_structural   K3ReClF6
_chemical_formula_sum   'K6 Re2 Cl2 F12'
_cell_volume   433.40367915
_cell_formula_units_Z   2
loop_
 _symmetry_equiv_pos_site_id
 _symmetry_equiv_pos_as_xyz
  1  'x, y, z'
loop_
 _atom_site_type_symbol
 _atom_site_label
 _atom_site_symmetry_multiplicity
 _atom_site_fract_x
 _atom_site_fract_y
 _atom_site_fract_z
 _atom_site_occupancy
  K  K0  1  0.500000  0.185514  0.685514  1
  K  K1  1  0.500000  0.685514  0.814486  1
  K  K2  1  0.000000  0.500000  0.500000  1
  K  K3  1  0.500000  0.314486  0.185514  1
  K  K4  1  0.500000  0.814486  0.314486  1
  K  K5  1  0.000000  0.000000  0.000000  1
  Re  Re6  1  0.000000  0.000000  0.500000  1
  Re  Re7  1  0.000000  0.500000  0.000000  1
  Cl  Cl8  1  0.500000  0.500000  0.500000  1
  Cl  Cl9  1  0.500000  0.000000  0.000000  1
  F  F10  1  0.241097  0.387519  0.887519  1
  F  F11  1  0.758903  0.887519  0.612481  1
  F  F12  1  0.000000  0.333263  0.166737  1
  F  F13  1  0.758903  0.387519  0.887519  1
  F  F14  1  0.758903  0.112481  0.387519  1
  F  F15  1  0.000000  0.666737  0.833263  1
  F  F16  1  0.241097  0.612481  0.112481  1
  F  F17  1  0.000000  0.166737  0.666737  1
  F  F18  1  0.241097  0.887519  0.612481  1
  F  F19  1  0.241097  0.112481  0.387519  1
  F  F20  1  0.758903  0.612481  0.112481  1
  F  F21  1  0.000000  0.833263  0.333263  1
