# generated using pymatgen
data_InSeI
_symmetry_space_group_name_H-M   'P 1'
_cell_length_a   10.39795316
_cell_length_b   14.63792611
_cell_length_c   14.63621535
_cell_angle_alpha   82.74017184
_cell_angle_beta   69.17144400
_cell_angle_gamma   69.17563015
_symmetry_Int_Tables_number   1
_chemical_formula_structural   InSeI
_chemical_formula_sum   'In16 Se16 I16'
_cell_volume   1946.09916030
_cell_formula_units_Z   16
loop_
 _symmetry_equiv_pos_site_id
 _symmetry_equiv_pos_as_xyz
  1  'x, y, z'
loop_
 _atom_site_type_symbol
 _atom_site_label
 _atom_site_symmetry_multiplicity
 _atom_site_fract_x
 _atom_site_fract_y
 _atom_site_fract_z
 _atom_site_occupancy
  In  In0  1  0.851125  0.174330  0.109382  1
  In  In1  1  0.960556  0.390421  0.174458  1
  In  In2  1  0.525370  0.109513  0.325147  1
  In  In3  1  0.134628  0.325769  0.390703  1
  In  In4  1  0.148875  0.825670  0.890618  1
  In  In5  1  0.039444  0.609579  0.825542  1
  In  In6  1  0.474630  0.890487  0.674853  1
  In  In7  1  0.865372  0.674231  0.609297  1
  In  In8  1  0.422923  0.297260  0.100997  1
  In  In9  1  0.523912  0.398889  0.296932  1
  In  In10  1  0.220205  0.101356  0.202855  1
  In  In11  1  0.821168  0.202605  0.398667  1
  In  In12  1  0.577077  0.702740  0.899003  1
  In  In13  1  0.476088  0.601111  0.703068  1
  In  In14  1  0.779795  0.898644  0.797145  1
  In  In15  1  0.178832  0.797395  0.601333  1
  Se  Se16  1  0.615890  0.127849  0.131933  1
  Se  Se17  1  0.748391  0.367688  0.127689  1
  Se  Se18  1  0.243499  0.132433  0.372286  1
  Se  Se19  1  0.875840  0.371966  0.367837  1
  Se  Se20  1  0.384110  0.872151  0.868067  1
  Se  Se21  1  0.251609  0.632312  0.872311  1
  Se  Se22  1  0.756501  0.867567  0.627714  1
  Se  Se23  1  0.124160  0.628034  0.632163  1
  Se  Se24  1  0.960133  0.078202  0.250001  1
  Se  Se25  1  0.210159  0.249813  0.078082  1
  Se  Se26  1  0.537981  0.250123  0.421384  1
  Se  Se27  1  0.288063  0.421718  0.249708  1
  Se  Se28  1  0.039867  0.921798  0.749999  1
  Se  Se29  1  0.789841  0.750187  0.921918  1
  Se  Se30  1  0.462019  0.749877  0.578616  1
  Se  Se31  1  0.711937  0.578282  0.750292  1
  I  I32  1  0.043468  0.133174  0.924783  1
  I  I33  1  0.968275  0.575002  0.133366  1
  I  I34  1  0.676416  0.924953  0.366637  1
  I  I35  1  0.101491  0.366802  0.575265  1
  I  I36  1  0.956532  0.866826  0.075217  1
  I  I37  1  0.031725  0.424998  0.866634  1
  I  I38  1  0.323584  0.075047  0.633363  1
  I  I39  1  0.898509  0.633198  0.424735  1
  I  I40  1  0.558858  0.363200  0.924585  1
  I  I41  1  0.483196  0.575207  0.363169  1
  I  I42  1  0.421751  0.924792  0.136960  1
  I  I43  1  0.846301  0.136869  0.575235  1
  I  I44  1  0.441142  0.636800  0.075415  1
  I  I45  1  0.516804  0.424793  0.636831  1
  I  I46  1  0.578249  0.075208  0.863040  1
  I  I47  1  0.153699  0.863131  0.424765  1
