# generated using pymatgen
data_Cs3V2Cl9
_symmetry_space_group_name_H-M   'P 1'
_cell_length_a   7.48688785
_cell_length_b   7.48688792
_cell_length_c   18.28066870
_cell_angle_alpha   90.00000000
_cell_angle_beta   90.00000000
_cell_angle_gamma   119.99999964
_symmetry_Int_Tables_number   1
_chemical_formula_structural   Cs3V2Cl9
_chemical_formula_sum   'Cs6 V4 Cl18'
_cell_volume   887.41215053
_cell_formula_units_Z   2
loop_
 _symmetry_equiv_pos_site_id
 _symmetry_equiv_pos_as_xyz
  1  'x, y, z'
loop_
 _atom_site_type_symbol
 _atom_site_label
 _atom_site_symmetry_multiplicity
 _atom_site_fract_x
 _atom_site_fract_y
 _atom_site_fract_z
 _atom_site_occupancy
  Cs  Cs0  1  0.000000  0.000000  0.250000  1
  Cs  Cs1  1  0.000000  0.000000  0.750000  1
  Cs  Cs2  1  0.333333  0.666667  0.074577  1
  Cs  Cs3  1  0.666667  0.333333  0.574577  1
  Cs  Cs4  1  0.666667  0.333333  0.925423  1
  Cs  Cs5  1  0.333333  0.666667  0.425423  1
  V  V6  1  0.333333  0.666667  0.835089  1
  V  V7  1  0.666667  0.333333  0.335089  1
  V  V8  1  0.666667  0.333333  0.164911  1
  V  V9  1  0.333333  0.666667  0.664911  1
  Cl  Cl10  1  0.519648  0.039295  0.250000  1
  Cl  Cl11  1  0.480352  0.519648  0.750000  1
  Cl  Cl12  1  0.039295  0.519648  0.750000  1
  Cl  Cl13  1  0.960705  0.480352  0.250000  1
  Cl  Cl14  1  0.519648  0.480352  0.250000  1
  Cl  Cl15  1  0.480352  0.960705  0.750000  1
  Cl  Cl16  1  0.817331  0.634661  0.095402  1
  Cl  Cl17  1  0.182669  0.817331  0.595402  1
  Cl  Cl18  1  0.634661  0.817331  0.595402  1
  Cl  Cl19  1  0.365339  0.182669  0.095402  1
  Cl  Cl20  1  0.817331  0.182669  0.095402  1
  Cl  Cl21  1  0.182669  0.365339  0.904598  1
  Cl  Cl22  1  0.182669  0.817331  0.904598  1
  Cl  Cl23  1  0.182669  0.365339  0.595402  1
  Cl  Cl24  1  0.634661  0.817331  0.904598  1
  Cl  Cl25  1  0.365339  0.182669  0.404598  1
  Cl  Cl26  1  0.817331  0.634661  0.404598  1
  Cl  Cl27  1  0.817331  0.182669  0.404598  1
