# generated using pymatgen
data_GdH7C2SO8
_symmetry_space_group_name_H-M   'P 1'
_cell_length_a   6.78735330
_cell_length_b   6.97297467
_cell_length_c   8.73698401
_cell_angle_alpha   110.25768700
_cell_angle_beta   89.78335896
_cell_angle_gamma   107.81811700
_symmetry_Int_Tables_number   1
_chemical_formula_structural   GdH7C2SO8
_chemical_formula_sum   'Gd2 H14 C4 S2 O16'
_cell_volume   366.89488218
_cell_formula_units_Z   2
loop_
 _symmetry_equiv_pos_site_id
 _symmetry_equiv_pos_as_xyz
  1  'x, y, z'
loop_
 _atom_site_type_symbol
 _atom_site_label
 _atom_site_symmetry_multiplicity
 _atom_site_fract_x
 _atom_site_fract_y
 _atom_site_fract_z
 _atom_site_occupancy
  Gd  Gd0  1  0.882710  0.650380  0.870283  1
  Gd  Gd1  1  0.117290  0.349620  0.129717  1
  H  H2  1  0.415726  0.141775  0.331960  1
  H  H3  1  0.894781  0.800998  0.573800  1
  H  H4  1  0.425023  0.930216  0.822792  1
  H  H5  1  0.080063  0.984173  0.709862  1
  H  H6  1  0.514761  0.096381  0.702993  1
  H  H7  1  0.609176  0.338967  0.554972  1
  H  H8  1  0.485239  0.903619  0.297007  1
  H  H9  1  0.105219  0.199002  0.426200  1
  H  H10  1  0.574977  0.069784  0.177208  1
  H  H11  1  0.919937  0.015827  0.290138  1
  H  H12  1  0.167921  0.672031  0.500635  1
  H  H13  1  0.832079  0.327969  0.499365  1
  H  H14  1  0.584274  0.858225  0.668040  1
  H  H15  1  0.390824  0.661033  0.445028  1
  C  C16  1  0.256204  0.879756  0.117605  1
  C  C17  1  0.444875  0.004048  0.238872  1
  C  C18  1  0.555125  0.995952  0.761128  1
  C  C19  1  0.743796  0.120244  0.882395  1
  S  S20  1  0.696147  0.588205  0.249849  1
  S  S21  1  0.303853  0.411795  0.750151  1
  O  O22  1  0.218235  0.270479  0.847354  1
  O  O23  1  0.781765  0.729521  0.152646  1
  O  O24  1  0.241464  0.613007  0.407595  1
  O  O25  1  0.175708  0.974208  0.044122  1
  O  O26  1  0.830455  0.322796  0.917302  1
  O  O27  1  0.831273  0.456947  0.252123  1
  O  O28  1  0.168727  0.543053  0.747877  1
  O  O29  1  0.758536  0.386993  0.592405  1
  O  O30  1  0.312132  0.271428  0.578978  1
  O  O31  1  0.169545  0.677204  0.082698  1
  O  O32  1  0.687868  0.728572  0.421022  1
  O  O33  1  0.995378  0.173272  0.338966  1
  O  O34  1  0.824292  0.025792  0.955878  1
  O  O35  1  0.517857  0.557877  0.825307  1
  O  O36  1  0.004622  0.826728  0.661034  1
  O  O37  1  0.482143  0.442123  0.174693  1
