# generated using pymatgen
data_CrHg3(PbO4)2
_symmetry_space_group_name_H-M   'P 1'
_cell_length_a   6.57620630
_cell_length_b   7.19657052
_cell_length_c   22.39420622
_cell_angle_alpha   90.00000000
_cell_angle_beta   90.00000000
_cell_angle_gamma   109.51668320
_symmetry_Int_Tables_number   1
_chemical_formula_structural   CrHg3(PbO4)2
_chemical_formula_sum   'Cr4 Hg12 Pb8 O32'
_cell_volume   998.93777828
_cell_formula_units_Z   4
loop_
 _symmetry_equiv_pos_site_id
 _symmetry_equiv_pos_as_xyz
  1  'x, y, z'
loop_
 _atom_site_type_symbol
 _atom_site_label
 _atom_site_symmetry_multiplicity
 _atom_site_fract_x
 _atom_site_fract_y
 _atom_site_fract_z
 _atom_site_occupancy
  Cr  Cr0  1  0.585236  0.864599  0.388596  1
  Cr  Cr1  1  0.414764  0.635401  0.888596  1
  Cr  Cr2  1  0.585236  0.364599  0.111404  1
  Cr  Cr3  1  0.414764  0.135401  0.611404  1
  Hg  Hg4  1  0.504931  0.825156  0.055953  1
  Hg  Hg5  1  0.359358  0.600710  0.717902  1
  Hg  Hg6  1  0.495069  0.174844  0.944047  1
  Hg  Hg7  1  0.640642  0.899290  0.217902  1
  Hg  Hg8  1  0.926250  0.128450  0.861915  1
  Hg  Hg9  1  0.926250  0.628450  0.638085  1
  Hg  Hg10  1  0.640642  0.399290  0.282098  1
  Hg  Hg11  1  0.359358  0.100710  0.782098  1
  Hg  Hg12  1  0.073750  0.871550  0.138085  1
  Hg  Hg13  1  0.495069  0.674844  0.555953  1
  Hg  Hg14  1  0.073750  0.371550  0.361914  1
  Hg  Hg15  1  0.504931  0.325156  0.444047  1
  Pb  Pb16  1  0.971485  0.240636  0.521749  1
  Pb  Pb17  1  0.833537  0.572529  0.798568  1
  Pb  Pb18  1  0.971485  0.740636  0.978251  1
  Pb  Pb19  1  0.028515  0.259364  0.021749  1
  Pb  Pb20  1  0.166463  0.927471  0.298568  1
  Pb  Pb21  1  0.166463  0.427471  0.201432  1
  Pb  Pb22  1  0.028515  0.759364  0.478251  1
  Pb  Pb23  1  0.833537  0.072529  0.701432  1
  O  O24  1  0.683600  0.940588  0.456440  1
  O  O25  1  0.266526  0.256585  0.642409  1
  O  O26  1  0.683600  0.440588  0.043560  1
  O  O27  1  0.827863  0.921097  0.041724  1
  O  O28  1  0.316400  0.559412  0.956440  1
  O  O29  1  0.733474  0.743415  0.357590  1
  O  O30  1  0.827863  0.421097  0.458276  1
  O  O31  1  0.673989  0.780121  0.894618  1
  O  O32  1  0.266526  0.756585  0.857591  1
  O  O33  1  0.316400  0.059412  0.543560  1
  O  O34  1  0.412456  0.444154  0.845107  1
  O  O35  1  0.028952  0.009302  0.785885  1
  O  O36  1  0.326011  0.219879  0.105382  1
  O  O37  1  0.314346  0.791689  0.224293  1
  O  O38  1  0.733474  0.243415  0.142409  1
  O  O39  1  0.587544  0.055846  0.345107  1
  O  O40  1  0.587544  0.555846  0.154893  1
  O  O41  1  0.028952  0.509302  0.714115  1
  O  O42  1  0.685654  0.208311  0.775707  1
  O  O43  1  0.673989  0.280121  0.605382  1
  O  O44  1  0.176792  0.731712  0.067490  1
  O  O45  1  0.823208  0.768288  0.567490  1
  O  O46  1  0.176792  0.231712  0.432510  1
  O  O47  1  0.971048  0.490698  0.285885  1
  O  O48  1  0.823208  0.268288  0.932510  1
  O  O49  1  0.172137  0.078903  0.958276  1
  O  O50  1  0.412456  0.944154  0.654893  1
  O  O51  1  0.685654  0.708311  0.724293  1
  O  O52  1  0.971048  0.990698  0.214115  1
  O  O53  1  0.172137  0.578903  0.541724  1
  O  O54  1  0.326011  0.719879  0.394618  1
  O  O55  1  0.314346  0.291689  0.275707  1
