# generated using pymatgen
data_Si(PbO2)2
_symmetry_space_group_name_H-M   'P 1'
_cell_length_a   7.31826284
_cell_length_b   7.31826296
_cell_length_c   19.80970493
_cell_angle_alpha   83.96042882
_cell_angle_beta   83.96042864
_cell_angle_gamma   64.30339360
_symmetry_Int_Tables_number   1
_chemical_formula_structural   Si(PbO2)2
_chemical_formula_sum   'Si8 Pb16 O32'
_cell_volume   948.61183625
_cell_formula_units_Z   8
loop_
 _symmetry_equiv_pos_site_id
 _symmetry_equiv_pos_as_xyz
  1  'x, y, z'
loop_
 _atom_site_type_symbol
 _atom_site_label
 _atom_site_symmetry_multiplicity
 _atom_site_fract_x
 _atom_site_fract_y
 _atom_site_fract_z
 _atom_site_occupancy
  Si  Si0  1  0.532058  0.458626  0.580867  1
  Si  Si1  1  0.956240  0.034986  0.580774  1
  Si  Si2  1  0.705383  0.285936  0.080722  1
  Si  Si3  1  0.289846  0.717660  0.919331  1
  Si  Si4  1  0.541374  0.467942  0.419133  1
  Si  Si5  1  0.714064  0.294617  0.919278  1
  Si  Si6  1  0.282340  0.710154  0.080669  1
  Si  Si7  1  0.965014  0.043760  0.419226  1
  Pb  Pb8  1  0.370045  0.875880  0.253597  1
  Pb  Pb9  1  0.622008  0.628971  0.748877  1
  Pb  Pb10  1  0.371029  0.377992  0.251123  1
  Pb  Pb11  1  0.765546  0.770859  0.091647  1
  Pb  Pb12  1  0.482261  0.985104  0.408375  1
  Pb  Pb13  1  0.619951  0.130164  0.752126  1
  Pb  Pb14  1  0.229141  0.234454  0.908353  1
  Pb  Pb15  1  0.118917  0.126077  0.752723  1
  Pb  Pb16  1  0.873923  0.881083  0.247277  1
  Pb  Pb17  1  0.772378  0.771594  0.908200  1
  Pb  Pb18  1  0.018031  0.525450  0.408023  1
  Pb  Pb19  1  0.474550  0.981969  0.591977  1
  Pb  Pb20  1  0.869836  0.380049  0.247874  1
  Pb  Pb21  1  0.228406  0.227622  0.091800  1
  Pb  Pb22  1  0.124120  0.629955  0.746403  1
  Pb  Pb23  1  0.014896  0.517739  0.591625  1
  O  O24  1  0.209095  0.216269  0.205263  1
  O  O25  1  0.506885  0.510760  0.916950  1
  O  O26  1  0.958109  0.465342  0.703955  1
  O  O27  1  0.033891  0.538951  0.294671  1
  O  O28  1  0.335699  0.879644  0.111020  1
  O  O29  1  0.148851  0.082299  0.375367  1
  O  O30  1  0.917701  0.851149  0.624633  1
  O  O31  1  0.912801  0.873918  0.388520  1
  O  O32  1  0.875846  0.336221  0.112175  1
  O  O33  1  0.370619  0.417803  0.387756  1
  O  O34  1  0.709837  0.715477  0.203880  1
  O  O35  1  0.581524  0.651296  0.375519  1
  O  O36  1  0.284523  0.290163  0.796120  1
  O  O37  1  0.478061  0.521939  0.500000  1
  O  O38  1  0.126082  0.087199  0.611480  1
  O  O39  1  0.896704  0.335237  0.875385  1
  O  O40  1  0.348704  0.418476  0.624481  1
  O  O41  1  0.099043  0.671950  0.125077  1
  O  O42  1  0.489240  0.493115  0.083050  1
  O  O43  1  0.739460  0.242301  0.583592  1
  O  O44  1  0.534659  0.041891  0.296045  1
  O  O45  1  0.769788  0.230212  0.000000  1
  O  O46  1  0.120356  0.664301  0.888980  1
  O  O47  1  0.328050  0.900957  0.874923  1
  O  O48  1  0.226627  0.773373  1.000000  1
  O  O49  1  0.663779  0.124154  0.887825  1
  O  O50  1  0.783731  0.790905  0.794737  1
  O  O51  1  0.019268  0.980732  0.500000  1
  O  O52  1  0.757699  0.260540  0.416408  1
  O  O53  1  0.461049  0.966109  0.705329  1
  O  O54  1  0.664763  0.103296  0.124615  1
  O  O55  1  0.582197  0.629381  0.612244  1
