# generated using pymatgen
data_Sr2RhF7
_symmetry_space_group_name_H-M   'P 1'
_cell_length_a   5.61923049
_cell_length_b   8.80584968
_cell_length_c   11.82805456
_cell_angle_alpha   90.00000000
_cell_angle_beta   90.00000000
_cell_angle_gamma   90.90217015
_symmetry_Int_Tables_number   1
_chemical_formula_structural   Sr2RhF7
_chemical_formula_sum   'Sr8 Rh4 F28'
_cell_volume   585.20441440
_cell_formula_units_Z   4
loop_
 _symmetry_equiv_pos_site_id
 _symmetry_equiv_pos_as_xyz
  1  'x, y, z'
loop_
 _atom_site_type_symbol
 _atom_site_label
 _atom_site_symmetry_multiplicity
 _atom_site_fract_x
 _atom_site_fract_y
 _atom_site_fract_z
 _atom_site_occupancy
  Sr  Sr0  1  0.776756  0.847272  0.558311  1
  Sr  Sr1  1  0.223244  0.652728  0.058311  1
  Sr  Sr2  1  0.223244  0.152728  0.441689  1
  Sr  Sr3  1  0.776756  0.347272  0.941689  1
  Sr  Sr4  1  0.232008  0.551996  0.707277  1
  Sr  Sr5  1  0.767992  0.948004  0.207277  1
  Sr  Sr6  1  0.767992  0.448004  0.292723  1
  Sr  Sr7  1  0.232008  0.051996  0.792723  1
  Rh  Rh8  1  0.689153  0.818536  0.867620  1
  Rh  Rh9  1  0.310847  0.681464  0.367620  1
  Rh  Rh10  1  0.310847  0.181464  0.132380  1
  Rh  Rh11  1  0.689153  0.318536  0.632380  1
  F  F12  1  0.892974  0.990597  0.394134  1
  F  F13  1  0.107026  0.509403  0.894134  1
  F  F14  1  0.107026  0.009403  0.605866  1
  F  F15  1  0.892974  0.490597  0.105866  1
  F  F16  1  0.867061  0.322732  0.483863  1
  F  F17  1  0.132939  0.177268  0.983863  1
  F  F18  1  0.132939  0.677268  0.516137  1
  F  F19  1  0.867061  0.822732  0.016137  1
  F  F20  1  0.614572  0.629166  0.445309  1
  F  F21  1  0.385428  0.870834  0.945309  1
  F  F22  1  0.385428  0.370834  0.554691  1
  F  F23  1  0.614572  0.129166  0.054691  1
  F  F24  1  0.416029  0.897685  0.398607  1
  F  F25  1  0.583971  0.602315  0.898607  1
  F  F26  1  0.583971  0.102315  0.601393  1
  F  F27  1  0.416029  0.397685  0.101393  1
  F  F28  1  0.234797  0.962066  0.163561  1
  F  F29  1  0.765203  0.537934  0.663561  1
  F  F30  1  0.765203  0.037934  0.836439  1
  F  F31  1  0.234797  0.462066  0.336439  1
  F  F32  1  0.490230  0.810873  0.723453  1
  F  F33  1  0.509770  0.689127  0.223453  1
  F  F34  1  0.509770  0.189127  0.276547  1
  F  F35  1  0.490230  0.310873  0.776547  1
  F  F36  1  0.988757  0.284953  0.726290  1
  F  F37  1  0.011243  0.215047  0.226290  1
  F  F38  1  0.011243  0.715047  0.273710  1
  F  F39  1  0.988757  0.784953  0.773710  1
