# generated using pymatgen
data_NaCu4(AsO4)3
_symmetry_space_group_name_H-M   'P 1'
_cell_length_a   7.53493783
_cell_length_b   8.74516304
_cell_length_c   8.74516336
_cell_angle_alpha   91.54560444
_cell_angle_beta   109.44314831
_cell_angle_gamma   109.44315313
_symmetry_Int_Tables_number   1
_chemical_formula_structural   NaCu4(AsO4)3
_chemical_formula_sum   'Na2 Cu8 As6 O24'
_cell_volume   506.21674179
_cell_formula_units_Z   2
loop_
 _symmetry_equiv_pos_site_id
 _symmetry_equiv_pos_as_xyz
  1  'x, y, z'
loop_
 _atom_site_type_symbol
 _atom_site_label
 _atom_site_symmetry_multiplicity
 _atom_site_fract_x
 _atom_site_fract_y
 _atom_site_fract_z
 _atom_site_occupancy
  As  As0  1  0.881225  0.392238  0.154628  1
  As  As1  1  0.618775  0.845372  0.607762  1
  As  As2  1  0.118775  0.607762  0.845372  1
  As  As3  1  0.381225  0.154628  0.392238  1
  As  As4  1  0.750000  0.772899  0.227101  1
  As  As5  1  0.250000  0.227101  0.772899  1
  Cu  Cu6  1  0.750000  0.993296  0.006704  1
  Cu  Cu7  1  0.250000  0.006704  0.993296  1
  Cu  Cu8  1  0.141518  0.877148  0.565017  1
  Cu  Cu9  1  0.358482  0.434983  0.122852  1
  Cu  Cu10  1  0.858482  0.122852  0.434983  1
  Cu  Cu11  1  0.641518  0.565017  0.877148  1
  Cu  Cu12  1  0.750000  0.235527  0.764473  1
  Cu  Cu13  1  0.250000  0.764473  0.235527  1
  Na  Na14  1  0.750000  0.506046  0.493954  1
  Na  Na15  1  0.250000  0.493954  0.506046  1
  O  O16  1  0.885169  0.330878  0.340465  1
  O  O17  1  0.614831  0.659535  0.669122  1
  O  O18  1  0.114831  0.669122  0.659535  1
  O  O19  1  0.385169  0.340465  0.330878  1
  O  O20  1  0.760398  0.980799  0.226517  1
  O  O21  1  0.739602  0.773483  0.019201  1
  O  O22  1  0.239602  0.019201  0.773483  1
  O  O23  1  0.260398  0.226517  0.980799  1
  O  O24  1  0.823936  0.226752  0.004738  1
  O  O25  1  0.676064  0.995262  0.773248  1
  O  O26  1  0.176064  0.773248  0.995262  1
  O  O27  1  0.323936  0.004738  0.226752  1
  O  O28  1  0.694616  0.474355  0.084854  1
  O  O29  1  0.805384  0.915146  0.525645  1
  O  O30  1  0.305384  0.525645  0.915146  1
  O  O31  1  0.194616  0.084854  0.474355  1
  O  O32  1  0.125929  0.522851  0.190174  1
  O  O33  1  0.374071  0.809826  0.477149  1
  O  O34  1  0.874071  0.477149  0.809826  1
  O  O35  1  0.625929  0.190174  0.522851  1
  O  O36  1  0.962949  0.741920  0.346140  1
  O  O37  1  0.537051  0.653860  0.258080  1
  O  O38  1  0.037051  0.258080  0.653860  1
  O  O39  1  0.462949  0.346140  0.741920  1
