# generated using pymatgen
data_HoPH5CO7
_symmetry_space_group_name_H-M   'P 1'
_cell_length_a   6.50756036
_cell_length_b   6.90756617
_cell_length_c   7.75747837
_cell_angle_alpha   111.87905716
_cell_angle_beta   96.33683343
_cell_angle_gamma   90.67785927
_symmetry_Int_Tables_number   1
_chemical_formula_structural   HoPH5CO7
_chemical_formula_sum   'Ho2 P2 H10 C2 O14'
_cell_volume   321.08511050
_cell_formula_units_Z   2
loop_
 _symmetry_equiv_pos_site_id
 _symmetry_equiv_pos_as_xyz
  1  'x, y, z'
loop_
 _atom_site_type_symbol
 _atom_site_label
 _atom_site_symmetry_multiplicity
 _atom_site_fract_x
 _atom_site_fract_y
 _atom_site_fract_z
 _atom_site_occupancy
  Ho  Ho0  1  0.875972  0.779290  0.066343  1
  Ho  Ho1  1  0.124028  0.220710  0.933657  1
  P  P2  1  0.671828  0.251419  0.019957  1
  P  P3  1  0.328172  0.748581  0.980043  1
  H  H4  1  0.483706  0.883911  0.593722  1
  H  H5  1  0.721874  0.677178  0.652573  1
  H  H6  1  0.524861  0.740917  0.392651  1
  H  H7  1  0.516294  0.116089  0.406278  1
  H  H8  1  0.278126  0.322822  0.347427  1
  H  H9  1  0.837416  0.479871  0.682806  1
  H  H10  1  0.475139  0.259083  0.607349  1
  H  H11  1  0.626890  0.294150  0.203109  1
  H  H12  1  0.162584  0.520129  0.317194  1
  H  H13  1  0.373110  0.705850  0.796891  1
  C  C14  1  0.058369  0.905273  0.502515  1
  C  C15  1  0.941631  0.094727  0.497485  1
  O  O16  1  0.850135  0.083424  0.341968  1
  O  O17  1  0.466444  0.220934  0.894015  1
  O  O18  1  0.410778  0.198579  0.477260  1
  O  O19  1  0.819682  0.430462  0.024483  1
  O  O20  1  0.052862  0.752072  0.346747  1
  O  O21  1  0.804876  0.056704  0.962316  1
  O  O22  1  0.533556  0.779066  0.105985  1
  O  O23  1  0.589222  0.801421  0.522740  1
  O  O24  1  0.947138  0.247928  0.653253  1
  O  O25  1  0.149865  0.916576  0.658032  1
  O  O26  1  0.786457  0.621371  0.745572  1
  O  O27  1  0.195124  0.943296  0.037684  1
  O  O28  1  0.180318  0.569538  0.975517  1
  O  O29  1  0.213543  0.378629  0.254428  1
