# generated using pymatgen
data_NaLiCO3
_symmetry_space_group_name_H-M   'P 1'
_cell_length_a   8.45141223
_cell_length_b   8.45283207
_cell_length_c   3.36690000
_cell_angle_alpha   90.00000000
_cell_angle_beta   90.00000000
_cell_angle_gamma   119.97817674
_symmetry_Int_Tables_number   1
_chemical_formula_structural   NaLiCO3
_chemical_formula_sum   'Na3 Li3 C3 O9'
_cell_volume   208.34728127
_cell_formula_units_Z   3
loop_
 _symmetry_equiv_pos_site_id
 _symmetry_equiv_pos_as_xyz
  1  'x, y, z'
loop_
 _atom_site_type_symbol
 _atom_site_label
 _atom_site_symmetry_multiplicity
 _atom_site_fract_x
 _atom_site_fract_y
 _atom_site_fract_z
 _atom_site_occupancy
  Na  Na0  1  0.994814  0.665500  0.500000  1
  Na  Na1  1  0.670674  0.005168  0.500000  1
  Na  Na2  1  0.334509  0.329338  0.500000  1
  Li  Li3  1  0.037644  0.369600  0.000000  1
  Li  Li4  1  0.331958  0.962353  0.000000  1
  Li  Li5  1  0.630393  0.668043  0.000000  1
  C  C6  1  -0.000283  -0.000283  0.000000  1
  C  C7  1  0.333903  0.666975  0.500000  1
  C  C8  1  0.666280  0.333266  0.000000  1
  O  O9  1  0.105358  0.176814  0.000000  1
  O  O10  1  0.071393  0.894808  0.000000  1
  O  O11  1  0.823566  0.928704  0.000000  1
  O  O12  1  0.179759  0.511985  0.500000  1
  O  O13  1  0.332150  0.819903  0.500000  1
  O  O14  1  0.487461  0.667774  0.500000  1
  O  O15  1  0.843989  0.434929  0.000000  1
  O  O16  1  0.591094  0.156269  0.000000  1
  O  O17  1  0.565338  0.408854  0.000000  1
