# generated using pymatgen
data_Sr5Nb5O17
_symmetry_space_group_name_H-M   'P 1'
_cell_length_a   4.04347152
_cell_length_b   5.75754233
_cell_length_c   32.99910937
_cell_angle_alpha   90.00000000
_cell_angle_beta   90.00000000
_cell_angle_gamma   90.00000000
_symmetry_Int_Tables_number   1
_chemical_formula_structural   Sr5Nb5O17
_chemical_formula_sum   'Sr10 Nb10 O34'
_cell_volume   768.23439413
_cell_formula_units_Z   2
loop_
 _symmetry_equiv_pos_site_id
 _symmetry_equiv_pos_as_xyz
  1  'x, y, z'
loop_
 _atom_site_type_symbol
 _atom_site_label
 _atom_site_symmetry_multiplicity
 _atom_site_fract_x
 _atom_site_fract_y
 _atom_site_fract_z
 _atom_site_occupancy
  Sr  Sr0  1  0.000000  0.499892  0.589343  1
  Sr  Sr1  1  0.500000  0.500000  0.000000  1
  Sr  Sr2  1  0.500000  0.563568  0.215198  1
  Sr  Sr3  1  0.500000  0.000108  0.089343  1
  Sr  Sr4  1  0.000000  0.063568  0.284802  1
  Sr  Sr5  1  0.500000  0.436432  0.784802  1
  Sr  Sr6  1  0.500000  -0.000108  0.910657  1
  Sr  Sr7  1  0.000000  0.936432  0.715198  1
  Sr  Sr8  1  0.000000  0.500108  0.410657  1
  Sr  Sr9  1  0.000000  0.000000  0.500000  1
  Nb  Nb10  1  0.500000  0.533546  0.322671  1
  Nb  Nb11  1  0.500000  0.466454  0.677329  1
  Nb  Nb12  1  0.500000  0.005256  0.409282  1
  Nb  Nb13  1  0.000000  0.033546  0.177329  1
  Nb  Nb14  1  0.000000  0.505256  0.090718  1
  Nb  Nb15  1  0.000000  0.494744  0.909282  1
  Nb  Nb16  1  0.500000  0.994744  0.590718  1
  Nb  Nb17  1  0.500000  0.500000  0.500000  1
  Nb  Nb18  1  0.000000  0.966454  0.822671  1
  Nb  Nb19  1  0.000000  0.000000  0.000000  1
  O  O20  1  0.500000  0.271815  0.452320  1
  O  O21  1  0.000000  0.496136  0.669139  1
  O  O22  1  0.500000  0.797802  0.290755  1
  O  O23  1  0.500000  0.776982  0.632630  1
  O  O24  1  0.500000  0.706073  0.379490  1
  O  O25  1  0.500000  0.728185  0.547680  1
  O  O26  1  0.500000  0.490361  0.083555  1
  O  O27  1  0.000000  0.503864  0.330861  1
  O  O28  1  0.500000  0.000000  0.000000  1
  O  O29  1  0.000000  0.990361  0.416445  1
  O  O30  1  0.000000  0.771815  0.047680  1
  O  O31  1  0.000000  0.724745  0.962762  1
  O  O32  1  0.000000  0.793927  0.879490  1
  O  O33  1  0.000000  0.228185  0.952320  1
  O  O34  1  0.000000  0.815537  0.220520  1
  O  O35  1  0.500000  0.996136  0.830861  1
  O  O36  1  0.500000  0.003864  0.169139  1
  O  O37  1  0.000000  0.275255  0.037238  1
  O  O38  1  0.500000  0.202198  0.709245  1
  O  O39  1  0.000000  0.297802  0.209245  1
  O  O40  1  0.500000  0.509639  0.916445  1
  O  O41  1  0.500000  0.315537  0.279480  1
  O  O42  1  0.500000  0.775255  0.462762  1
  O  O43  1  0.000000  0.206073  0.120510  1
  O  O44  1  0.500000  0.293927  0.620510  1
  O  O45  1  0.000000  0.500000  0.500000  1
  O  O46  1  0.000000  0.009639  0.583555  1
  O  O47  1  0.500000  0.224745  0.537238  1
  O  O48  1  0.500000  0.223018  0.367370  1
  O  O49  1  0.000000  0.184463  0.779480  1
  O  O50  1  0.000000  0.723018  0.132630  1
  O  O51  1  0.000000  0.702198  0.790755  1
  O  O52  1  0.500000  0.684463  0.720520  1
  O  O53  1  0.000000  0.276982  0.867370  1
