# generated using pymatgen
data_RbClO2
_symmetry_space_group_name_H-M   'P 1'
_cell_length_a   4.65204065
_cell_length_b   4.65204193
_cell_length_c   8.01287653
_cell_angle_alpha   89.99982680
_cell_angle_beta   89.99996359
_cell_angle_gamma   91.67452466
_symmetry_Int_Tables_number   1
_chemical_formula_structural   RbClO2
_chemical_formula_sum   'Rb2 Cl2 O4'
_cell_volume   173.33651772
_cell_formula_units_Z   2
loop_
 _symmetry_equiv_pos_site_id
 _symmetry_equiv_pos_as_xyz
  1  'x, y, z'
loop_
 _atom_site_type_symbol
 _atom_site_label
 _atom_site_symmetry_multiplicity
 _atom_site_fract_x
 _atom_site_fract_y
 _atom_site_fract_z
 _atom_site_occupancy
  O  O0  1  0.872944  0.526502  0.249999  1
  Cl  Cl1  1  0.464208  0.535792  0.750000  1
  Rb  Rb2  1  0.999999  0.000002  1.000001  1
  O  O3  1  0.526501  0.872942  0.750000  1
  Cl  Cl4  1  0.535793  0.464207  0.250000  1
  O  O5  1  0.473500  0.127057  0.250000  1
  Rb  Rb6  1  0.999999  0.999999  0.500000  1
  O  O7  1  0.127057  0.473498  0.750000  1
