# generated using pymatgen
data_C4SeO2
_symmetry_space_group_name_H-M   'P 1'
_cell_length_a   4.46058618
_cell_length_b   9.12810560
_cell_length_c   11.70857565
_cell_angle_alpha   90.00070103
_cell_angle_beta   90.00162265
_cell_angle_gamma   90.00432862
_symmetry_Int_Tables_number   1
_chemical_formula_structural   C4SeO2
_chemical_formula_sum   'C16 Se4 O8'
_cell_volume   476.73458063
_cell_formula_units_Z   4
loop_
 _symmetry_equiv_pos_site_id
 _symmetry_equiv_pos_as_xyz
  1  'x, y, z'
loop_
 _atom_site_type_symbol
 _atom_site_label
 _atom_site_symmetry_multiplicity
 _atom_site_fract_x
 _atom_site_fract_y
 _atom_site_fract_z
 _atom_site_occupancy
  C  C0  1  0.416563  0.564001  0.882213  1
  C  C1  1  0.083431  0.064029  0.617781  1
  C  C2  1  0.916574  0.935990  0.617779  1
  C  C3  1  0.405871  0.571579  0.245962  1
  C  C4  1  0.094112  0.071604  0.254038  1
  C  C5  1  0.083441  0.064034  0.382228  1
  C  C6  1  0.905883  0.928420  0.745961  1
  C  C7  1  0.594125  0.428387  0.754049  1
  C  C8  1  0.583419  0.435977  0.117773  1
  C  C9  1  0.416566  0.563995  0.117774  1
  Se  Se10  1  0.737429  0.317263  -0.000001  1
  C  C11  1  0.905888  0.928422  0.254030  1
  C  C12  1  0.405862  0.571589  0.754049  1
  Se  Se13  1  0.262566  0.682720  0.999997  1
  C  C14  1  0.094113  0.071604  0.745964  1
  Se  Se15  1  0.762586  0.817283  0.499999  1
  C  C16  1  0.583429  0.435975  0.882219  1
  Se  Se17  1  0.237449  0.182736  0.500006  1
  C  C18  1  0.916578  0.935994  0.382226  1
  C  C19  1  0.594104  0.428396  0.245956  1
  O  O20  1  0.202752  0.152153  0.817325  1
  O  O21  1  0.297272  0.652109  0.317314  1
  O  O22  1  0.797266  0.847885  0.182680  1
  O  O23  1  0.202745  0.152155  0.182676  1
  O  O24  1  0.702743  0.347856  0.682684  1
  O  O25  1  0.702733  0.347854  0.317313  1
  O  O26  1  0.297253  0.652119  0.682684  1
  O  O27  1  0.797246  0.847871  0.817322  1
