# generated using pymatgen
data_Rb3Nb6SBr17
_symmetry_space_group_name_H-M   'P 1'
_cell_length_a   9.59586882
_cell_length_b   13.16555032
_cell_length_c   13.16555008
_cell_angle_alpha   94.79065017
_cell_angle_beta   90.87210113
_cell_angle_gamma   90.87210326
_symmetry_Int_Tables_number   1
_chemical_formula_structural   Rb3Nb6SBr17
_chemical_formula_sum   'Rb6 Nb12 S2 Br34'
_cell_volume   1657.03873126
_cell_formula_units_Z   2
loop_
 _symmetry_equiv_pos_site_id
 _symmetry_equiv_pos_as_xyz
  1  'x, y, z'
loop_
 _atom_site_type_symbol
 _atom_site_label
 _atom_site_symmetry_multiplicity
 _atom_site_fract_x
 _atom_site_fract_y
 _atom_site_fract_z
 _atom_site_occupancy
  Rb  Rb0  1  0.167843  0.167973  0.274562  1
  Rb  Rb1  1  0.250000  0.544550  0.455450  1
  Rb  Rb2  1  0.667843  0.274562  0.167973  1
  Rb  Rb3  1  0.332157  0.725438  0.832027  1
  Rb  Rb4  1  0.750000  0.455450  0.544550  1
  Rb  Rb5  1  0.832157  0.832027  0.725438  1
  Nb  Nb6  1  0.261885  0.301369  0.947413  1
  Nb  Nb7  1  0.143627  0.382619  0.760086  1
  Nb  Nb8  1  0.980251  0.803637  0.164250  1
  Nb  Nb9  1  0.856373  0.617381  0.239914  1
  Nb  Nb10  1  0.519749  0.835750  0.196363  1
  Nb  Nb11  1  0.480251  0.164250  0.803637  1
  Nb  Nb12  1  0.643627  0.760086  0.382619  1
  Nb  Nb13  1  0.356373  0.239914  0.617381  1
  Nb  Nb14  1  0.761885  0.947413  0.301369  1
  Nb  Nb15  1  0.238115  0.052587  0.698631  1
  Nb  Nb16  1  0.019749  0.196363  0.835750  1
  Nb  Nb17  1  0.738115  0.698631  0.052587  1
  S  S18  1  0.750000  0.777443  0.222557  1
  S  S19  1  0.250000  0.222557  0.777443  1
  Br  Br20  1  0.119261  0.640716  0.201224  1
  Br  Br21  1  0.937810  0.434872  0.309443  1
  Br  Br22  1  0.250000  0.881543  0.118457  1
  Br  Br23  1  0.523307  0.031127  0.255206  1
  Br  Br24  1  0.183577  0.489367  0.935008  1
  Br  Br25  1  0.562190  0.690557  0.565128  1
  Br  Br26  1  0.395434  0.438223  0.688966  1
  Br  Br27  1  0.834387  0.144362  0.362913  1
  Br  Br28  1  0.525373  0.349783  0.900911  1
  Br  Br29  1  0.604566  0.561777  0.311034  1
  Br  Br30  1  0.334387  0.362913  0.144362  1
  Br  Br31  1  0.610494  0.873052  0.009886  1
  Br  Br32  1  0.025373  0.900911  0.349783  1
  Br  Br33  1  0.110494  0.009886  0.873052  1
  Br  Br34  1  0.750000  0.118457  0.881543  1
  Br  Br35  1  0.895434  0.688966  0.438223  1
  Br  Br36  1  0.316423  0.064992  0.510633  1
  Br  Br37  1  0.062190  0.565128  0.690557  1
  Br  Br38  1  0.023307  0.255206  0.031127  1
  Br  Br39  1  0.974627  0.099089  0.650217  1
  Br  Br40  1  0.889506  0.990114  0.126948  1
  Br  Br41  1  0.389506  0.126948  0.990114  1
  Br  Br42  1  0.474627  0.650217  0.099089  1
  Br  Br43  1  0.104566  0.311034  0.561777  1
  Br  Br44  1  0.619261  0.201224  0.640716  1
  Br  Br45  1  0.816423  0.510633  0.064992  1
  Br  Br46  1  0.437810  0.309443  0.434872  1
  Br  Br47  1  0.880739  0.359284  0.798776  1
  Br  Br48  1  0.476693  0.968873  0.744794  1
  Br  Br49  1  0.380739  0.798776  0.359284  1
  Br  Br50  1  0.165613  0.855638  0.637087  1
  Br  Br51  1  0.976693  0.744794  0.968873  1
  Br  Br52  1  0.683577  0.935008  0.489367  1
  Br  Br53  1  0.665613  0.637087  0.855638  1
