# generated using pymatgen
data_K3Na2SnBi3
_symmetry_space_group_name_H-M   'P 1'
_cell_length_a   7.26793296
_cell_length_b   14.38106084
_cell_length_c   14.38106044
_cell_angle_alpha   73.86614983
_cell_angle_beta   75.36318266
_cell_angle_gamma   75.36318368
_symmetry_Int_Tables_number   1
_chemical_formula_structural   K3Na2SnBi3
_chemical_formula_sum   'K12 Na8 Sn4 Bi12'
_cell_volume   1369.86897641
_cell_formula_units_Z   4
loop_
 _symmetry_equiv_pos_site_id
 _symmetry_equiv_pos_as_xyz
  1  'x, y, z'
loop_
 _atom_site_type_symbol
 _atom_site_label
 _atom_site_symmetry_multiplicity
 _atom_site_fract_x
 _atom_site_fract_y
 _atom_site_fract_z
 _atom_site_occupancy
  K  K0  1  0.113366  0.087769  0.242080  1
  K  K1  1  0.250000  0.576120  0.423880  1
  K  K2  1  0.943215  0.412231  0.257920  1
  K  K3  1  0.886634  0.912231  0.757920  1
  K  K4  1  0.443215  0.257920  0.412231  1
  K  K5  1  0.556785  0.742080  0.587769  1
  K  K6  1  0.056785  0.587769  0.742080  1
  K  K7  1  0.750000  0.923880  0.076120  1
  K  K8  1  0.613366  0.242080  0.087769  1
  K  K9  1  0.386634  0.757920  0.912231  1
  K  K10  1  0.750000  0.423880  0.576120  1
  K  K11  1  0.250000  0.076120  0.923880  1
  Na  Na12  1  0.247153  0.502847  0.002847  1
  Na  Na13  1  0.587988  0.162012  0.662012  1
  Na  Na14  1  0.752847  0.497153  0.997153  1
  Na  Na15  1  0.252847  0.997153  0.497153  1
  Na  Na16  1  0.747153  0.002847  0.502847  1
  Na  Na17  1  0.087988  0.662012  0.162012  1
  Na  Na18  1  0.412012  0.837988  0.337988  1
  Na  Na19  1  0.912012  0.337988  0.837988  1
  Sn  Sn20  1  0.082383  0.167617  0.667617  1
  Sn  Sn21  1  0.582383  0.667617  0.167617  1
  Sn  Sn22  1  0.417617  0.332383  0.832383  1
  Sn  Sn23  1  0.917617  0.832383  0.332383  1
  Bi  Bi24  1  0.250000  0.851677  0.148323  1
  Bi  Bi25  1  0.372485  0.978133  0.702015  1
  Bi  Bi26  1  0.447366  0.478133  0.202015  1
  Bi  Bi27  1  0.627515  0.021867  0.297985  1
  Bi  Bi28  1  0.052634  0.797985  0.521867  1
  Bi  Bi29  1  0.947366  0.202015  0.478133  1
  Bi  Bi30  1  0.552634  0.521867  0.797985  1
  Bi  Bi31  1  0.750000  0.148323  0.851677  1
  Bi  Bi32  1  0.127515  0.297985  0.021867  1
  Bi  Bi33  1  0.750000  0.648323  0.351677  1
  Bi  Bi34  1  0.872485  0.702015  0.978133  1
  Bi  Bi35  1  0.250000  0.351677  0.648323  1
