# generated using pymatgen
data_K3V(SO)2
_symmetry_space_group_name_H-M   'P 1'
_cell_length_a   7.39956000
_cell_length_b   10.70676126
_cell_length_c   10.99989002
_cell_angle_alpha   113.97736279
_cell_angle_beta   90.00000000
_cell_angle_gamma   90.00000000
_symmetry_Int_Tables_number   1
_chemical_formula_structural   K3V(SO)2
_chemical_formula_sum   'K12 V4 S8 O8'
_cell_volume   796.26728941
_cell_formula_units_Z   4
loop_
 _symmetry_equiv_pos_site_id
 _symmetry_equiv_pos_as_xyz
  1  'x, y, z'
loop_
 _atom_site_type_symbol
 _atom_site_label
 _atom_site_symmetry_multiplicity
 _atom_site_fract_x
 _atom_site_fract_y
 _atom_site_fract_z
 _atom_site_occupancy
  K  K0  1  0.258934  0.054192  0.117549  1
  K  K1  1  0.135554  0.324008  0.839724  1
  K  K2  1  0.741066  0.945808  0.882451  1
  K  K3  1  0.241066  0.554192  0.617549  1
  K  K4  1  0.864446  0.675992  0.160276  1
  K  K5  1  0.275360  0.437524  0.206462  1
  K  K6  1  0.635554  0.175992  0.660276  1
  K  K7  1  0.775360  0.062476  0.293538  1
  K  K8  1  0.724640  0.562476  0.793538  1
  K  K9  1  0.224640  0.937524  0.706462  1
  K  K10  1  0.758934  0.445808  0.382451  1
  K  K11  1  0.364446  0.824008  0.339724  1
  V  V12  1  0.300903  0.665048  0.971697  1
  V  V13  1  0.199097  0.165048  0.471697  1
  V  V14  1  0.699097  0.334952  0.028303  1
  V  V15  1  0.800903  0.834952  0.528303  1
  S  S16  1  0.534630  0.807311  0.056907  1
  S  S17  1  0.419350  0.269598  0.408920  1
  S  S18  1  0.034630  0.692689  0.443093  1
  S  S19  1  0.465370  0.192689  0.943093  1
  S  S20  1  0.965370  0.307311  0.556907  1
  S  S21  1  0.919350  0.230402  0.091080  1
  S  S22  1  0.580650  0.730402  0.591080  1
  S  S23  1  0.080650  0.769598  0.908920  1
  O  O24  1  0.715763  0.890018  0.414627  1
  O  O25  1  0.370227  0.528944  0.833852  1
  O  O26  1  0.215763  0.609982  0.085373  1
  O  O27  1  0.784237  0.390018  0.914627  1
  O  O28  1  0.129773  0.028944  0.333852  1
  O  O29  1  0.284237  0.109982  0.585373  1
  O  O30  1  0.870227  0.971056  0.666148  1
  O  O31  1  0.629773  0.471056  0.166148  1
