# generated using pymatgen
data_CrPS4
_symmetry_space_group_name_H-M   'P 1'
_cell_length_a   6.66998589
_cell_length_b   6.56429653
_cell_length_c   6.56429716
_cell_angle_alpha   67.92405995
_cell_angle_beta   88.38030419
_cell_angle_gamma   88.38030634
_symmetry_Int_Tables_number   1
_chemical_formula_structural   CrPS4
_chemical_formula_sum   'Cr2 P2 S8'
_cell_volume   266.18394557
_cell_formula_units_Z   2
loop_
 _symmetry_equiv_pos_site_id
 _symmetry_equiv_pos_as_xyz
  1  'x, y, z'
loop_
 _atom_site_type_symbol
 _atom_site_label
 _atom_site_symmetry_multiplicity
 _atom_site_fract_x
 _atom_site_fract_y
 _atom_site_fract_z
 _atom_site_occupancy
  Cr  Cr0  1  1.000000  0.254670  0.745330  1
  Cr  Cr1  1  0.000000  0.745330  0.254670  1
  P  P2  1  0.844753  0.297353  0.297353  1
  P  P3  1  0.155247  0.702647  0.702647  1
  S  S4  1  0.278176  0.400636  0.866057  1
  S  S5  1  0.721824  0.133943  0.599364  1
  S  S6  1  0.721824  0.599364  0.133943  1
  S  S7  1  0.278176  0.866057  0.400636  1
  S  S8  1  0.823078  0.104926  0.104926  1
  S  S9  1  0.176922  0.895074  0.895074  1
  S  S10  1  0.868452  0.629053  0.629053  1
  S  S11  1  0.131548  0.370947  0.370947  1
