# generated using pymatgen
data_BaNa2Ti2(Si2O7)2
_symmetry_space_group_name_H-M   'P 1'
_cell_length_a   8.22152149
_cell_length_b   9.69729365
_cell_length_c   9.69729376
_cell_angle_alpha   65.79976017
_cell_angle_beta   64.91843418
_cell_angle_gamma   64.91843177
_symmetry_Int_Tables_number   1
_chemical_formula_structural   BaNa2Ti2(Si2O7)2
_chemical_formula_sum   'Ba2 Na4 Ti4 Si8 O28'
_cell_volume   608.71023921
_cell_formula_units_Z   2
loop_
 _symmetry_equiv_pos_site_id
 _symmetry_equiv_pos_as_xyz
  1  'x, y, z'
loop_
 _atom_site_type_symbol
 _atom_site_label
 _atom_site_symmetry_multiplicity
 _atom_site_fract_x
 _atom_site_fract_y
 _atom_site_fract_z
 _atom_site_occupancy
  Ba  Ba0  1  0.727795  -0.001113  0.498887  1
  Ba  Ba1  1  0.225569  1.001113  0.501113  1
  Na  Na2  1  0.977976  1.000000  1.000000  1
  Na  Na3  1  0.811042  0.407986  0.907986  1
  Na  Na4  1  0.127014  0.592014  0.092014  1
  Na  Na5  1  0.977976  0.500000  0.500000  1
  Ti  Ti6  1  0.171235  0.782272  0.282272  1
  Ti  Ti7  1  0.235779  0.217728  0.717728  1
  Ti  Ti8  1  0.737163  0.219174  0.719174  1
  Ti  Ti9  1  0.675511  0.780826  0.280826  1
  Si  Si10  1  0.432440  0.383812  0.326082  1
  Si  Si11  1  0.537224  0.173930  0.115975  1
  Si  Si12  1  0.827129  0.826070  0.884025  1
  Si  Si13  1  0.432440  0.826082  0.883812  1
  Si  Si14  1  0.827129  0.384025  0.326070  1
  Si  Si15  1  0.142334  0.616188  0.673918  1
  Si  Si16  1  0.537224  0.615975  0.673930  1
  Si  Si17  1  0.142334  0.173918  0.116188  1
  O  O18  1  0.266532  0.817026  0.051086  1
  O  O19  1  0.463413  0.783862  0.283862  1
  O  O20  1  0.266532  0.551086  0.317026  1
  O  O21  1  0.134644  0.448914  0.682974  1
  O  O22  1  0.830912  0.814974  0.053799  1
  O  O23  1  0.699686  0.185026  0.946201  1
  O  O24  1  0.486938  0.338240  0.161000  1
  O  O25  1  0.040691  0.203412  0.703412  1
  O  O26  1  0.341958  0.178529  0.107252  1
  O  O27  1  0.879234  0.980522  0.742855  1
  O  O28  1  0.627739  0.392748  0.321471  1
  O  O29  1  0.602611  0.019478  0.257145  1
  O  O30  1  0.602611  0.757145  0.519478  1
  O  O31  1  0.830912  0.553799  0.314974  1
  O  O32  1  0.092315  0.759545  0.520257  1
  O  O33  1  0.092315  0.020257  0.259545  1
  O  O34  1  0.986179  0.339000  0.161760  1
  O  O35  1  0.627739  0.821471  0.892748  1
  O  O36  1  0.341958  0.607252  0.678529  1
  O  O37  1  0.372118  0.979743  0.740455  1
  O  O38  1  0.134644  0.182974  0.948914  1
  O  O39  1  0.531138  0.216138  0.716138  1
  O  O40  1  0.372118  0.240455  0.479743  1
  O  O41  1  0.879234  0.242855  0.480522  1
  O  O42  1  0.699686  0.446201  0.685026  1
  O  O43  1  0.986179  0.661760  0.839000  1
  O  O44  1  0.486938  0.661000  0.838240  1
  O  O45  1  0.947514  0.796588  0.296588  1
