# generated using pymatgen
data_Pb(SeO3)2
_symmetry_space_group_name_H-M   'P 1'
_cell_length_a   4.97852757
_cell_length_b   7.27996795
_cell_length_c   9.02668916
_cell_angle_alpha   90.00000000
_cell_angle_beta   90.00000000
_cell_angle_gamma   109.69335525
_symmetry_Int_Tables_number   1
_chemical_formula_structural   Pb(SeO3)2
_chemical_formula_sum   'Pb2 Se4 O12'
_cell_volume   308.02334933
_cell_formula_units_Z   2
loop_
 _symmetry_equiv_pos_site_id
 _symmetry_equiv_pos_as_xyz
  1  'x, y, z'
loop_
 _atom_site_type_symbol
 _atom_site_label
 _atom_site_symmetry_multiplicity
 _atom_site_fract_x
 _atom_site_fract_y
 _atom_site_fract_z
 _atom_site_occupancy
  Pb  Pb0  1  0.000000  0.500000  0.500000  1
  Pb  Pb1  1  0.500000  0.000000  0.000000  1
  Se  Se2  1  0.673337  0.813845  0.348487  1
  Se  Se3  1  0.326663  0.186155  0.651513  1
  Se  Se4  1  0.173337  0.313845  0.151513  1
  Se  Se5  1  0.826663  0.686155  0.848487  1
  O  O6  1  0.855978  0.270198  0.056802  1
  O  O7  1  0.780525  0.913700  0.846553  1
  O  O8  1  0.568034  0.793349  0.163955  1
  O  O9  1  0.068034  0.293349  0.336045  1
  O  O10  1  0.644022  0.229802  0.556802  1
  O  O11  1  0.144022  0.729802  0.943198  1
  O  O12  1  0.355978  0.770198  0.443198  1
  O  O13  1  0.931966  0.706651  0.663955  1
  O  O14  1  0.431966  0.206651  0.836045  1
  O  O15  1  0.719475  0.586300  0.346553  1
  O  O16  1  0.280525  0.413700  0.653447  1
  O  O17  1  0.219475  0.086300  0.153447  1
