# generated using pymatgen
data_K(Mo2O3)2
_symmetry_space_group_name_H-M   'P 1'
_cell_length_a   3.27243694
_cell_length_b   10.11282115
_cell_length_c   10.11282115
_cell_angle_alpha   90.00000000
_cell_angle_beta   90.00000000
_cell_angle_gamma   90.00000000
_symmetry_Int_Tables_number   1
_chemical_formula_structural   K(Mo2O3)2
_chemical_formula_sum   'K2 Mo8 O12'
_cell_volume   334.66934956
_cell_formula_units_Z   2
loop_
 _symmetry_equiv_pos_site_id
 _symmetry_equiv_pos_as_xyz
  1  'x, y, z'
loop_
 _atom_site_type_symbol
 _atom_site_label
 _atom_site_symmetry_multiplicity
 _atom_site_fract_x
 _atom_site_fract_y
 _atom_site_fract_z
 _atom_site_occupancy
  K  K0  1  0.500000  0.000000  0.000000  1
  K  K1  1  0.500000  0.500000  0.500000  1
  Mo  Mo2  1  0.999568  0.616811  0.116795  1
  Mo  Mo3  1  0.000432  0.116795  0.383189  1
  Mo  Mo4  1  0.000432  0.883205  0.616811  1
  Mo  Mo5  1  0.999568  0.383189  0.883205  1
  Mo  Mo6  1  0.500542  0.152896  0.652872  1
  Mo  Mo7  1  0.499458  0.652872  0.847104  1
  Mo  Mo8  1  0.499458  0.347128  0.152896  1
  Mo  Mo9  1  0.500542  0.847104  0.347128  1
  O  O10  1  0.500357  0.203608  0.296371  1
  O  O11  1  0.499643  0.296371  0.796392  1
  O  O12  1  0.499643  0.703629  0.203608  1
  O  O13  1  0.500357  0.796392  0.703629  1
  O  O14  1  0.999406  0.256416  0.048375  1
  O  O15  1  0.000594  0.048375  0.743584  1
  O  O16  1  0.000594  0.951625  0.256416  1
  O  O17  1  0.999406  0.743584  0.951625  1
  O  O18  1  0.999407  0.451658  0.243599  1
  O  O19  1  0.000593  0.243599  0.548342  1
  O  O20  1  0.000593  0.756401  0.451658  1
  O  O21  1  0.999407  0.548342  0.756401  1
