# generated using pymatgen
data_H8C3O2
_symmetry_space_group_name_H-M   'P 1'
_cell_length_a   6.32754483
_cell_length_b   8.20924851
_cell_length_c   9.55546539
_cell_angle_alpha   90.00000000
_cell_angle_beta   107.78101766
_cell_angle_gamma   90.00000000
_symmetry_Int_Tables_number   1
_chemical_formula_structural   H8C3O2
_chemical_formula_sum   'H32 C12 O8'
_cell_volume   472.64233547
_cell_formula_units_Z   4
loop_
 _symmetry_equiv_pos_site_id
 _symmetry_equiv_pos_as_xyz
  1  'x, y, z'
loop_
 _atom_site_type_symbol
 _atom_site_label
 _atom_site_symmetry_multiplicity
 _atom_site_fract_x
 _atom_site_fract_y
 _atom_site_fract_z
 _atom_site_occupancy
  H  H0  1  0.123715  0.781740  0.012890  1
  H  H1  1  0.650205  0.259489  0.336825  1
  H  H2  1  0.579964  0.205901  0.935551  1
  H  H3  1  0.640116  0.085590  0.608516  1
  H  H4  1  0.611250  0.066993  0.237735  1
  H  H5  1  0.420036  0.794099  0.064449  1
  H  H6  1  0.620379  0.541859  0.739335  1
  H  H7  1  0.920036  0.705901  0.564449  1
  H  H8  1  0.379621  0.458141  0.260665  1
  H  H9  1  0.604933  0.527194  0.923050  1
  H  H10  1  0.376285  0.281740  0.487110  1
  H  H11  1  0.859884  0.585590  0.891484  1
  H  H12  1  0.079964  0.294099  0.435551  1
  H  H13  1  0.876285  0.218260  0.987110  1
  H  H14  1  0.746808  0.044226  0.039117  1
  H  H15  1  0.111250  0.433007  0.737735  1
  H  H16  1  0.849795  0.759489  0.163175  1
  H  H17  1  0.395067  0.472806  0.076950  1
  H  H18  1  0.879621  0.041859  0.760665  1
  H  H19  1  0.120379  0.958141  0.239335  1
  H  H20  1  0.150205  0.240511  0.836825  1
  H  H21  1  0.888750  0.566993  0.262265  1
  H  H22  1  0.359884  0.914410  0.391484  1
  H  H23  1  0.246808  0.455774  0.539117  1
  H  H24  1  0.388750  0.933007  0.762265  1
  H  H25  1  0.895067  0.027194  0.576950  1
  H  H26  1  0.753192  0.544226  0.460883  1
  H  H27  1  0.623715  0.718260  0.512890  1
  H  H28  1  0.253192  0.955774  0.960883  1
  H  H29  1  0.140116  0.414410  0.108516  1
  H  H30  1  0.349795  0.740511  0.663175  1
  H  H31  1  0.104933  0.972806  0.423050  1
  C  C32  1  0.764474  0.677309  0.477760  1
  C  C33  1  0.678523  0.595506  0.850335  1
  C  C34  1  0.400180  0.799139  0.772506  1
  C  C35  1  0.178523  0.904494  0.350335  1
  C  C36  1  0.321477  0.404494  0.149665  1
  C  C37  1  0.900180  0.700861  0.272506  1
  C  C38  1  0.099820  0.299139  0.727494  1
  C  C39  1  0.821477  0.095506  0.649665  1
  C  C40  1  0.599820  0.200861  0.227494  1
  C  C41  1  0.235526  0.322691  0.522239  1
  C  C42  1  0.735526  0.177309  0.022239  1
  C  C43  1  0.264474  0.822691  0.977761  1
  O  O44  1  0.250549  0.239080  0.656744  1
  O  O45  1  0.249451  0.739080  0.843256  1
  O  O46  1  0.125871  0.734369  0.347528  1
  O  O47  1  0.749451  0.760920  0.343256  1
  O  O48  1  0.625871  0.765631  0.847528  1
  O  O49  1  0.374129  0.234369  0.152472  1
  O  O50  1  0.750549  0.260920  0.156744  1
  O  O51  1  0.874129  0.265631  0.652472  1
