# generated using pymatgen
data_Pr5O9
_symmetry_space_group_name_H-M   'P 1'
_cell_length_a   6.73584942
_cell_length_b   13.30201908
_cell_length_c   21.04667762
_cell_angle_alpha   90.00000000
_cell_angle_beta   90.00000000
_cell_angle_gamma   79.30244787
_symmetry_Int_Tables_number   1
_chemical_formula_structural   Pr5O9
_chemical_formula_sum   'Pr40 O72'
_cell_volume   1853.01701300
_cell_formula_units_Z   8
loop_
 _symmetry_equiv_pos_site_id
 _symmetry_equiv_pos_as_xyz
  1  'x, y, z'
loop_
 _atom_site_type_symbol
 _atom_site_label
 _atom_site_symmetry_multiplicity
 _atom_site_fract_x
 _atom_site_fract_y
 _atom_site_fract_z
 _atom_site_occupancy
  Pr  Pr0  1  0.062164  0.745312  0.292070  1
  Pr  Pr1  1  0.500000  0.000000  0.500000  1
  Pr  Pr2  1  0.974557  0.730901  0.491803  1
  Pr  Pr3  1  0.018855  0.243055  0.908195  1
  Pr  Pr4  1  0.499544  0.476217  0.110854  1
  Pr  Pr5  1  0.979001  0.519745  0.613757  1
  Pr  Pr6  1  0.937836  0.254688  0.707930  1
  Pr  Pr7  1  0.981145  0.756945  0.091805  1
  Pr  Pr8  1  0.969383  0.010227  0.205300  1
  Pr  Pr9  1  0.437836  0.754688  0.792070  1
  Pr  Pr10  1  0.474557  0.230901  0.008197  1
  Pr  Pr11  1  0.562099  0.738638  0.205183  1
  Pr  Pr12  1  0.997065  0.519658  0.188180  1
  Pr  Pr13  1  0.479001  0.019745  0.886243  1
  Pr  Pr14  1  0.030617  0.989773  0.794700  1
  Pr  Pr15  1  0.452831  0.758394  0.412400  1
  Pr  Pr16  1  0.020999  0.480255  0.386243  1
  Pr  Pr17  1  0.500456  0.523783  0.889146  1
  Pr  Pr18  1  0.469383  0.510227  0.294700  1
  Pr  Pr19  1  0.002935  0.480342  0.811820  1
  Pr  Pr20  1  0.062099  0.238638  0.294817  1
  Pr  Pr21  1  0.000000  0.500000  0.000000  1
  Pr  Pr22  1  0.000000  0.000000  0.000000  1
  Pr  Pr23  1  0.047169  0.741606  0.912400  1
  Pr  Pr24  1  0.520999  0.980255  0.113757  1
  Pr  Pr25  1  0.497065  0.019658  0.311820  1
  Pr  Pr26  1  0.437901  0.261362  0.794817  1
  Pr  Pr27  1  0.025443  0.269099  0.508197  1
  Pr  Pr28  1  0.999544  0.976217  0.389146  1
  Pr  Pr29  1  0.525443  0.769099  0.991803  1
  Pr  Pr30  1  0.500000  0.500000  0.500000  1
  Pr  Pr31  1  0.562164  0.245312  0.207930  1
  Pr  Pr32  1  0.952831  0.258394  0.087600  1
  Pr  Pr33  1  0.518855  0.743055  0.591805  1
  Pr  Pr34  1  0.530617  0.489773  0.705300  1
  Pr  Pr35  1  0.547169  0.241606  0.587600  1
  Pr  Pr36  1  0.000456  0.023783  0.610854  1
  Pr  Pr37  1  0.481145  0.256945  0.408195  1
  Pr  Pr38  1  0.502935  0.980342  0.688180  1
  Pr  Pr39  1  0.937901  0.761362  0.705183  1
  O  O40  1  0.888142  0.437501  0.704280  1
  O  O41  1  0.611858  0.062499  0.204280  1
  O  O42  1  0.063133  0.042319  0.495708  1
  O  O43  1  0.835980  0.913121  0.293862  1
  O  O44  1  0.886427  0.934239  0.696137  1
  O  O45  1  0.339239  0.920816  0.599379  1
  O  O46  1  0.895121  0.702230  0.600414  1
  O  O47  1  0.840697  0.412137  0.291978  1
  O  O48  1  0.164787  0.077224  0.096499  1
  O  O49  1  0.378809  0.447344  0.398493  1
  O  O50  1  0.072791  0.537533  0.497868  1
  O  O51  1  0.664787  0.577224  0.403501  1
  O  O52  1  0.625547  0.064451  0.600469  1
  O  O53  1  0.361715  0.182219  0.500051  1
  O  O54  1  0.196517  0.343935  0.599875  1
  O  O55  1  0.395121  0.202230  0.899586  1
  O  O56  1  0.613573  0.565761  0.196137  1
  O  O57  1  0.908819  0.703612  0.197385  1
  O  O58  1  0.164020  0.086879  0.706138  1
  O  O59  1  0.111858  0.562499  0.295720  1
  O  O60  1  0.585239  0.299117  0.697099  1
  O  O61  1  0.138285  0.317781  1.000051  1
  O  O62  1  0.701106  0.335736  0.303240  1
  O  O63  1  0.337247  0.679607  0.504271  1
  O  O64  1  0.388142  0.937501  0.795720  1
  O  O65  1  0.298894  0.664264  0.696760  1
  O  O66  1  0.085239  0.799117  0.802901  1
  O  O67  1  0.427209  0.962467  0.997868  1
  O  O68  1  0.696517  0.843935  0.900125  1
  O  O69  1  0.659303  0.087863  0.791978  1
  O  O70  1  0.837247  0.179607  0.995729  1
  O  O71  1  0.162753  0.820393  0.004271  1
  O  O72  1  0.374453  0.935549  0.399531  1
  O  O73  1  0.104879  0.297770  0.399586  1
  O  O74  1  0.861715  0.682219  -0.000051  1
  O  O75  1  0.386427  0.434239  0.803863  1
  O  O76  1  0.303483  0.156065  0.099875  1
  O  O77  1  0.572791  0.037533  0.002132  1
  O  O78  1  0.909608  0.205371  0.601414  1
  O  O79  1  0.409608  0.705371  0.898586  1
  O  O80  1  0.125547  0.564451  0.899531  1
  O  O81  1  0.662753  0.320393  0.495729  1
  O  O82  1  0.590392  0.294629  0.101414  1
  O  O83  1  0.113573  0.065761  0.303863  1
  O  O84  1  0.414761  0.700883  0.302901  1
  O  O85  1  0.660761  0.079184  0.400621  1
  O  O86  1  0.874453  0.435549  0.100469  1
  O  O87  1  0.878809  0.947344  0.101507  1
  O  O88  1  0.638285  0.817781  0.499949  1
  O  O89  1  0.927209  0.462467  0.502132  1
  O  O90  1  0.091181  0.296388  0.802615  1
  O  O91  1  0.408819  0.203612  0.302615  1
  O  O92  1  0.835213  0.922776  0.903501  1
  O  O93  1  0.914761  0.200883  0.197099  1
  O  O94  1  0.335213  0.422776  0.596499  1
  O  O95  1  0.664020  0.586879  0.793862  1
  O  O96  1  0.621191  0.552656  0.601507  1
  O  O97  1  0.604879  0.797770  0.100414  1
  O  O98  1  0.803483  0.656065  0.400125  1
  O  O99  1  0.798894  0.164264  0.803240  1
  O  O100  1  0.201106  0.835736  0.196760  1
  O  O101  1  0.340697  0.912137  0.208022  1
  O  O102  1  0.839239  0.420816  0.900621  1
  O  O103  1  0.563133  0.542319  0.004292  1
  O  O104  1  0.121191  0.052656  0.898493  1
  O  O105  1  0.335980  0.413121  0.206138  1
  O  O106  1  0.936867  0.957681  0.504292  1
  O  O107  1  0.591181  0.796388  0.697385  1
  O  O108  1  0.159303  0.587863  0.708022  1
  O  O109  1  0.160761  0.579184  0.099379  1
  O  O110  1  0.090392  0.794629  0.398586  1
  O  O111  1  0.436867  0.457681  0.995708  1
