# generated using pymatgen
data_Sr10Al2ClF25
_symmetry_space_group_name_H-M   'P 1'
_cell_length_a   11.74658359
_cell_length_b   11.74658310
_cell_length_c   11.74658337
_cell_angle_alpha   59.99999920
_cell_angle_beta   60.00000060
_cell_angle_gamma   60.00000066
_symmetry_Int_Tables_number   1
_chemical_formula_structural   Sr10Al2ClF25
_chemical_formula_sum   'Sr20 Al4 Cl2 F50'
_cell_volume   1146.09257221
_cell_formula_units_Z   2
loop_
 _symmetry_equiv_pos_site_id
 _symmetry_equiv_pos_as_xyz
  1  'x, y, z'
loop_
 _atom_site_type_symbol
 _atom_site_label
 _atom_site_symmetry_multiplicity
 _atom_site_fract_x
 _atom_site_fract_y
 _atom_site_fract_z
 _atom_site_occupancy
  Sr  Sr0  1  0.710489  0.368533  0.710489  1
  Sr  Sr1  1  0.319226  0.319226  0.930774  1
  Sr  Sr2  1  0.680774  0.069226  0.069226  1
  Sr  Sr3  1  0.069226  0.069226  0.680774  1
  Sr  Sr4  1  0.289511  0.289511  0.631467  1
  Sr  Sr5  1  0.289511  0.289511  0.289511  1
  Sr  Sr6  1  0.631467  0.289511  0.289511  1
  Sr  Sr7  1  0.680774  0.069226  0.680774  1
  Sr  Sr8  1  0.289511  0.631467  0.289511  1
  Sr  Sr9  1  0.069226  0.680774  0.680774  1
  Sr  Sr10  1  0.930774  0.319226  0.319226  1
  Sr  Sr11  1  0.319226  0.930774  0.319226  1
  Sr  Sr12  1  0.319226  0.930774  0.930774  1
  Sr  Sr13  1  0.680774  0.680774  0.069226  1
  Sr  Sr14  1  0.069226  0.680774  0.069226  1
  Sr  Sr15  1  0.710489  0.710489  0.710489  1
  Sr  Sr16  1  0.368533  0.710489  0.710489  1
  Sr  Sr17  1  0.710489  0.710489  0.368533  1
  Sr  Sr18  1  0.930774  0.930774  0.319226  1
  Sr  Sr19  1  0.930774  0.319226  0.930774  1
  Al  Al20  1  0.500000  0.000000  0.500000  1
  Al  Al21  1  0.500000  0.500000  0.500000  1
  Al  Al22  1  0.500000  0.500000  0.000000  1
  Al  Al23  1  0.000000  0.500000  0.500000  1
  Cl  Cl24  1  0.125000  0.125000  0.125000  1
  Cl  Cl25  1  0.875000  0.875000  0.875000  1
  F  F26  1  0.537569  0.537569  0.106898  1
  F  F27  1  0.142783  0.142783  0.400486  1
  F  F28  1  0.537569  0.106898  0.537569  1
  F  F29  1  0.462431  0.462431  0.893102  1
  F  F30  1  0.599514  0.857217  0.186053  1
  F  F31  1  0.106898  0.537569  0.537569  1
  F  F32  1  0.462431  0.893102  0.682037  1
  F  F33  1  0.537569  0.317963  0.537569  1
  F  F34  1  0.375000  0.375000  0.375000  1
  F  F35  1  0.400486  0.142783  0.142783  1
  F  F36  1  0.142783  0.813947  0.142783  1
  F  F37  1  0.317963  0.537569  0.537569  1
  F  F38  1  0.462431  0.682037  0.893102  1
  F  F39  1  0.599514  0.857217  0.857217  1
  F  F40  1  0.857217  0.186053  0.599514  1
  F  F41  1  0.857217  0.186053  0.857217  1
  F  F42  1  0.893102  0.682037  0.462431  1
  F  F43  1  0.186053  0.599514  0.857217  1
  F  F44  1  0.462431  0.893102  0.462431  1
  F  F45  1  0.682037  0.462431  0.462431  1
  F  F46  1  0.813947  0.142783  0.142783  1
  F  F47  1  0.625000  0.625000  0.625000  1
  F  F48  1  0.682037  0.462431  0.893102  1
  F  F49  1  0.537569  0.537569  0.317963  1
  F  F50  1  0.537569  0.106898  0.317963  1
  F  F51  1  0.813947  0.142783  0.400486  1
  F  F52  1  0.106898  0.317963  0.537569  1
  F  F53  1  0.142783  0.142783  0.813947  1
  F  F54  1  0.813947  0.400486  0.142783  1
  F  F55  1  0.857217  0.599514  0.186053  1
  F  F56  1  0.893102  0.462431  0.462431  1
  F  F57  1  0.400486  0.142783  0.813947  1
  F  F58  1  0.857217  0.599514  0.857217  1
  F  F59  1  0.142783  0.813947  0.400486  1
  F  F60  1  0.857217  0.857217  0.186053  1
  F  F61  1  0.317963  0.106898  0.537569  1
  F  F62  1  0.893102  0.462431  0.682037  1
  F  F63  1  0.462431  0.462431  0.682037  1
  F  F64  1  0.142783  0.400486  0.142783  1
  F  F65  1  0.186053  0.857217  0.599514  1
  F  F66  1  0.857217  0.857217  0.599514  1
  F  F67  1  0.537569  0.317963  0.106898  1
  F  F68  1  0.599514  0.186053  0.857217  1
  F  F69  1  0.462431  0.682037  0.462431  1
  F  F70  1  0.682037  0.893102  0.462431  1
  F  F71  1  0.317963  0.537569  0.106898  1
  F  F72  1  0.400486  0.813947  0.142783  1
  F  F73  1  0.186053  0.857217  0.857217  1
  F  F74  1  0.106898  0.537569  0.317963  1
  F  F75  1  0.142783  0.400486  0.813947  1
