# generated using pymatgen
data_AsS4N4F5
_symmetry_space_group_name_H-M   'P 1'
_cell_length_a   5.78593755
_cell_length_b   7.93279280
_cell_length_c   11.40164406
_cell_angle_alpha   90.00000000
_cell_angle_beta   90.00000000
_cell_angle_gamma   109.30150450
_symmetry_Int_Tables_number   1
_chemical_formula_structural   AsS4N4F5
_chemical_formula_sum   'As2 S8 N8 F10'
_cell_volume   493.90537079
_cell_formula_units_Z   2
loop_
 _symmetry_equiv_pos_site_id
 _symmetry_equiv_pos_as_xyz
  1  'x, y, z'
loop_
 _atom_site_type_symbol
 _atom_site_label
 _atom_site_symmetry_multiplicity
 _atom_site_fract_x
 _atom_site_fract_y
 _atom_site_fract_z
 _atom_site_occupancy
  As  As0  1  0.847467  0.851667  0.750000  1
  As  As1  1  0.152533  0.148333  0.250000  1
  S  S2  1  0.172804  0.394979  0.880390  1
  S  S3  1  0.660369  0.146643  0.872869  1
  S  S4  1  0.339631  0.853357  0.372869  1
  S  S5  1  0.827196  0.605021  0.119610  1
  S  S6  1  0.339631  0.853357  0.127131  1
  S  S7  1  0.827196  0.605021  0.380390  1
  S  S8  1  0.660369  0.146643  0.627131  1
  S  S9  1  0.172804  0.394979  0.619610  1
  N  N10  1  0.097618  0.703791  0.081888  1
  N  N11  1  0.745258  0.625765  0.250000  1
  N  N12  1  0.713242  0.051305  0.750000  1
  N  N13  1  0.286758  0.948695  0.250000  1
  N  N14  1  0.254742  0.374235  0.750000  1
  N  N15  1  0.097618  0.703791  0.418112  1
  N  N16  1  0.902382  0.296209  0.918112  1
  N  N17  1  0.902382  0.296209  0.581888  1
  F  F18  1  0.042717  0.331114  0.250000  1
  F  F19  1  0.957283  0.668886  0.750000  1
  F  F20  1  0.368474  0.251915  0.361878  1
  F  F21  1  0.368474  0.251915  0.138122  1
  F  F22  1  0.936922  0.037810  0.139654  1
  F  F23  1  0.063078  0.962190  0.860346  1
  F  F24  1  0.936922  0.037810  0.360346  1
  F  F25  1  0.631526  0.748085  0.861878  1
  F  F26  1  0.631526  0.748085  0.638122  1
  F  F27  1  0.063078  0.962190  0.639654  1
