# generated using pymatgen
data_Ba4Tl2Cu2HgO10
_symmetry_space_group_name_H-M   'P 1'
_cell_length_a   3.92075218
_cell_length_b   3.92075218
_cell_length_c   21.93821745
_cell_angle_alpha   95.12673701
_cell_angle_beta   95.12673702
_cell_angle_gamma   89.99999586
_symmetry_Int_Tables_number   1
_chemical_formula_structural   Ba4Tl2Cu2HgO10
_chemical_formula_sum   'Ba4 Tl2 Cu2 Hg1 O10'
_cell_volume   334.53708744
_cell_formula_units_Z   1
loop_
 _symmetry_equiv_pos_site_id
 _symmetry_equiv_pos_as_xyz
  1  'x, y, z'
loop_
 _atom_site_type_symbol
 _atom_site_label
 _atom_site_symmetry_multiplicity
 _atom_site_fract_x
 _atom_site_fract_y
 _atom_site_fract_z
 _atom_site_occupancy
  Ba  Ba0  1  0.341963  0.341963  0.683927  1
  Ba  Ba1  1  0.569095  0.569095  0.138190  1
  Ba  Ba2  1  0.430905  0.430905  0.861810  1
  Ba  Ba3  1  0.658037  0.658037  0.316073  1
  Tl  Tl4  1  0.223907  0.223907  0.447814  1
  Tl  Tl5  1  0.776093  0.776093  0.552186  1
  Cu  Cu6  1  0.113925  0.113925  0.227849  1
  Cu  Cu7  1  0.886075  0.886075  0.772151  1
  Hg  Hg8  1  0.000000  0.000000  0.000000  1
  O  O9  1  0.886701  0.386701  0.773402  1
  O  O10  1  0.953698  0.953698  0.907395  1
  O  O11  1  0.728421  0.728421  0.456843  1
  O  O12  1  0.046302  0.046302  0.092605  1
  O  O13  1  0.822686  0.822686  0.645373  1
  O  O14  1  0.113299  0.613299  0.226598  1
  O  O15  1  0.386701  0.886701  0.773402  1
  O  O16  1  0.271579  0.271579  0.543157  1
  O  O17  1  0.177314  0.177314  0.354627  1
  O  O18  1  0.613299  0.113299  0.226598  1
