# generated using pymatgen
data_Si(AgO)4
_symmetry_space_group_name_H-M   'P 1'
_cell_length_a   4.96775220
_cell_length_b   7.46189874
_cell_length_c   7.46189874
_cell_angle_alpha   90.00000000
_cell_angle_beta   90.00000000
_cell_angle_gamma   90.00000000
_symmetry_Int_Tables_number   1
_chemical_formula_structural   Si(AgO)4
_chemical_formula_sum   'Si2 Ag8 O8'
_cell_volume   276.60410869
_cell_formula_units_Z   2
loop_
 _symmetry_equiv_pos_site_id
 _symmetry_equiv_pos_as_xyz
  1  'x, y, z'
loop_
 _atom_site_type_symbol
 _atom_site_label
 _atom_site_symmetry_multiplicity
 _atom_site_fract_x
 _atom_site_fract_y
 _atom_site_fract_z
 _atom_site_occupancy
  Si  Si0  1  0.750000  0.250000  0.250000  1
  Si  Si1  1  0.250000  0.750000  0.750000  1
  Ag  Ag2  1  0.203797  0.136774  0.568912  1
  Ag  Ag3  1  0.796203  0.636774  0.068912  1
  Ag  Ag4  1  0.796203  0.863226  0.431088  1
  Ag  Ag5  1  0.703797  0.431088  0.636774  1
  Ag  Ag6  1  0.703797  0.068912  0.863226  1
  Ag  Ag7  1  0.296203  0.568912  0.363226  1
  Ag  Ag8  1  0.203797  0.363226  0.931088  1
  Ag  Ag9  1  0.296203  0.931088  0.136774  1
  O  O10  1  0.439295  0.577711  0.811467  1
  O  O11  1  0.939295  0.311467  0.422289  1
  O  O12  1  0.060705  0.811467  0.922289  1
  O  O13  1  0.560705  0.422289  0.188533  1
  O  O14  1  0.939295  0.188533  0.077711  1
  O  O15  1  0.439295  0.922289  0.688533  1
  O  O16  1  0.060705  0.688533  0.577711  1
  O  O17  1  0.560705  0.077711  0.311467  1
