# generated using pymatgen
data_BaV2(P2O7)2
_symmetry_space_group_name_H-M   'P 1'
_cell_length_a   7.59337560
_cell_length_b   7.59337561
_cell_length_c   9.94840179
_cell_angle_alpha   80.60776696
_cell_angle_beta   80.60776697
_cell_angle_gamma   89.41832235
_symmetry_Int_Tables_number   1
_chemical_formula_structural   BaV2(P2O7)2
_chemical_formula_sum   'Ba2 V4 P8 O28'
_cell_volume   558.26194846
_cell_formula_units_Z   2
loop_
 _symmetry_equiv_pos_site_id
 _symmetry_equiv_pos_as_xyz
  1  'x, y, z'
loop_
 _atom_site_type_symbol
 _atom_site_label
 _atom_site_symmetry_multiplicity
 _atom_site_fract_x
 _atom_site_fract_y
 _atom_site_fract_z
 _atom_site_occupancy
  O  O0  1  0.944391  0.785433  0.158087  1
  O  O1  1  0.214567  0.055609  0.341913  1
  O  O2  1  0.055609  0.214567  0.841913  1
  O  O3  1  0.785433  0.944391  0.658087  1
  O  O4  1  0.621214  0.739987  0.291505  1
  O  O5  1  0.260013  0.378786  0.208495  1
  O  O6  1  0.378786  0.260013  0.708495  1
  O  O7  1  0.739987  0.621214  0.791505  1
  O  O8  1  0.855321  0.853438  0.403966  1
  O  O9  1  0.146562  0.144679  0.096034  1
  O  O10  1  0.144679  0.146562  0.596034  1
  O  O11  1  0.853438  0.855321  0.903966  1
  O  O12  1  0.873658  0.534094  0.346696  1
  O  O13  1  0.465906  0.126342  0.153304  1
  O  O14  1  0.408487  0.729305  0.093963  1
  O  O15  1  0.270695  0.591513  0.406037  1
  O  O16  1  0.591513  0.270695  0.906037  1
  O  O17  1  0.729305  0.408487  0.593963  1
  O  O18  1  0.366237  0.572196  0.891336  1
  O  O19  1  0.427804  0.633763  0.608664  1
  O  O20  1  0.633763  0.427804  0.108664  1
  O  O21  1  0.572196  0.366237  0.391336  1
  O  O22  1  0.206219  0.853948  0.923488  1
  O  O23  1  0.146052  0.793781  0.576512  1
  O  O24  1  0.793781  0.146052  0.076512  1
  O  O25  1  0.853948  0.206219  0.423488  1
  O  O26  1  0.534094  0.873658  0.846696  1
  O  O27  1  0.126342  0.465906  0.653304  1
  P  P28  1  0.821145  0.740554  0.297284  1
  P  P29  1  0.259446  0.178855  0.202716  1
  P  P30  1  0.178855  0.259446  0.702716  1
  P  P31  1  0.740554  0.821145  0.797284  1
  P  P32  1  0.750959  0.375668  0.445294  1
  P  P33  1  0.624332  0.249041  0.054706  1
  P  P34  1  0.249041  0.624332  0.554706  1
  P  P35  1  0.375668  0.750959  0.945294  1
  V  V36  1  0.000000  0.000000  0.500000  1
  V  V37  1  0.000000  0.000000  0.000000  1
  V  V38  1  0.455250  0.544750  0.250000  1
  V  V39  1  0.544750  0.455250  0.750000  1
  Ba  Ba40  1  0.000000  0.500000  0.000000  1
  Ba  Ba41  1  0.500000  0.000000  0.500000  1
