# generated using pymatgen
data_SnS8(N2Cl)4
_symmetry_space_group_name_H-M   'P 1'
_cell_length_a   12.11579856
_cell_length_b   12.76266480
_cell_length_c   12.96296675
_cell_angle_alpha   90.00000000
_cell_angle_beta   90.00000000
_cell_angle_gamma   90.00000000
_symmetry_Int_Tables_number   1
_chemical_formula_structural   SnS8(N2Cl)4
_chemical_formula_sum   'Sn4 S32 N32 Cl16'
_cell_volume   2004.46193862
_cell_formula_units_Z   4
loop_
 _symmetry_equiv_pos_site_id
 _symmetry_equiv_pos_as_xyz
  1  'x, y, z'
loop_
 _atom_site_type_symbol
 _atom_site_label
 _atom_site_symmetry_multiplicity
 _atom_site_fract_x
 _atom_site_fract_y
 _atom_site_fract_z
 _atom_site_occupancy
  Sn  Sn0  1  0.247299  0.001081  0.569808  1
  Sn  Sn1  1  0.752701  0.001081  0.069808  1
  Sn  Sn2  1  0.752701  0.501081  0.430192  1
  Sn  Sn3  1  0.247299  0.501081  0.930192  1
  S  S4  1  0.883017  0.097171  0.742104  1
  S  S5  1  0.612533  0.893582  0.394685  1
  S  S6  1  0.947056  0.657631  0.104391  1
  S  S7  1  0.513977  0.559513  0.852035  1
  S  S8  1  0.513977  0.059513  0.647965  1
  S  S9  1  0.641480  0.101970  0.295909  1
  S  S10  1  0.486023  0.059513  0.147965  1
  S  S11  1  0.021869  0.448202  0.508776  1
  S  S12  1  0.358520  0.601970  0.704091  1
  S  S13  1  0.558687  0.348892  0.763621  1
  S  S14  1  0.387467  0.893582  0.894685  1
  S  S15  1  0.052944  0.657631  0.604391  1
  S  S16  1  0.052944  0.157631  0.895609  1
  S  S17  1  0.866465  0.392037  0.651843  1
  S  S18  1  0.116983  0.597171  0.257896  1
  S  S19  1  0.021869  0.948202  0.991224  1
  S  S20  1  0.441313  0.348892  0.263621  1
  S  S21  1  0.641480  0.601970  0.204091  1
  S  S22  1  0.486023  0.559513  0.352035  1
  S  S23  1  0.358520  0.101970  0.795909  1
  S  S24  1  0.133535  0.392037  0.151843  1
  S  S25  1  0.866465  0.892037  0.848157  1
  S  S26  1  0.978131  0.948202  0.491224  1
  S  S27  1  0.133535  0.892037  0.348157  1
  S  S28  1  0.612533  0.393582  0.105315  1
  S  S29  1  0.883017  0.597171  0.757896  1
  S  S30  1  0.947056  0.157631  0.395609  1
  S  S31  1  0.978131  0.448202  0.008776  1
  S  S32  1  0.441313  0.848892  0.236379  1
  S  S33  1  0.558687  0.848892  0.736379  1
  S  S34  1  0.387467  0.393582  0.605315  1
  S  S35  1  0.116983  0.097171  0.242104  1
  N  N36  1  0.450729  0.332309  0.695025  1
  N  N37  1  0.639700  0.012356  0.381826  1
  N  N38  1  0.381195  0.052155  0.678823  1
  N  N39  1  0.549271  0.832309  0.304975  1
  N  N40  1  0.360300  0.512356  0.618174  1
  N  N41  1  0.112132  0.947127  0.462646  1
  N  N42  1  0.138332  0.977532  0.258423  1
  N  N43  1  0.920773  0.555356  0.042511  1
  N  N44  1  0.057453  0.664765  0.171050  1
  N  N45  1  0.421963  0.954330  0.177793  1
  N  N46  1  0.079227  0.555356  0.542511  1
  N  N47  1  0.861668  0.977532  0.758423  1
  N  N48  1  0.639700  0.512356  0.118174  1
  N  N49  1  0.942547  0.164765  0.828950  1
  N  N50  1  0.450729  0.832309  0.804975  1
  N  N51  1  0.057453  0.164765  0.328950  1
  N  N52  1  0.138332  0.477532  0.241577  1
  N  N53  1  0.079227  0.055356  0.957489  1
  N  N54  1  0.578037  0.954330  0.677793  1
  N  N55  1  0.887868  0.947127  0.962646  1
  N  N56  1  0.920773  0.055356  0.457489  1
  N  N57  1  0.861668  0.477532  0.741577  1
  N  N58  1  0.578037  0.454330  0.822207  1
  N  N59  1  0.421963  0.454330  0.322207  1
  N  N60  1  0.112132  0.447127  0.037354  1
  N  N61  1  0.887868  0.447127  0.537354  1
  N  N62  1  0.360300  0.012356  0.881826  1
  N  N63  1  0.549271  0.332309  0.195025  1
  N  N64  1  0.618805  0.052155  0.178823  1
  N  N65  1  0.942547  0.664765  0.671050  1
  N  N66  1  0.618805  0.552155  0.321177  1
  N  N67  1  0.381195  0.552155  0.821177  1
  Cl  Cl68  1  0.144510  0.161563  0.609276  1
  Cl  Cl69  1  0.152368  0.911884  0.711422  1
  Cl  Cl70  1  0.655247  0.590590  0.570682  1
  Cl  Cl71  1  0.344753  0.590590  0.070682  1
  Cl  Cl72  1  0.855490  0.661563  0.390724  1
  Cl  Cl73  1  0.652586  0.339052  0.474035  1
  Cl  Cl74  1  0.847632  0.411884  0.288578  1
  Cl  Cl75  1  0.344753  0.090590  0.429318  1
  Cl  Cl76  1  0.655247  0.090590  0.929318  1
  Cl  Cl77  1  0.144510  0.661563  0.890724  1
  Cl  Cl78  1  0.652586  0.839052  0.025965  1
  Cl  Cl79  1  0.347414  0.839052  0.525965  1
  Cl  Cl80  1  0.347414  0.339052  0.974035  1
  Cl  Cl81  1  0.152368  0.411884  0.788578  1
  Cl  Cl82  1  0.847632  0.911884  0.211422  1
  Cl  Cl83  1  0.855490  0.161563  0.109276  1
