# generated using pymatgen
data_CuH3C2NO4
_symmetry_space_group_name_H-M   'P 1'
_cell_length_a   8.66412089
_cell_length_b   9.67038565
_cell_length_c   11.25667924
_cell_angle_alpha   90.00000000
_cell_angle_beta   90.00000000
_cell_angle_gamma   90.00000000
_symmetry_Int_Tables_number   1
_chemical_formula_structural   CuH3C2NO4
_chemical_formula_sum   'Cu8 H24 C16 N8 O32'
_cell_volume   943.14526388
_cell_formula_units_Z   8
loop_
 _symmetry_equiv_pos_site_id
 _symmetry_equiv_pos_as_xyz
  1  'x, y, z'
loop_
 _atom_site_type_symbol
 _atom_site_label
 _atom_site_symmetry_multiplicity
 _atom_site_fract_x
 _atom_site_fract_y
 _atom_site_fract_z
 _atom_site_occupancy
  Cu  Cu0  1  0.886798  0.760330  0.926420  1
  Cu  Cu1  1  0.113202  0.739670  0.426420  1
  Cu  Cu2  1  0.386798  0.739670  0.926420  1
  Cu  Cu3  1  0.613202  0.760330  0.426420  1
  Cu  Cu4  1  0.386798  0.239670  0.573580  1
  Cu  Cu5  1  0.886798  0.260330  0.573580  1
  Cu  Cu6  1  0.613202  0.260330  0.073580  1
  Cu  Cu7  1  0.113202  0.239670  0.073580  1
  H  H8  1  0.750896  0.109157  0.727175  1
  H  H9  1  0.224727  0.726975  0.740143  1
  H  H10  1  0.249104  0.890843  0.272825  1
  H  H11  1  0.109652  0.303661  0.294301  1
  H  H12  1  0.890348  0.196339  0.794301  1
  H  H13  1  0.609652  0.196339  0.294301  1
  H  H14  1  0.390348  0.803661  0.705699  1
  H  H15  1  0.390348  0.303661  0.794301  1
  H  H16  1  0.775273  0.273025  0.259857  1
  H  H17  1  0.275273  0.726975  0.240143  1
  H  H18  1  0.250896  0.390843  0.727175  1
  H  H19  1  0.224727  0.226975  0.759857  1
  H  H20  1  0.890348  0.696339  0.705699  1
  H  H21  1  0.109652  0.803661  0.205699  1
  H  H22  1  0.724727  0.773025  0.740143  1
  H  H23  1  0.275273  0.226975  0.259857  1
  H  H24  1  0.775273  0.773025  0.240143  1
  H  H25  1  0.249104  0.390843  0.227175  1
  H  H26  1  0.250896  0.890843  0.772825  1
  H  H27  1  0.724727  0.273025  0.759857  1
  H  H28  1  0.609652  0.696339  0.205699  1
  H  H29  1  0.750896  0.609157  0.772825  1
  H  H30  1  0.749104  0.109157  0.227175  1
  H  H31  1  0.749104  0.609157  0.272825  1
  C  C32  1  0.511832  0.477686  0.935323  1
  C  C33  1  0.988168  0.977686  0.064677  1
  C  C34  1  0.511832  0.977686  0.564677  1
  C  C35  1  0.988168  0.477686  0.435323  1
  C  C36  1  0.084881  0.513308  0.980364  1
  C  C37  1  0.084881  0.013308  0.519636  1
  C  C38  1  0.011832  0.022314  0.935323  1
  C  C39  1  0.915119  0.486692  0.019636  1
  C  C40  1  0.584881  0.986692  0.980364  1
  C  C41  1  0.488168  0.022314  0.435323  1
  C  C42  1  0.415119  0.013308  0.019636  1
  C  C43  1  0.915119  0.986692  0.480364  1
  C  C44  1  0.415119  0.513308  0.480364  1
  C  C45  1  0.488168  0.522314  0.064677  1
  C  C46  1  0.011832  0.522314  0.564677  1
  C  C47  1  0.584881  0.486692  0.519636  1
  N  N48  1  0.305149  0.797156  0.768747  1
  N  N49  1  0.194851  0.797156  0.268747  1
  N  N50  1  0.805149  0.702844  0.768747  1
  N  N51  1  0.805149  0.202844  0.731253  1
  N  N52  1  0.194851  0.297156  0.231253  1
  N  N53  1  0.694851  0.202844  0.231253  1
  N  N54  1  0.305149  0.297156  0.731253  1
  N  N55  1  0.694851  0.702844  0.268747  1
  O  O56  1  0.521802  0.935981  0.354742  1
  O  O57  1  0.978198  0.435981  0.645258  1
  O  O58  1  0.021802  0.564019  0.354742  1
  O  O59  1  0.062668  0.644076  0.582918  1
  O  O60  1  0.817750  0.584645  0.004136  1
  O  O61  1  0.021802  0.064019  0.145258  1
  O  O62  1  0.521802  0.435981  0.145258  1
  O  O63  1  0.562668  0.355924  0.917082  1
  O  O64  1  0.437332  0.644076  0.082918  1
  O  O65  1  0.116423  0.629149  0.935995  1
  O  O66  1  0.883577  0.370851  0.064005  1
  O  O67  1  0.937332  0.355924  0.417082  1
  O  O68  1  0.116423  0.129149  0.564005  1
  O  O69  1  0.383577  0.129149  0.064005  1
  O  O70  1  0.062668  0.144076  0.917082  1
  O  O71  1  0.817750  0.084645  0.495864  1
  O  O72  1  0.616423  0.870851  0.935995  1
  O  O73  1  0.478198  0.064019  0.645258  1
  O  O74  1  0.182251  0.415355  0.995864  1
  O  O75  1  0.182251  0.915355  0.504136  1
  O  O76  1  0.317750  0.415355  0.495864  1
  O  O77  1  0.883577  0.870851  0.435995  1
  O  O78  1  0.682250  0.084645  0.995864  1
  O  O79  1  0.383577  0.629149  0.435995  1
  O  O80  1  0.478198  0.564019  0.854742  1
  O  O81  1  0.616423  0.370851  0.564005  1
  O  O82  1  0.682250  0.584645  0.504136  1
  O  O83  1  0.937332  0.855924  0.082918  1
  O  O84  1  0.562668  0.855924  0.582918  1
  O  O85  1  0.978198  0.935981  0.854742  1
  O  O86  1  0.317750  0.915355  0.004136  1
  O  O87  1  0.437332  0.144076  0.417082  1
