# generated using pymatgen
data_GdCuSeO
_symmetry_space_group_name_H-M   'P 1'
_cell_length_a   3.93904048
_cell_length_b   3.93904048
_cell_length_c   8.77027844
_cell_angle_alpha   90.00000000
_cell_angle_beta   90.00000000
_cell_angle_gamma   90.00000000
_symmetry_Int_Tables_number   1
_chemical_formula_structural   GdCuSeO
_chemical_formula_sum   'Gd2 Cu2 Se2 O2'
_cell_volume   136.07999024
_cell_formula_units_Z   2
loop_
 _symmetry_equiv_pos_site_id
 _symmetry_equiv_pos_as_xyz
  1  'x, y, z'
loop_
 _atom_site_type_symbol
 _atom_site_label
 _atom_site_symmetry_multiplicity
 _atom_site_fract_x
 _atom_site_fract_y
 _atom_site_fract_z
 _atom_site_occupancy
  Gd  Gd0  1  0.250000  0.250000  0.132537  1
  Gd  Gd1  1  0.750000  0.750000  0.867463  1
  Se  Se2  1  0.250000  0.250000  0.679713  1
  Se  Se3  1  0.750000  0.750000  0.320287  1
  Cu  Cu4  1  0.750000  0.250000  0.500000  1
  Cu  Cu5  1  0.250000  0.750000  0.500000  1
  O  O6  1  0.750000  0.250000  0.000000  1
  O  O7  1  0.250000  0.750000  0.000000  1
