# generated using pymatgen
data_Pu
_symmetry_space_group_name_H-M   'P 1'
_cell_length_a   3.53912475
_cell_length_b   3.31257533
_cell_length_c   3.96732282
_cell_angle_alpha   76.21557134
_cell_angle_beta   63.51046829
_cell_angle_gamma   57.71064741
_symmetry_Int_Tables_number   1
_chemical_formula_structural   Pu
_chemical_formula_sum   Pu2
_cell_volume   35.19104628
_cell_formula_units_Z   2
loop_
 _symmetry_equiv_pos_site_id
 _symmetry_equiv_pos_as_xyz
  1  'x, y, z'
loop_
 _atom_site_type_symbol
 _atom_site_label
 _atom_site_symmetry_multiplicity
 _atom_site_fract_x
 _atom_site_fract_y
 _atom_site_fract_z
 _atom_site_occupancy
  Pu  Pu0  1  0.125000  0.750000  0.750000  1
  Pu  Pu1  1  0.875000  0.250000  0.250000  1
