# generated using pymatgen
data_TeMo5O16
_symmetry_space_group_name_H-M   'P 1'
_cell_length_a   8.20706974
_cell_length_b   10.28375150
_cell_length_c   14.83331738
_cell_angle_alpha   90.00000000
_cell_angle_beta   90.00000000
_cell_angle_gamma   89.21277345
_symmetry_Int_Tables_number   1
_chemical_formula_structural   TeMo5O16
_chemical_formula_sum   'Te4 Mo20 O64'
_cell_volume   1251.80589615
_cell_formula_units_Z   4
loop_
 _symmetry_equiv_pos_site_id
 _symmetry_equiv_pos_as_xyz
  1  'x, y, z'
loop_
 _atom_site_type_symbol
 _atom_site_label
 _atom_site_symmetry_multiplicity
 _atom_site_fract_x
 _atom_site_fract_y
 _atom_site_fract_z
 _atom_site_occupancy
  Te  Te0  1  0.213953  0.977323  0.338083  1
  Te  Te1  1  0.286047  0.022677  0.838083  1
  Te  Te2  1  0.786047  0.022677  0.661917  1
  Te  Te3  1  0.713953  0.977323  0.161917  1
  Mo  Mo4  1  0.242661  1.000909  0.112127  1
  Mo  Mo5  1  0.257339  -0.000909  0.612127  1
  Mo  Mo6  1  0.757339  -0.000909  0.887873  1
  Mo  Mo7  1  0.742661  1.000909  0.387873  1
  Mo  Mo8  1  0.275719  0.665213  0.252716  1
  Mo  Mo9  1  0.224281  0.334787  0.752716  1
  Mo  Mo10  1  0.724281  0.334787  0.747284  1
  Mo  Mo11  1  0.775719  0.665213  0.247284  1
  Mo  Mo12  1  0.200106  0.307126  0.254817  1
  Mo  Mo13  1  0.299894  0.692874  0.754817  1
  Mo  Mo14  1  0.799894  0.692874  0.745183  1
  Mo  Mo15  1  0.700106  0.307126  0.245183  1
  Mo  Mo16  1  0.295189  0.329083  0.002440  1
  Mo  Mo17  1  0.204811  0.670917  0.502440  1
  Mo  Mo18  1  0.704811  0.670917  0.997560  1
  Mo  Mo19  1  0.795189  0.329083  0.497560  1
  Mo  Mo20  1  0.206672  0.684658  -0.000138  1
  Mo  Mo21  1  0.293328  0.315342  0.499862  1
  Mo  Mo22  1  0.793328  0.315342  1.000138  1
  Mo  Mo23  1  0.706672  0.684658  0.500138  1
  O  O24  1  0.235652  0.111553  0.233886  1
  O  O25  1  0.264348  0.888447  0.733886  1
  O  O26  1  0.764348  0.888447  0.766114  1
  O  O27  1  0.735652  0.111553  0.266114  1
  O  O28  1  0.230081  0.867797  0.228768  1
  O  O29  1  0.269919  0.132203  0.728768  1
  O  O30  1  0.769919  0.132203  0.771232  1
  O  O31  1  0.730081  0.867797  0.271232  1
  O  O32  1  0.989387  0.988061  0.346628  1
  O  O33  1  0.510613  0.011939  0.846628  1
  O  O34  1  0.010613  0.011939  0.653372  1
  O  O35  1  0.489387  0.988061  0.153372  1
  O  O36  1  0.230931  0.743233  0.376183  1
  O  O37  1  0.269069  0.256767  0.876183  1
  O  O38  1  0.769069  0.256767  0.623817  1
  O  O39  1  0.730931  0.743233  0.123817  1
  O  O40  1  0.274950  0.862764  0.036285  1
  O  O41  1  0.225050  0.137236  0.536285  1
  O  O42  1  0.725050  0.137236  0.963715  1
  O  O43  1  0.774950  0.862764  0.463715  1
  O  O44  1  0.988025  0.672615  0.244653  1
  O  O45  1  0.511975  0.327385  0.744653  1
  O  O46  1  0.011975  0.327385  0.755347  1
  O  O47  1  0.488025  0.672615  0.255347  1
  O  O48  1  0.289335  0.132554  0.033444  1
  O  O49  1  0.210665  0.867446  0.533444  1
  O  O50  1  0.710665  0.867446  0.966556  1
  O  O51  1  0.789335  0.132554  0.466556  1
  O  O52  1  0.031260  0.008203  0.111586  1
  O  O53  1  0.468740  0.991797  0.611586  1
  O  O54  1  0.968740  0.991797  0.888414  1
  O  O55  1  0.531260  0.008203  0.388414  1
  O  O56  1  0.239492  0.496467  0.285453  1
  O  O57  1  0.260508  0.503533  0.785453  1
  O  O58  1  0.760508  0.503533  0.714547  1
  O  O59  1  0.739492  0.496467  0.214547  1
  O  O60  1  0.270924  0.505641  0.470546  1
  O  O61  1  0.229076  0.494359  0.970546  1
  O  O62  1  0.729076  0.494359  0.529454  1
  O  O63  1  0.770924  0.505641  0.029454  1
  O  O64  1  0.245830  0.643648  0.131094  1
  O  O65  1  0.254170  0.356352  0.631094  1
  O  O66  1  0.754170  0.356352  0.868906  1
  O  O67  1  0.745830  0.643648  0.368906  1
  O  O68  1  0.254168  0.346999  0.124309  1
  O  O69  1  0.245832  0.653001  0.624309  1
  O  O70  1  0.745832  0.653001  0.875691  1
  O  O71  1  0.754168  0.346999  0.375691  1
  O  O72  1  0.004407  0.298526  0.999097  1
  O  O73  1  0.495593  0.701474  0.499097  1
  O  O74  1  0.995593  0.701474  0.000903  1
  O  O75  1  0.504407  0.298526  0.500903  1
  O  O76  1  0.241563  0.253031  0.378041  1
  O  O77  1  0.258437  0.746969  0.878041  1
  O  O78  1  0.758437  0.746969  0.621959  1
  O  O79  1  0.741563  0.253031  0.121959  1
  O  O80  1  0.006932  0.343162  0.500119  1
  O  O81  1  0.493068  0.656838  1.000119  1
  O  O82  1  0.993068  0.656838  0.499881  1
  O  O83  1  0.506932  0.343162  -0.000119  1
  O  O84  1  0.488196  0.311367  0.252819  1
  O  O85  1  0.011804  0.688633  0.752819  1
  O  O86  1  0.511804  0.688633  0.747181  1
  O  O87  1  0.988196  0.311367  0.247181  1
