# generated using pymatgen
data_Fe(PO3)3
_symmetry_space_group_name_H-M   'P 1'
_cell_length_a   9.59077706
_cell_length_b   10.81521671
_cell_length_c   11.78503885
_cell_angle_alpha   113.59178643
_cell_angle_beta   109.94792039
_cell_angle_gamma   98.25525441
_symmetry_Int_Tables_number   1
_chemical_formula_structural   Fe(PO3)3
_chemical_formula_sum   'Fe6 P18 O54'
_cell_volume   995.80671694
_cell_formula_units_Z   6
loop_
 _symmetry_equiv_pos_site_id
 _symmetry_equiv_pos_as_xyz
  1  'x, y, z'
loop_
 _atom_site_type_symbol
 _atom_site_label
 _atom_site_symmetry_multiplicity
 _atom_site_fract_x
 _atom_site_fract_y
 _atom_site_fract_z
 _atom_site_occupancy
  Fe  Fe0  1  0.695239  0.766793  0.841214  1
  Fe  Fe1  1  0.354265  0.925571  0.158611  1
  Fe  Fe2  1  0.044172  0.583328  0.511148  1
  Fe  Fe3  1  0.033015  0.072272  0.488823  1
  Fe  Fe4  1  0.685664  0.259636  0.823035  1
  Fe  Fe5  1  0.362821  0.436656  0.177081  1
  P  P6  1  0.992730  0.740355  0.062655  1
  P  P7  1  0.429875  0.677600  0.937293  1
  P  P8  1  0.672183  0.396624  0.397167  1
  P  P9  1  0.775233  0.999632  0.602758  1
  P  P10  1  0.105139  0.331149  0.274732  1
  P  P11  1  0.330195  0.056454  0.725053  1
  P  P12  1  0.244948  0.090439  0.959235  1
  P  P13  1  0.785595  0.130993  0.040825  1
  P  P14  1  0.584967  0.411314  0.627258  1
  P  P15  1  0.458027  0.784036  0.372682  1
  P  P16  1  0.055046  0.463561  0.945233  1
  P  P17  1  0.610050  0.518648  0.054986  1
  P  P18  1  0.144900  0.426657  0.710184  1
  P  P19  1  0.934937  0.717171  0.290027  1
  P  P20  1  0.294017  0.171374  0.391263  1
  P  P21  1  0.402734  0.780384  0.608571  1
  P  P22  1  0.955557  0.841026  0.727428  1
  P  P23  1  0.728252  0.113770  0.272700  1
  O  O24  1  0.326565  0.517179  0.816345  1
  O  O25  1  0.010960  0.701652  0.184216  1
  O  O26  1  0.593904  0.551763  0.732013  1
  O  O27  1  0.362314  0.819366  0.267491  1
  O  O28  1  0.870067  0.770863  0.782927  1
  O  O29  1  0.587537  0.987739  0.216986  1
  O  O30  1  0.068683  0.510657  0.648403  1
  O  O31  1  0.919876  0.862677  0.351182  1
  O  O32  1  0.888003  0.085490  0.578336  1
  O  O33  1  0.809548  0.506750  0.421556  1
  O  O34  1  0.917484  0.359448  0.927646  1
  O  O35  1  0.490376  0.432259  0.072930  1
  O  O36  1  0.064299  0.402936  0.801541  1
  O  O37  1  0.763231  0.601761  0.198466  1
  O  O38  1  0.513646  0.761149  0.890591  1
  O  O39  1  0.123081  0.870459  0.108804  1
  O  O40  1  0.144866  0.283458  0.617658  1
  O  O41  1  0.027326  0.666892  0.383118  1
  O  O42  1  0.664183  0.447811  0.540835  1
  O  O43  1  0.623673  0.906922  0.459003  1
  O  O44  1  0.452490  0.163141  0.728464  1
  O  O45  1  0.224051  0.434397  0.271360  1
  O  O46  1  0.692983  0.190367  0.957183  1
  O  O47  1  0.235674  0.233359  0.042479  1
  O  O48  1  0.012953  0.604769  0.955007  1
  O  O49  1  0.558050  0.650035  0.045156  1
  O  O50  1  0.659015  0.316901  0.675578  1
  O  O51  1  0.483680  0.641304  0.324858  1
  O  O52  1  0.401874  0.326496  0.521230  1
  O  O53  1  0.380876  0.805779  0.478719  1
  O  O54  1  0.380841  0.918513  0.709597  1
  O  O55  1  0.171256  0.208661  0.290235  1
  O  O56  1  0.833781  0.874335  0.620886  1
  O  O57  1  0.712328  0.253139  0.379158  1
  O  O58  1  0.729882  0.080174  0.713853  1
  O  O59  1  0.515762  0.365985  0.285974  1
  O  O60  1  0.651348  0.440990  0.940143  1
  O  O61  1  0.211368  0.500888  0.059967  1
  O  O62  1  0.275898  0.652680  0.571363  1
  O  O63  1  0.204202  0.080807  0.428265  1
  O  O64  1  0.829109  0.744085  0.000707  1
  O  O65  1  0.328235  0.743505  0.999101  1
  O  O66  1  0.568696  0.783589  0.675504  1
  O  O67  1  0.393208  0.107667  0.324544  1
  O  O68  1  0.047100  0.763804  0.660526  1
  O  O69  1  0.886979  0.104057  0.339836  1
  O  O70  1  0.164351  0.014924  0.621624  1
  O  O71  1  0.042721  0.393287  0.378104  1
  O  O72  1  0.338141  0.112216  0.875244  1
  O  O73  1  0.962863  0.236606  0.124528  1
  O  O74  1  0.067032  0.999366  0.846452  1
  O  O75  1  0.720705  0.153452  0.153858  1
  O  O76  1  0.785540  0.981330  0.969590  1
  O  O77  1  0.316823  0.012518  0.030898  1
