# generated using pymatgen
data_SiO2
_symmetry_space_group_name_H-M   'P 1'
_cell_length_a   9.32174148
_cell_length_b   9.32174135
_cell_length_c   9.32174150
_cell_angle_alpha   109.47122391
_cell_angle_beta   109.47122362
_cell_angle_gamma   109.47121794
_symmetry_Int_Tables_number   1
_chemical_formula_structural   SiO2
_chemical_formula_sum   'Si12 O24'
_cell_volume   623.54707778
_cell_formula_units_Z   12
loop_
 _symmetry_equiv_pos_site_id
 _symmetry_equiv_pos_as_xyz
  1  'x, y, z'
loop_
 _atom_site_type_symbol
 _atom_site_label
 _atom_site_symmetry_multiplicity
 _atom_site_fract_x
 _atom_site_fract_y
 _atom_site_fract_z
 _atom_site_occupancy
  Si  Si0  1  0.246923  0.623462  0.123462  1
  Si  Si1  1  0.123462  0.246923  0.623462  1
  Si  Si2  1  0.376538  0.753077  0.876538  1
  Si  Si3  1  0.753077  0.876538  0.376538  1
  Si  Si4  1  0.500000  0.376538  0.623462  1
  Si  Si5  1  0.376538  0.623462  0.500000  1
  Si  Si6  1  0.123462  0.876538  0.500000  1
  Si  Si7  1  0.623462  0.123462  0.246923  1
  Si  Si8  1  0.876538  0.376538  0.753077  1
  Si  Si9  1  0.876538  0.500000  0.123462  1
  Si  Si10  1  0.623462  0.500000  0.376538  1
  Si  Si11  1  0.500000  0.123462  0.876538  1
  O  O12  1  0.412995  0.912995  0.825990  1
  O  O13  1  0.912995  0.825990  0.412995  1
  O  O14  1  0.634136  0.268271  0.634136  1
  O  O15  1  0.365864  0.365864  0.731729  1
  O  O16  1  0.087005  0.587005  0.174010  1
  O  O17  1  0.087005  0.500000  0.912995  1
  O  O18  1  0.587005  0.412995  0.500000  1
  O  O19  1  0.587005  0.174010  0.087005  1
  O  O20  1  0.412995  0.500000  0.587005  1
  O  O21  1  0.000000  0.365864  0.634136  1
  O  O22  1  0.174010  0.087005  0.587005  1
  O  O23  1  0.634136  0.365864  1.000000  1
  O  O24  1  0.268271  0.634136  0.634136  1
  O  O25  1  0.731729  0.365864  0.365864  1
  O  O26  1  0.825990  0.412995  0.912995  1
  O  O27  1  0.500000  0.587005  0.412995  1
  O  O28  1  0.365864  0.731729  0.365864  1
  O  O29  1  0.912995  0.087005  0.500000  1
  O  O30  1  1.000000  0.634136  0.365864  1
  O  O31  1  0.634136  1.000000  0.365864  1
  O  O32  1  0.500000  0.912995  0.087005  1
  O  O33  1  0.365864  0.634136  0.000000  1
  O  O34  1  0.634136  0.634136  0.268271  1
  O  O35  1  0.365864  0.000000  0.634136  1
