# generated using pymatgen
data_Fe4(P2O7)3
_symmetry_space_group_name_H-M   'P 1'
_cell_length_a   7.52739781
_cell_length_b   9.67562039
_cell_length_c   21.70791330
_cell_angle_alpha   90.00000000
_cell_angle_beta   90.00000000
_cell_angle_gamma   90.13457126
_symmetry_Int_Tables_number   1
_chemical_formula_structural   Fe4(P2O7)3
_chemical_formula_sum   'Fe16 P24 O84'
_cell_volume   1581.03167188
_cell_formula_units_Z   4
loop_
 _symmetry_equiv_pos_site_id
 _symmetry_equiv_pos_as_xyz
  1  'x, y, z'
loop_
 _atom_site_type_symbol
 _atom_site_label
 _atom_site_symmetry_multiplicity
 _atom_site_fract_x
 _atom_site_fract_y
 _atom_site_fract_z
 _atom_site_occupancy
  Fe  Fe0  1  0.941046  0.222828  0.747452  1
  Fe  Fe1  1  0.960696  0.734464  0.498096  1
  Fe  Fe2  1  0.058954  0.777172  0.252548  1
  Fe  Fe3  1  0.039304  0.265536  0.501904  1
  Fe  Fe4  1  0.552702  0.745028  0.506497  1
  Fe  Fe5  1  0.441046  0.722828  0.752548  1
  Fe  Fe6  1  0.032461  0.707003  0.758883  1
  Fe  Fe7  1  0.558954  0.277172  0.247452  1
  Fe  Fe8  1  0.967539  0.292997  0.241117  1
  Fe  Fe9  1  0.052702  0.245028  0.993503  1
  Fe  Fe10  1  0.532461  0.207003  0.741117  1
  Fe  Fe11  1  0.947298  0.754972  0.006497  1
  Fe  Fe12  1  0.539304  0.765536  0.998096  1
  Fe  Fe13  1  0.447298  0.254972  0.493503  1
  Fe  Fe14  1  0.460696  0.234464  0.001904  1
  Fe  Fe15  1  0.467539  0.792997  0.258883  1
  P  P16  1  0.250764  0.527680  0.561572  1
  P  P17  1  0.237168  0.445529  0.700465  1
  P  P18  1  0.238842  0.155721  0.858607  1
  P  P19  1  0.262622  0.668117  0.389170  1
  P  P20  1  0.248882  0.530935  0.046404  1
  P  P21  1  0.750764  0.027680  0.938428  1
  P  P22  1  0.767810  0.006107  0.313815  1
  P  P23  1  0.749236  0.472320  0.438428  1
  P  P24  1  0.737378  0.331883  0.610830  1
  P  P25  1  0.737168  0.945529  0.799535  1
  P  P26  1  0.732190  0.493893  0.813815  1
  P  P27  1  0.738842  0.655721  0.641393  1
  P  P28  1  0.232190  0.993893  0.686185  1
  P  P29  1  0.748882  0.030935  0.453596  1
  P  P30  1  0.761158  0.844279  0.141393  1
  P  P31  1  0.251118  0.969065  0.546404  1
  P  P32  1  0.751118  0.469065  0.953596  1
  P  P33  1  0.762622  0.168117  0.110830  1
  P  P34  1  0.262832  0.054471  0.200465  1
  P  P35  1  0.261158  0.344279  0.358607  1
  P  P36  1  0.237378  0.831883  0.889170  1
  P  P37  1  0.762832  0.554471  0.299535  1
  P  P38  1  0.267810  0.506107  0.186185  1
  P  P39  1  0.249236  0.972320  0.061572  1
  O  O40  1  0.570230  0.702150  0.675252  1
  O  O41  1  0.079199  0.893365  0.050801  1
  O  O42  1  0.760854  0.413142  0.266255  1
  O  O43  1  0.092953  0.328548  0.319633  1
  O  O44  1  0.100944  0.135761  0.218425  1
  O  O45  1  0.234798  0.749303  0.828093  1
  O  O46  1  0.574530  0.579225  0.793253  1
  O  O47  1  0.253335  0.106592  0.022960  1
  O  O48  1  0.788335  0.007412  0.128013  1
  O  O49  1  0.579384  0.289667  0.570654  1
  O  O50  1  0.610863  0.391230  0.989811  1
  O  O51  1  0.089545  0.430755  0.189505  1
  O  O52  1  0.440651  0.122973  0.209900  1
  O  O53  1  0.260854  0.913142  0.233745  1
  O  O54  1  0.746665  0.893408  0.977040  1
  O  O55  1  0.419014  0.890524  0.053755  1
  O  O56  1  0.259787  0.475897  0.630088  1
  O  O57  1  0.600944  0.635761  0.281575  1
  O  O58  1  0.925470  0.920775  0.293253  1
  O  O59  1  0.059349  0.377027  0.709900  1
  O  O60  1  0.250312  0.125642  0.529165  1
  O  O61  1  0.429770  0.297850  0.324748  1
  O  O62  1  0.238256  0.850082  0.716984  1
  O  O63  1  0.759787  0.975897  0.869912  1
  O  O64  1  0.253097  0.233491  0.920818  1
  O  O65  1  0.080986  0.609476  0.553755  1
  O  O66  1  0.910455  0.569245  0.810495  1
  O  O67  1  0.813971  0.040587  0.384246  1
  O  O68  1  0.559349  0.877027  0.790100  1
  O  O69  1  0.246903  0.266509  0.420818  1
  O  O70  1  0.750312  0.625642  0.970835  1
  O  O71  1  0.740213  0.524103  0.369912  1
  O  O72  1  0.425470  0.420775  0.206747  1
  O  O73  1  0.082540  0.681750  0.421671  1
  O  O74  1  0.753097  0.733491  0.579182  1
  O  O75  1  0.765202  0.250697  0.171907  1
  O  O76  1  0.265202  0.750697  0.328093  1
  O  O77  1  0.889137  0.108770  0.489811  1
  O  O78  1  0.749688  0.874358  0.470835  1
  O  O79  1  0.920616  0.210333  0.070654  1
  O  O80  1  0.239146  0.586858  0.733745  1
  O  O81  1  0.240213  0.024103  0.130088  1
  O  O82  1  0.417460  0.818250  0.921671  1
  O  O83  1  0.389137  0.608770  0.010189  1
  O  O84  1  0.420801  0.606635  0.550801  1
  O  O85  1  0.907047  0.671452  0.680367  1
  O  O86  1  0.070230  0.202150  0.824748  1
  O  O87  1  0.582540  0.181750  0.078329  1
  O  O88  1  0.420616  0.710333  0.429346  1
  O  O89  1  0.929770  0.797850  0.175252  1
  O  O90  1  0.589545  0.930755  0.310495  1
  O  O91  1  0.935171  0.405958  0.957864  1
  O  O92  1  0.407047  0.171452  0.819633  1
  O  O93  1  0.739146  0.086858  0.766255  1
  O  O94  1  0.940651  0.622973  0.290100  1
  O  O95  1  0.399056  0.364239  0.718425  1
  O  O96  1  0.579199  0.393365  0.449199  1
  O  O97  1  0.064829  0.594042  0.042136  1
  O  O98  1  0.110863  0.891230  0.510189  1
  O  O99  1  0.246665  0.393408  0.522960  1
  O  O100  1  0.074530  0.079225  0.706747  1
  O  O101  1  0.917460  0.318250  0.578329  1
  O  O102  1  0.753335  0.606592  0.477040  1
  O  O103  1  0.313971  0.540587  0.115754  1
  O  O104  1  0.746903  0.766509  0.079182  1
  O  O105  1  0.410455  0.069245  0.689505  1
  O  O106  1  0.211665  0.992588  0.871987  1
  O  O107  1  0.919014  0.390524  0.446245  1
  O  O108  1  0.738256  0.350082  0.783016  1
  O  O109  1  0.899056  0.864239  0.781575  1
  O  O110  1  0.249688  0.374358  0.029165  1
  O  O111  1  0.761744  0.149918  0.283016  1
  O  O112  1  0.592953  0.828548  0.180367  1
  O  O113  1  0.686029  0.459413  0.884246  1
  O  O114  1  0.711665  0.492588  0.628013  1
  O  O115  1  0.580986  0.109476  0.946245  1
  O  O116  1  0.261744  0.649918  0.216984  1
  O  O117  1  0.734798  0.249303  0.671907  1
  O  O118  1  0.564829  0.094042  0.457864  1
  O  O119  1  0.186029  0.959413  0.615754  1
  O  O120  1  0.920801  0.106635  0.949199  1
  O  O121  1  0.079384  0.789667  0.929346  1
  O  O122  1  0.435171  0.905958  0.542136  1
  O  O123  1  0.288335  0.507412  0.371987  1
