# generated using pymatgen
data_Sn2WO5
_symmetry_space_group_name_H-M   'P 1'
_cell_length_a   8.21734320
_cell_length_b   10.68873374
_cell_length_c   14.10196019
_cell_angle_alpha   90.00000000
_cell_angle_beta   90.00000000
_cell_angle_gamma   111.09383724
_symmetry_Int_Tables_number   1
_chemical_formula_structural   Sn2WO5
_chemical_formula_sum   'Sn16 W8 O40'
_cell_volume   1155.62041505
_cell_formula_units_Z   8
loop_
 _symmetry_equiv_pos_site_id
 _symmetry_equiv_pos_as_xyz
  1  'x, y, z'
loop_
 _atom_site_type_symbol
 _atom_site_label
 _atom_site_symmetry_multiplicity
 _atom_site_fract_x
 _atom_site_fract_y
 _atom_site_fract_z
 _atom_site_occupancy
  Sn  Sn0  1  0.817122  0.729308  0.897345  1
  Sn  Sn1  1  0.182878  0.270692  0.102655  1
  Sn  Sn2  1  0.064266  0.616914  0.156262  1
  Sn  Sn3  1  0.220618  0.453598  0.347832  1
  Sn  Sn4  1  0.564266  0.116914  0.343738  1
  Sn  Sn5  1  0.108247  0.803130  0.400102  1
  Sn  Sn6  1  0.891753  0.196870  0.599898  1
  Sn  Sn7  1  0.779382  0.546402  0.652168  1
  Sn  Sn8  1  0.317122  0.229308  0.602655  1
  Sn  Sn9  1  0.720618  0.953598  0.152168  1
  Sn  Sn10  1  0.682878  0.770692  0.397345  1
  Sn  Sn11  1  0.935734  0.383086  0.843738  1
  Sn  Sn12  1  0.279382  0.046402  0.847832  1
  Sn  Sn13  1  0.608247  0.303130  0.099898  1
  Sn  Sn14  1  0.391753  0.696870  0.900102  1
  Sn  Sn15  1  0.435734  0.883086  0.656262  1
  W  W16  1  0.753698  0.030170  0.829118  1
  W  W17  1  0.246302  0.969830  0.170882  1
  W  W18  1  0.746302  0.469830  0.329118  1
  W  W19  1  0.253698  0.530170  0.670882  1
  W  W20  1  0.457449  0.398608  0.823487  1
  W  W21  1  0.542551  0.601392  0.176513  1
  W  W22  1  0.042551  0.101392  0.323487  1
  W  W23  1  0.957449  0.898608  0.676513  1
  O  O24  1  0.152715  0.346079  0.615564  1
  O  O25  1  0.243258  0.437897  0.816258  1
  O  O26  1  0.691014  0.421896  0.782826  1
  O  O27  1  0.152602  0.275036  0.256206  1
  O  O28  1  0.652602  0.775036  0.243794  1
  O  O29  1  0.035585  0.015244  0.179946  1
  O  O30  1  0.556263  0.580647  0.878200  1
  O  O31  1  0.364885  0.701101  0.740586  1
  O  O32  1  0.347285  0.153921  0.115564  1
  O  O33  1  0.943737  0.919353  0.378200  1
  O  O34  1  0.635115  0.298899  0.259414  1
  O  O35  1  0.847398  0.724964  0.743794  1
  O  O36  1  0.347398  0.224964  0.756206  1
  O  O37  1  0.056263  0.080647  0.621800  1
  O  O38  1  0.808986  0.078104  0.282826  1
  O  O39  1  0.847285  0.653921  0.384436  1
  O  O40  1  0.019166  0.504500  0.712466  1
  O  O41  1  0.059164  0.191029  0.433186  1
  O  O42  1  0.559164  0.691029  0.066814  1
  O  O43  1  0.227276  0.881626  0.062405  1
  O  O44  1  0.756742  0.562103  0.183742  1
  O  O45  1  0.464415  0.484756  0.679946  1
  O  O46  1  0.440836  0.308971  0.933186  1
  O  O47  1  0.519166  0.004500  0.787534  1
  O  O48  1  0.443737  0.419353  0.121800  1
  O  O49  1  0.256742  0.062103  0.316258  1
  O  O50  1  0.272724  0.618374  0.562405  1
  O  O51  1  0.535585  0.515244  0.320054  1
  O  O52  1  0.980834  0.495500  0.287534  1
  O  O53  1  0.191014  0.921896  0.717174  1
  O  O54  1  0.743258  0.937897  0.683742  1
  O  O55  1  0.480834  0.995500  0.212466  1
  O  O56  1  0.940836  0.808971  0.566814  1
  O  O57  1  0.308986  0.578104  0.217174  1
  O  O58  1  0.864885  0.201101  0.759414  1
  O  O59  1  0.135115  0.798899  0.240586  1
  O  O60  1  0.727276  0.381626  0.437595  1
  O  O61  1  0.652715  0.846079  0.884436  1
  O  O62  1  0.772724  0.118374  0.937595  1
  O  O63  1  0.964415  0.984756  0.820054  1
