# generated using pymatgen
data_GeS2
_symmetry_space_group_name_H-M   'P 1'
_cell_length_a   6.85609986
_cell_length_b   12.56647694
_cell_length_c   16.42733155
_cell_angle_alpha   90.00000000
_cell_angle_beta   90.00000000
_cell_angle_gamma   91.08418402
_symmetry_Int_Tables_number   1
_chemical_formula_structural   GeS2
_chemical_formula_sum   'Ge16 S32'
_cell_volume   1415.07656300
_cell_formula_units_Z   16
loop_
 _symmetry_equiv_pos_site_id
 _symmetry_equiv_pos_as_xyz
  1  'x, y, z'
loop_
 _atom_site_type_symbol
 _atom_site_label
 _atom_site_symmetry_multiplicity
 _atom_site_fract_x
 _atom_site_fract_y
 _atom_site_fract_z
 _atom_site_occupancy
  Ge  Ge0  1  0.165429  0.289489  0.997461  1
  Ge  Ge1  1  0.834571  0.210511  0.497461  1
  Ge  Ge2  1  0.165429  0.789489  0.502539  1
  Ge  Ge3  1  0.662926  0.775611  0.846002  1
  Ge  Ge4  1  0.834571  0.710511  0.002539  1
  Ge  Ge5  1  0.162811  0.277689  0.347373  1
  Ge  Ge6  1  0.336118  0.721854  0.691201  1
  Ge  Ge7  1  0.837189  0.722311  0.652627  1
  Ge  Ge8  1  0.336118  0.221854  0.808799  1
  Ge  Ge9  1  0.337074  0.224389  0.153998  1
  Ge  Ge10  1  0.663882  0.778146  0.191201  1
  Ge  Ge11  1  0.837189  0.222311  0.847373  1
  Ge  Ge12  1  0.162811  0.777689  0.152627  1
  Ge  Ge13  1  0.337074  0.724389  0.346002  1
  Ge  Ge14  1  0.663882  0.278146  0.308799  1
  Ge  Ge15  1  0.662926  0.275611  0.653998  1
  S  S16  1  0.667845  0.637244  0.107837  1
  S  S17  1  0.658383  0.718199  0.319817  1
  S  S18  1  0.582955  0.109380  0.831602  1
  S  S19  1  0.332155  0.862756  0.607837  1
  S  S20  1  0.843625  0.795493  0.527907  1
  S  S21  1  0.834227  0.353987  0.755782  1
  S  S22  1  0.834227  0.853987  0.744218  1
  S  S23  1  0.084572  0.108702  0.830925  1
  S  S24  1  0.278391  0.131234  0.039580  1
  S  S25  1  0.773211  0.616886  0.888626  1
  S  S26  1  0.721609  0.368766  0.539580  1
  S  S27  1  0.721609  0.868766  0.960420  1
  S  S28  1  0.341617  0.281801  0.680183  1
  S  S29  1  0.165773  0.646013  0.244218  1
  S  S30  1  0.084572  0.608702  0.669075  1
  S  S31  1  0.915428  0.891298  0.169075  1
  S  S32  1  0.156375  0.204507  0.472093  1
  S  S33  1  0.332155  0.362756  0.892163  1
  S  S34  1  0.658383  0.218199  0.180183  1
  S  S35  1  0.915428  0.391298  0.330925  1
  S  S36  1  0.843625  0.295493  0.972093  1
  S  S37  1  0.226789  0.383114  0.111374  1
  S  S38  1  0.278391  0.631234  0.460420  1
  S  S39  1  0.582955  0.609380  0.668398  1
  S  S40  1  0.773211  0.116886  0.611374  1
  S  S41  1  0.417045  0.890620  0.168398  1
  S  S42  1  0.156375  0.704507  0.027907  1
  S  S43  1  0.341617  0.781801  0.819817  1
  S  S44  1  0.226789  0.883114  0.388626  1
  S  S45  1  0.667845  0.137244  0.392163  1
  S  S46  1  0.165773  0.146013  0.255782  1
  S  S47  1  0.417045  0.390620  0.331602  1
