# generated using pymatgen
data_Tl3Ag3(SbS3)2
_symmetry_space_group_name_H-M   'P 1'
_cell_length_a   11.53770816
_cell_length_b   11.94602276
_cell_length_c   12.14193049
_cell_angle_alpha   90.00000000
_cell_angle_beta   90.00000000
_cell_angle_gamma   117.16930931
_symmetry_Int_Tables_number   1
_chemical_formula_structural   Tl3Ag3(SbS3)2
_chemical_formula_sum   'Tl12 Ag12 Sb8 S24'
_cell_volume   1488.86468060
_cell_formula_units_Z   4
loop_
 _symmetry_equiv_pos_site_id
 _symmetry_equiv_pos_as_xyz
  1  'x, y, z'
loop_
 _atom_site_type_symbol
 _atom_site_label
 _atom_site_symmetry_multiplicity
 _atom_site_fract_x
 _atom_site_fract_y
 _atom_site_fract_z
 _atom_site_occupancy
  Tl  Tl0  1  0.896850  0.111886  0.884780  1
  Tl  Tl1  1  0.432780  0.270897  0.753514  1
  Tl  Tl2  1  0.228869  0.034621  0.489657  1
  Tl  Tl3  1  0.271131  0.465379  0.989657  1
  Tl  Tl4  1  0.103150  0.888114  0.115220  1
  Tl  Tl5  1  0.396850  0.611886  0.615220  1
  Tl  Tl6  1  0.728869  0.534621  0.010343  1
  Tl  Tl7  1  0.603150  0.388114  0.384780  1
  Tl  Tl8  1  0.771131  0.965379  0.510343  1
  Tl  Tl9  1  0.067220  0.229103  0.253514  1
  Tl  Tl10  1  0.932780  0.770897  0.746486  1
  Tl  Tl11  1  0.567220  0.729103  0.246486  1
  Ag  Ag12  1  0.318940  0.429032  0.346573  1
  Ag  Ag13  1  0.547814  0.074596  0.365155  1
  Ag  Ag14  1  0.952186  0.425404  0.865155  1
  Ag  Ag15  1  0.047814  0.574596  0.134845  1
  Ag  Ag16  1  0.422378  0.949214  0.125120  1
  Ag  Ag17  1  0.922378  0.449214  0.374880  1
  Ag  Ag18  1  0.577622  0.050786  0.874880  1
  Ag  Ag19  1  0.077622  0.550786  0.625120  1
  Ag  Ag20  1  0.681060  0.570968  0.653427  1
  Ag  Ag21  1  0.452186  0.925404  0.634845  1
  Ag  Ag22  1  0.818940  0.929032  0.153427  1
  Ag  Ag23  1  0.181060  0.070968  0.846573  1
  Sb  Sb24  1  0.090226  0.259470  0.590339  1
  Sb  Sb25  1  0.590226  0.759470  0.909661  1
  Sb  Sb26  1  0.746748  0.244709  0.146647  1
  Sb  Sb27  1  0.253252  0.755291  0.853353  1
  Sb  Sb28  1  0.909774  0.740530  0.409661  1
  Sb  Sb29  1  0.409774  0.240530  0.090339  1
  Sb  Sb30  1  0.246748  0.744709  0.353353  1
  Sb  Sb31  1  0.753252  0.255291  0.646647  1
  S  S32  1  0.630138  0.900968  0.751162  1
  S  S33  1  0.704102  0.288051  0.836874  1
  S  S34  1  0.683659  0.678143  0.468231  1
  S  S35  1  0.316341  0.321857  0.531769  1
  S  S36  1  0.816341  0.821857  0.968231  1
  S  S37  1  0.828912  0.474038  0.582104  1
  S  S38  1  0.471776  0.842898  0.425800  1
  S  S39  1  0.671088  0.025962  0.082104  1
  S  S40  1  0.295898  0.711949  0.163126  1
  S  S41  1  0.052526  0.056659  0.678783  1
  S  S42  1  0.328912  0.974038  0.917896  1
  S  S43  1  0.369862  0.099032  0.248838  1
  S  S44  1  0.171088  0.525962  0.417896  1
  S  S45  1  0.183659  0.178143  0.031769  1
  S  S46  1  0.130138  0.400968  0.748838  1
  S  S47  1  0.869862  0.599032  0.251162  1
  S  S48  1  0.028224  0.657102  0.925800  1
  S  S49  1  0.528224  0.157102  0.574200  1
  S  S50  1  0.795898  0.211949  0.336874  1
  S  S51  1  0.947474  0.943341  0.321217  1
  S  S52  1  0.204102  0.788051  0.663126  1
  S  S53  1  0.447474  0.443341  0.178783  1
  S  S54  1  0.971776  0.342898  0.074200  1
  S  S55  1  0.552526  0.556659  0.821217  1
