# generated using pymatgen
data_K2Mo2H8O15
_symmetry_space_group_name_H-M   'P 1'
_cell_length_a   6.43162501
_cell_length_b   9.88095141
_cell_length_c   11.42858809
_cell_angle_alpha   77.60329627
_cell_angle_beta   79.82219754
_cell_angle_gamma   73.58039759
_symmetry_Int_Tables_number   1
_chemical_formula_structural   K2Mo2H8O15
_chemical_formula_sum   'K4 Mo4 H16 O30'
_cell_volume   675.19211430
_cell_formula_units_Z   2
loop_
 _symmetry_equiv_pos_site_id
 _symmetry_equiv_pos_as_xyz
  1  'x, y, z'
loop_
 _atom_site_type_symbol
 _atom_site_label
 _atom_site_symmetry_multiplicity
 _atom_site_fract_x
 _atom_site_fract_y
 _atom_site_fract_z
 _atom_site_occupancy
  K  K0  1  0.219864  0.622280  0.365744  1
  K  K1  1  0.250186  0.734086  0.006234  1
  K  K2  1  0.780136  0.377720  0.634256  1
  K  K3  1  0.749814  0.265914  0.993766  1
  Mo  Mo4  1  0.808479  0.893591  0.790623  1
  Mo  Mo5  1  0.850859  0.470305  0.229866  1
  Mo  Mo6  1  0.191521  0.106409  0.209377  1
  Mo  Mo7  1  0.149141  0.529695  0.770134  1
  H  H8  1  0.678183  0.113074  0.558819  1
  H  H9  1  0.495040  0.685686  0.727895  1
  H  H10  1  0.155894  0.121872  0.522572  1
  H  H11  1  0.572185  0.301887  0.402640  1
  H  H12  1  0.844106  0.878128  0.477428  1
  H  H13  1  0.712494  0.771118  0.068395  1
  H  H14  1  0.321817  0.886926  0.441181  1
  H  H15  1  0.572462  0.811164  0.432137  1
  H  H16  1  0.287506  0.228882  0.931605  1
  H  H17  1  0.427538  0.188836  0.567863  1
  H  H18  1  0.504960  0.314314  0.272105  1
  H  H19  1  0.427815  0.698113  0.597360  1
  H  H20  1  0.706391  0.933368  0.056605  1
  H  H21  1  0.156289  0.075001  0.664572  1
  H  H22  1  0.843711  0.924999  0.335428  1
  H  H23  1  0.293609  0.066632  0.943395  1
  O  O24  1  0.662225  0.522416  0.098275  1
  O  O25  1  0.575375  0.207671  0.542594  1
  O  O26  1  0.055616  0.620214  0.609385  1
  O  O27  1  0.175076  0.151872  0.595743  1
  O  O28  1  0.200691  0.474247  0.609109  1
  O  O29  1  0.824924  0.848128  0.404257  1
  O  O30  1  0.484830  0.936913  0.824264  1
  O  O31  1  0.451923  0.631725  0.676892  1
  O  O32  1  0.837108  0.927758  0.633468  1
  O  O33  1  0.794249  0.084697  0.825478  1
  O  O34  1  0.205751  0.915303  0.174522  1
  O  O35  1  0.337775  0.477584  0.901725  1
  O  O36  1  0.063578  0.549163  0.166765  1
  O  O37  1  0.515170  0.063087  0.175736  1
  O  O38  1  0.032634  0.716635  0.822281  1
  O  O39  1  0.772935  0.849612  0.017108  1
  O  O40  1  0.548077  0.368275  0.323108  1
  O  O41  1  0.020256  0.993061  0.820669  1
  O  O42  1  0.599879  0.635413  0.173381  1
  O  O43  1  0.979744  0.006939  0.179331  1
  O  O44  1  0.424625  0.792329  0.457406  1
  O  O45  1  0.967366  0.283365  0.177719  1
  O  O46  1  0.944384  0.379786  0.390615  1
  O  O47  1  0.400121  0.364587  0.826619  1
  O  O48  1  0.162892  0.072242  0.366532  1
  O  O49  1  0.582652  0.781162  0.830450  1
  O  O50  1  0.936422  0.450837  0.833235  1
  O  O51  1  0.799309  0.525753  0.390891  1
  O  O52  1  0.417348  0.218838  0.169550  1
  O  O53  1  0.227065  0.150388  0.982892  1
