# generated using pymatgen
data_BaTlVO4
_symmetry_space_group_name_H-M   'P 1'
_cell_length_a   6.00988841
_cell_length_b   8.00509188
_cell_length_c   10.63083072
_cell_angle_alpha   90.00000000
_cell_angle_beta   90.00000000
_cell_angle_gamma   90.00000000
_symmetry_Int_Tables_number   1
_chemical_formula_structural   BaTlVO4
_chemical_formula_sum   'Ba4 Tl4 V4 O16'
_cell_volume   511.44617142
_cell_formula_units_Z   4
loop_
 _symmetry_equiv_pos_site_id
 _symmetry_equiv_pos_as_xyz
  1  'x, y, z'
loop_
 _atom_site_type_symbol
 _atom_site_label
 _atom_site_symmetry_multiplicity
 _atom_site_fract_x
 _atom_site_fract_y
 _atom_site_fract_z
 _atom_site_occupancy
  Ba  Ba0  1  0.750000  0.995978  0.202258  1
  Ba  Ba1  1  0.250000  0.004022  0.797742  1
  Ba  Ba2  1  0.750000  0.495978  0.297742  1
  Ba  Ba3  1  0.250000  0.504022  0.702258  1
  Tl  Tl4  1  0.750000  0.172321  0.572207  1
  Tl  Tl5  1  0.250000  0.827679  0.427793  1
  Tl  Tl6  1  0.750000  0.672321  0.927793  1
  Tl  Tl7  1  0.250000  0.327679  0.072207  1
  V  V8  1  0.750000  0.722192  0.580105  1
  V  V9  1  0.250000  0.277808  0.419895  1
  V  V10  1  0.750000  0.222192  0.919895  1
  V  V11  1  0.250000  0.777808  0.080105  1
  O  O12  1  0.750000  0.295386  0.075574  1
  O  O13  1  0.250000  0.704614  0.924426  1
  O  O14  1  0.750000  0.795386  0.424426  1
  O  O15  1  0.250000  0.204614  0.575574  1
  O  O16  1  0.750000  0.005159  0.927042  1
  O  O17  1  0.250000  0.994841  0.072958  1
  O  O18  1  0.750000  0.505159  0.572958  1
  O  O19  1  0.250000  0.494841  0.427042  1
  O  O20  1  0.992898  0.287830  0.843843  1
  O  O21  1  0.492898  0.712170  0.156157  1
  O  O22  1  0.507102  0.787830  0.656157  1
  O  O23  1  0.007102  0.212170  0.343843  1
  O  O24  1  0.007102  0.712170  0.156157  1
  O  O25  1  0.507102  0.287830  0.843843  1
  O  O26  1  0.492898  0.212170  0.343843  1
  O  O27  1  0.992898  0.787830  0.656157  1
