# generated using pymatgen
data_Se2NCl3
_symmetry_space_group_name_H-M   'P 1'
_cell_length_a   7.88204593
_cell_length_b   9.77953100
_cell_length_c   9.59389063
_cell_angle_alpha   90.00000000
_cell_angle_beta   93.39678601
_cell_angle_gamma   90.00000000
_symmetry_Int_Tables_number   1
_chemical_formula_structural   Se2NCl3
_chemical_formula_sum   'Se8 N4 Cl12'
_cell_volume   738.22388436
_cell_formula_units_Z   4
loop_
 _symmetry_equiv_pos_site_id
 _symmetry_equiv_pos_as_xyz
  1  'x, y, z'
loop_
 _atom_site_type_symbol
 _atom_site_label
 _atom_site_symmetry_multiplicity
 _atom_site_fract_x
 _atom_site_fract_y
 _atom_site_fract_z
 _atom_site_occupancy
  Se  Se0  1  0.392196  0.529783  0.714782  1
  Se  Se1  1  0.107804  0.029783  0.285218  1
  Se  Se2  1  0.550683  0.115100  0.683048  1
  Se  Se3  1  0.949317  0.615100  0.316952  1
  Se  Se4  1  0.050683  0.384900  0.683048  1
  Se  Se5  1  0.607804  0.470217  0.285218  1
  Se  Se6  1  0.449317  0.884900  0.316952  1
  Se  Se7  1  0.892196  0.970217  0.714782  1
  N  N8  1  0.189217  0.499078  0.776190  1
  N  N9  1  0.810783  0.500922  0.223810  1
  N  N10  1  0.310783  -0.000922  0.223810  1
  N  N11  1  0.689217  1.000922  0.776190  1
  Cl  Cl12  1  0.205176  0.853224  0.491537  1
  Cl  Cl13  1  0.156897  0.595703  0.167659  1
  Cl  Cl14  1  0.524912  0.325512  0.116808  1
  Cl  Cl15  1  0.343103  0.095703  0.832341  1
  Cl  Cl16  1  0.843103  0.404297  0.832341  1
  Cl  Cl17  1  0.024912  0.174488  0.116808  1
  Cl  Cl18  1  0.656897  0.904297  0.167659  1
  Cl  Cl19  1  0.705176  0.646776  0.491537  1
  Cl  Cl20  1  0.975088  0.825512  0.883192  1
  Cl  Cl21  1  0.475088  0.674488  0.883192  1
  Cl  Cl22  1  0.794824  0.146776  0.508463  1
  Cl  Cl23  1  0.294824  0.353224  0.508463  1
