# generated using pymatgen
data_Fe6Ni9S20
_symmetry_space_group_name_H-M   'P 1'
_cell_length_a   6.67639991
_cell_length_b   6.57922547
_cell_length_c   32.90740999
_cell_angle_alpha   60.24042644
_cell_angle_beta   60.64108991
_cell_angle_gamma   60.63300192
_symmetry_Int_Tables_number   1
_chemical_formula_structural   Fe6Ni9S20
_chemical_formula_sum   'Fe12 Ni18 S40'
_cell_volume   1033.73442138
_cell_formula_units_Z   2
loop_
 _symmetry_equiv_pos_site_id
 _symmetry_equiv_pos_as_xyz
  1  'x, y, z'
loop_
 _atom_site_type_symbol
 _atom_site_label
 _atom_site_symmetry_multiplicity
 _atom_site_fract_x
 _atom_site_fract_y
 _atom_site_fract_z
 _atom_site_occupancy
  Fe  Fe0  1  0.119088  0.123659  0.227025  1
  Fe  Fe1  1  0.499344  0.490288  0.100405  1
  Fe  Fe2  1  0.500088  0.010012  0.100095  1
  Fe  Fe3  1  0.500454  0.498381  0.300382  1
  Fe  Fe4  1  0.504046  0.489516  0.404421  1
  Fe  Fe5  1  0.500659  0.496480  0.499438  1
  Fe  Fe6  1  0.500540  0.005008  0.499655  1
  Fe  Fe7  1  0.496943  0.508657  0.596605  1
  Fe  Fe8  1  0.500396  0.501674  0.699786  1
  Fe  Fe9  1  0.503257  0.489653  0.803937  1
  Fe  Fe10  1  0.502347  0.487170  0.896871  1
  Fe  Fe11  1  0.501038  0.022433  0.897403  1
  Ni  Ni12  1  0.123592  0.125044  0.025088  1
  Ni  Ni13  1  0.500569  0.498267  0.200549  1
  Ni  Ni14  1  0.129884  0.124032  0.424112  1
  Ni  Ni15  1  0.995329  0.501085  0.100856  1
  Ni  Ni16  1  0.881074  0.873461  0.175164  1
  Ni  Ni17  1  0.501914  0.996767  0.300454  1
  Ni  Ni18  1  0.116638  0.126602  0.625803  1
  Ni  Ni19  1  0.997925  0.499879  0.300635  1
  Ni  Ni20  1  0.883290  0.872939  0.374671  1
  Ni  Ni21  1  0.134165  0.122498  0.823212  1
  Ni  Ni22  1  -0.002584  0.501080  0.500245  1
  Ni  Ni23  1  0.875036  0.875153  0.575606  1
  Ni  Ni24  1  0.500475  -0.000022  0.699737  1
  Ni  Ni25  1  0.000996  0.499927  0.699838  1
  Ni  Ni26  1  0.882362  0.874576  0.773911  1
  Ni  Ni27  1  0.499435  0.502306  -0.000990  1
  Ni  Ni28  1  -0.009899  0.503939  0.899843  1
  Ni  Ni29  1  0.881956  0.871459  0.974895  1
  S  S30  1  0.258324  0.256612  0.052536  1
  S  S31  1  0.253143  0.252577  0.148599  1
  S  S32  1  0.258617  0.722702  0.052453  1
  S  S33  1  0.727031  0.258669  0.051216  1
  S  S34  1  0.278491  0.743109  0.147441  1
  S  S35  1  0.253549  0.253719  0.251518  1
  S  S36  1  0.738868  0.273427  0.148045  1
  S  S37  1  0.731866  0.745039  0.055738  1
  S  S38  1  0.262738  0.260150  0.344317  1
  S  S39  1  0.258215  0.733450  0.252466  1
  S  S40  1  0.737743  0.748464  0.148351  1
  S  S41  1  0.733788  0.257957  0.252246  1
  S  S42  1  0.281662  0.729339  0.350047  1
  S  S43  1  0.258860  0.256523  0.451834  1
  S  S44  1  0.733747  0.276203  0.349867  1
  S  S45  1  0.740602  0.737959  0.255588  1
  S  S46  1  0.257447  0.726116  0.452019  1
  S  S47  1  0.257930  0.257511  0.545539  1
  S  S48  1  0.739607  0.736041  0.350598  1
  S  S49  1  0.739261  0.249660  0.452058  1
  S  S50  1  0.268349  0.748614  0.547059  1
  S  S51  1  0.260414  0.262219  0.650215  1
  S  S52  1  0.739661  0.274086  0.548138  1
  S  S53  1  0.736346  0.744278  0.454974  1
  S  S54  1  0.264346  0.261338  0.743902  1
  S  S55  1  0.265400  0.724381  0.650647  1
  S  S56  1  0.738762  0.746009  0.548503  1
  S  S57  1  0.719794  0.268780  0.650304  1
  S  S58  1  0.255352  0.260831  0.851206  1
  S  S59  1  0.279186  0.732681  0.749362  1
  S  S60  1  0.735534  0.276669  0.748944  1
  S  S61  1  0.252238  0.260748  0.944883  1
  S  S62  1  0.740283  0.739235  0.655124  1
  S  S63  1  0.253766  0.725311  0.851510  1
  S  S64  1  0.746698  0.250480  0.849569  1
  S  S65  1  0.740375  0.738062  0.749417  1
  S  S66  1  0.281895  0.745451  0.944918  1
  S  S67  1  0.735278  0.273649  0.947322  1
  S  S68  1  0.728855  0.747710  0.854546  1
  S  S69  1  0.735623  0.752316  0.947327  1
