# generated using pymatgen
data_K2WC2O9
_symmetry_space_group_name_H-M   'P 1'
_cell_length_a   7.19929147
_cell_length_b   9.08330771
_cell_length_c   13.88631172
_cell_angle_alpha   90.00000000
_cell_angle_beta   92.90415824
_cell_angle_gamma   90.00000000
_symmetry_Int_Tables_number   1
_chemical_formula_structural   K2WC2O9
_chemical_formula_sum   'K8 W4 C8 O36'
_cell_volume   906.90660182
_cell_formula_units_Z   4
loop_
 _symmetry_equiv_pos_site_id
 _symmetry_equiv_pos_as_xyz
  1  'x, y, z'
loop_
 _atom_site_type_symbol
 _atom_site_label
 _atom_site_symmetry_multiplicity
 _atom_site_fract_x
 _atom_site_fract_y
 _atom_site_fract_z
 _atom_site_occupancy
  K  K0  1  0.237275  0.070387  0.729954  1
  K  K1  1  0.232063  0.848931  0.023893  1
  K  K2  1  0.262725  0.570387  0.770046  1
  K  K3  1  0.267937  0.348931  0.476107  1
  K  K4  1  0.762725  0.929613  0.270046  1
  K  K5  1  0.732063  0.651069  0.523893  1
  K  K6  1  0.767937  0.151069  0.976107  1
  K  K7  1  0.737275  0.429613  0.229954  1
  W  W8  1  0.236515  0.703751  0.332863  1
  W  W9  1  0.263485  0.203751  0.167137  1
  W  W10  1  0.736515  0.796249  0.832863  1
  W  W11  1  0.763485  0.296249  0.667137  1
  C  C12  1  0.252976  0.289690  0.954448  1
  C  C13  1  0.729155  0.566480  0.984485  1
  C  C14  1  0.247024  0.789690  0.545552  1
  C  C15  1  0.229155  0.933520  0.484485  1
  C  C16  1  0.752976  0.210310  0.454448  1
  C  C17  1  0.770845  0.066480  0.515515  1
  C  C18  1  0.747024  0.710310  0.045552  1
  C  C19  1  0.270845  0.433520  0.015515  1
  O  O20  1  0.716182  0.587526  0.890749  1
  O  O21  1  0.765042  0.828322  0.994434  1
  O  O22  1  0.208032  0.767105  0.213317  1
  O  O23  1  0.950130  0.932862  0.831159  1
  O  O24  1  0.791968  0.232895  0.786683  1
  O  O25  1  0.531490  0.173840  0.136818  1
  O  O26  1  0.243643  0.796629  0.634526  1
  O  O27  1  0.734958  0.328322  0.505566  1
  O  O28  1  0.234958  0.171678  0.005566  1
  O  O29  1  0.513298  0.720916  0.355063  1
  O  O30  1  0.968510  0.673840  0.363182  1
  O  O31  1  0.256357  0.296629  0.865474  1
  O  O32  1  0.936519  0.465413  0.665166  1
  O  O33  1  0.986702  0.220916  0.144937  1
  O  O34  1  0.227872  0.055859  0.522833  1
  O  O35  1  0.063481  0.534587  0.334834  1
  O  O36  1  0.265042  0.671678  0.494434  1
  O  O37  1  0.291968  0.267105  0.286683  1
  O  O38  1  0.468510  0.826160  0.863182  1
  O  O39  1  0.772128  0.944141  0.477167  1
  O  O40  1  0.708032  0.732895  0.713317  1
  O  O41  1  0.783818  0.087526  0.609251  1
  O  O42  1  0.563481  0.965413  0.834834  1
  O  O43  1  0.216182  0.912474  0.390748  1
  O  O44  1  0.013298  0.779084  0.855063  1
  O  O45  1  0.549870  0.432862  0.668841  1
  O  O46  1  0.450130  0.567138  0.331159  1
  O  O47  1  0.486702  0.279084  0.644937  1
  O  O48  1  0.436519  0.034587  0.165166  1
  O  O49  1  0.743643  0.703371  0.134526  1
  O  O50  1  0.283818  0.412474  0.109252  1
  O  O51  1  0.727872  0.444141  0.022833  1
  O  O52  1  0.272128  0.555859  0.977167  1
  O  O53  1  0.756357  0.203371  0.365474  1
  O  O54  1  0.031490  0.326160  0.636818  1
  O  O55  1  0.049870  0.067138  0.168841  1
