# generated using pymatgen
data_H2CO2
_symmetry_space_group_name_H-M   'P 1'
_cell_length_a   10.86644061
_cell_length_b   3.93758108
_cell_length_c   5.22921336
_cell_angle_alpha   90.00000000
_cell_angle_beta   90.00000000
_cell_angle_gamma   90.00000000
_symmetry_Int_Tables_number   1
_chemical_formula_structural   H2CO2
_chemical_formula_sum   'H8 C4 O8'
_cell_volume   223.74491933
_cell_formula_units_Z   4
loop_
 _symmetry_equiv_pos_site_id
 _symmetry_equiv_pos_as_xyz
  1  'x, y, z'
loop_
 _atom_site_type_symbol
 _atom_site_label
 _atom_site_symmetry_multiplicity
 _atom_site_fract_x
 _atom_site_fract_y
 _atom_site_fract_z
 _atom_site_occupancy
  H  H0  1  0.645910  0.395627  0.916562  1
  H  H1  1  0.354090  0.604373  0.416562  1
  H  H2  1  0.854090  0.895627  0.416562  1
  H  H3  1  0.145910  0.104373  0.916562  1
  H  H4  1  0.872717  0.472166  0.873251  1
  H  H5  1  0.127283  0.527834  0.373251  1
  H  H6  1  0.627283  0.972166  0.373251  1
  H  H7  1  0.372717  0.027834  0.873251  1
  C  C8  1  0.675385  0.110138  0.219372  1
  C  C9  1  0.324615  0.889862  0.719372  1
  C  C10  1  0.824615  0.610138  0.719372  1
  C  C11  1  0.175385  0.389862  0.219372  1
  O  O12  1  0.600825  0.270628  0.063908  1
  O  O13  1  0.399175  0.729372  0.563908  1
  O  O14  1  0.899175  0.770628  0.563908  1
  O  O15  1  0.100825  0.229372  0.063908  1
  O  O16  1  0.789854  0.103381  0.200724  1
  O  O17  1  0.210146  0.896619  0.700724  1
  O  O18  1  0.710146  0.603381  0.700724  1
  O  O19  1  0.289854  0.396619  0.200724  1
