# generated using pymatgen
data_Na2NiH12(SO7)2
_symmetry_space_group_name_H-M   'P 1'
_cell_length_a   6.01157923
_cell_length_b   8.88197296
_cell_length_c   11.99864649
_cell_angle_alpha   90.00000000
_cell_angle_beta   90.00000000
_cell_angle_gamma   103.98155509
_symmetry_Int_Tables_number   1
_chemical_formula_structural   Na2NiH12(SO7)2
_chemical_formula_sum   'Na4 Ni2 H24 S4 O28'
_cell_volume   621.68334603
_cell_formula_units_Z   2
loop_
 _symmetry_equiv_pos_site_id
 _symmetry_equiv_pos_as_xyz
  1  'x, y, z'
loop_
 _atom_site_type_symbol
 _atom_site_label
 _atom_site_symmetry_multiplicity
 _atom_site_fract_x
 _atom_site_fract_y
 _atom_site_fract_z
 _atom_site_occupancy
  Na  Na0  1  0.160345  0.865121  0.355022  1
  Na  Na1  1  0.160345  0.365121  0.144978  1
  Na  Na2  1  0.839655  0.634879  0.855022  1
  Na  Na3  1  0.839655  0.134879  0.644978  1
  Ni  Ni4  1  0.500000  0.000000  0.000000  1
  Ni  Ni5  1  0.500000  0.500000  0.500000  1
  H  H6  1  0.406240  0.747035  0.126090  1
  H  H7  1  0.593760  0.752965  0.626090  1
  H  H8  1  0.511805  0.360033  0.689535  1
  H  H9  1  0.174421  0.285235  0.413458  1
  H  H10  1  0.843215  0.902828  0.055992  1
  H  H11  1  0.434783  0.228356  0.598865  1
  H  H12  1  0.156785  0.597172  0.555992  1
  H  H13  1  0.565217  0.271644  0.098865  1
  H  H14  1  0.565217  0.771644  0.401135  1
  H  H15  1  0.511805  0.860033  0.810465  1
  H  H16  1  0.488195  0.639967  0.310465  1
  H  H17  1  0.843215  0.402828  0.444008  1
  H  H18  1  0.488195  0.139967  0.189535  1
  H  H19  1  0.164892  0.468123  0.646710  1
  H  H20  1  0.174421  0.785235  0.086542  1
  H  H21  1  0.825579  0.214765  0.913458  1
  H  H22  1  0.835108  0.031877  0.146710  1
  H  H23  1  0.406240  0.247035  0.373910  1
  H  H24  1  0.835108  0.531877  0.353290  1
  H  H25  1  0.156785  0.097172  0.944008  1
  H  H26  1  0.825579  0.714765  0.586542  1
  H  H27  1  0.164892  0.968123  0.853290  1
  H  H28  1  0.593760  0.252965  0.873910  1
  H  H29  1  0.434783  0.728356  0.901135  1
  S  S30  1  0.228520  0.413766  0.867938  1
  S  S31  1  0.771480  0.586234  0.132062  1
  S  S32  1  0.228520  0.913766  0.632062  1
  S  S33  1  0.771480  0.086234  0.367938  1
  O  O34  1  0.929507  0.095631  0.270856  1
  O  O35  1  0.449022  0.672468  0.385674  1
  O  O36  1  0.749427  0.436545  0.072947  1
  O  O37  1  0.459451  0.898848  0.671067  1
  O  O38  1  0.540549  0.601152  0.171067  1
  O  O39  1  0.806907  0.504592  0.433382  1
  O  O40  1  0.550978  0.327532  0.614326  1
  O  O41  1  0.670796  0.167038  0.883890  1
  O  O42  1  0.872818  0.214648  0.447409  1
  O  O43  1  0.459451  0.398848  0.828933  1
  O  O44  1  0.193093  0.495408  0.566618  1
  O  O45  1  0.929507  0.595631  0.229144  1
  O  O46  1  0.872818  0.714648  0.052591  1
  O  O47  1  0.550978  0.827532  0.885674  1
  O  O48  1  0.127182  0.785352  0.552591  1
  O  O49  1  0.250573  0.063455  0.572947  1
  O  O50  1  0.329204  0.832962  0.116110  1
  O  O51  1  0.670796  0.667038  0.616110  1
  O  O52  1  0.806907  0.004592  0.066618  1
  O  O53  1  0.329204  0.332962  0.383890  1
  O  O54  1  0.070493  0.904369  0.729144  1
  O  O55  1  0.127182  0.285352  0.947409  1
  O  O56  1  0.193093  0.995408  0.933382  1
  O  O57  1  0.749427  0.936545  0.427053  1
  O  O58  1  0.540549  0.101152  0.328933  1
  O  O59  1  0.070493  0.404369  0.770856  1
  O  O60  1  0.250573  0.563455  0.927053  1
  O  O61  1  0.449022  0.172468  0.114326  1
