# generated using pymatgen
data_KNaZnO2
_symmetry_space_group_name_H-M   'P 1'
_cell_length_a   5.62743602
_cell_length_b   5.89177653
_cell_length_c   9.77324801
_cell_angle_alpha   90.00000000
_cell_angle_beta   90.00000000
_cell_angle_gamma   103.51674329
_symmetry_Int_Tables_number   1
_chemical_formula_structural   KNaZnO2
_chemical_formula_sum   'K4 Na4 Zn4 O8'
_cell_volume   315.06254672
_cell_formula_units_Z   4
loop_
 _symmetry_equiv_pos_site_id
 _symmetry_equiv_pos_as_xyz
  1  'x, y, z'
loop_
 _atom_site_type_symbol
 _atom_site_label
 _atom_site_symmetry_multiplicity
 _atom_site_fract_x
 _atom_site_fract_y
 _atom_site_fract_z
 _atom_site_occupancy
  K  K0  1  0.500027  0.750522  0.374946  1
  K  K1  1  0.000027  0.750522  0.125054  1
  K  K2  1  0.999973  0.249478  0.874946  1
  K  K3  1  0.499973  0.249478  0.625054  1
  Na  Na4  1  0.998380  0.748526  0.478912  1
  Na  Na5  1  0.498380  0.748526  0.021088  1
  Na  Na6  1  0.501620  0.251474  0.978912  1
  Na  Na7  1  0.001620  0.251474  0.521088  1
  Zn  Zn8  1  0.996010  0.248359  0.239673  1
  Zn  Zn9  1  0.503990  0.751641  0.739673  1
  Zn  Zn10  1  0.496010  0.248359  0.260327  1
  Zn  Zn11  1  0.003990  0.751641  0.760327  1
  O  O12  1  0.293661  0.429146  0.142069  1
  O  O13  1  0.698931  0.066972  0.142917  1
  O  O14  1  0.206339  0.570854  0.642069  1
  O  O15  1  0.301069  0.933028  0.857083  1
  O  O16  1  0.706339  0.570854  0.857931  1
  O  O17  1  0.793661  0.429146  0.357931  1
  O  O18  1  0.801069  0.933028  0.642917  1
  O  O19  1  0.198931  0.066972  0.357083  1
