# generated using pymatgen
data_K2Ag6Sn3S10
_symmetry_space_group_name_H-M   'P 1'
_cell_length_a   6.44360377
_cell_length_b   13.51824044
_cell_length_c   24.76095432
_cell_angle_alpha   90.00000000
_cell_angle_beta   90.00000000
_cell_angle_gamma   90.00000000
_symmetry_Int_Tables_number   1
_chemical_formula_structural   K2Ag6Sn3S10
_chemical_formula_sum   'K8 Ag24 Sn12 S40'
_cell_volume   2156.83226933
_cell_formula_units_Z   4
loop_
 _symmetry_equiv_pos_site_id
 _symmetry_equiv_pos_as_xyz
  1  'x, y, z'
loop_
 _atom_site_type_symbol
 _atom_site_label
 _atom_site_symmetry_multiplicity
 _atom_site_fract_x
 _atom_site_fract_y
 _atom_site_fract_z
 _atom_site_occupancy
  K  K0  1  0.074672  0.214367  0.820617  1
  K  K1  1  0.925328  0.714367  0.820617  1
  K  K2  1  0.425328  0.785633  0.320617  1
  K  K3  1  0.074672  0.285633  0.179383  1
  K  K4  1  0.425328  0.714367  0.679383  1
  K  K5  1  0.574672  0.214367  0.679383  1
  K  K6  1  0.925328  0.785633  0.179383  1
  K  K7  1  0.574672  0.285633  0.320617  1
  Ag  Ag8  1  0.418877  0.585294  0.040759  1
  Ag  Ag9  1  0.550839  0.290212  0.100348  1
  Ag  Ag10  1  0.491265  0.528847  0.407856  1
  Ag  Ag11  1  0.050839  0.290212  0.399652  1
  Ag  Ag12  1  0.949161  0.790212  0.399652  1
  Ag  Ag13  1  0.491265  0.971153  0.592144  1
  Ag  Ag14  1  0.991265  0.528847  0.092144  1
  Ag  Ag15  1  0.581123  0.414706  0.959241  1
  Ag  Ag16  1  0.550839  0.209788  0.899652  1
  Ag  Ag17  1  0.581123  0.085294  0.040759  1
  Ag  Ag18  1  0.449161  0.790212  0.100348  1
  Ag  Ag19  1  0.918877  0.585294  0.459241  1
  Ag  Ag20  1  0.918877  0.914706  0.540759  1
  Ag  Ag21  1  0.081123  0.085294  0.459241  1
  Ag  Ag22  1  0.508735  0.471153  0.592144  1
  Ag  Ag23  1  0.008735  0.471153  0.907856  1
  Ag  Ag24  1  0.991265  0.971153  0.907856  1
  Ag  Ag25  1  0.418877  0.914706  0.959241  1
  Ag  Ag26  1  0.008735  0.028847  0.092144  1
  Ag  Ag27  1  0.949161  0.709788  0.600348  1
  Ag  Ag28  1  0.508735  0.028847  0.407856  1
  Ag  Ag29  1  0.081123  0.414706  0.540759  1
  Ag  Ag30  1  0.449161  0.709788  0.899652  1
  Ag  Ag31  1  0.050839  0.209788  0.600348  1
  Sn  Sn32  1  0.550052  0.441625  0.799306  1
  Sn  Sn33  1  0.475262  0.750000  0.500000  1
  Sn  Sn34  1  0.050052  0.058375  0.299306  1
  Sn  Sn35  1  0.050052  0.441625  0.700694  1
  Sn  Sn36  1  0.024738  0.250000  0.000000  1
  Sn  Sn37  1  0.949948  0.941625  0.700694  1
  Sn  Sn38  1  0.449948  0.941625  0.799306  1
  Sn  Sn39  1  0.550052  0.058375  0.200694  1
  Sn  Sn40  1  0.449948  0.558375  0.200694  1
  Sn  Sn41  1  0.975262  0.750000  0.000000  1
  Sn  Sn42  1  0.524738  0.250000  0.500000  1
  Sn  Sn43  1  0.949948  0.558375  0.299306  1
  S  S44  1  0.302180  0.122271  0.540313  1
  S  S45  1  0.662709  0.967478  0.121063  1
  S  S46  1  0.197820  0.622271  0.959687  1
  S  S47  1  0.662709  0.532522  0.878937  1
  S  S48  1  0.410256  0.767999  0.803822  1
  S  S49  1  0.337291  0.467478  0.121063  1
  S  S50  1  0.261192  0.671750  0.431142  1
  S  S51  1  0.310647  0.001824  0.711836  1
  S  S52  1  0.589744  0.232001  0.196178  1
  S  S53  1  0.738808  0.328250  0.568858  1
  S  S54  1  0.802180  0.122271  0.959687  1
  S  S55  1  0.910256  0.732001  0.303822  1
  S  S56  1  0.197820  0.877729  0.040313  1
  S  S57  1  0.837291  0.467478  0.378937  1
  S  S58  1  0.589744  0.267999  0.803822  1
  S  S59  1  0.238808  0.171750  0.068858  1
  S  S60  1  0.302180  0.377729  0.459687  1
  S  S61  1  0.089744  0.267999  0.696178  1
  S  S62  1  0.337291  0.032522  0.878937  1
  S  S63  1  0.837291  0.032522  0.621063  1
  S  S64  1  0.761192  0.671750  0.068858  1
  S  S65  1  0.697820  0.877729  0.459687  1
  S  S66  1  0.162709  0.532522  0.621063  1
  S  S67  1  0.738808  0.171750  0.431142  1
  S  S68  1  0.910256  0.767999  0.696178  1
  S  S69  1  0.261192  0.828250  0.568858  1
  S  S70  1  0.689353  0.501824  0.711836  1
  S  S71  1  0.189353  0.998176  0.211836  1
  S  S72  1  0.162709  0.967478  0.378937  1
  S  S73  1  0.089744  0.232001  0.303822  1
  S  S74  1  0.810647  0.001824  0.788164  1
  S  S75  1  0.310647  0.498176  0.288164  1
  S  S76  1  0.802180  0.377729  0.040313  1
  S  S77  1  0.689353  0.998176  0.288164  1
  S  S78  1  0.410256  0.732001  0.196178  1
  S  S79  1  0.238808  0.328250  0.931142  1
  S  S80  1  0.697820  0.622271  0.540313  1
  S  S81  1  0.810647  0.498176  0.211836  1
  S  S82  1  0.189353  0.501824  0.788164  1
  S  S83  1  0.761192  0.828250  0.931142  1
