# generated using pymatgen
data_CsSmZnSe3
_symmetry_space_group_name_H-M   'P 1'
_cell_length_a   4.24537930
_cell_length_b   8.40428606
_cell_length_c   11.23331412
_cell_angle_alpha   90.00000000
_cell_angle_beta   90.00000000
_cell_angle_gamma   104.62977853
_symmetry_Int_Tables_number   1
_chemical_formula_structural   CsSmZnSe3
_chemical_formula_sum   'Cs2 Sm2 Zn2 Se6'
_cell_volume   387.80305569
_cell_formula_units_Z   2
loop_
 _symmetry_equiv_pos_site_id
 _symmetry_equiv_pos_as_xyz
  1  'x, y, z'
loop_
 _atom_site_type_symbol
 _atom_site_label
 _atom_site_symmetry_multiplicity
 _atom_site_fract_x
 _atom_site_fract_y
 _atom_site_fract_z
 _atom_site_occupancy
  Cs  Cs0  1  0.258402  0.516803  0.250000  1
  Cs  Cs1  1  0.741598  0.483197  0.750000  1
  Sm  Sm2  1  0.000000  0.000000  0.000000  1
  Sm  Sm3  1  0.000000  0.000000  0.500000  1
  Zn  Zn4  1  0.539547  0.079093  0.250000  1
  Zn  Zn5  1  0.460453  0.920907  0.750000  1
  Se  Se6  1  0.054046  0.108092  0.750000  1
  Se  Se7  1  0.382181  0.764361  0.563139  1
  Se  Se8  1  0.617819  0.235639  0.436861  1
  Se  Se9  1  0.617819  0.235639  0.063139  1
  Se  Se10  1  0.945954  0.891908  0.250000  1
  Se  Se11  1  0.382181  0.764361  0.936861  1
