# generated using pymatgen
data_USiNi
_symmetry_space_group_name_H-M   'P 1'
_cell_length_a   3.77655445
_cell_length_b   7.28343695
_cell_length_c   6.82530039
_cell_angle_alpha   90.00000000
_cell_angle_beta   90.00000000
_cell_angle_gamma   90.00000000
_symmetry_Int_Tables_number   1
_chemical_formula_structural   USiNi
_chemical_formula_sum   'U4 Si4 Ni4'
_cell_volume   187.73873435
_cell_formula_units_Z   4
loop_
 _symmetry_equiv_pos_site_id
 _symmetry_equiv_pos_as_xyz
  1  'x, y, z'
loop_
 _atom_site_type_symbol
 _atom_site_label
 _atom_site_symmetry_multiplicity
 _atom_site_fract_x
 _atom_site_fract_y
 _atom_site_fract_z
 _atom_site_occupancy
  U  U0  1  0.750000  0.002032  0.868243  1
  U  U1  1  0.250000  0.997968  0.131757  1
  U  U2  1  0.750000  0.502032  0.631757  1
  U  U3  1  0.250000  0.497968  0.368243  1
  Ni  Ni4  1  0.750000  0.876292  0.440364  1
  Ni  Ni5  1  0.250000  0.123708  0.559635  1
  Ni  Ni6  1  0.750000  0.376292  0.059636  1
  Ni  Ni7  1  0.250000  0.623708  0.940365  1
  Si  Si8  1  0.750000  0.197559  0.370624  1
  Si  Si9  1  0.250000  0.802441  0.629376  1
  Si  Si10  1  0.750000  0.697559  0.129376  1
  Si  Si11  1  0.250000  0.302441  0.870624  1
