# generated using pymatgen
data_WSe6ICl6
_symmetry_space_group_name_H-M   'P 1'
_cell_length_a   6.90495794
_cell_length_b   7.81549815
_cell_length_c   8.42619184
_cell_angle_alpha   92.66872339
_cell_angle_beta   97.22040771
_cell_angle_gamma   96.92511827
_symmetry_Int_Tables_number   1
_chemical_formula_structural   WSe6ICl6
_chemical_formula_sum   'W1 Se6 I1 Cl6'
_cell_volume   446.94796542
_cell_formula_units_Z   1
loop_
 _symmetry_equiv_pos_site_id
 _symmetry_equiv_pos_as_xyz
  1  'x, y, z'
loop_
 _atom_site_type_symbol
 _atom_site_label
 _atom_site_symmetry_multiplicity
 _atom_site_fract_x
 _atom_site_fract_y
 _atom_site_fract_z
 _atom_site_occupancy
  W  W0  1  0.500000  0.500000  0.500000  1
  Se  Se1  1  0.945153  0.981090  0.737170  1
  Se  Se2  1  0.980296  0.755486  0.117189  1
  Se  Se3  1  0.850211  0.207949  0.118352  1
  Se  Se4  1  0.019704  0.244514  0.882811  1
  Se  Se5  1  0.149789  0.792051  0.881648  1
  Se  Se6  1  0.054847  0.018910  0.262830  1
  I  I7  1  0.500000  0.000000  0.000000  1
  Cl  Cl8  1  0.378704  0.765745  0.517128  1
  Cl  Cl9  1  0.423656  0.486657  0.220833  1
  Cl  Cl10  1  0.621296  0.234255  0.482872  1
  Cl  Cl11  1  0.814447  0.643987  0.478325  1
  Cl  Cl12  1  0.185553  0.356013  0.521675  1
  Cl  Cl13  1  0.576344  0.513343  0.779167  1
