# generated using pymatgen
data_RbNd(WO4)2
_symmetry_space_group_name_H-M   'P 1'
_cell_length_a   7.75990222
_cell_length_b   7.75990248
_cell_length_c   7.59263803
_cell_angle_alpha   62.75189984
_cell_angle_beta   62.75189899
_cell_angle_gamma   89.32400606
_symmetry_Int_Tables_number   1
_chemical_formula_structural   RbNd(WO4)2
_chemical_formula_sum   'Rb2 Nd2 W4 O16'
_cell_volume   349.85846620
_cell_formula_units_Z   2
loop_
 _symmetry_equiv_pos_site_id
 _symmetry_equiv_pos_as_xyz
  1  'x, y, z'
loop_
 _atom_site_type_symbol
 _atom_site_label
 _atom_site_symmetry_multiplicity
 _atom_site_fract_x
 _atom_site_fract_y
 _atom_site_fract_z
 _atom_site_occupancy
  Rb  Rb0  1  0.798448  0.201552  0.750000  1
  Rb  Rb1  1  0.201552  0.798448  0.250000  1
  Nd  Nd2  1  0.224770  0.775230  0.750000  1
  Nd  Nd3  1  0.775230  0.224770  0.250000  1
  W  W4  1  0.687322  0.697114  0.780572  1
  W  W5  1  0.697114  0.687322  0.280572  1
  W  W6  1  0.312678  0.302886  0.219428  1
  W  W7  1  0.302886  0.312678  0.719428  1
  O  O8  1  0.586908  0.371910  0.472162  1
  O  O9  1  0.217244  0.052085  0.808474  1
  O  O10  1  0.067772  0.379155  0.865480  1
  O  O11  1  0.379155  0.067772  0.365480  1
  O  O12  1  0.748453  0.623301  0.560587  1
  O  O13  1  0.376699  0.251547  0.939413  1
  O  O14  1  0.620845  0.932228  0.634520  1
  O  O15  1  0.413092  0.628090  0.527838  1
  O  O16  1  0.052085  0.217244  0.308474  1
  O  O17  1  0.782756  0.947915  0.191526  1
  O  O18  1  0.371910  0.586908  0.972162  1
  O  O19  1  0.932228  0.620845  0.134520  1
  O  O20  1  0.251547  0.376699  0.439413  1
  O  O21  1  0.623301  0.748453  0.060587  1
  O  O22  1  0.947915  0.782756  0.691526  1
  O  O23  1  0.628090  0.413092  0.027838  1
