# generated using pymatgen
data_K3(Mo7O11)2
_symmetry_space_group_name_H-M   'P 1'
_cell_length_a   9.91336885
_cell_length_b   10.57431217
_cell_length_c   11.58181859
_cell_angle_alpha   103.34072789
_cell_angle_beta   90.00000000
_cell_angle_gamma   90.00000000
_symmetry_Int_Tables_number   1
_chemical_formula_structural   K3(Mo7O11)2
_chemical_formula_sum   'K6 Mo28 O44'
_cell_volume   1181.32591231
_cell_formula_units_Z   2
loop_
 _symmetry_equiv_pos_site_id
 _symmetry_equiv_pos_as_xyz
  1  'x, y, z'
loop_
 _atom_site_type_symbol
 _atom_site_label
 _atom_site_symmetry_multiplicity
 _atom_site_fract_x
 _atom_site_fract_y
 _atom_site_fract_z
 _atom_site_occupancy
  K  K0  1  0.000000  0.000000  0.000000  1
  K  K1  1  0.500000  0.500000  0.000000  1
  K  K2  1  0.973380  0.052692  0.328730  1
  K  K3  1  0.473380  0.447308  0.671270  1
  K  K4  1  0.026620  0.947308  0.671270  1
  K  K5  1  0.526620  0.552692  0.328730  1
  Mo  Mo6  1  0.631765  0.136910  0.146408  1
  Mo  Mo7  1  0.131765  0.363090  0.853592  1
  Mo  Mo8  1  0.368235  0.863090  0.853592  1
  Mo  Mo9  1  0.868235  0.636910  0.146408  1
  Mo  Mo10  1  0.631128  0.901249  0.285840  1
  Mo  Mo11  1  0.131128  0.598751  0.714160  1
  Mo  Mo12  1  0.368872  0.098751  0.714160  1
  Mo  Mo13  1  0.868872  0.401249  0.285840  1
  Mo  Mo14  1  0.357269  0.240040  0.289046  1
  Mo  Mo15  1  0.857269  0.259960  0.710954  1
  Mo  Mo16  1  0.642731  0.759960  0.710954  1
  Mo  Mo17  1  0.142731  0.740040  0.289046  1
  Mo  Mo18  1  0.639687  0.833531  -0.000299  1
  Mo  Mo19  1  0.139687  0.666469  1.000299  1
  Mo  Mo20  1  0.360313  0.166469  1.000299  1
  Mo  Mo21  1  0.860313  0.333531  -0.000299  1
  Mo  Mo22  1  0.628539  0.214804  0.431595  1
  Mo  Mo23  1  0.128539  0.285196  0.568405  1
  Mo  Mo24  1  0.371461  0.785196  0.568405  1
  Mo  Mo25  1  0.871461  0.714804  0.431595  1
  Mo  Mo26  1  0.636412  0.064063  0.861420  1
  Mo  Mo27  1  0.136412  0.435937  0.138580  1
  Mo  Mo28  1  0.363588  0.935937  0.138580  1
  Mo  Mo29  1  0.863588  0.564063  0.861420  1
  Mo  Mo30  1  0.641553  0.979966  0.573532  1
  Mo  Mo31  1  0.141553  0.520034  0.426468  1
  Mo  Mo32  1  0.358447  0.020034  0.426468  1
  Mo  Mo33  1  0.858447  0.479966  0.573532  1
  O  O34  1  0.239462  0.326578  0.996288  1
  O  O35  1  0.739462  0.173422  0.003712  1
  O  O36  1  0.760538  0.673422  0.003712  1
  O  O37  1  0.260538  0.826578  0.996288  1
  O  O38  1  0.232693  0.402035  0.291556  1
  O  O39  1  0.732693  0.097965  0.708444  1
  O  O40  1  0.767307  0.597965  0.708444  1
  O  O41  1  0.267307  0.902035  0.291556  1
  O  O42  1  0.746640  0.323053  0.569919  1
  O  O43  1  0.246640  0.176947  0.430081  1
  O  O44  1  0.253360  0.676947  0.430081  1
  O  O45  1  0.753360  0.823053  0.569919  1
  O  O46  1  0.497618  0.125469  0.557648  1
  O  O47  1  0.997618  0.374531  0.442352  1
  O  O48  1  0.502382  0.874531  0.442352  1
  O  O49  1  0.002382  0.625469  0.557648  1
  O  O50  1  0.483057  0.201924  0.859920  1
  O  O51  1  0.983057  0.298076  0.140080  1
  O  O52  1  0.516943  0.798076  0.140080  1
  O  O53  1  0.016943  0.701924  0.859920  1
  O  O54  1  0.523730  0.725131  0.852832  1
  O  O55  1  0.023730  0.774869  0.147168  1
  O  O56  1  0.476270  0.274869  0.147168  1
  O  O57  1  0.976270  0.225131  0.852832  1
  O  O58  1  0.758411  0.390812  0.856792  1
  O  O59  1  0.258411  0.109188  0.143208  1
  O  O60  1  0.241589  0.609188  0.143208  1
  O  O61  1  0.741589  0.890812  0.856792  1
  O  O62  1  0.514717  0.665457  0.571410  1
  O  O63  1  0.014717  0.834543  0.428590  1
  O  O64  1  0.485283  0.334543  0.428590  1
  O  O65  1  0.985283  0.165457  0.571410  1
  O  O66  1  0.276319  0.962104  0.568820  1
  O  O67  1  0.776319  0.537896  0.431180  1
  O  O68  1  0.723681  0.037896  0.431180  1
  O  O69  1  0.223681  0.462104  0.568820  1
  O  O70  1  0.240988  0.256827  0.703808  1
  O  O71  1  0.740988  0.243173  0.296193  1
  O  O72  1  0.759012  0.743173  0.296193  1
  O  O73  1  0.259012  0.756827  0.703808  1
  O  O74  1  0.736829  0.961857  0.148844  1
  O  O75  1  0.236829  0.538143  0.851156  1
  O  O76  1  0.263171  0.038143  0.851156  1
  O  O77  1  0.763171  0.461857  0.148844  1
