# generated using pymatgen
data_SiO2
_symmetry_space_group_name_H-M   'P 1'
_cell_length_a   10.46988954
_cell_length_b   10.46988947
_cell_length_c   10.46988976
_cell_angle_alpha   109.47121907
_cell_angle_beta   109.47121896
_cell_angle_gamma   109.47122249
_symmetry_Int_Tables_number   1
_chemical_formula_structural   SiO2
_chemical_formula_sum   'Si24 O48'
_cell_volume   883.49566375
_cell_formula_units_Z   24
loop_
 _symmetry_equiv_pos_site_id
 _symmetry_equiv_pos_as_xyz
  1  'x, y, z'
loop_
 _atom_site_type_symbol
 _atom_site_label
 _atom_site_symmetry_multiplicity
 _atom_site_fract_x
 _atom_site_fract_y
 _atom_site_fract_z
 _atom_site_occupancy
  Si  Si0  1  0.881422  0.310164  0.681739  1
  Si  Si1  1  0.071258  0.371575  0.189836  1
  Si  Si2  1  0.310164  0.681739  0.881422  1
  Si  Si3  1  0.318261  0.118578  0.689836  1
  Si  Si4  1  0.181739  0.871575  0.800317  1
  Si  Si5  1  0.681739  0.881422  0.310164  1
  Si  Si6  1  0.871575  0.800317  0.181739  1
  Si  Si7  1  0.618578  0.300317  0.428742  1
  Si  Si8  1  0.428742  0.618578  0.300317  1
  Si  Si9  1  0.118578  0.689836  0.318261  1
  Si  Si10  1  0.571258  0.381422  0.699683  1
  Si  Si11  1  0.800317  0.181739  0.871575  1
  Si  Si12  1  0.371575  0.189836  0.071258  1
  Si  Si13  1  0.199683  0.818261  0.128425  1
  Si  Si14  1  0.381422  0.699683  0.571258  1
  Si  Si15  1  0.928742  0.628425  0.810164  1
  Si  Si16  1  0.300317  0.428742  0.618578  1
  Si  Si17  1  0.699683  0.571258  0.381422  1
  Si  Si18  1  0.818261  0.128425  0.199683  1
  Si  Si19  1  0.128425  0.199683  0.818261  1
  Si  Si20  1  0.810164  0.928742  0.628425  1
  Si  Si21  1  0.689836  0.318261  0.118578  1
  Si  Si22  1  0.189836  0.071258  0.371575  1
  Si  Si23  1  0.628425  0.810164  0.928742  1
  O  O24  1  0.015731  0.739856  1.000471  1
  O  O25  1  0.249971  0.499971  0.750000  1
  O  O26  1  0.250000  0.750029  0.500029  1
  O  O27  1  0.515260  0.275875  0.515731  1
  O  O28  1  0.500471  0.760615  0.984740  1
  O  O29  1  1.000471  0.015731  0.739856  1
  O  O30  1  0.227931  0.250000  0.477931  1
  O  O31  1  0.750000  0.522069  0.772069  1
  O  O32  1  0.750000  0.249971  0.499971  1
  O  O33  1  0.239856  0.224125  0.739385  1
  O  O34  1  0.022069  0.272069  0.750000  1
  O  O35  1  0.484740  0.724125  0.484269  1
  O  O36  1  0.260615  0.760144  0.775875  1
  O  O37  1  0.224125  0.739385  0.239856  1
  O  O38  1  0.739385  0.239856  0.224125  1
  O  O39  1  0.750000  0.749971  0.999971  1
  O  O40  1  0.250029  0.000029  0.250000  1
  O  O41  1  0.522069  0.772069  0.750000  1
  O  O42  1  0.750029  0.500029  0.250000  1
  O  O43  1  0.275875  0.515731  0.515260  1
  O  O44  1  0.727931  0.250000  0.977931  1
  O  O45  1  0.750000  0.022069  0.272069  1
  O  O46  1  0.250000  0.977931  0.727931  1
  O  O47  1  0.999971  0.750000  0.749971  1
  O  O48  1  0.484269  0.484740  0.724125  1
  O  O49  1  0.477931  0.227931  0.250000  1
  O  O50  1  0.250000  0.250029  0.000029  1
  O  O51  1  0.760615  0.984740  0.500471  1
  O  O52  1  0.775875  0.260615  0.760144  1
  O  O53  1  0.515731  0.515260  0.275875  1
  O  O54  1  0.015260  0.499529  0.239385  1
  O  O55  1  0.250000  0.477931  0.227931  1
  O  O56  1  0.724125  0.484269  0.484740  1
  O  O57  1  0.499529  0.239385  0.015260  1
  O  O58  1  0.772069  0.750000  0.522069  1
  O  O59  1  0.977931  0.727931  0.250000  1
  O  O60  1  0.984740  0.500471  0.760615  1
  O  O61  1  0.499971  0.750000  0.249971  1
  O  O62  1  0.500029  0.250000  0.750029  1
  O  O63  1  0.272069  0.750000  0.022069  1
  O  O64  1  0.984269  0.260144  -0.000471  1
  O  O65  1  0.749971  0.999971  0.750000  1
  O  O66  1  0.260144  -0.000471  0.984269  1
  O  O67  1  0.739856  1.000471  0.015731  1
  O  O68  1  -0.000471  0.984269  0.260144  1
  O  O69  1  0.000029  0.250000  0.250029  1
  O  O70  1  0.239385  0.015260  0.499529  1
  O  O71  1  0.760144  0.775875  0.260615  1
