# generated using pymatgen
data_Ta2Cr4Si5
_symmetry_space_group_name_H-M   'P 1'
_cell_length_a   5.15140507
_cell_length_b   7.44927587
_cell_length_c   9.32427856
_cell_angle_alpha   113.53349282
_cell_angle_beta   106.03889467
_cell_angle_gamma   90.00186015
_symmetry_Int_Tables_number   1
_chemical_formula_structural   Ta2Cr4Si5
_chemical_formula_sum   'Ta4 Cr8 Si10'
_cell_volume   312.79984218
_cell_formula_units_Z   2
loop_
 _symmetry_equiv_pos_site_id
 _symmetry_equiv_pos_as_xyz
  1  'x, y, z'
loop_
 _atom_site_type_symbol
 _atom_site_label
 _atom_site_symmetry_multiplicity
 _atom_site_fract_x
 _atom_site_fract_y
 _atom_site_fract_z
 _atom_site_occupancy
  Cr  Cr0  1  0.439257  0.689041  0.878583  1
  Cr  Cr1  1  0.560743  0.310959  0.121417  1
  Cr  Cr2  1  0.060650  0.810325  0.121224  1
  Cr  Cr3  1  0.939350  0.189675  0.878776  1
  Cr  Cr4  1  0.143595  0.266200  0.287109  1
  Cr  Cr5  1  0.856405  0.733800  0.712891  1
  Cr  Cr6  1  0.356377  0.979009  0.712860  1
  Cr  Cr7  1  0.643623  0.020991  0.287140  1
  Ta  Ta8  1  0.060004  0.310039  0.620157  1
  Ta  Ta9  1  0.439816  0.689992  0.379836  1
  Ta  Ta10  1  0.939996  0.689961  0.379843  1
  Ta  Ta11  1  0.560184  0.310008  0.620164  1
  Si  Si12  1  0.750216  0.999999  1.000000  1
  Si  Si13  1  0.249784  0.000001  0.000000  1
  Si  Si14  1  0.296991  0.606060  0.593822  1
  Si  Si15  1  0.703009  0.393940  0.406178  1
  Si  Si16  1  0.202936  0.012209  0.405912  1
  Si  Si17  1  0.797064  0.987791  0.594088  1
  Si  Si18  1  0.059782  0.469335  0.119758  1
  Si  Si19  1  0.940218  0.530665  0.880242  1
  Si  Si20  1  0.440236  0.349452  0.880304  1
  Si  Si21  1  0.559764  0.650548  0.119696  1
