# generated using pymatgen
data_KZrCuF7
_symmetry_space_group_name_H-M   'P 1'
_cell_length_a   7.76076609
_cell_length_b   7.76076680
_cell_length_c   10.21719644
_cell_angle_alpha   90.00000000
_cell_angle_beta   90.00000000
_cell_angle_gamma   113.34406320
_symmetry_Int_Tables_number   1
_chemical_formula_structural   KZrCuF7
_chemical_formula_sum   'K4 Zr4 Cu4 F28'
_cell_volume   565.00304162
_cell_formula_units_Z   4
loop_
 _symmetry_equiv_pos_site_id
 _symmetry_equiv_pos_as_xyz
  1  'x, y, z'
loop_
 _atom_site_type_symbol
 _atom_site_label
 _atom_site_symmetry_multiplicity
 _atom_site_fract_x
 _atom_site_fract_y
 _atom_site_fract_z
 _atom_site_occupancy
  K  K0  1  0.637181  0.847042  0.250000  1
  K  K1  1  0.152958  0.362819  0.250000  1
  K  K2  1  0.847042  0.637181  0.750000  1
  K  K3  1  0.362819  0.152958  0.750000  1
  Zr  Zr4  1  0.133792  0.866208  0.431108  1
  Zr  Zr5  1  0.133792  0.866208  0.068892  1
  Zr  Zr6  1  0.866208  0.133792  0.931108  1
  Zr  Zr7  1  0.866208  0.133792  0.568892  1
  Cu  Cu8  1  0.633931  0.366069  0.069931  1
  Cu  Cu9  1  0.366069  0.633931  0.569931  1
  Cu  Cu10  1  0.366069  0.633931  0.930069  1
  Cu  Cu11  1  0.633931  0.366069  0.430069  1
  F  F12  1  0.644290  0.897220  0.513435  1
  F  F13  1  0.355710  0.102780  0.486565  1
  F  F14  1  0.777644  0.222356  0.385868  1
  F  F15  1  0.222356  0.777644  0.614132  1
  F  F16  1  0.025477  0.974523  0.613485  1
  F  F17  1  0.355710  0.102780  0.013435  1
  F  F18  1  0.897220  0.644290  0.013435  1
  F  F19  1  0.997696  0.725101  0.250000  1
  F  F20  1  0.102780  0.355710  0.513435  1
  F  F21  1  0.295455  0.704545  0.389895  1
  F  F22  1  0.584052  0.415948  0.250000  1
  F  F23  1  0.704545  0.295455  0.610105  1
  F  F24  1  0.704545  0.295455  0.889895  1
  F  F25  1  0.974523  0.025477  0.386515  1
  F  F26  1  0.102780  0.355710  0.986565  1
  F  F27  1  0.222356  0.777644  0.885868  1
  F  F28  1  0.415948  0.584052  0.750000  1
  F  F29  1  0.897220  0.644290  0.486565  1
  F  F30  1  0.725101  0.997696  0.750000  1
  F  F31  1  0.025477  0.974523  0.886515  1
  F  F32  1  0.974523  0.025477  0.113485  1
  F  F33  1  0.295455  0.704545  0.110105  1
  F  F34  1  0.644290  0.897220  0.986565  1
  F  F35  1  0.777644  0.222356  0.114132  1
  F  F36  1  0.500000  0.500000  0.500000  1
  F  F37  1  0.002304  0.274899  0.750000  1
  F  F38  1  0.274899  0.002304  0.250000  1
  F  F39  1  0.500000  0.500000  0.000000  1
