# generated using pymatgen
data_Sm32O21
_symmetry_space_group_name_H-M   'P 1'
_cell_length_a   10.93444149
_cell_length_b   10.93444166
_cell_length_c   10.93444132
_cell_angle_alpha   90.23051818
_cell_angle_beta   90.23051819
_cell_angle_gamma   90.23051641
_symmetry_Int_Tables_number   1
_chemical_formula_structural   Sm32O21
_chemical_formula_sum   'Sm32 O21'
_cell_volume   1307.31198106
_cell_formula_units_Z   1
loop_
 _symmetry_equiv_pos_site_id
 _symmetry_equiv_pos_as_xyz
  1  'x, y, z'
loop_
 _atom_site_type_symbol
 _atom_site_label
 _atom_site_symmetry_multiplicity
 _atom_site_fract_x
 _atom_site_fract_y
 _atom_site_fract_z
 _atom_site_occupancy
  Sm  Sm0  1  0.258005  0.755900  0.495170  1
  Sm  Sm1  1  0.500421  0.988738  0.500421  1
  Sm  Sm2  1  0.500421  0.500421  0.988738  1
  Sm  Sm3  1  0.491467  0.491467  0.491467  1
  Sm  Sm4  1  0.753242  0.987633  0.753242  1
  Sm  Sm5  1  0.006467  0.744726  0.254961  1
  Sm  Sm6  1  0.744726  0.006467  0.254961  1
  Sm  Sm7  1  0.996474  0.996474  0.996474  1
  Sm  Sm8  1  0.987633  0.753242  0.753242  1
  Sm  Sm9  1  0.006467  0.254961  0.744726  1
  Sm  Sm10  1  0.254961  0.744726  0.006467  1
  Sm  Sm11  1  0.755900  0.495170  0.258005  1
  Sm  Sm12  1  0.499540  0.999289  0.999289  1
  Sm  Sm13  1  0.250704  0.503270  0.250704  1
  Sm  Sm14  1  0.247375  0.992886  0.247375  1
  Sm  Sm15  1  0.503270  0.250704  0.250704  1
  Sm  Sm16  1  0.258005  0.495170  0.755900  1
  Sm  Sm17  1  0.247375  0.247375  0.992886  1
  Sm  Sm18  1  0.495170  0.755900  0.258005  1
  Sm  Sm19  1  0.250704  0.250704  0.503270  1
  Sm  Sm20  1  0.744726  0.254961  0.006467  1
  Sm  Sm21  1  0.254961  0.006467  0.744726  1
  Sm  Sm22  1  0.988738  0.500421  0.500421  1
  Sm  Sm23  1  0.753242  0.753242  0.987633  1
  Sm  Sm24  1  0.992886  0.247375  0.247375  1
  Sm  Sm25  1  0.755900  0.258005  0.495170  1
  Sm  Sm26  1  0.490136  0.756511  0.756511  1
  Sm  Sm27  1  0.495170  0.258005  0.755900  1
  Sm  Sm28  1  0.756511  0.756511  0.490136  1
  Sm  Sm29  1  0.999289  0.499540  0.999289  1
  Sm  Sm30  1  0.756511  0.490136  0.756511  1
  Sm  Sm31  1  0.999289  0.999289  0.499540  1
  O  O32  1  0.127528  0.874287  0.375930  1
  O  O33  1  0.626841  0.877702  0.372901  1
  O  O34  1  0.873832  0.873832  0.620998  1
  O  O35  1  0.873832  0.620998  0.873832  1
  O  O36  1  0.375930  0.874287  0.127528  1
  O  O37  1  0.129281  0.621680  0.129281  1
  O  O38  1  0.621680  0.129281  0.129281  1
  O  O39  1  0.127528  0.375930  0.874287  1
  O  O40  1  0.129281  0.129281  0.621680  1
  O  O41  1  0.620998  0.873832  0.873832  1
  O  O42  1  0.877702  0.372901  0.626841  1
  O  O43  1  0.372901  0.877702  0.626841  1
  O  O44  1  0.371630  0.371630  0.626768  1
  O  O45  1  0.874287  0.375930  0.127528  1
  O  O46  1  0.626768  0.371630  0.371630  1
  O  O47  1  0.375930  0.127528  0.874287  1
  O  O48  1  0.874287  0.127528  0.375930  1
  O  O49  1  0.877702  0.626841  0.372901  1
  O  O50  1  0.626841  0.372901  0.877702  1
  O  O51  1  0.372901  0.626841  0.877702  1
  O  O52  1  0.371630  0.626768  0.371630  1
