# generated using pymatgen
data_K2Ce(NO3)6
_symmetry_space_group_name_H-M   'P 1'
_cell_length_a   13.97129869
_cell_length_b   13.97129866
_cell_length_c   6.80719028
_cell_angle_alpha   90.00000000
_cell_angle_beta   90.00000000
_cell_angle_gamma   120.00000005
_symmetry_Int_Tables_number   1
_chemical_formula_structural   K2Ce(NO3)6
_chemical_formula_sum   'K6 Ce3 N18 O54'
_cell_volume   1150.72639807
_cell_formula_units_Z   3
loop_
 _symmetry_equiv_pos_site_id
 _symmetry_equiv_pos_as_xyz
  1  'x, y, z'
loop_
 _atom_site_type_symbol
 _atom_site_label
 _atom_site_symmetry_multiplicity
 _atom_site_fract_x
 _atom_site_fract_y
 _atom_site_fract_z
 _atom_site_occupancy
  K  K0  1  0.674043  0.679795  0.218781  1
  K  K1  1  0.994248  0.674043  0.781219  1
  K  K2  1  0.320205  0.994248  0.218781  1
  K  K3  1  0.325957  0.320205  0.781219  1
  K  K4  1  0.005752  0.325957  0.218781  1
  K  K5  1  0.679795  0.005752  0.781219  1
  Ce  Ce6  1  0.666667  0.333333  0.489488  1
  Ce  Ce7  1  0.333333  0.666667  0.510512  1
  Ce  Ce8  1  0.000000  0.000000  0.000000  1
  N  N9  1  0.800839  0.526102  0.223450  1
  N  N10  1  0.615497  0.475630  0.748004  1
  N  N11  1  0.177277  0.009708  0.733190  1
  N  N12  1  0.822723  0.990292  0.266810  1
  N  N13  1  0.139867  0.615497  0.251996  1
  N  N14  1  0.990292  0.167569  0.733190  1
  N  N15  1  0.473898  0.274737  0.223450  1
  N  N16  1  0.832431  0.822723  0.733190  1
  N  N17  1  0.384503  0.524370  0.251996  1
  N  N18  1  0.860133  0.384503  0.748004  1
  N  N19  1  0.274737  0.800839  0.776550  1
  N  N20  1  0.524370  0.139867  0.748004  1
  N  N21  1  0.725263  0.199161  0.223450  1
  N  N22  1  0.475630  0.860133  0.251996  1
  N  N23  1  0.199161  0.473898  0.776550  1
  N  N24  1  0.526102  0.725263  0.776550  1
  N  N25  1  0.167569  0.177277  0.266810  1
  N  N26  1  0.009708  0.832431  0.266810  1
  O  O27  1  0.936801  0.861915  0.284775  1
  O  O28  1  0.799235  0.925595  0.116609  1
  O  O29  1  0.250044  0.465967  0.624427  1
  O  O30  1  0.230201  0.248529  0.382468  1
  O  O31  1  0.215923  0.749956  0.624427  1
  O  O32  1  0.869188  0.449020  0.604311  1
  O  O33  1  0.533454  0.235142  0.767974  1
  O  O34  1  0.420169  0.869188  0.395689  1
  O  O35  1  0.138085  0.074886  0.284775  1
  O  O36  1  0.433844  0.636903  0.799352  1
  O  O37  1  0.796941  0.433844  0.200648  1
  O  O38  1  0.925595  0.126360  0.883391  1
  O  O39  1  0.534033  0.784077  0.624427  1
  O  O40  1  0.248529  0.018329  0.617532  1
  O  O41  1  0.466546  0.764858  0.232026  1
  O  O42  1  0.467429  0.061789  0.857613  1
  O  O43  1  0.861915  0.925114  0.715225  1
  O  O44  1  0.769799  0.751471  0.617532  1
  O  O45  1  0.244459  0.848578  0.891977  1
  O  O46  1  0.579831  0.130812  0.604311  1
  O  O47  1  0.235142  0.701688  0.232026  1
  O  O48  1  0.604119  0.755541  0.891977  1
  O  O49  1  0.151422  0.395881  0.891977  1
  O  O50  1  0.981671  0.230201  0.617532  1
  O  O51  1  0.203059  0.566156  0.799352  1
  O  O52  1  0.532571  0.938211  0.142387  1
  O  O53  1  0.449020  0.579831  0.395689  1
  O  O54  1  0.465967  0.215923  0.375573  1
  O  O55  1  0.925114  0.063199  0.284775  1
  O  O56  1  0.405640  0.467429  0.142387  1
  O  O57  1  0.755541  0.151422  0.108023  1
  O  O58  1  0.018329  0.769799  0.382468  1
  O  O59  1  0.938211  0.405640  0.857613  1
  O  O60  1  0.074886  0.936801  0.715225  1
  O  O61  1  0.395881  0.244459  0.108023  1
  O  O62  1  0.566156  0.363097  0.200648  1
  O  O63  1  0.130812  0.550980  0.395689  1
  O  O64  1  0.848578  0.604119  0.108023  1
  O  O65  1  0.063199  0.138085  0.715225  1
  O  O66  1  0.749956  0.534033  0.375573  1
  O  O67  1  0.298312  0.533454  0.232026  1
  O  O68  1  0.764858  0.298312  0.767974  1
  O  O69  1  0.636903  0.203059  0.200648  1
  O  O70  1  0.550980  0.420169  0.604311  1
  O  O71  1  0.701688  0.466546  0.767974  1
  O  O72  1  0.074405  0.873640  0.116609  1
  O  O73  1  0.784077  0.250044  0.375573  1
  O  O74  1  0.594360  0.532571  0.857613  1
  O  O75  1  0.751471  0.981671  0.382468  1
  O  O76  1  0.363097  0.796941  0.799352  1
  O  O77  1  0.200765  0.074405  0.883391  1
  O  O78  1  0.061789  0.594360  0.142387  1
  O  O79  1  0.873640  0.799235  0.883391  1
  O  O80  1  0.126360  0.200765  0.116609  1
