# generated using pymatgen
data_Hg4I7
_symmetry_space_group_name_H-M   'P 1'
_cell_length_a   6.58388675
_cell_length_b   9.51254748
_cell_length_c   9.51254748
_cell_angle_alpha   90.00000000
_cell_angle_beta   90.00000000
_cell_angle_gamma   90.00000000
_symmetry_Int_Tables_number   1
_chemical_formula_structural   Hg4I7
_chemical_formula_sum   'Hg4 I7'
_cell_volume   595.76642831
_cell_formula_units_Z   1
loop_
 _symmetry_equiv_pos_site_id
 _symmetry_equiv_pos_as_xyz
  1  'x, y, z'
loop_
 _atom_site_type_symbol
 _atom_site_label
 _atom_site_symmetry_multiplicity
 _atom_site_fract_x
 _atom_site_fract_y
 _atom_site_fract_z
 _atom_site_occupancy
  Hg  Hg0  1  0.229953  0.000000  0.727824  1
  Hg  Hg1  1  0.770047  0.727824  0.000000  1
  Hg  Hg2  1  0.770047  0.272176  0.000000  1
  Hg  Hg3  1  0.229953  0.000000  0.272176  1
  I  I4  1  0.000000  0.256148  0.743852  1
  I  I5  1  0.000000  0.743852  0.256148  1
  I  I6  1  0.481124  0.500000  0.000000  1
  I  I7  1  0.518876  0.000000  0.500000  1
  I  I8  1  0.500000  0.000000  0.000000  1
  I  I9  1  0.000000  0.743852  0.743852  1
  I  I10  1  0.000000  0.256148  0.256148  1
