# generated using pymatgen
data_CuTe4H12C4N
_symmetry_space_group_name_H-M   'P 1'
_cell_length_a   9.74199351
_cell_length_b   11.34348072
_cell_length_c   12.00951381
_cell_angle_alpha   90.00000000
_cell_angle_beta   103.16875637
_cell_angle_gamma   90.00000000
_symmetry_Int_Tables_number   1
_chemical_formula_structural   CuTe4H12C4N
_chemical_formula_sum   'Cu4 Te16 H48 C16 N4'
_cell_volume   1292.24907982
_cell_formula_units_Z   4
loop_
 _symmetry_equiv_pos_site_id
 _symmetry_equiv_pos_as_xyz
  1  'x, y, z'
loop_
 _atom_site_type_symbol
 _atom_site_label
 _atom_site_symmetry_multiplicity
 _atom_site_fract_x
 _atom_site_fract_y
 _atom_site_fract_z
 _atom_site_occupancy
  Cu  Cu0  1  0.469933  0.033265  0.889358  1
  Cu  Cu1  1  0.469933  0.466735  0.389358  1
  Cu  Cu2  1  0.530067  0.533265  0.610642  1
  Cu  Cu3  1  0.530067  0.966735  0.110642  1
  Te  Te4  1  0.632013  0.067441  0.305905  1
  Te  Te5  1  0.282550  0.048290  0.016258  1
  Te  Te6  1  0.367987  0.932559  0.694095  1
  Te  Te7  1  0.717450  0.548290  0.483742  1
  Te  Te8  1  0.632013  0.432559  0.805905  1
  Te  Te9  1  0.330466  0.284712  0.089887  1
  Te  Te10  1  0.717450  0.951710  0.983742  1
  Te  Te11  1  0.428376  0.238980  0.332252  1
  Te  Te12  1  0.669534  0.715288  0.910113  1
  Te  Te13  1  0.428376  0.261020  0.832252  1
  Te  Te14  1  0.330466  0.215288  0.589887  1
  Te  Te15  1  0.571624  0.761020  0.667748  1
  Te  Te16  1  0.282550  0.451710  0.516258  1
  Te  Te17  1  0.669534  0.784712  0.410113  1
  Te  Te18  1  0.367987  0.567441  0.194095  1
  Te  Te19  1  0.571624  0.738980  0.167748  1
  H  H20  1  0.053176  0.188600  0.796238  1
  H  H21  1  0.292336  0.960438  0.273423  1
  H  H22  1  0.994562  0.249093  0.596301  1
  H  H23  1  0.072878  0.456075  0.798189  1
  H  H24  1  0.166823  0.687636  0.379814  1
  H  H25  1  0.174266  0.792439  0.493177  1
  H  H26  1  0.994562  0.250907  0.096301  1
  H  H27  1  0.949830  0.543993  0.853848  1
  H  H28  1  0.927122  0.543925  0.201811  1
  H  H29  1  0.707664  0.460438  0.226577  1
  H  H30  1  0.116731  0.500404  0.945264  1
  H  H31  1  0.050170  0.043993  0.646152  1
  H  H32  1  0.946824  0.811400  0.203762  1
  H  H33  1  0.932242  0.098756  0.851538  1
  H  H34  1  0.067758  0.598756  0.648462  1
  H  H35  1  0.166823  0.812364  0.879814  1
  H  H36  1  0.331664  0.808343  0.309205  1
  H  H37  1  0.707664  0.039562  0.726577  1
  H  H38  1  0.005438  0.749093  0.903699  1
  H  H39  1  0.825734  0.292439  0.006823  1
  H  H40  1  0.833177  0.187636  0.120186  1
  H  H41  1  0.666952  0.085514  0.578943  1
  H  H42  1  0.333048  0.914486  0.421057  1
  H  H43  1  0.112058  0.750074  0.685517  1
  H  H44  1  0.174266  0.707561  0.993177  1
  H  H45  1  0.292336  0.539562  0.773423  1
  H  H46  1  0.825734  0.207561  0.506823  1
  H  H47  1  0.883269  0.000404  0.554736  1
  H  H48  1  0.331664  0.691657  0.809205  1
  H  H49  1  0.932242  0.401244  0.351538  1
  H  H50  1  0.946824  0.688600  0.703762  1
  H  H51  1  0.949830  0.956007  0.353848  1
  H  H52  1  0.883269  0.499596  0.054736  1
  H  H53  1  0.887942  0.250074  0.814483  1
  H  H54  1  0.666952  0.414486  0.078943  1
  H  H55  1  0.887942  0.249926  0.314483  1
  H  H56  1  0.112058  0.749926  0.185517  1
  H  H57  1  0.668336  0.308343  0.190795  1
  H  H58  1  0.067758  0.901244  0.148462  1
  H  H59  1  0.668336  0.191657  0.690795  1
  H  H60  1  0.116731  0.999596  0.445264  1
  H  H61  1  0.072878  0.043925  0.298189  1
  H  H62  1  0.833177  0.312364  0.620186  1
  H  H63  1  0.333048  0.585514  0.921057  1
  H  H64  1  0.927122  0.956075  0.701811  1
  H  H65  1  0.050170  0.456007  0.146152  1
  H  H66  1  0.053176  0.311400  0.296238  1
  H  H67  1  0.005438  0.750907  0.403699  1
  C  C68  1  0.061684  0.525965  0.858465  1
  C  C69  1  0.117581  0.733663  0.906890  1
  C  C70  1  0.941615  0.329037  0.293034  1
  C  C71  1  0.283406  0.889098  0.332957  1
  C  C72  1  0.716594  0.389098  0.167043  1
  C  C73  1  0.061684  0.974035  0.358465  1
  C  C74  1  0.882419  0.233663  0.593110  1
  C  C75  1  0.941615  0.170963  0.793034  1
  C  C76  1  0.117581  0.766337  0.406890  1
  C  C77  1  0.882419  0.266337  0.093110  1
  C  C78  1  0.938316  0.025965  0.641535  1
  C  C79  1  0.716594  0.110902  0.667043  1
  C  C80  1  0.058385  0.670963  0.706966  1
  C  C81  1  0.058385  0.829037  0.206966  1
  C  C82  1  0.938316  0.474035  0.141535  1
  C  C83  1  0.283406  0.610902  0.832957  1
  N  N84  1  0.870099  0.135165  0.673735  1
  N  N85  1  0.129901  0.864835  0.326265  1
  N  N86  1  0.129901  0.635165  0.826265  1
  N  N87  1  0.870099  0.364835  0.173735  1
