# generated using pymatgen
data_Y2H16S3O20
_symmetry_space_group_name_H-M   'P 1'
_cell_length_a   6.75530265
_cell_length_b   7.56117512
_cell_length_c   18.35007666
_cell_angle_alpha   101.15357543
_cell_angle_beta   90.00000000
_cell_angle_gamma   116.53278575
_symmetry_Int_Tables_number   1
_chemical_formula_structural   Y2H16S3O20
_chemical_formula_sum   'Y4 H32 S6 O40'
_cell_volume   818.73474876
_cell_formula_units_Z   2
loop_
 _symmetry_equiv_pos_site_id
 _symmetry_equiv_pos_as_xyz
  1  'x, y, z'
loop_
 _atom_site_type_symbol
 _atom_site_label
 _atom_site_symmetry_multiplicity
 _atom_site_fract_x
 _atom_site_fract_y
 _atom_site_fract_z
 _atom_site_occupancy
  Y  Y0  1  0.310605  0.665115  0.107239  1
  Y  Y1  1  0.645490  0.334885  0.392761  1
  Y  Y2  1  0.689395  0.334885  0.892761  1
  Y  Y3  1  0.354510  0.665115  0.607239  1
  S  S4  1  0.689327  0.436502  0.090540  1
  S  S5  1  0.252825  0.563498  0.409460  1
  S  S6  1  0.310673  0.563498  0.909460  1
  S  S7  1  0.747175  0.436502  0.590540  1
  S  S8  1  0.172572  0.000000  0.250000  1
  S  S9  1  0.827428  0.000000  0.750000  1
  O  O10  1  0.629561  0.325417  0.151583  1
  O  O11  1  0.304144  0.674583  0.348417  1
  O  O12  1  0.370439  0.674583  0.848417  1
  O  O13  1  0.695856  0.325417  0.651583  1
  O  O14  1  0.929426  0.519914  0.081675  1
  O  O15  1  0.409513  0.480086  0.418325  1
  O  O16  1  0.070574  0.480086  0.918325  1
  O  O17  1  0.590487  0.519914  0.581675  1
  O  O18  1  0.624155  0.602286  0.103977  1
  O  O19  1  0.021869  0.397714  0.396023  1
  O  O20  1  0.375845  0.397714  0.896023  1
  O  O21  1  0.978131  0.602286  0.603977  1
  O  O22  1  0.565664  0.289471  0.017744  1
  O  O23  1  0.276193  0.710529  0.482256  1
  O  O24  1  0.434336  0.710529  0.982256  1
  O  O25  1  0.723807  0.289471  0.517744  1
  O  O26  1  0.215065  0.829968  0.212226  1
  O  O27  1  0.385097  0.170032  0.287774  1
  O  O28  1  0.784935  0.170032  0.787774  1
  O  O29  1  0.614903  0.829968  0.712226  1
  O  O30  1  0.080987  0.068571  0.192999  1
  O  O31  1  0.012416  0.931429  0.307001  1
  O  O32  1  0.919013  0.931429  0.807001  1
  O  O33  1  0.987584  0.068571  0.692999  1
  O  O34  1  0.641858  0.971579  0.139735  1
  O  O35  1  0.670279  0.028421  0.360265  1
  O  O36  1  0.358142  0.028421  0.860265  1
  O  O37  1  0.329721  0.971579  0.639735  1
  O  O38  1  0.214599  0.915006  0.063170  1
  O  O39  1  0.299593  0.084994  0.436830  1
  O  O40  1  0.785401  0.084994  0.936830  1
  O  O41  1  0.700407  0.915006  0.563170  1
  O  O42  1  0.248953  0.486103  0.201399  1
  O  O43  1  0.762851  0.513897  0.298601  1
  O  O44  1  0.751047  0.513897  0.798601  1
  O  O45  1  0.237149  0.486103  0.701399  1
  O  O46  1  0.176251  0.317704  0.042760  1
  O  O47  1  0.858548  0.682296  0.457240  1
  O  O48  1  0.823749  0.682296  0.957240  1
  O  O49  1  0.141452  0.317704  0.542760  1
  H  H50  1  0.787032  0.988166  0.158917  1
  H  H51  1  0.798866  0.011834  0.341083  1
  H  H52  1  0.212968  0.011834  0.841083  1
  H  H53  1  0.201134  0.988166  0.658917  1
  H  H54  1  0.648379  0.108344  0.147611  1
  H  H55  1  0.540035  0.891656  0.352389  1
  H  H56  1  0.351621  0.891656  0.852389  1
  H  H57  1  0.459965  0.108344  0.647611  1
  H  H58  1  0.164497  0.984264  0.105625  1
  H  H59  1  0.180233  0.015736  0.394375  1
  H  H60  1  0.835503  0.015736  0.894375  1
  H  H61  1  0.819767  0.984264  0.605625  1
  H  H62  1  0.333619  0.023830  0.043995  1
  H  H63  1  0.309788  0.976170  0.456005  1
  H  H64  1  0.666381  0.976170  0.956005  1
  H  H65  1  0.690212  0.023830  0.543995  1
  H  H66  1  0.253943  0.547505  0.254698  1
  H  H67  1  0.706439  0.452495  0.245302  1
  H  H68  1  0.746057  0.452495  0.745302  1
  H  H69  1  0.293561  0.547505  0.754698  1
  H  H70  1  0.207936  0.341449  0.197015  1
  H  H71  1  0.866487  0.658551  0.302985  1
  H  H72  1  0.792064  0.658551  0.802985  1
  H  H73  1  0.133513  0.341449  0.697015  1
  H  H74  1  0.039003  0.248049  0.008094  1
  H  H75  1  0.790954  0.751951  0.491906  1
  H  H76  1  0.960997  0.751951  0.991906  1
  H  H77  1  0.209046  0.248049  0.508094  1
  H  H78  1  0.291424  0.290071  0.017378  1
  H  H79  1  1.001354  0.709929  0.482622  1
  H  H80  1  0.708576  0.709929  0.982622  1
  H  H81  1  -0.001354  0.290071  0.517378  1
