# generated using pymatgen
data_K6Si2S6O
_symmetry_space_group_name_H-M   'P 1'
_cell_length_a   8.42418793
_cell_length_b   8.85654921
_cell_length_c   11.85762336
_cell_angle_alpha   90.00000000
_cell_angle_beta   90.00000000
_cell_angle_gamma   112.08310509
_symmetry_Int_Tables_number   1
_chemical_formula_structural   K6Si2S6O
_chemical_formula_sum   'K12 Si4 S12 O2'
_cell_volume   819.78706412
_cell_formula_units_Z   2
loop_
 _symmetry_equiv_pos_site_id
 _symmetry_equiv_pos_as_xyz
  1  'x, y, z'
loop_
 _atom_site_type_symbol
 _atom_site_label
 _atom_site_symmetry_multiplicity
 _atom_site_fract_x
 _atom_site_fract_y
 _atom_site_fract_z
 _atom_site_occupancy
  K  K0  1  0.010933  0.007688  0.672759  1
  K  K1  1  0.307958  0.456500  0.779149  1
  K  K2  1  0.717129  0.225597  0.438011  1
  K  K3  1  0.489067  0.992312  0.172759  1
  K  K4  1  0.282871  0.774403  0.561989  1
  K  K5  1  0.692042  0.543500  0.220851  1
  K  K6  1  0.782871  0.774403  0.938011  1
  K  K7  1  0.217129  0.225597  0.061989  1
  K  K8  1  0.807958  0.456500  0.720851  1
  K  K9  1  0.192042  0.543500  0.279149  1
  K  K10  1  0.989067  0.992312  0.327241  1
  K  K11  1  0.510933  0.007688  0.827241  1
  Si  Si12  1  0.649772  0.684522  0.510133  1
  Si  Si13  1  0.850228  0.315478  0.010133  1
  Si  Si14  1  0.350228  0.315478  0.489867  1
  Si  Si15  1  0.149772  0.684522  0.989867  1
  S  S16  1  0.390206  0.665082  0.022756  1
  S  S17  1  0.088328  0.826703  0.115577  1
  S  S18  1  0.869702  0.239307  0.178602  1
  S  S19  1  0.588328  0.826703  0.384423  1
  S  S20  1  0.630298  0.760693  0.678602  1
  S  S21  1  0.911672  0.173297  0.884423  1
  S  S22  1  0.109794  0.334918  0.522756  1
  S  S23  1  0.411672  0.173297  0.615577  1
  S  S24  1  0.609794  0.334918  0.977244  1
  S  S25  1  0.369702  0.239307  0.321398  1
  S  S26  1  0.890206  0.665082  0.477244  1
  S  S27  1  0.130298  0.760693  0.821398  1
  O  O28  1  0.500000  0.500000  0.500000  1
  O  O29  1  0.000000  0.500000  0.000000  1
