# generated using pymatgen
data_LiMgAl3(SeO4)6
_symmetry_space_group_name_H-M   'P 1'
_cell_length_a   9.09120073
_cell_length_b   18.16050704
_cell_length_c   16.06190102
_cell_angle_alpha   28.01606483
_cell_angle_beta   50.63476492
_cell_angle_gamma   56.02302354
_symmetry_Int_Tables_number   1
_chemical_formula_structural   LiMgAl3(SeO4)6
_chemical_formula_sum   'Li2 Mg2 Al6 Se12 O48'
_cell_volume   963.00508933
_cell_formula_units_Z   2
loop_
 _symmetry_equiv_pos_site_id
 _symmetry_equiv_pos_as_xyz
  1  'x, y, z'
loop_
 _atom_site_type_symbol
 _atom_site_label
 _atom_site_symmetry_multiplicity
 _atom_site_fract_x
 _atom_site_fract_y
 _atom_site_fract_z
 _atom_site_occupancy
  Al  Al0  1  0.153194  0.498463  0.147692  1
  Al  Al1  1  0.361732  0.500835  0.354813  1
  Al  Al2  1  0.646848  0.002365  0.638963  1
  Al  Al3  1  0.144667  0.997978  0.154087  1
  Al  Al4  1  0.353389  0.998346  0.361951  1
  Al  Al5  1  0.843456  0.501648  0.849690  1
  Li  Li6  1  0.568444  0.224359  0.805706  1
  Li  Li7  1  0.819050  0.668491  0.238729  1
  Mg  Mg8  1  0.643143  0.502726  0.643144  1
  Mg  Mg9  1  0.861725  0.001388  0.844290  1
  O  O10  1  0.287729  0.186824  0.133251  1
  O  O11  1  0.015072  0.328801  0.315034  1
  O  O12  1  0.017857  0.012598  0.672966  1
  O  O13  1  0.251357  0.120378  0.363564  1
  O  O14  1  0.596311  0.061447  0.257379  1
  O  O15  1  0.318910  0.345226  0.288610  1
  O  O16  1  0.711437  0.332085  0.013854  1
  O  O17  1  0.123725  0.413784  0.494015  1
  O  O18  1  0.971803  0.143807  0.025916  1
  O  O19  1  0.319216  0.690036  0.125300  1
  O  O20  1  0.685652  0.473822  0.032409  1
  O  O21  1  0.611350  0.169495  0.406267  1
  O  O22  1  0.022659  0.830762  0.312177  1
  O  O23  1  0.504619  0.411091  0.302664  1
  O  O24  1  0.018115  0.521741  0.675421  1
  O  O25  1  0.493201  0.078478  0.707968  1
  O  O26  1  0.263349  0.609184  0.380266  1
  O  O27  1  0.365803  0.324970  0.601819  1
  O  O28  1  0.304058  0.021846  0.973173  1
  O  O29  1  0.017059  0.348692  0.989743  1
  O  O30  1  0.607273  0.553499  0.254711  1
  O  O31  1  0.867191  0.117993  0.474929  1
  O  O32  1  0.285930  0.167007  0.983835  1
  O  O33  1  0.317762  0.850268  0.287559  1
  O  O34  1  0.655839  0.162295  0.717904  1
  O  O35  1  0.720777  0.804879  0.044379  1
  O  O36  1  0.129742  0.886435  0.519296  1
  O  O37  1  0.396291  0.426364  0.750655  1
  O  O38  1  0.976339  0.643190  0.016774  1
  O  O39  1  0.669624  1.001611  0.016722  1
  O  O40  1  0.631147  0.692254  0.371756  1
  O  O41  1  0.754443  0.387022  0.610460  1
  O  O42  1  0.504130  0.909072  0.311007  1
  O  O43  1  0.987552  0.490587  0.311317  1
  O  O44  1  0.471610  0.583870  0.713234  1
  O  O45  1  0.017606  0.176301  0.668380  1
  O  O46  1  0.375814  0.830703  0.601324  1
  O  O47  1  0.310331  0.522969  0.974741  1
  O  O48  1  0.715545  0.295559  0.877815  1
  O  O49  1  0.036190  0.830803  0.006030  1
  O  O50  1  0.882043  0.618390  0.474868  1
  O  O51  1  0.296318  0.664094  0.986179  1
  O  O52  1  0.671915  0.652940  0.716517  1
  O  O53  1  0.402789  0.933253  0.752056  1
  O  O54  1  0.748219  0.890385  0.621687  1
  O  O55  1  0.983076  0.981222  0.325592  1
  O  O56  1  0.977684  0.668306  0.693136  1
  O  O57  1  0.713088  0.813530  0.864584  1
  Se  Se58  1  0.037597  0.143090  0.460317  1
  Se  Se59  1  0.748244  0.209475  0.042441  1
  Se  Se60  1  0.530114  0.351692  0.255030  1
  Se  Se61  1  0.046707  0.643460  0.461896  1
  Se  Se62  1  0.456674  0.145346  0.749761  1
  Se  Se63  1  0.753010  0.707205  0.040728  1
  Se  Se64  1  0.240306  0.286061  0.965077  1
  Se  Se65  1  0.527594  0.866034  0.245238  1
  Se  Se66  1  0.977633  0.358841  0.526432  1
  Se  Se67  1  0.458853  0.648116  0.749642  1
  Se  Se68  1  0.263790  0.777756  0.968277  1
  Se  Se69  1  0.961281  0.856957  0.537852  1
