# generated using pymatgen
data_Li9Fe3P8O29
_symmetry_space_group_name_H-M   'P 1'
_cell_length_a   9.86176775
_cell_length_b   9.86176780
_cell_length_c   13.76497717
_cell_angle_alpha   90.00000000
_cell_angle_beta   90.00000000
_cell_angle_gamma   119.99999987
_symmetry_Int_Tables_number   1
_chemical_formula_structural   Li9Fe3P8O29
_chemical_formula_sum   'Li18 Fe6 P16 O58'
_cell_volume   1159.35294798
_cell_formula_units_Z   2
loop_
 _symmetry_equiv_pos_site_id
 _symmetry_equiv_pos_as_xyz
  1  'x, y, z'
loop_
 _atom_site_type_symbol
 _atom_site_label
 _atom_site_symmetry_multiplicity
 _atom_site_fract_x
 _atom_site_fract_y
 _atom_site_fract_z
 _atom_site_occupancy
  Li  Li0  1  0.899358  0.234482  0.063898  1
  Li  Li1  1  0.899358  0.664876  0.563898  1
  Li  Li2  1  0.666667  0.333333  0.879974  1
  Li  Li3  1  0.100642  0.765518  0.936102  1
  Li  Li4  1  0.100642  0.335124  0.436102  1
  Li  Li5  1  0.234482  0.335124  0.936102  1
  Li  Li6  1  0.664876  0.765518  0.436102  1
  Li  Li7  1  0.666667  0.333333  0.379974  1
  Li  Li8  1  0.765518  0.664876  0.063898  1
  Li  Li9  1  0.335124  0.100642  0.063898  1
  Li  Li10  1  0.765518  0.100642  0.563898  1
  Li  Li11  1  0.333333  0.666667  0.620026  1
  Li  Li12  1  0.333333  0.666667  0.120026  1
  Li  Li13  1  0.234482  0.899358  0.436102  1
  Li  Li14  1  0.000000  0.000000  0.000000  1
  Li  Li15  1  0.000000  0.000000  0.500000  1
  Li  Li16  1  0.335124  0.234482  0.563898  1
  Li  Li17  1  0.664876  0.899358  0.936102  1
  Fe  Fe18  1  0.565933  0.000000  0.750000  1
  Fe  Fe19  1  0.000000  0.565933  0.750000  1
  Fe  Fe20  1  0.565933  0.565933  0.250000  1
  Fe  Fe21  1  0.434067  0.434067  0.750000  1
  Fe  Fe22  1  0.434067  0.000000  0.250000  1
  Fe  Fe23  1  1.000000  0.434067  0.250000  1
  P  P24  1  0.773736  0.683733  0.844294  1
  P  P25  1  0.226264  0.316267  0.155706  1
  P  P26  1  0.773736  0.090003  0.344294  1
  P  P27  1  0.333333  0.666667  0.875668  1
  P  P28  1  0.683733  0.909997  0.155706  1
  P  P29  1  0.666667  0.333333  0.124332  1
  P  P30  1  0.316267  0.090003  0.844294  1
  P  P31  1  0.909997  0.226264  0.844294  1
  P  P32  1  0.226264  0.909997  0.655706  1
  P  P33  1  0.333333  0.666667  0.375668  1
  P  P34  1  0.316267  0.226264  0.344294  1
  P  P35  1  0.666667  0.333333  0.624332  1
  P  P36  1  0.909997  0.683733  0.344294  1
  P  P37  1  0.090003  0.773736  0.155706  1
  P  P38  1  0.090003  0.316267  0.655706  1
  P  P39  1  0.683733  0.773736  0.655706  1
  O  O40  1  0.002670  0.227899  0.933310  1
  O  O41  1  0.479904  0.108269  0.833568  1
  O  O42  1  0.512718  0.323337  0.663021  1
  O  O43  1  0.891731  0.520096  0.333568  1
  O  O44  1  0.666667  0.333333  0.514301  1
  O  O45  1  0.077585  0.329279  0.155523  1
  O  O46  1  0.676663  0.189381  0.663021  1
  O  O47  1  0.748306  0.077585  0.844477  1
  O  O48  1  0.329279  0.251694  0.844477  1
  O  O49  1  0.323337  0.810619  0.336979  1
  O  O50  1  0.189381  0.512718  0.336979  1
  O  O51  1  0.997330  0.772101  0.066690  1
  O  O52  1  0.891731  0.371635  0.833568  1
  O  O53  1  0.323337  0.512718  0.836979  1
  O  O54  1  0.628365  0.520096  0.833568  1
  O  O55  1  1.000000  0.213282  0.750000  1
  O  O56  1  0.512718  0.189381  0.163021  1
  O  O57  1  0.520096  0.891731  0.166432  1
  O  O58  1  0.748306  0.670721  0.344477  1
  O  O59  1  0.108269  0.628365  0.166432  1
  O  O60  1  0.227899  0.225229  0.066690  1
  O  O61  1  0.251694  0.329279  0.655523  1
  O  O62  1  0.772101  0.774771  0.933310  1
  O  O63  1  0.108269  0.479904  0.666432  1
  O  O64  1  0.670721  0.922415  0.655523  1
  O  O65  1  0.333333  0.666667  0.485699  1
  O  O66  1  0.922415  0.251694  0.344477  1
  O  O67  1  0.487282  0.676663  0.336979  1
  O  O68  1  0.213282  0.213282  0.250000  1
  O  O69  1  0.520096  0.628365  0.666432  1
  O  O70  1  0.371635  0.891731  0.666432  1
  O  O71  1  0.002670  0.774771  0.433310  1
  O  O72  1  0.810619  0.323337  0.163021  1
  O  O73  1  0.333333  0.666667  0.985699  1
  O  O74  1  0.371635  0.479904  0.166432  1
  O  O75  1  0.628365  0.108269  0.333568  1
  O  O76  1  0.810619  0.487282  0.663021  1
  O  O77  1  0.225229  0.227899  0.433310  1
  O  O78  1  0.786718  0.786718  0.750000  1
  O  O79  1  0.479904  0.371635  0.333568  1
  O  O80  1  0.189381  0.676663  0.836979  1
  O  O81  1  0.774771  0.002670  0.066690  1
  O  O82  1  0.997330  0.225229  0.566690  1
  O  O83  1  0.329279  0.077585  0.344477  1
  O  O84  1  0.676663  0.487282  0.163021  1
  O  O85  1  0.922415  0.670721  0.844477  1
  O  O86  1  0.666667  0.333333  0.014301  1
  O  O87  1  0.774771  0.772101  0.566690  1
  O  O88  1  0.786718  0.000000  0.250000  1
  O  O89  1  0.227899  0.002670  0.566690  1
  O  O90  1  0.251694  0.922415  0.155523  1
  O  O91  1  0.670721  0.748306  0.155523  1
  O  O92  1  0.772101  0.997330  0.433310  1
  O  O93  1  0.213282  0.000000  0.750000  1
  O  O94  1  0.487282  0.810619  0.836979  1
  O  O95  1  0.225229  0.997330  0.933310  1
  O  O96  1  0.000000  0.786718  0.250000  1
  O  O97  1  0.077585  0.748306  0.655523  1
