# generated using pymatgen
data_Ag3N5O6
_symmetry_space_group_name_H-M   'P 1'
_cell_length_a   6.16659598
_cell_length_b   7.38748686
_cell_length_c   9.32769560
_cell_angle_alpha   90.00000000
_cell_angle_beta   90.00000000
_cell_angle_gamma   114.66850708
_symmetry_Int_Tables_number   1
_chemical_formula_structural   Ag3N5O6
_chemical_formula_sum   'Ag6 N10 O12'
_cell_volume   386.14919919
_cell_formula_units_Z   2
loop_
 _symmetry_equiv_pos_site_id
 _symmetry_equiv_pos_as_xyz
  1  'x, y, z'
loop_
 _atom_site_type_symbol
 _atom_site_label
 _atom_site_symmetry_multiplicity
 _atom_site_fract_x
 _atom_site_fract_y
 _atom_site_fract_z
 _atom_site_occupancy
  Ag  Ag0  1  0.576490  0.000000  0.955819  1
  Ag  Ag1  1  0.047973  0.272428  0.393676  1
  Ag  Ag2  1  0.423510  0.000000  0.455819  1
  Ag  Ag3  1  0.952027  0.727572  0.893676  1
  Ag  Ag4  1  0.775545  0.727572  0.393676  1
  Ag  Ag5  1  0.224455  0.272428  0.893676  1
  N  N6  1  0.181783  0.000000  0.166540  1
  N  N7  1  0.830691  0.396320  0.123842  1
  N  N8  1  0.169309  0.603680  0.623842  1
  N  N9  1  0.818217  0.000000  0.666540  1
  N  N10  1  0.852283  0.000000  0.791917  1
  N  N11  1  0.787912  0.000000  0.540504  1
  N  N12  1  0.212088  0.000000  0.040504  1
  N  N13  1  0.565629  0.396320  0.623842  1
  N  N14  1  0.147717  0.000000  0.291917  1
  N  N15  1  0.434371  0.603680  0.123842  1
  O  O16  1  0.773446  0.399987  0.991779  1
  O  O17  1  0.215755  0.772978  0.680659  1
  O  O18  1  0.622260  0.554850  0.693060  1
  O  O19  1  0.442777  0.227022  0.680659  1
  O  O20  1  0.226554  0.600013  0.491779  1
  O  O21  1  0.557223  0.772978  0.180659  1
  O  O22  1  0.377740  0.445150  0.193060  1
  O  O23  1  0.373459  0.600013  0.991779  1
  O  O24  1  0.932590  0.554850  0.193060  1
  O  O25  1  0.784245  0.227022  0.180659  1
  O  O26  1  0.626541  0.399987  0.491779  1
  O  O27  1  0.067410  0.445150  0.693060  1
