# generated using pymatgen
data_TaSe2
_symmetry_space_group_name_H-M   'P 1'
_cell_length_a   9.18010410
_cell_length_b   9.80527226
_cell_length_c   11.50154201
_cell_angle_alpha   72.27838934
_cell_angle_beta   74.41429477
_cell_angle_gamma   83.40173351
_symmetry_Int_Tables_number   1
_chemical_formula_structural   TaSe2
_chemical_formula_sum   'Ta13 Se26'
_cell_volume   949.28425611
_cell_formula_units_Z   13
loop_
 _symmetry_equiv_pos_site_id
 _symmetry_equiv_pos_as_xyz
  1  'x, y, z'
loop_
 _atom_site_type_symbol
 _atom_site_label
 _atom_site_symmetry_multiplicity
 _atom_site_fract_x
 _atom_site_fract_y
 _atom_site_fract_z
 _atom_site_occupancy
  Ta  Ta0  1  0.000000  0.000000  0.000000  1
  Ta  Ta1  1  0.214592  0.716673  0.069198  1
  Ta  Ta2  1  0.785408  0.283327  0.930802  1
  Ta  Ta3  1  0.717220  0.069910  0.214218  1
  Ta  Ta4  1  0.282780  0.930090  0.785782  1
  Ta  Ta5  1  0.931179  0.785976  0.282965  1
  Ta  Ta6  1  0.068821  0.214024  0.717035  1
  Ta  Ta7  1  0.151572  0.487468  0.360325  1
  Ta  Ta8  1  0.848428  0.512532  0.639675  1
  Ta  Ta9  1  0.488085  0.360568  0.151699  1
  Ta  Ta10  1  0.511915  0.639432  0.848301  1
  Ta  Ta11  1  0.640939  0.848681  0.512821  1
  Ta  Ta12  1  0.359061  0.151319  0.487179  1
  Se  Se13  1  0.930358  0.725241  0.082046  1
  Se  Se14  1  0.069642  0.274759  0.917954  1
  Se  Se15  1  0.705475  0.022827  0.009276  1
  Se  Se16  1  0.294525  0.977173  0.990724  1
  Se  Se17  1  0.002726  0.949394  0.784571  1
  Se  Se18  1  0.997274  0.050606  0.215429  1
  Se  Se19  1  0.633892  0.800953  0.310726  1
  Se  Se20  1  0.366108  0.199047  0.689274  1
  Se  Se21  1  0.781034  0.252570  0.710108  1
  Se  Se22  1  0.218966  0.747430  0.289892  1
  Se  Se23  1  0.232719  0.651711  0.858189  1
  Se  Se24  1  0.767281  0.348289  0.141811  1
  Se  Se25  1  0.868022  0.507849  0.399276  1
  Se  Se26  1  0.131978  0.492151  0.600724  1
  Se  Se27  1  0.490662  0.348467  0.935695  1
  Se  Se28  1  0.509338  0.651533  0.064305  1
  Se  Se29  1  0.332234  0.884343  0.558070  1
  Se  Se30  1  0.667766  0.115657  0.441930  1
  Se  Se31  1  0.185447  0.427269  0.160022  1
  Se  Se32  1  0.814553  0.572731  0.839978  1
  Se  Se33  1  0.410881  0.108800  0.252816  1
  Se  Se34  1  0.589119  0.891200  0.747184  1
  Se  Se35  1  0.090423  0.201359  0.478741  1
  Se  Se36  1  0.909577  0.798641  0.521259  1
  Se  Se37  1  0.562459  0.579583  0.630443  1
  Se  Se38  1  0.437541  0.420417  0.369557  1
