# generated using pymatgen
data_Na2SeO4
_symmetry_space_group_name_H-M   'P 1'
_cell_length_a   6.02957815
_cell_length_b   6.02957815
_cell_length_c   7.10570990
_cell_angle_alpha   102.96683238
_cell_angle_beta   102.96683244
_cell_angle_gamma   118.10773231
_symmetry_Int_Tables_number   1
_chemical_formula_structural   Na2SeO4
_chemical_formula_sum   'Na4 Se2 O8'
_cell_volume   205.02892529
_cell_formula_units_Z   2
loop_
 _symmetry_equiv_pos_site_id
 _symmetry_equiv_pos_as_xyz
  1  'x, y, z'
loop_
 _atom_site_type_symbol
 _atom_site_label
 _atom_site_symmetry_multiplicity
 _atom_site_fract_x
 _atom_site_fract_y
 _atom_site_fract_z
 _atom_site_occupancy
  O  O0  1  0.799230  0.745361  0.605014  1
  O  O1  1  0.254639  0.200770  0.894986  1
  O  O2  1  0.859653  0.305784  0.105014  1
  O  O3  1  0.200770  0.254639  0.394986  1
  O  O4  1  0.694216  0.140347  0.394986  1
  O  O5  1  0.305784  0.859653  0.605014  1
  O  O6  1  0.140347  0.694216  0.894986  1
  O  O7  1  0.745361  0.799230  0.105014  1
  Na  Na8  1  0.189909  0.810091  0.250000  1
  Na  Na9  1  0.439909  0.560091  0.750000  1
  Na  Na10  1  0.560091  0.439909  0.250000  1
  Na  Na11  1  0.810091  0.189909  0.750000  1
  Se  Se12  1  0.125000  0.875000  0.750000  1
  Se  Se13  1  0.875000  0.125000  0.250000  1
