# generated using pymatgen
data_K5NaS4(ClO6)2
_symmetry_space_group_name_H-M   'P 1'
_cell_length_a   8.78292608
_cell_length_b   8.78292608
_cell_length_c   11.85496627
_cell_angle_alpha   90.00000000
_cell_angle_beta   90.00000000
_cell_angle_gamma   90.00000000
_symmetry_Int_Tables_number   1
_chemical_formula_structural   K5NaS4(ClO6)2
_chemical_formula_sum   'K10 Na2 S8 Cl4 O24'
_cell_volume   914.48961477
_cell_formula_units_Z   2
loop_
 _symmetry_equiv_pos_site_id
 _symmetry_equiv_pos_as_xyz
  1  'x, y, z'
loop_
 _atom_site_type_symbol
 _atom_site_label
 _atom_site_symmetry_multiplicity
 _atom_site_fract_x
 _atom_site_fract_y
 _atom_site_fract_z
 _atom_site_occupancy
  K  K0  1  0.701796  0.798204  0.250000  1
  K  K1  1  0.701796  0.798204  0.750000  1
  K  K2  1  0.298204  0.201796  0.250000  1
  K  K3  1  0.201796  0.701796  0.250000  1
  K  K4  1  0.798204  0.298204  0.250000  1
  K  K5  1  0.298204  0.201796  0.750000  1
  K  K6  1  0.201796  0.701796  0.750000  1
  K  K7  1  0.500000  0.500000  0.000000  1
  K  K8  1  0.000000  0.000000  0.500000  1
  K  K9  1  0.798204  0.298204  0.750000  1
  Na  Na10  1  0.500000  0.500000  0.500000  1
  Na  Na11  1  0.000000  0.000000  0.000000  1
  S  S12  1  0.910048  0.586215  0.500000  1
  S  S13  1  0.089952  0.413785  0.500000  1
  S  S14  1  0.586215  0.089952  0.500000  1
  S  S15  1  0.413785  0.910048  0.500000  1
  S  S16  1  0.913785  0.589952  0.000000  1
  S  S17  1  0.410048  0.913785  0.000000  1
  S  S18  1  0.086215  0.410048  0.000000  1
  S  S19  1  0.589952  0.086215  0.000000  1
  Cl  Cl20  1  0.500000  0.500000  0.733061  1
  Cl  Cl21  1  0.000000  0.000000  0.233061  1
  Cl  Cl22  1  0.000000  0.000000  0.766939  1
  Cl  Cl23  1  0.500000  0.500000  0.266939  1
  O  O24  1  0.175588  0.435477  0.896424  1
  O  O25  1  0.824412  0.564523  0.896424  1
  O  O26  1  0.935477  0.675588  0.603576  1
  O  O27  1  0.675588  0.064523  0.396424  1
  O  O28  1  0.769973  0.495742  0.500000  1
  O  O29  1  0.495742  0.230027  0.500000  1
  O  O30  1  0.564523  0.175588  0.896424  1
  O  O31  1  0.504258  0.769973  0.500000  1
  O  O32  1  0.435477  0.824412  0.103576  1
  O  O33  1  0.269973  1.004258  0.000000  1
  O  O34  1  -0.004258  0.269973  0.000000  1
  O  O35  1  0.564523  0.175588  0.103576  1
  O  O36  1  0.324412  0.935477  0.396424  1
  O  O37  1  0.230027  0.504258  0.500000  1
  O  O38  1  0.175588  0.435477  0.103576  1
  O  O39  1  0.064523  0.324412  0.396424  1
  O  O40  1  0.730027  -0.004258  0.000000  1
  O  O41  1  0.675588  0.064523  0.603576  1
  O  O42  1  1.004258  0.730027  0.000000  1
  O  O43  1  0.824412  0.564523  0.103576  1
  O  O44  1  0.935477  0.675588  0.396424  1
  O  O45  1  0.324412  0.935477  0.603576  1
  O  O46  1  0.064523  0.324412  0.603576  1
  O  O47  1  0.435477  0.824412  0.896424  1
