# generated using pymatgen
data_U(MoO4)2
_symmetry_space_group_name_H-M   'P 1'
_cell_length_a   4.14774338
_cell_length_b   7.45317756
_cell_length_c   20.40980347
_cell_angle_alpha   90.00000000
_cell_angle_beta   90.00000000
_cell_angle_gamma   90.00000000
_symmetry_Int_Tables_number   1
_chemical_formula_structural   U(MoO4)2
_chemical_formula_sum   'U4 Mo8 O32'
_cell_volume   630.94596802
_cell_formula_units_Z   4
loop_
 _symmetry_equiv_pos_site_id
 _symmetry_equiv_pos_as_xyz
  1  'x, y, z'
loop_
 _atom_site_type_symbol
 _atom_site_label
 _atom_site_symmetry_multiplicity
 _atom_site_fract_x
 _atom_site_fract_y
 _atom_site_fract_z
 _atom_site_occupancy
  U  U0  1  0.000000  0.750000  0.012957  1
  U  U1  1  0.000000  0.750000  0.487043  1
  U  U2  1  0.000000  0.250000  0.987043  1
  U  U3  1  0.000000  0.250000  0.512957  1
  Mo  Mo4  1  0.913384  0.502091  0.840079  1
  Mo  Mo5  1  0.913384  0.997909  0.659921  1
  Mo  Mo6  1  0.086616  0.502091  0.659921  1
  Mo  Mo7  1  0.086616  0.997909  0.840079  1
  Mo  Mo8  1  0.086616  0.497909  0.159921  1
  Mo  Mo9  1  0.086616  0.002091  0.340079  1
  Mo  Mo10  1  0.913384  0.497909  0.340079  1
  Mo  Mo11  1  0.913384  0.002091  0.159921  1
  O  O12  1  0.000000  0.750000  0.368003  1
  O  O13  1  0.000000  0.750000  0.131997  1
  O  O14  1  0.000000  0.250000  0.631997  1
  O  O15  1  0.000000  0.250000  0.868003  1
  O  O16  1  0.000000  0.543580  0.250000  1
  O  O17  1  0.000000  0.956420  0.250000  1
  O  O18  1  0.000000  0.456420  0.750000  1
  O  O19  1  0.000000  0.043580  0.750000  1
  O  O20  1  0.505723  0.501436  0.659442  1
  O  O21  1  0.505723  0.998564  0.840558  1
  O  O22  1  0.494277  0.501436  0.840558  1
  O  O23  1  0.494277  0.998564  0.659442  1
  O  O24  1  0.494277  0.498564  0.340558  1
  O  O25  1  0.494277  0.001436  0.159442  1
  O  O26  1  0.505723  0.498564  0.159442  1
  O  O27  1  0.505723  0.001436  0.340558  1
  O  O28  1  0.000000  0.750000  0.671950  1
  O  O29  1  0.000000  0.750000  0.828050  1
  O  O30  1  0.000000  0.250000  0.328050  1
  O  O31  1  0.000000  0.250000  0.171950  1
  O  O32  1  0.500000  0.750000  0.484990  1
  O  O33  1  0.500000  0.750000  0.015010  1
  O  O34  1  0.500000  0.250000  0.515010  1
  O  O35  1  0.500000  0.250000  0.984990  1
  O  O36  1  0.989997  0.961314  0.562292  1
  O  O37  1  0.989997  0.538686  0.937708  1
  O  O38  1  0.010003  0.961314  0.937708  1
  O  O39  1  0.010003  0.538686  0.562292  1
  O  O40  1  0.010003  0.038686  0.437708  1
  O  O41  1  0.010003  0.461314  0.062292  1
  O  O42  1  0.989997  0.038686  0.062292  1
  O  O43  1  0.989997  0.461314  0.437708  1
