# generated using pymatgen
data_Rb2Cd(PSe3)2
_symmetry_space_group_name_H-M   'P 1'
_cell_length_a   6.76315391
_cell_length_b   8.00477748
_cell_length_c   12.94495541
_cell_angle_alpha   90.00000000
_cell_angle_beta   90.00000000
_cell_angle_gamma   98.08686767
_symmetry_Int_Tables_number   1
_chemical_formula_structural   Rb2Cd(PSe3)2
_chemical_formula_sum   'Rb4 Cd2 P4 Se12'
_cell_volume   693.83918205
_cell_formula_units_Z   2
loop_
 _symmetry_equiv_pos_site_id
 _symmetry_equiv_pos_as_xyz
  1  'x, y, z'
loop_
 _atom_site_type_symbol
 _atom_site_label
 _atom_site_symmetry_multiplicity
 _atom_site_fract_x
 _atom_site_fract_y
 _atom_site_fract_z
 _atom_site_occupancy
  Cd  Cd0  1  0.500000  0.500000  0.000000  1
  Cd  Cd1  1  0.000000  0.000000  0.500000  1
  Rb  Rb2  1  0.742727  0.021145  0.821155  1
  Rb  Rb3  1  0.757273  0.478855  0.321155  1
  Rb  Rb4  1  0.257273  0.978855  0.178845  1
  Rb  Rb5  1  0.242727  0.521145  0.678845  1
  Se  Se6  1  0.790784  0.548209  0.822231  1
  Se  Se7  1  0.709216  0.951791  0.322231  1
  Se  Se8  1  0.209216  0.451791  0.177769  1
  Se  Se9  1  0.290784  0.048209  0.677769  1
  Se  Se10  1  0.808247  0.761523  0.069202  1
  Se  Se11  1  0.691753  0.738477  0.569202  1
  Se  Se12  1  0.191753  0.238477  0.930798  1
  Se  Se13  1  0.308247  0.261523  0.430798  1
  Se  Se14  1  0.779967  0.249844  0.573557  1
  Se  Se15  1  0.720033  0.250156  0.073557  1
  Se  Se16  1  0.220033  0.750156  0.426443  1
  Se  Se17  1  0.279967  0.749844  0.926443  1
  P  P18  1  0.975327  0.623188  0.959290  1
  P  P19  1  0.524673  0.876812  0.459290  1
  P  P20  1  0.024673  0.376812  0.040710  1
  P  P21  1  0.475327  0.123188  0.540710  1
