# generated using pymatgen
data_Na4Sr(SiO3)3
_symmetry_space_group_name_H-M   'P 1'
_cell_length_a   6.68464716
_cell_length_b   6.70537380
_cell_length_c   6.70404936
_cell_angle_alpha   109.58763464
_cell_angle_beta   109.46259579
_cell_angle_gamma   109.30871441
_symmetry_Int_Tables_number   1
_chemical_formula_structural   Na4Sr(SiO3)3
_chemical_formula_sum   'Na4 Sr1 Si3 O9'
_cell_volume   231.47696652
_cell_formula_units_Z   1
loop_
 _symmetry_equiv_pos_site_id
 _symmetry_equiv_pos_as_xyz
  1  'x, y, z'
loop_
 _atom_site_type_symbol
 _atom_site_label
 _atom_site_symmetry_multiplicity
 _atom_site_fract_x
 _atom_site_fract_y
 _atom_site_fract_z
 _atom_site_occupancy
  Na  Na0  1  0.496247  0.496247  0.992493  1
  Na  Na1  1  0.523954  0.023954  0.047908  1
  Na  Na2  1  0.471150  0.445068  0.467751  1
  Na  Na3  1  0.996601  0.022683  0.467751  1
  Sr  Sr4  1  0.995827  0.495827  0.991653  1
  Si  Si5  1  0.496697  0.961426  0.530522  1
  Si  Si6  1  0.960669  0.960669  0.921338  1
  Si  Si7  1  0.033824  0.569096  0.530522  1
  O  O8  1  0.991901  0.753313  0.731169  1
  O  O9  1  0.800048  0.426339  0.260074  1
  O  O10  1  0.124855  0.423386  0.653593  1
  O  O11  1  0.460026  0.833735  0.260074  1
  O  O12  1  0.528738  0.230207  0.653593  1
  O  O13  1  0.199538  0.227272  0.065200  1
  O  O14  1  0.739268  0.977856  0.731169  1
  O  O15  1  0.262994  0.762994  0.525989  1
  O  O16  1  0.865662  0.837928  0.065200  1
