# generated using pymatgen
data_BaDy2MnO5
_symmetry_space_group_name_H-M   'P 1'
_cell_length_a   5.80513055
_cell_length_b   7.21468369
_cell_length_c   12.52147613
_cell_angle_alpha   90.00000000
_cell_angle_beta   90.00000000
_cell_angle_gamma   90.00000000
_symmetry_Int_Tables_number   1
_chemical_formula_structural   BaDy2MnO5
_chemical_formula_sum   'Ba4 Dy8 Mn4 O20'
_cell_volume   524.42672587
_cell_formula_units_Z   4
loop_
 _symmetry_equiv_pos_site_id
 _symmetry_equiv_pos_as_xyz
  1  'x, y, z'
loop_
 _atom_site_type_symbol
 _atom_site_label
 _atom_site_symmetry_multiplicity
 _atom_site_fract_x
 _atom_site_fract_y
 _atom_site_fract_z
 _atom_site_occupancy
  Ba  Ba0  1  0.250000  0.918513  0.898946  1
  Ba  Ba1  1  0.750000  0.081487  0.101054  1
  Ba  Ba2  1  0.750000  0.418513  0.601054  1
  Ba  Ba3  1  0.250000  0.581487  0.398946  1
  Mn  Mn4  1  0.250000  0.691927  0.651961  1
  Mn  Mn5  1  0.750000  0.308073  0.348039  1
  Mn  Mn6  1  0.750000  0.191927  0.848039  1
  Mn  Mn7  1  0.250000  0.808073  0.151961  1
  Dy  Dy8  1  0.250000  0.123058  0.293333  1
  Dy  Dy9  1  0.750000  0.876942  0.706667  1
  Dy  Dy10  1  0.750000  0.623058  0.206667  1
  Dy  Dy11  1  0.250000  0.376942  0.793333  1
  Dy  Dy12  1  0.250000  0.400142  0.074011  1
  Dy  Dy13  1  0.750000  0.599858  0.925989  1
  Dy  Dy14  1  0.750000  0.900142  0.425989  1
  Dy  Dy15  1  0.250000  0.099858  0.574011  1
  O  O16  1  0.001635  0.162138  0.434656  1
  O  O17  1  0.501635  0.837862  0.565344  1
  O  O18  1  0.998365  0.662138  0.065344  1
  O  O19  1  0.498365  0.337862  0.934656  1
  O  O20  1  0.998365  0.837862  0.565344  1
  O  O21  1  0.498365  0.162138  0.434656  1
  O  O22  1  0.001635  0.337862  0.934656  1
  O  O23  1  0.501635  0.662138  0.065344  1
  O  O24  1  0.498792  0.361762  0.224145  1
  O  O25  1  0.998792  0.638238  0.775855  1
  O  O26  1  0.501208  0.861762  0.275855  1
  O  O27  1  0.001208  0.138238  0.724145  1
  O  O28  1  0.501208  0.638238  0.775855  1
  O  O29  1  0.001208  0.361762  0.224145  1
  O  O30  1  0.498792  0.138238  0.724145  1
  O  O31  1  0.998792  0.861762  0.275855  1
  O  O32  1  0.250000  0.079454  0.100916  1
  O  O33  1  0.750000  0.920546  0.899084  1
  O  O34  1  0.750000  0.579454  0.399084  1
  O  O35  1  0.250000  0.420546  0.600916  1
