# generated using pymatgen
data_Li3Cr2(PO4)3
_symmetry_space_group_name_H-M   'P 1'
_cell_length_a   10.15990250
_cell_length_b   10.15990205
_cell_length_c   10.15990262
_cell_angle_alpha   109.47121976
_cell_angle_beta   109.47121887
_cell_angle_gamma   109.47122048
_symmetry_Int_Tables_number   1
_chemical_formula_structural   Li3Cr2(PO4)3
_chemical_formula_sum   'Li12 Cr8 P12 O48'
_cell_volume   807.32189436
_cell_formula_units_Z   4
loop_
 _symmetry_equiv_pos_site_id
 _symmetry_equiv_pos_as_xyz
  1  'x, y, z'
loop_
 _atom_site_type_symbol
 _atom_site_label
 _atom_site_symmetry_multiplicity
 _atom_site_fract_x
 _atom_site_fract_y
 _atom_site_fract_z
 _atom_site_occupancy
  Cr  Cr0  1  0.500000  0.000000  0.000000  1
  Cr  Cr1  1  0.000000  0.000000  0.000000  1
  Cr  Cr2  1  0.500000  0.500000  0.000000  1
  Cr  Cr3  1  0.500000  0.000000  0.500000  1
  Cr  Cr4  1  0.000000  0.500000  0.000000  1
  Cr  Cr5  1  0.000000  0.000000  0.500000  1
  Cr  Cr6  1  0.500000  0.500000  0.500000  1
  Cr  Cr7  1  0.000000  0.500000  0.500000  1
  Li  Li8  1  0.750000  0.125000  0.375000  1
  Li  Li9  1  0.375000  0.125000  0.250000  1
  Li  Li10  1  0.875000  0.625000  0.250000  1
  Li  Li11  1  0.250000  0.375000  0.125000  1
  Li  Li12  1  0.625000  0.250000  0.875000  1
  Li  Li13  1  0.375000  0.750000  0.125000  1
  Li  Li14  1  0.125000  0.250000  0.375000  1
  Li  Li15  1  0.875000  0.750000  0.625000  1
  Li  Li16  1  0.750000  0.625000  0.875000  1
  Li  Li17  1  0.125000  0.375000  0.750000  1
  Li  Li18  1  0.625000  0.875000  0.750000  1
  Li  Li19  1  0.250000  0.875000  0.625000  1
  O  O20  1  0.889885  0.006572  0.299887  1
  O  O21  1  0.883311  0.389885  0.089998  1
  O  O22  1  0.910002  0.293315  0.299887  1
  O  O23  1  0.993428  0.700113  0.110115  1
  O  O24  1  0.910002  0.116689  0.610115  1
  O  O25  1  0.589998  0.200113  0.206685  1
  O  O26  1  0.616689  0.410002  0.110115  1
  O  O27  1  0.206685  0.116689  0.006572  1
  O  O28  1  0.706685  0.700113  0.089998  1
  O  O29  1  0.889885  0.383311  0.589998  1
  O  O30  1  0.610115  0.200113  0.493428  1
  O  O31  1  0.799887  0.506572  0.389885  1
  O  O32  1  0.116689  0.006572  0.206685  1
  O  O33  1  0.700113  0.089998  0.706685  1
  O  O34  1  0.493428  0.383311  0.293315  1
  O  O35  1  0.493428  0.610115  0.200113  1
  O  O36  1  0.006572  0.206685  0.116689  1
  O  O37  1  0.410002  0.110115  0.616689  1
  O  O38  1  0.799887  0.793315  0.410002  1
  O  O39  1  0.700113  0.110115  0.993428  1
  O  O40  1  0.383311  0.293315  0.493428  1
  O  O41  1  0.610115  0.910002  0.116689  1
  O  O42  1  0.706685  0.506572  0.616689  1
  O  O43  1  0.793315  0.410002  0.799887  1
  O  O44  1  0.206685  0.589998  0.200113  1
  O  O45  1  0.293315  0.493428  0.383311  1
  O  O46  1  0.389885  0.089998  0.883311  1
  O  O47  1  0.299887  0.889885  0.006572  1
  O  O48  1  0.616689  0.706685  0.506572  1
  O  O49  1  0.200113  0.206685  0.589998  1
  O  O50  1  0.589998  0.889885  0.383311  1
  O  O51  1  0.506572  0.389885  0.799887  1
  O  O52  1  0.993428  0.793315  0.883311  1
  O  O53  1  0.506572  0.616689  0.706685  1
  O  O54  1  0.299887  0.910002  0.293315  1
  O  O55  1  0.883311  0.993428  0.793315  1
  O  O56  1  0.200113  0.493428  0.610115  1
  O  O57  1  0.110115  0.616689  0.410002  1
  O  O58  1  0.389885  0.799887  0.506572  1
  O  O59  1  0.293315  0.299887  0.910002  1
  O  O60  1  0.793315  0.883311  0.993428  1
  O  O61  1  0.383311  0.589998  0.889885  1
  O  O62  1  0.089998  0.883311  0.389885  1
  O  O63  1  0.410002  0.799887  0.793315  1
  O  O64  1  0.006572  0.299887  0.889885  1
  O  O65  1  0.089998  0.706685  0.700113  1
  O  O66  1  0.116689  0.610115  0.910002  1
  O  O67  1  0.110115  0.993428  0.700113  1
  P  P68  1  0.875000  0.250000  0.125000  1
  P  P69  1  0.625000  0.375000  0.250000  1
  P  P70  1  0.875000  0.125000  0.750000  1
  P  P71  1  0.750000  0.875000  0.125000  1
  P  P72  1  0.750000  0.375000  0.625000  1
  P  P73  1  0.625000  0.750000  0.375000  1
  P  P74  1  0.375000  0.250000  0.625000  1
  P  P75  1  0.250000  0.625000  0.375000  1
  P  P76  1  0.250000  0.125000  0.875000  1
  P  P77  1  0.125000  0.875000  0.250000  1
  P  P78  1  0.375000  0.625000  0.750000  1
  P  P79  1  0.125000  0.750000  0.875000  1
