# generated using pymatgen
data_Ni3(BiS)2
_symmetry_space_group_name_H-M   'P 1'
_cell_length_a   5.52434527
_cell_length_b   5.52434569
_cell_length_c   5.52434557
_cell_angle_alpha   63.31561024
_cell_angle_beta   63.31560788
_cell_angle_gamma   63.31561521
_symmetry_Int_Tables_number   1
_chemical_formula_structural   Ni3(BiS)2
_chemical_formula_sum   'Ni3 Bi2 S2'
_cell_volume   127.96757040
_cell_formula_units_Z   1
loop_
 _symmetry_equiv_pos_site_id
 _symmetry_equiv_pos_as_xyz
  1  'x, y, z'
loop_
 _atom_site_type_symbol
 _atom_site_label
 _atom_site_symmetry_multiplicity
 _atom_site_fract_x
 _atom_site_fract_y
 _atom_site_fract_z
 _atom_site_occupancy
  Ni  Ni0  1  0.000000  0.000000  0.500000  1
  Ni  Ni1  1  0.000000  0.500000  0.000000  1
  Ni  Ni2  1  0.500000  0.000000  0.000000  1
  Bi  Bi3  1  0.500000  0.500000  0.500000  1
  Bi  Bi4  1  0.000000  0.000000  0.000000  1
  S  S5  1  0.727099  0.727099  0.727099  1
  S  S6  1  0.272901  0.272901  0.272901  1
