# generated using pymatgen
data_Sb2WO6
_symmetry_space_group_name_H-M   'P 1'
_cell_length_a   5.06106138
_cell_length_b   5.62345025
_cell_length_c   9.37754220
_cell_angle_alpha   95.70104719
_cell_angle_beta   90.02168417
_cell_angle_gamma   89.99244733
_symmetry_Int_Tables_number   1
_chemical_formula_structural   Sb2WO6
_chemical_formula_sum   'Sb4 W2 O12'
_cell_volume   265.57060192
_cell_formula_units_Z   2
loop_
 _symmetry_equiv_pos_site_id
 _symmetry_equiv_pos_as_xyz
  1  'x, y, z'
loop_
 _atom_site_type_symbol
 _atom_site_label
 _atom_site_symmetry_multiplicity
 _atom_site_fract_x
 _atom_site_fract_y
 _atom_site_fract_z
 _atom_site_occupancy
  W  W0  1  0.021006  0.992703  0.002923  1
  W  W1  1  0.520933  0.488076  0.995099  1
  Sb  Sb2  1  0.445551  0.851621  0.665344  1
  Sb  Sb3  1  0.055285  0.352720  0.665109  1
  Sb  Sb4  1  0.945424  0.631760  0.332743  1
  Sb  Sb5  1  0.555843  0.130780  0.332639  1
  O  O6  1  0.777860  0.711614  0.944328  1
  O  O7  1  0.735471  0.213019  0.943345  1
  O  O8  1  0.235682  0.268049  0.054576  1
  O  O9  1  0.277828  0.769590  0.054191  1
  O  O10  1  0.860562  0.004726  0.189636  1
  O  O11  1  0.139477  0.975064  0.807446  1
  O  O12  1  0.639915  0.505740  0.190760  1
  O  O13  1  0.360617  0.477328  0.808560  1
  O  O14  1  0.185534  0.629738  0.557750  1
  O  O15  1  0.318165  0.131409  0.559975  1
  O  O16  1  0.685185  0.853342  0.440299  1
  O  O17  1  0.818663  0.351722  0.438379  1
