# generated using pymatgen
data_HgSb3XeF17
_symmetry_space_group_name_H-M   'P 1'
_cell_length_a   10.75445866
_cell_length_b   10.82098642
_cell_length_c   14.08356657
_cell_angle_alpha   94.47453488
_cell_angle_beta   90.00000000
_cell_angle_gamma   90.00000000
_symmetry_Int_Tables_number   1
_chemical_formula_structural   HgSb3XeF17
_chemical_formula_sum   'Hg4 Sb12 Xe4 F68'
_cell_volume   1633.96350643
_cell_formula_units_Z   4
loop_
 _symmetry_equiv_pos_site_id
 _symmetry_equiv_pos_as_xyz
  1  'x, y, z'
loop_
 _atom_site_type_symbol
 _atom_site_label
 _atom_site_symmetry_multiplicity
 _atom_site_fract_x
 _atom_site_fract_y
 _atom_site_fract_z
 _atom_site_occupancy
  Hg  Hg0  1  0.863286  0.041954  0.811773  1
  Hg  Hg1  1  0.363286  0.458046  0.188227  1
  Hg  Hg2  1  0.636714  0.541954  0.811773  1
  Hg  Hg3  1  0.136714  0.958046  0.188227  1
  Sb  Sb4  1  0.756539  0.266360  0.575735  1
  Sb  Sb5  1  0.479597  0.931015  0.739595  1
  Sb  Sb6  1  0.243461  0.733640  0.424264  1
  Sb  Sb7  1  0.127927  0.208252  0.024895  1
  Sb  Sb8  1  0.979597  0.568985  0.260405  1
  Sb  Sb9  1  0.627927  0.291748  0.975105  1
  Sb  Sb10  1  0.256539  0.233640  0.424264  1
  Sb  Sb11  1  0.020403  0.431015  0.739595  1
  Sb  Sb12  1  0.743461  0.766360  0.575735  1
  Sb  Sb13  1  0.872073  0.791748  0.975105  1
  Sb  Sb14  1  0.372073  0.708252  0.024895  1
  Sb  Sb15  1  0.520403  0.068985  0.260405  1
  Xe  Xe16  1  0.910711  0.990064  0.293930  1
  Xe  Xe17  1  0.410711  0.509936  0.706070  1
  Xe  Xe18  1  0.089289  0.009936  0.706070  1
  Xe  Xe19  1  0.589289  0.490064  0.293930  1
  F  F20  1  0.821501  0.851895  0.685364  1
  F  F21  1  0.368693  0.985860  0.217850  1
  F  F22  1  0.460409  0.856275  0.012078  1
  F  F23  1  0.286242  0.554259  0.052398  1
  F  F24  1  0.116678  0.492328  0.844504  1
  F  F25  1  0.537992  0.788466  0.798226  1
  F  F26  1  0.539591  0.143725  0.987922  1
  F  F27  1  0.534516  0.325069  0.863086  1
  F  F28  1  0.962008  0.288466  0.798226  1
  F  F29  1  0.862025  0.190053  0.481229  1
  F  F30  1  0.849579  0.666887  0.318480  1
  F  F31  1  0.913707  0.362617  0.623022  1
  F  F32  1  0.637975  0.690053  0.481229  1
  F  F33  1  0.111824  0.321971  0.461943  1
  F  F34  1  0.349579  0.833113  0.681520  1
  F  F35  1  0.465484  0.674931  0.136914  1
  F  F36  1  0.786242  0.945741  0.947602  1
  F  F37  1  0.441896  0.064372  0.665748  1
  F  F38  1  0.039591  0.356275  0.012078  1
  F  F39  1  0.213758  0.054259  0.052398  1
  F  F40  1  0.611824  0.178029  0.538057  1
  F  F41  1  0.616678  0.007672  0.155496  1
  F  F42  1  0.383322  0.992328  0.844504  1
  F  F43  1  0.888176  0.678029  0.538057  1
  F  F44  1  0.731620  0.276326  0.081818  1
  F  F45  1  0.011118  0.109827  0.946368  1
  F  F46  1  0.362025  0.309947  0.518771  1
  F  F47  1  0.722798  0.403481  0.504036  1
  F  F48  1  0.988882  0.890173  0.053632  1
  F  F49  1  0.511118  0.390173  0.053632  1
  F  F50  1  0.713758  0.445741  0.947602  1
  F  F51  1  0.462008  0.211534  0.201774  1
  F  F52  1  0.413707  0.137383  0.376978  1
  F  F53  1  0.086293  0.637383  0.376978  1
  F  F54  1  0.268380  0.723674  0.918182  1
  F  F55  1  0.193021  0.857756  0.339981  1
  F  F56  1  0.058104  0.564372  0.665748  1
  F  F57  1  0.631307  0.014140  0.782150  1
  F  F58  1  0.693021  0.642244  0.660019  1
  F  F59  1  0.247806  0.794301  0.107308  1
  F  F60  1  0.306979  0.357756  0.339981  1
  F  F61  1  0.941896  0.435628  0.334252  1
  F  F62  1  0.488882  0.609827  0.946368  1
  F  F63  1  0.586293  0.862617  0.623022  1
  F  F64  1  0.277202  0.596519  0.495964  1
  F  F65  1  0.868693  0.514140  0.782150  1
  F  F66  1  0.960409  0.643725  0.987922  1
  F  F67  1  0.777202  0.903481  0.504036  1
  F  F68  1  0.252194  0.294301  0.107308  1
  F  F69  1  0.131307  0.485860  0.217850  1
  F  F70  1  0.037992  0.711534  0.201774  1
  F  F71  1  0.178499  0.148105  0.314636  1
  F  F72  1  0.558104  0.935628  0.334252  1
  F  F73  1  0.965484  0.825069  0.863086  1
  F  F74  1  0.321501  0.648105  0.314636  1
  F  F75  1  0.388176  0.821971  0.461943  1
  F  F76  1  0.034516  0.174931  0.136914  1
  F  F77  1  0.752194  0.205699  0.892692  1
  F  F78  1  0.231620  0.223674  0.918182  1
  F  F79  1  0.150421  0.333113  0.681520  1
  F  F80  1  0.650421  0.166887  0.318480  1
  F  F81  1  0.678499  0.351895  0.685364  1
  F  F82  1  0.768380  0.776326  0.081818  1
  F  F83  1  0.883322  0.507672  0.155496  1
  F  F84  1  0.222798  0.096519  0.495964  1
  F  F85  1  0.137975  0.809947  0.518771  1
  F  F86  1  0.806979  0.142244  0.660019  1
  F  F87  1  0.747806  0.705699  0.892692  1
