# generated using pymatgen
data_Nb2Bi2PbO9
_symmetry_space_group_name_H-M   'P 1'
_cell_length_a   5.70047623
_cell_length_b   5.65752749
_cell_length_c   12.99545089
_cell_angle_alpha   102.57241106
_cell_angle_beta   90.00000000
_cell_angle_gamma   90.00000000
_symmetry_Int_Tables_number   1
_chemical_formula_structural   Nb2Bi2PbO9
_chemical_formula_sum   'Nb4 Bi4 Pb2 O18'
_cell_volume   409.06152478
_cell_formula_units_Z   2
loop_
 _symmetry_equiv_pos_site_id
 _symmetry_equiv_pos_as_xyz
  1  'x, y, z'
loop_
 _atom_site_type_symbol
 _atom_site_label
 _atom_site_symmetry_multiplicity
 _atom_site_fract_x
 _atom_site_fract_y
 _atom_site_fract_z
 _atom_site_occupancy
  Nb  Nb0  1  0.768051  0.333551  0.169966  1
  Nb  Nb1  1  0.768051  0.163584  0.830034  1
  Nb  Nb2  1  0.268051  0.836416  0.169966  1
  Nb  Nb3  1  0.268051  0.666449  0.830034  1
  Bi  Bi4  1  0.689101  0.514733  0.598596  1
  Bi  Bi5  1  0.189101  0.083863  0.598596  1
  Bi  Bi6  1  0.189101  0.485267  0.401404  1
  Bi  Bi7  1  0.689101  0.916137  0.401404  1
  Pb  Pb8  1  0.245517  0.245590  0.000000  1
  Pb  Pb9  1  0.745517  0.754410  1.000000  1
  O  O10  1  0.808109  0.478886  0.315254  1
  O  O11  1  0.528068  0.405745  0.860225  1
  O  O12  1  0.078559  0.943456  0.824238  1
  O  O13  1  0.308109  0.521114  0.684746  1
  O  O14  1  0.479530  0.733959  0.503045  1
  O  O15  1  0.315649  0.799431  1.000000  1
  O  O16  1  0.308109  0.836368  0.315254  1
  O  O17  1  0.578559  0.880783  0.824238  1
  O  O18  1  0.528068  0.545520  0.139775  1
  O  O19  1  0.979530  0.266041  0.496955  1
  O  O20  1  0.078559  0.119217  0.175762  1
  O  O21  1  0.979530  0.769086  0.503045  1
  O  O22  1  0.808109  0.163632  0.684746  1
  O  O23  1  0.479530  0.230914  0.496955  1
  O  O24  1  0.578559  0.056544  0.175762  1
  O  O25  1  0.028068  0.594255  0.139775  1
  O  O26  1  0.815649  0.200569  0.000000  1
  O  O27  1  0.028068  0.454480  0.860225  1
