# generated using pymatgen
data_Fe2(PO4)3
_symmetry_space_group_name_H-M   'P 1'
_cell_length_a   8.94535670
_cell_length_b   8.75717223
_cell_length_c   8.75717198
_cell_angle_alpha   59.99999660
_cell_angle_beta   60.69349257
_cell_angle_gamma   60.69349421
_symmetry_Int_Tables_number   1
_chemical_formula_structural   Fe2(PO4)3
_chemical_formula_sum   'Fe4 P6 O24'
_cell_volume   490.09932685
_cell_formula_units_Z   2
loop_
 _symmetry_equiv_pos_site_id
 _symmetry_equiv_pos_as_xyz
  1  'x, y, z'
loop_
 _atom_site_type_symbol
 _atom_site_label
 _atom_site_symmetry_multiplicity
 _atom_site_fract_x
 _atom_site_fract_y
 _atom_site_fract_z
 _atom_site_occupancy
  O  O0  1  0.270761  0.710035  0.941090  1
  O  O1  1  0.919442  0.863446  0.723611  1
  O  O2  1  0.919443  0.493501  0.863446  1
  O  O3  1  0.919443  0.723610  0.493501  1
  O  O4  1  0.080558  0.136554  0.276390  1
  O  O5  1  0.080558  0.506500  0.136553  1
  O  O6  1  0.080557  0.276390  0.506500  1
  O  O7  1  0.270761  0.078115  0.710034  1
  O  O8  1  0.419443  0.223611  0.363446  1
  O  O9  1  0.229238  0.421886  0.558910  1
  O  O10  1  0.270761  0.941090  0.078115  1
  O  O11  1  0.229238  0.789966  0.421886  1
  O  O12  1  0.580558  0.636553  0.006500  1
  O  O13  1  0.229239  0.558910  0.789966  1
  O  O14  1  0.580558  0.776390  0.636553  1
  O  O15  1  0.580557  0.006500  0.776390  1
  O  O16  1  0.419443  0.993501  0.223610  1
  O  O17  1  0.729240  0.921885  0.289965  1
  O  O18  1  0.770761  0.441090  0.210035  1
  O  O19  1  0.419442  0.363447  0.993501  1
  O  O20  1  0.770761  0.210035  0.578115  1
  O  O21  1  0.729239  0.058910  0.921885  1
  O  O22  1  0.770761  0.578114  0.441090  1
  O  O23  1  0.729238  0.289966  0.058910  1
  P  P24  1  0.249999  0.966104  0.250000  1
  P  P25  1  0.250000  0.533897  0.966104  1
  P  P26  1  0.750000  0.466104  0.033897  1
  P  P27  1  0.750000  0.033897  0.749999  1
  P  P28  1  0.250000  0.250000  0.533897  1
  P  P29  1  0.750000  0.749999  0.466104  1
  Fe  Fe30  1  0.926296  0.357901  0.357901  1
  Fe  Fe31  1  0.426296  0.857901  0.857902  1
  Fe  Fe32  1  0.573704  0.142099  0.142098  1
  Fe  Fe33  1  0.073704  0.642099  0.642098  1
