# generated using pymatgen
data_Zn13Sb10
_symmetry_space_group_name_H-M   'P 1'
_cell_length_a   10.98366135
_cell_length_b   12.41655589
_cell_length_c   17.59208883
_cell_angle_alpha   110.23912434
_cell_angle_beta   98.09082982
_cell_angle_gamma   90.13007767
_symmetry_Int_Tables_number   1
_chemical_formula_structural   Zn13Sb10
_chemical_formula_sum   'Zn52 Sb40'
_cell_volume   2225.29965727
_cell_formula_units_Z   4
loop_
 _symmetry_equiv_pos_site_id
 _symmetry_equiv_pos_as_xyz
  1  'x, y, z'
loop_
 _atom_site_type_symbol
 _atom_site_label
 _atom_site_symmetry_multiplicity
 _atom_site_fract_x
 _atom_site_fract_y
 _atom_site_fract_z
 _atom_site_occupancy
  Zn  Zn0  1  0.359458  0.282152  0.004663  1
  Zn  Zn1  1  0.060579  0.557395  0.784571  1
  Zn  Zn2  1  0.599118  0.026466  0.737687  1
  Zn  Zn3  1  0.870527  0.808111  0.012501  1
  Zn  Zn4  1  0.113241  0.053381  0.510968  1
  Zn  Zn5  1  0.138496  0.128124  0.331689  1
  Zn  Zn6  1  0.886759  0.946619  0.489032  1
  Zn  Zn7  1  0.770984  0.328721  0.577940  1
  Zn  Zn8  1  0.454236  0.109103  0.530212  1
  Zn  Zn9  1  0.711189  0.369739  0.037297  1
  Zn  Zn10  1  0.750893  0.174862  0.423350  1
  Zn  Zn11  1  0.738181  0.577262  0.752810  1
  Zn  Zn12  1  0.094870  0.135268  0.175827  1
  Zn  Zn13  1  0.384637  0.453149  0.493279  1
  Zn  Zn14  1  0.229016  0.671279  0.422060  1
  Zn  Zn15  1  0.236039  0.081310  0.756299  1
  Zn  Zn16  1  0.400882  0.973534  0.262313  1
  Zn  Zn17  1  0.129473  0.191889  0.987499  1
  Zn  Zn18  1  0.640542  0.717848  0.995337  1
  Zn  Zn19  1  0.193808  0.847792  0.033712  1
  Zn  Zn20  1  0.947772  0.602758  0.531590  1
  Zn  Zn21  1  0.288811  0.630261  0.962703  1
  Zn  Zn22  1  0.249107  0.825138  0.576650  1
  Zn  Zn23  1  0.905130  0.864732  0.824173  1
  Zn  Zn24  1  0.052228  0.397242  0.468410  1
  Zn  Zn25  1  0.574138  0.220536  0.103755  1
  Zn  Zn26  1  0.995036  0.419529  0.924520  1
  Zn  Zn27  1  0.261819  0.422738  0.247190  1
  Zn  Zn28  1  0.490409  0.348943  0.265809  1
  Zn  Zn29  1  0.004964  0.580471  0.075480  1
  Zn  Zn30  1  0.523703  0.936902  0.853228  1
  Zn  Zn31  1  0.545764  0.890897  0.469788  1
  Zn  Zn32  1  0.476297  0.063098  0.146772  1
  Zn  Zn33  1  0.408716  0.743599  0.176079  1
  Zn  Zn34  1  0.763961  0.918690  0.243701  1
  Zn  Zn35  1  0.743764  0.198003  0.706492  1
  Zn  Zn36  1  0.425862  0.779464  0.896245  1
  Zn  Zn37  1  0.385747  0.374897  0.829307  1
  Zn  Zn38  1  0.171439  0.688907  0.711642  1
  Zn  Zn39  1  0.990052  0.833877  0.260420  1
  Zn  Zn40  1  0.009948  0.166123  0.739580  1
  Zn  Zn41  1  0.828561  0.311093  0.288358  1
  Zn  Zn42  1  0.806192  0.152208  0.966288  1
  Zn  Zn43  1  0.509591  0.651057  0.734191  1
  Zn  Zn44  1  0.614253  0.625103  0.170693  1
  Zn  Zn45  1  0.632211  0.638895  0.341159  1
  Zn  Zn46  1  0.615363  0.546851  0.506721  1
  Zn  Zn47  1  0.861504  0.871876  0.668311  1
  Zn  Zn48  1  0.939421  0.442605  0.215429  1
  Zn  Zn49  1  0.256236  0.801997  0.293508  1
  Zn  Zn50  1  0.591284  0.256401  0.823921  1
  Zn  Zn51  1  0.367789  0.361105  0.658841  1
  Sb  Sb52  1  0.839594  0.072847  0.805580  1
  Sb  Sb53  1  0.979040  0.342730  0.683572  1
  Sb  Sb54  1  0.811114  0.708966  0.125981  1
  Sb  Sb55  1  0.694708  0.785496  0.869587  1
  Sb  Sb56  1  0.941610  0.044596  0.374585  1
  Sb  Sb57  1  0.534768  0.176136  0.325941  1
  Sb  Sb58  1  0.294266  0.908324  0.454961  1
  Sb  Sb59  1  0.396609  0.517214  0.059466  1
  Sb  Sb60  1  0.895332  0.037614  0.064855  1
  Sb  Sb61  1  0.349948  0.220766  0.433233  1
  Sb  Sb62  1  0.188886  0.291034  0.874019  1
  Sb  Sb63  1  0.084559  0.335488  0.307048  1
  Sb  Sb64  1  0.678361  0.431324  0.203692  1
  Sb  Sb65  1  0.603391  0.482786  0.940534  1
  Sb  Sb66  1  0.735748  0.099272  0.187356  1
  Sb  Sb67  1  0.550995  0.160769  0.936985  1
  Sb  Sb68  1  0.020960  0.657269  0.316428  1
  Sb  Sb69  1  0.961623  0.347272  0.054190  1
  Sb  Sb70  1  0.782215  0.415457  0.824761  1
  Sb  Sb71  1  0.433157  0.552930  0.378809  1
  Sb  Sb72  1  0.465232  0.823864  0.674059  1
  Sb  Sb73  1  0.217785  0.584543  0.175239  1
  Sb  Sb74  1  0.264252  0.900728  0.812644  1
  Sb  Sb75  1  0.305292  0.214504  0.130413  1
  Sb  Sb76  1  0.160406  0.927153  0.194420  1
  Sb  Sb77  1  0.650052  0.779234  0.566767  1
  Sb  Sb78  1  0.321639  0.568676  0.796308  1
  Sb  Sb79  1  0.412883  0.158351  0.692116  1
  Sb  Sb80  1  0.795306  0.404858  0.447300  1
  Sb  Sb81  1  0.204694  0.595142  0.552700  1
  Sb  Sb82  1  0.852455  0.716652  0.433223  1
  Sb  Sb83  1  0.566843  0.447070  0.621191  1
  Sb  Sb84  1  0.915441  0.664512  0.692952  1
  Sb  Sb85  1  0.058390  0.955404  0.625415  1
  Sb  Sb86  1  0.449005  0.839231  0.063015  1
  Sb  Sb87  1  0.147545  0.283348  0.566777  1
  Sb  Sb88  1  0.038377  0.652728  0.945810  1
  Sb  Sb89  1  0.104668  0.962386  0.935145  1
  Sb  Sb90  1  0.587117  0.841649  0.307884  1
  Sb  Sb91  1  0.705734  0.091676  0.545039  1
