# generated using pymatgen
data_Mn2P2C12S(O2F3)4
_symmetry_space_group_name_H-M   'P 1'
_cell_length_a   8.81232302
_cell_length_b   12.61787107
_cell_length_c   21.55044826
_cell_angle_alpha   90.00000000
_cell_angle_beta   90.00000000
_cell_angle_gamma   90.00000000
_symmetry_Int_Tables_number   1
_chemical_formula_structural   Mn2P2C12S(O2F3)4
_chemical_formula_sum   'Mn8 P8 C48 S4 O32 F48'
_cell_volume   2396.25372846
_cell_formula_units_Z   4
loop_
 _symmetry_equiv_pos_site_id
 _symmetry_equiv_pos_as_xyz
  1  'x, y, z'
loop_
 _atom_site_type_symbol
 _atom_site_label
 _atom_site_symmetry_multiplicity
 _atom_site_fract_x
 _atom_site_fract_y
 _atom_site_fract_z
 _atom_site_occupancy
  Mn  Mn0  1  0.724724  0.027162  0.406729  1
  Mn  Mn1  1  0.241216  0.842536  0.658500  1
  Mn  Mn2  1  0.275276  0.527162  0.593271  1
  Mn  Mn3  1  0.775276  0.027162  0.906729  1
  Mn  Mn4  1  0.741216  0.342536  0.841500  1
  Mn  Mn5  1  0.758784  0.342536  0.341500  1
  Mn  Mn6  1  0.224724  0.527162  0.093271  1
  Mn  Mn7  1  0.258784  0.842536  0.158500  1
  P  P8  1  0.744390  0.167107  0.977118  1
  P  P9  1  0.762669  0.154869  0.323999  1
  P  P10  1  0.737331  0.154869  0.823999  1
  P  P11  1  0.755610  0.167107  0.477118  1
  P  P12  1  0.237331  0.654869  0.676001  1
  P  P13  1  0.244390  0.667107  0.522882  1
  P  P14  1  0.262669  0.654869  0.176001  1
  P  P15  1  0.255610  0.667107  0.022882  1
  C  C16  1  0.557025  0.117738  0.779339  1
  C  C17  1  0.952965  0.339564  0.834983  1
  C  C18  1  0.452965  0.839564  0.665017  1
  C  C19  1  0.804299  0.931766  0.970274  1
  C  C20  1  0.695701  0.931766  0.470274  1
  C  C21  1  0.300393  0.417395  0.649177  1
  C  C22  1  0.750568  0.486366  0.355029  1
  C  C23  1  0.442975  0.617738  0.220661  1
  C  C24  1  0.942975  0.117738  0.279339  1
  C  C25  1  0.374769  0.622721  0.742800  1
  C  C26  1  0.625231  0.122721  0.257200  1
  C  C27  1  0.210008  0.871477  0.740878  1
  C  C28  1  0.966269  0.347322  0.360391  1
  C  C29  1  0.869946  0.156323  0.050199  1
  C  C30  1  0.199606  0.417395  0.149177  1
  C  C31  1  0.516085  0.056800  0.405764  1
  C  C32  1  0.547035  0.339564  0.334983  1
  C  C33  1  0.125231  0.622721  0.242800  1
  C  C34  1  0.369946  0.656323  0.449801  1
  C  C35  1  0.699607  0.917395  0.350823  1
  C  C36  1  0.551857  0.161753  0.019695  1
  C  C37  1  0.130054  0.656323  0.949801  1
  C  C38  1  0.249432  0.986366  0.644971  1
  C  C39  1  0.051857  0.661753  0.480305  1
  C  C40  1  0.195701  0.431766  0.029726  1
  C  C41  1  0.033731  0.847322  0.639609  1
  C  C42  1  0.431800  0.495090  0.091971  1
  C  C43  1  0.568200  0.995090  0.908029  1
  C  C44  1  0.057025  0.617738  0.720661  1
  C  C45  1  0.710008  0.371477  0.759122  1
  C  C46  1  0.800393  0.917395  0.850823  1
  C  C47  1  0.448143  0.661753  0.980305  1
  C  C48  1  0.016085  0.556800  0.094236  1
  C  C49  1  0.250568  0.986366  0.144971  1
  C  C50  1  0.630054  0.156323  0.550199  1
  C  C51  1  0.983915  0.056800  0.905764  1
  C  C52  1  0.304299  0.431766  0.529726  1
  C  C53  1  0.749432  0.486366  0.855029  1
  C  C54  1  0.466269  0.847322  0.139609  1
  C  C55  1  0.047035  0.839564  0.165017  1
  C  C56  1  0.948143  0.161753  0.519695  1
  C  C57  1  0.874769  0.122721  0.757200  1
  C  C58  1  0.533731  0.347322  0.860391  1
  C  C59  1  0.789992  0.371477  0.259122  1
  C  C60  1  0.483915  0.556800  0.594236  1
  C  C61  1  0.289992  0.871477  0.240878  1
  C  C62  1  0.068200  0.495090  0.591971  1
  C  C63  1  0.931800  0.995090  0.408029  1
  S  S64  1  0.722507  0.320406  0.452534  1
  S  S65  1  0.777493  0.320406  0.952534  1
  S  S66  1  0.222507  0.820406  0.047466  1
  S  S67  1  0.277493  0.820406  0.547466  1
  O  O68  1  0.416319  0.341634  0.332655  1
  O  O69  1  0.583681  0.841634  0.667345  1
  O  O70  1  0.311824  0.896048  0.291875  1
  O  O71  1  0.613106  0.570842  0.593468  1
  O  O72  1  0.556735  0.468070  0.090834  1
  O  O73  1  0.908555  0.857699  0.625329  1
  O  O74  1  0.916319  0.841634  0.167345  1
  O  O75  1  0.188176  0.896048  0.791875  1
  O  O76  1  0.811824  0.396048  0.208125  1
  O  O77  1  0.091445  0.357699  0.374671  1
  O  O78  1  0.443265  0.968070  0.909166  1
  O  O79  1  0.186346  0.344274  0.180919  1
  O  O80  1  0.753429  0.577511  0.860744  1
  O  O81  1  0.246571  0.077511  0.139256  1
  O  O82  1  0.822408  0.867741  0.007878  1
  O  O83  1  0.083681  0.341634  0.832655  1
  O  O84  1  0.113106  0.070842  0.906532  1
  O  O85  1  0.177592  0.367741  0.992122  1
  O  O86  1  0.813654  0.844274  0.819081  1
  O  O87  1  0.886894  0.570842  0.093468  1
  O  O88  1  0.056735  0.968070  0.409166  1
  O  O89  1  0.313654  0.344274  0.680919  1
  O  O90  1  0.943265  0.468070  0.590834  1
  O  O91  1  0.322408  0.367741  0.492122  1
  O  O92  1  0.386894  0.070842  0.406532  1
  O  O93  1  0.677592  0.867741  0.507878  1
  O  O94  1  0.688176  0.396048  0.708125  1
  O  O95  1  0.746571  0.577511  0.360744  1
  O  O96  1  0.408555  0.357699  0.874671  1
  O  O97  1  0.686346  0.844274  0.319081  1
  O  O98  1  0.591445  0.857699  0.125329  1
  O  O99  1  0.253429  0.077511  0.639256  1
  F  F100  1  0.483418  0.139428  0.532816  1
  F  F101  1  0.983418  0.639428  0.967184  1
  F  F102  1  0.020422  0.123364  0.779095  1
  F  F103  1  0.479578  0.123364  0.279095  1
  F  F104  1  0.458113  0.729911  0.931774  1
  F  F105  1  0.044275  0.511286  0.731836  1
  F  F106  1  0.367108  0.745217  0.414504  1
  F  F107  1  0.432749  0.146075  0.813319  1
  F  F108  1  0.440091  0.187231  0.978666  1
  F  F109  1  0.059909  0.187231  0.478666  1
  F  F110  1  0.369279  0.694481  0.789933  1
  F  F111  1  0.046230  0.667185  0.776600  1
  F  F112  1  0.172869  0.573419  0.913204  1
  F  F113  1  0.041887  0.729911  0.431774  1
  F  F114  1  0.630721  0.194481  0.210067  1
  F  F115  1  0.850825  0.025494  0.731214  1
  F  F116  1  0.327131  0.573419  0.413204  1
  F  F117  1  0.149175  0.525494  0.268786  1
  F  F118  1  0.953770  0.167185  0.223400  1
  F  F119  1  0.520422  0.623364  0.720905  1
  F  F120  1  0.940091  0.687231  0.521334  1
  F  F121  1  0.632892  0.245217  0.585496  1
  F  F122  1  0.021823  0.562386  0.458376  1
  F  F123  1  0.559909  0.687231  0.021334  1
  F  F124  1  0.955725  0.011286  0.268164  1
  F  F125  1  0.521823  0.062386  0.041624  1
  F  F126  1  0.867108  0.245217  0.085496  1
  F  F127  1  0.516582  0.639428  0.467184  1
  F  F128  1  0.478177  0.562386  0.958376  1
  F  F129  1  0.649175  0.025494  0.231214  1
  F  F130  1  0.978177  0.062386  0.541624  1
  F  F131  1  0.869279  0.194481  0.710067  1
  F  F132  1  0.453770  0.667185  0.276600  1
  F  F133  1  0.827131  0.073419  0.086796  1
  F  F134  1  0.672869  0.073419  0.586796  1
  F  F135  1  0.541887  0.229911  0.068226  1
  F  F136  1  0.979578  0.623364  0.220905  1
  F  F137  1  0.130721  0.694481  0.289933  1
  F  F138  1  0.350825  0.525494  0.768786  1
  F  F139  1  0.932749  0.646075  0.686681  1
  F  F140  1  0.544275  0.011286  0.768164  1
  F  F141  1  0.546230  0.167185  0.723400  1
  F  F142  1  0.067251  0.146075  0.313319  1
  F  F143  1  0.016582  0.139428  0.032816  1
  F  F144  1  0.132892  0.745217  0.914504  1
  F  F145  1  0.958113  0.229911  0.568226  1
  F  F146  1  0.567251  0.646075  0.186681  1
  F  F147  1  0.455725  0.511286  0.231836  1
