# generated using pymatgen
data_CaZr4O9
_symmetry_space_group_name_H-M   'P 1'
_cell_length_a   11.62469743
_cell_length_b   11.62469743
_cell_length_c   12.19961353
_cell_angle_alpha   67.85317832
_cell_angle_beta   67.85317832
_cell_angle_gamma   79.13596847
_symmetry_Int_Tables_number   1
_chemical_formula_structural   CaZr4O9
_chemical_formula_sum   'Ca8 Zr32 O72'
_cell_volume   1412.22319645
_cell_formula_units_Z   8
loop_
 _symmetry_equiv_pos_site_id
 _symmetry_equiv_pos_as_xyz
  1  'x, y, z'
loop_
 _atom_site_type_symbol
 _atom_site_label
 _atom_site_symmetry_multiplicity
 _atom_site_fract_x
 _atom_site_fract_y
 _atom_site_fract_z
 _atom_site_occupancy
  Ca  Ca0  1  0.936694  0.063306  0.750000  1
  Ca  Ca1  1  0.063306  0.936694  0.250000  1
  Ca  Ca2  1  0.436322  0.563678  0.750000  1
  Ca  Ca3  1  0.563678  0.436322  0.250000  1
  Ca  Ca4  1  0.113674  0.489031  0.850174  1
  Ca  Ca5  1  0.510969  0.886326  0.649826  1
  Ca  Ca6  1  0.886326  0.510969  0.149826  1
  Ca  Ca7  1  0.489031  0.113674  0.350174  1
  Zr  Zr8  1  0.814282  0.185718  0.250000  1
  Zr  Zr9  1  0.185718  0.814282  0.750000  1
  Zr  Zr10  1  0.312237  0.687763  0.250000  1
  Zr  Zr11  1  0.687763  0.312237  0.750000  1
  Zr  Zr12  1  0.210701  0.582057  0.051091  1
  Zr  Zr13  1  0.417943  0.789299  0.448909  1
  Zr  Zr14  1  0.789299  0.417943  0.948909  1
  Zr  Zr15  1  0.582057  0.210701  0.551091  1
  Zr  Zr16  1  0.695311  0.064381  0.051099  1
  Zr  Zr17  1  0.935619  0.304689  0.448901  1
  Zr  Zr18  1  0.304689  0.935619  0.948901  1
  Zr  Zr19  1  0.064381  0.695311  0.551099  1
  Zr  Zr20  1  0.625733  0.006012  0.821921  1
  Zr  Zr21  1  0.993988  0.374267  0.678079  1
  Zr  Zr22  1  0.374267  0.993988  0.178079  1
  Zr  Zr23  1  0.006012  0.625733  0.321921  1
  Zr  Zr24  1  0.514686  0.666174  0.949679  1
  Zr  Zr25  1  0.333826  0.485314  0.550321  1
  Zr  Zr26  1  0.485314  0.333826  0.050321  1
  Zr  Zr27  1  0.666174  0.514686  0.449679  1
  Zr  Zr28  1  0.065433  0.150883  0.934747  1
  Zr  Zr29  1  0.849117  0.934567  0.565253  1
  Zr  Zr30  1  0.934567  0.849117  0.065253  1
  Zr  Zr31  1  0.150883  0.065433  0.434747  1
  Zr  Zr32  1  0.640901  0.748612  0.120427  1
  Zr  Zr33  1  0.251388  0.359099  0.379573  1
  Zr  Zr34  1  0.359099  0.251388  0.879573  1
  Zr  Zr35  1  0.748612  0.640901  0.620427  1
  Zr  Zr36  1  0.115903  0.256264  0.150340  1
  Zr  Zr37  1  0.743736  0.884097  0.349660  1
  Zr  Zr38  1  0.884097  0.743736  0.849660  1
  Zr  Zr39  1  0.256264  0.115903  0.650340  1
  O  O40  1  0.926430  0.281487  0.284248  1
  O  O41  1  0.718513  0.073570  0.215752  1
  O  O42  1  0.073570  0.718513  0.715752  1
  O  O43  1  0.281487  0.926430  0.784248  1
  O  O44  1  0.193217  0.544738  0.245961  1
  O  O45  1  0.455262  0.806783  0.254039  1
  O  O46  1  0.806783  0.455262  0.754039  1
  O  O47  1  0.544738  0.193217  0.745961  1
  O  O48  1  0.605581  0.937799  0.021335  1
  O  O49  1  0.062201  0.394419  0.478665  1
  O  O50  1  0.394419  0.062201  0.978665  1
  O  O51  1  0.937799  0.605581  0.521335  1
  O  O52  1  0.318884  0.731569  0.023337  1
  O  O53  1  0.268431  0.681116  0.476663  1
  O  O54  1  0.681116  0.268431  0.976663  1
  O  O55  1  0.731569  0.318884  0.523337  1
  O  O56  1  0.097969  0.447908  0.077072  1
  O  O57  1  0.552092  0.902031  0.422928  1
  O  O58  1  0.902031  0.552092  0.922928  1
  O  O59  1  0.447908  0.097969  0.577072  1
  O  O60  1  0.221957  0.639035  0.867612  1
  O  O61  1  0.360965  0.778043  0.632388  1
  O  O62  1  0.778043  0.360965  0.132388  1
  O  O63  1  0.639035  0.221957  0.367612  1
  O  O64  1  0.960518  0.322154  0.878248  1
  O  O65  1  0.677846  0.039482  0.621752  1
  O  O66  1  0.039482  0.677846  0.121752  1
  O  O67  1  0.322154  0.960518  0.378248  1
  O  O68  1  0.722809  0.122156  0.848899  1
  O  O69  1  0.877844  0.277191  0.651101  1
  O  O70  1  0.277191  0.877844  0.151101  1
  O  O71  1  0.122156  0.722809  0.348899  1
  O  O72  1  0.495516  0.884350  0.854581  1
  O  O73  1  0.115650  0.504484  0.645419  1
  O  O74  1  0.504484  0.115650  0.145419  1
  O  O75  1  0.884350  0.495516  0.354581  1
  O  O76  1  0.074435  0.186671  0.741924  1
  O  O77  1  0.813329  0.925565  0.758076  1
  O  O78  1  0.925565  0.813329  0.258076  1
  O  O79  1  0.186671  0.074435  0.241924  1
  O  O80  1  0.673452  0.576500  0.262548  1
  O  O81  1  0.423500  0.326548  0.237452  1
  O  O82  1  0.326548  0.423500  0.737452  1
  O  O83  1  0.576500  0.673452  0.762548  1
  O  O84  1  0.606337  0.485029  0.008203  1
  O  O85  1  0.514971  0.393663  0.491797  1
  O  O86  1  0.393663  0.514971  0.991797  1
  O  O87  1  0.485029  0.606337  0.508203  1
  O  O88  1  0.318240  0.270971  0.059532  1
  O  O89  1  0.729029  0.681760  0.440468  1
  O  O90  1  0.681760  0.729029  0.940468  1
  O  O91  1  0.270971  0.318240  0.559532  1
  O  O92  1  0.105944  0.954749  0.021304  1
  O  O93  1  0.045251  0.894056  0.478696  1
  O  O94  1  0.894056  0.045251  0.978696  1
  O  O95  1  0.954749  0.105944  0.521304  1
  O  O96  1  0.836328  0.723659  0.045477  1
  O  O97  1  0.276341  0.163672  0.454523  1
  O  O98  1  0.163672  0.276341  0.954523  1
  O  O99  1  0.723659  0.836328  0.545477  1
  O  O100  1  0.005733  0.852604  0.871668  1
  O  O101  1  0.147396  0.994267  0.628332  1
  O  O102  1  0.994267  0.147396  0.128332  1
  O  O103  1  0.852604  0.005733  0.371668  1
  O  O104  1  0.507098  0.351598  0.861837  1
  O  O105  1  0.648402  0.492902  0.638163  1
  O  O106  1  0.492902  0.648402  0.138163  1
  O  O107  1  0.351598  0.507098  0.361837  1
  O  O108  1  0.868609  0.734776  0.672839  1
  O  O109  1  0.265224  0.131391  0.827161  1
  O  O110  1  0.131391  0.265224  0.327161  1
  O  O111  1  0.734776  0.868609  0.172839  1
