# generated using pymatgen
data_AuN5O14
_symmetry_space_group_name_H-M   'P 1'
_cell_length_a   7.95031638
_cell_length_b   8.37948717
_cell_length_c   9.23699246
_cell_angle_alpha   90.00000000
_cell_angle_beta   112.33418904
_cell_angle_gamma   90.00000000
_symmetry_Int_Tables_number   1
_chemical_formula_structural   AuN5O14
_chemical_formula_sum   'Au2 N10 O28'
_cell_volume   569.20178287
_cell_formula_units_Z   2
loop_
 _symmetry_equiv_pos_site_id
 _symmetry_equiv_pos_as_xyz
  1  'x, y, z'
loop_
 _atom_site_type_symbol
 _atom_site_label
 _atom_site_symmetry_multiplicity
 _atom_site_fract_x
 _atom_site_fract_y
 _atom_site_fract_z
 _atom_site_occupancy
  Au  Au0  1  0.500000  0.500000  0.500000  1
  Au  Au1  1  0.000000  0.000000  0.000000  1
  N  N2  1  0.637403  0.928413  0.774943  1
  N  N3  1  0.332593  0.265891  0.637920  1
  N  N4  1  0.167407  0.765891  0.862080  1
  N  N5  1  0.137403  0.571587  0.274943  1
  N  N6  1  0.362597  0.071587  0.225057  1
  N  N7  1  0.667407  0.734109  0.362080  1
  N  N8  1  0.862597  0.428413  0.725057  1
  N  N9  1  0.832593  0.234109  0.137920  1
  N  N10  1  0.000000  0.000000  0.500000  1
  N  N11  1  0.500000  0.500000  0.000000  1
  O  O12  1  0.320932  0.962036  0.293384  1
  O  O13  1  0.254030  0.613478  0.422373  1
  O  O14  1  0.002676  0.347838  0.772838  1
  O  O15  1  0.748238  0.765511  0.502103  1
  O  O16  1  0.099142  0.906164  0.489822  1
  O  O17  1  0.245970  0.113478  0.077627  1
  O  O18  1  0.052419  0.893324  0.820597  1
  O  O19  1  0.751762  0.265511  0.997897  1
  O  O20  1  0.745970  0.386522  0.577627  1
  O  O21  1  0.679068  0.037964  0.706616  1
  O  O22  1  0.680113  0.806771  0.250812  1
  O  O23  1  0.599142  0.593836  0.989822  1
  O  O24  1  0.447581  0.393323  0.679403  1
  O  O25  1  0.248238  0.734489  0.002103  1
  O  O26  1  0.997324  0.652162  0.227162  1
  O  O27  1  0.180113  0.693229  0.750812  1
  O  O28  1  0.497324  0.847838  0.727162  1
  O  O29  1  0.319887  0.193229  0.749188  1
  O  O30  1  0.502676  0.152162  0.272838  1
  O  O31  1  0.552419  0.606676  0.320597  1
  O  O32  1  0.179068  0.462036  0.206616  1
  O  O33  1  0.900858  0.093836  0.510178  1
  O  O34  1  0.820932  0.537964  0.793384  1
  O  O35  1  0.819887  0.306771  0.249188  1
  O  O36  1  0.947581  0.106676  0.179403  1
  O  O37  1  0.251762  0.234489  0.497897  1
  O  O38  1  0.754030  0.886522  0.922373  1
  O  O39  1  0.400858  0.406164  0.010178  1
