# generated using pymatgen
data_K4In2Si8O21
_symmetry_space_group_name_H-M   'P 1'
_cell_length_a   8.54499102
_cell_length_b   10.63780902
_cell_length_c   11.67418229
_cell_angle_alpha   90.00000000
_cell_angle_beta   90.00000000
_cell_angle_gamma   90.25588843
_symmetry_Int_Tables_number   1
_chemical_formula_structural   K4In2Si8O21
_chemical_formula_sum   'K8 In4 Si16 O42'
_cell_volume   1061.17238303
_cell_formula_units_Z   2
loop_
 _symmetry_equiv_pos_site_id
 _symmetry_equiv_pos_as_xyz
  1  'x, y, z'
loop_
 _atom_site_type_symbol
 _atom_site_label
 _atom_site_symmetry_multiplicity
 _atom_site_fract_x
 _atom_site_fract_y
 _atom_site_fract_z
 _atom_site_occupancy
  K  K0  1  0.984074  0.204581  0.642121  1
  K  K1  1  0.506163  0.308220  0.532478  1
  K  K2  1  0.015926  0.795419  0.357879  1
  K  K3  1  0.515926  0.295419  0.142121  1
  K  K4  1  0.006163  0.808220  0.967522  1
  K  K5  1  0.993837  0.191780  0.032479  1
  K  K6  1  0.493837  0.691780  0.467521  1
  K  K7  1  0.484074  0.704581  0.857879  1
  In  In8  1  0.197887  0.460076  0.333827  1
  In  In9  1  0.697887  0.960076  0.166173  1
  In  In10  1  0.302113  0.039924  0.833827  1
  In  In11  1  0.802113  0.539924  0.666173  1
  Si  Si12  1  0.318093  0.004436  0.542881  1
  Si  Si13  1  0.681907  0.995564  0.457119  1
  Si  Si14  1  0.172976  0.788642  0.673455  1
  Si  Si15  1  0.181907  0.495564  0.042881  1
  Si  Si16  1  0.206639  0.502823  0.631957  1
  Si  Si17  1  0.811040  0.835733  0.662984  1
  Si  Si18  1  0.188960  0.164267  0.337016  1
  Si  Si19  1  0.688960  0.664267  0.162984  1
  Si  Si20  1  0.706639  0.002823  0.868043  1
  Si  Si21  1  0.672976  0.288642  0.826545  1
  Si  Si22  1  0.327024  0.711358  0.173455  1
  Si  Si23  1  0.793361  0.497177  0.368043  1
  Si  Si24  1  0.827024  0.211358  0.326545  1
  Si  Si25  1  0.293361  0.997177  0.131957  1
  Si  Si26  1  0.818093  0.504436  0.957119  1
  Si  Si27  1  0.311040  0.335733  0.837016  1
  O  O28  1  0.290376  0.444846  0.936054  1
  O  O29  1  0.474318  0.035658  0.149553  1
  O  O30  1  0.513846  0.726774  0.139938  1
  O  O31  1  0.259036  0.856979  0.561670  1
  O  O32  1  0.813142  0.778374  0.152708  1
  O  O33  1  0.683709  0.591537  0.286610  1
  O  O34  1  0.025682  0.464342  0.649553  1
  O  O35  1  0.222208  0.008250  0.004206  1
  O  O36  1  0.240964  0.643021  0.061670  1
  O  O37  1  0.759036  0.356979  0.938330  1
  O  O38  1  0.525682  0.964342  0.850447  1
  O  O39  1  0.986154  0.773226  0.639938  1
  O  O40  1  0.798489  0.138793  0.208283  1
  O  O41  1  0.740964  0.143021  0.438330  1
  O  O42  1  0.795432  0.590886  0.846051  1
  O  O43  1  0.313142  0.278374  0.347292  1
  O  O44  1  0.722208  0.508250  0.495794  1
  O  O45  1  0.277792  0.491750  0.504206  1
  O  O46  1  0.201511  0.861207  0.791717  1
  O  O47  1  0.204568  0.409114  0.153949  1
  O  O48  1  0.816291  0.908463  0.786610  1
  O  O49  1  0.486154  0.273226  0.860062  1
  O  O50  1  0.252890  0.853155  0.181853  1
  O  O51  1  0.209624  0.055154  0.436054  1
  O  O52  1  0.295432  0.090886  0.653949  1
  O  O53  1  0.701511  0.361207  0.708283  1
  O  O54  1  0.298489  0.638793  0.291717  1
  O  O55  1  0.777792  0.991750  0.995794  1
  O  O56  1  0.186858  0.221626  0.847292  1
  O  O57  1  0.316291  0.408463  0.713390  1
  O  O58  1  0.500000  0.000000  0.500000  1
  O  O59  1  0.709624  0.555154  0.063946  1
  O  O60  1  0.247110  0.646845  0.681853  1
  O  O61  1  0.752890  0.353155  0.318147  1
  O  O62  1  0.183709  0.091537  0.213390  1
  O  O63  1  0.686858  0.721626  0.652708  1
  O  O64  1  0.747110  0.146845  0.818147  1
  O  O65  1  0.013846  0.226774  0.360062  1
  O  O66  1  0.704568  0.909114  0.346051  1
  O  O67  1  0.974318  0.535658  0.350447  1
  O  O68  1  0.790376  0.944846  0.563946  1
  O  O69  1  0.000000  0.500000  0.000000  1
