# generated using pymatgen
data_Er2CdS4
_symmetry_space_group_name_H-M   'P 1'
_cell_length_a   7.96098333
_cell_length_b   7.96098330
_cell_length_c   39.68880780
_cell_angle_alpha   59.90317472
_cell_angle_beta   59.90317486
_cell_angle_gamma   59.99999963
_symmetry_Int_Tables_number   1
_chemical_formula_structural   Er2CdS4
_chemical_formula_sum   'Er20 Cd10 S40'
_cell_volume   1776.02605869
_cell_formula_units_Z   10
loop_
 _symmetry_equiv_pos_site_id
 _symmetry_equiv_pos_as_xyz
  1  'x, y, z'
loop_
 _atom_site_type_symbol
 _atom_site_label
 _atom_site_symmetry_multiplicity
 _atom_site_fract_x
 _atom_site_fract_y
 _atom_site_fract_z
 _atom_site_occupancy
  Cd  Cd0  1  0.248047  0.248047  0.051172  1
  Cd  Cd1  1  0.621533  0.621533  0.027080  1
  Cd  Cd2  1  0.247334  0.247334  0.251600  1
  Cd  Cd3  1  0.000781  0.000781  0.399531  1
  Cd  Cd4  1  0.622118  0.622118  0.226729  1
  Cd  Cd5  1  0.249375  0.249375  0.450375  1
  Cd  Cd6  1  0.000447  0.000447  0.599732  1
  Cd  Cd7  1  0.250147  0.250147  0.649912  1
  Cd  Cd8  1  0.000419  0.000419  0.799749  1
  Cd  Cd9  1  0.250702  0.250702  0.849579  1
  Er  Er10  1  0.001001  0.001001  0.999399  1
  Er  Er11  1  0.001986  0.001986  0.198808  1
  Er  Er12  1  0.131009  0.622961  0.124614  1
  Er  Er13  1  0.622961  0.131009  0.124614  1
  Er  Er14  1  0.129376  0.623328  0.324794  1
  Er  Er15  1  0.622961  0.622961  0.124614  1
  Er  Er16  1  0.623328  0.129376  0.324794  1
  Er  Er17  1  0.125133  0.625141  0.524917  1
  Er  Er18  1  0.623328  0.623328  0.324794  1
  Er  Er19  1  0.625542  0.625542  0.424675  1
  Er  Er20  1  0.625141  0.125133  0.524917  1
  Er  Er21  1  0.625141  0.625141  0.524917  1
  Er  Er22  1  0.125244  0.625200  0.724871  1
  Er  Er23  1  0.625167  0.625167  0.624900  1
  Er  Er24  1  0.625200  0.125244  0.724871  1
  Er  Er25  1  0.126218  0.624807  0.924834  1
  Er  Er26  1  0.625200  0.625200  0.724871  1
  Er  Er27  1  0.624807  0.126218  0.924834  1
  Er  Er28  1  0.625534  0.625534  0.824680  1
  Er  Er29  1  0.624807  0.624807  0.924834  1
  S  S30  1  0.380813  0.380813  0.077040  1
  S  S31  1  0.380813  0.853172  0.077040  1
  S  S32  1  0.382419  0.382419  0.170548  1
  S  S33  1  0.853172  0.380813  0.077040  1
  S  S34  1  0.380831  0.380831  0.277118  1
  S  S35  1  0.399717  0.868478  0.172666  1
  S  S36  1  0.867037  0.867037  0.079778  1
  S  S37  1  0.868478  0.399717  0.172666  1
  S  S38  1  0.382544  0.382544  0.370474  1
  S  S39  1  0.380831  0.852746  0.277118  1
  S  S40  1  0.868478  0.868478  0.172666  1
  S  S41  1  0.852746  0.380831  0.277118  1
  S  S42  1  0.400084  0.866809  0.373260  1
  S  S43  1  0.382891  0.382891  0.476675  1
  S  S44  1  0.382891  0.850841  0.476675  1
  S  S45  1  0.867510  0.867510  0.279494  1
  S  S46  1  0.866809  0.400084  0.373260  1
  S  S47  1  0.383035  0.383035  0.570179  1
  S  S48  1  0.866809  0.866809  0.373260  1
  S  S49  1  0.850841  0.382891  0.476675  1
  S  S50  1  0.382807  0.382807  0.676721  1
  S  S51  1  0.399034  0.866771  0.573485  1
  S  S52  1  0.866771  0.399034  0.573485  1
  S  S53  1  0.867025  0.867025  0.479785  1
  S  S54  1  0.383038  0.383038  0.770177  1
  S  S55  1  0.382807  0.850780  0.676721  1
  S  S56  1  0.866771  0.866771  0.573485  1
  S  S57  1  0.850780  0.382807  0.676721  1
  S  S58  1  0.382989  0.382989  0.876593  1
  S  S59  1  0.398952  0.866737  0.773515  1
  S  S60  1  0.866834  0.866834  0.679900  1
  S  S61  1  0.866737  0.398952  0.773515  1
  S  S62  1  0.382936  0.382936  0.970239  1
  S  S63  1  0.382989  0.851059  0.876593  1
  S  S64  1  0.866737  0.866737  0.773515  1
  S  S65  1  0.851059  0.382989  0.876593  1
  S  S66  1  0.398182  0.869052  0.972743  1
  S  S67  1  0.869052  0.398182  0.972743  1
  S  S68  1  0.866708  0.866708  0.879975  1
  S  S69  1  0.869052  0.869052  0.972743  1
