# generated using pymatgen
data_Ba4Ti2PtO10
_symmetry_space_group_name_H-M   'P 1'
_cell_length_a   5.84946918
_cell_length_b   7.39624864
_cell_length_c   13.31864443
_cell_angle_alpha   90.00000000
_cell_angle_beta   90.00000000
_cell_angle_gamma   113.29309831
_symmetry_Int_Tables_number   1
_chemical_formula_structural   Ba4Ti2PtO10
_chemical_formula_sum   'Ba8 Ti4 Pt2 O20'
_cell_volume   529.25420532
_cell_formula_units_Z   2
loop_
 _symmetry_equiv_pos_site_id
 _symmetry_equiv_pos_as_xyz
  1  'x, y, z'
loop_
 _atom_site_type_symbol
 _atom_site_label
 _atom_site_symmetry_multiplicity
 _atom_site_fract_x
 _atom_site_fract_y
 _atom_site_fract_z
 _atom_site_occupancy
  Ba  Ba0  1  0.529219  0.058439  0.142092  1
  Ba  Ba1  1  0.765629  0.531258  0.899839  1
  Ba  Ba2  1  0.265629  0.531258  0.600161  1
  Ba  Ba3  1  0.970781  0.941561  0.642092  1
  Ba  Ba4  1  0.029219  0.058439  0.357908  1
  Ba  Ba5  1  0.734371  0.468742  0.399839  1
  Ba  Ba6  1  0.470781  0.941561  0.857908  1
  Ba  Ba7  1  0.234371  0.468742  0.100161  1
  Ti  Ti8  1  0.861223  0.722445  0.155293  1
  Ti  Ti9  1  0.638777  0.277555  0.655293  1
  Ti  Ti10  1  0.138777  0.277555  0.844707  1
  Ti  Ti11  1  0.361223  0.722445  0.344707  1
  Pt  Pt12  1  0.000000  0.000000  0.000000  1
  Pt  Pt13  1  0.500000  0.000000  0.500000  1
  O  O14  1  0.463875  0.927750  0.651257  1
  O  O15  1  0.270306  0.540612  0.859008  1
  O  O16  1  0.165862  0.782871  0.460091  1
  O  O17  1  0.665862  0.782871  0.039909  1
  O  O18  1  0.877791  0.255581  0.750000  1
  O  O19  1  0.377791  0.255581  0.750000  1
  O  O20  1  0.729694  0.459388  0.140992  1
  O  O21  1  0.963875  0.927750  0.848743  1
  O  O22  1  0.122209  0.744419  0.250000  1
  O  O23  1  0.617009  0.782871  0.460091  1
  O  O24  1  0.229694  0.459388  0.359008  1
  O  O25  1  0.536125  0.072250  0.348743  1
  O  O26  1  0.622209  0.744419  0.250000  1
  O  O27  1  0.334138  0.217129  0.960091  1
  O  O28  1  0.834138  0.217129  0.539909  1
  O  O29  1  0.770306  0.540612  0.640992  1
  O  O30  1  0.882991  0.217129  0.960091  1
  O  O31  1  0.382991  0.217129  0.539909  1
  O  O32  1  0.036125  0.072250  0.151257  1
  O  O33  1  0.117009  0.782871  0.039909  1
