# generated using pymatgen
data_Nd4Se3O4
_symmetry_space_group_name_H-M   'P 1'
_cell_length_a   4.03270184
_cell_length_b   6.82543793
_cell_length_c   8.50241797
_cell_angle_alpha   89.99987895
_cell_angle_beta   90.00000000
_cell_angle_gamma   107.18254879
_symmetry_Int_Tables_number   1
_chemical_formula_structural   Nd4Se3O4
_chemical_formula_sum   'Nd4 Se3 O4'
_cell_volume   223.58360328
_cell_formula_units_Z   1
loop_
 _symmetry_equiv_pos_site_id
 _symmetry_equiv_pos_as_xyz
  1  'x, y, z'
loop_
 _atom_site_type_symbol
 _atom_site_label
 _atom_site_symmetry_multiplicity
 _atom_site_fract_x
 _atom_site_fract_y
 _atom_site_fract_z
 _atom_site_occupancy
  Nd  Nd0  1  0.683090  0.366179  0.237015  1
  O  O1  1  0.088034  0.176067  0.756121  1
  Se  Se2  1  0.356065  0.712130  0.351131  1
  O  O3  1  0.587747  0.175494  1.000000  1
  Se  Se4  1  0.312890  0.625780  1.000000  1
  O  O5  1  0.616118  0.232236  0.500000  1
  Nd  Nd6  1  0.683090  0.366179  0.762984  1
  O  O7  1  0.088034  0.176067  0.243879  1
  Nd  Nd8  1  0.000884  0.001769  -0.000001  1
  Se  Se9  1  0.356065  0.712131  0.648872  1
  Nd  Nd10  1  0.017804  0.035607  0.500000  1
