# generated using pymatgen
data_Pu3Pd5
_symmetry_space_group_name_H-M   'P 1'
_cell_length_a   5.86562342
_cell_length_b   5.86562390
_cell_length_c   9.80996176
_cell_angle_alpha   90.00000000
_cell_angle_beta   90.00000000
_cell_angle_gamma   103.78801489
_symmetry_Int_Tables_number   1
_chemical_formula_structural   Pu3Pd5
_chemical_formula_sum   'Pu6 Pd10'
_cell_volume   327.79120232
_cell_formula_units_Z   2
loop_
 _symmetry_equiv_pos_site_id
 _symmetry_equiv_pos_as_xyz
  1  'x, y, z'
loop_
 _atom_site_type_symbol
 _atom_site_label
 _atom_site_symmetry_multiplicity
 _atom_site_fract_x
 _atom_site_fract_y
 _atom_site_fract_z
 _atom_site_occupancy
  Pu  Pu0  1  0.202874  0.797126  0.000000  1
  Pu  Pu1  1  0.797126  0.202874  0.500000  1
  Pu  Pu2  1  0.797126  0.202874  0.000000  1
  Pu  Pu3  1  0.627403  0.627403  0.250000  1
  Pu  Pu4  1  0.372597  0.372597  0.750000  1
  Pu  Pu5  1  0.202874  0.797126  0.500000  1
  Pd  Pd6  1  0.488492  0.933192  0.750000  1
  Pd  Pd7  1  0.511508  0.066808  0.250000  1
  Pd  Pd8  1  0.685162  0.685162  0.548849  1
  Pd  Pd9  1  0.974836  0.974836  0.750000  1
  Pd  Pd10  1  0.314838  0.314838  0.048849  1
  Pd  Pd11  1  0.933192  0.488492  0.750000  1
  Pd  Pd12  1  0.066808  0.511508  0.250000  1
  Pd  Pd13  1  0.025164  0.025164  0.250000  1
  Pd  Pd14  1  0.685162  0.685162  0.951151  1
  Pd  Pd15  1  0.314838  0.314838  0.451151  1
