# generated using pymatgen
data_Li2U5MoO19
_symmetry_space_group_name_H-M   'P 1'
_cell_length_a   8.00843228
_cell_length_b   10.22175482
_cell_length_c   20.25926206
_cell_angle_alpha   90.00000000
_cell_angle_beta   90.00000000
_cell_angle_gamma   91.39975377
_symmetry_Int_Tables_number   1
_chemical_formula_structural   Li2U5MoO19
_chemical_formula_sum   'Li8 U20 Mo4 O76'
_cell_volume   1657.93299413
_cell_formula_units_Z   4
loop_
 _symmetry_equiv_pos_site_id
 _symmetry_equiv_pos_as_xyz
  1  'x, y, z'
loop_
 _atom_site_type_symbol
 _atom_site_label
 _atom_site_symmetry_multiplicity
 _atom_site_fract_x
 _atom_site_fract_y
 _atom_site_fract_z
 _atom_site_occupancy
  Li  Li0  1  0.256199  0.168027  0.881555  1
  Li  Li1  1  0.293491  0.338273  0.393208  1
  Li  Li2  1  0.256199  0.668027  0.618445  1
  Li  Li3  1  0.706509  0.661727  0.606792  1
  Li  Li4  1  0.743801  0.831973  0.118445  1
  Li  Li5  1  0.743801  0.331973  0.381555  1
  Li  Li6  1  0.706509  0.161727  0.893208  1
  Li  Li7  1  0.293491  0.838273  0.106792  1
  U  U8  1  0.279054  0.592559  0.253373  1
  U  U9  1  0.973068  0.184969  0.640202  1
  U  U10  1  0.973068  0.684969  0.859798  1
  U  U11  1  0.279054  0.092559  0.246627  1
  U  U12  1  0.518091  0.818989  0.363967  1
  U  U13  1  0.229066  0.439407  0.764198  1
  U  U14  1  0.518091  0.318989  0.136033  1
  U  U15  1  0.720946  0.907441  0.753373  1
  U  U16  1  0.500000  0.500000  0.500000  1
  U  U17  1  0.026932  0.815031  0.359798  1
  U  U18  1  0.481909  0.681011  0.863967  1
  U  U19  1  0.481909  0.181011  0.636033  1
  U  U20  1  0.000000  0.000000  0.000000  1
  U  U21  1  0.500000  0.000000  0.000000  1
  U  U22  1  0.026932  0.315031  0.140202  1
  U  U23  1  0.770934  0.060593  0.264198  1
  U  U24  1  0.720946  0.407441  0.746627  1
  U  U25  1  0.000000  0.500000  0.500000  1
  U  U26  1  0.770934  0.560593  0.235802  1
  U  U27  1  0.229066  0.939407  0.735802  1
  Mo  Mo28  1  0.793826  0.467923  0.987931  1
  Mo  Mo29  1  0.206174  0.532077  0.012069  1
  Mo  Mo30  1  0.793826  0.967923  0.512069  1
  Mo  Mo31  1  0.206174  0.032077  0.487931  1
  O  O32  1  0.546322  0.381114  0.431427  1
  O  O33  1  0.061312  0.467346  0.199562  1
  O  O34  1  0.632149  0.957190  0.450525  1
  O  O35  1  0.228979  0.835420  0.662632  1
  O  O36  1  0.252508  0.975712  0.030754  1
  O  O37  1  0.508867  0.530902  0.802848  1
  O  O38  1  0.009624  0.828796  0.781878  1
  O  O39  1  0.772706  0.367170  0.163090  1
  O  O40  1  0.027637  0.540490  0.944944  1
  O  O41  1  0.932031  0.881987  0.064326  1
  O  O42  1  0.219052  0.182642  0.449395  1
  O  O43  1  0.453678  0.618886  0.568573  1
  O  O44  1  0.972363  0.959510  0.444944  1
  O  O45  1  0.542984  0.681834  0.426341  1
  O  O46  1  0.747492  0.524288  0.530754  1
  O  O47  1  0.771021  0.164580  0.337368  1
  O  O48  1  0.554341  0.169959  0.215083  1
  O  O49  1  0.009624  0.328796  0.718122  1
  O  O50  1  0.061312  0.967346  0.300438  1
  O  O51  1  0.972363  0.459510  0.055056  1
  O  O52  1  0.457016  0.818166  0.926341  1
  O  O53  1  0.281844  0.405947  0.070622  1
  O  O54  1  0.445659  0.330041  0.715083  1
  O  O55  1  0.252508  0.475712  0.469246  1
  O  O56  1  0.765959  0.946931  0.195094  1
  O  O57  1  0.067969  0.118013  0.935674  1
  O  O58  1  0.286331  0.206304  0.315561  1
  O  O59  1  0.713669  0.793696  0.684439  1
  O  O60  1  0.367851  0.042810  0.549475  1
  O  O61  1  0.281844  0.905947  0.429378  1
  O  O62  1  0.727713  0.024929  0.820817  1
  O  O63  1  0.554341  0.669959  0.284917  1
  O  O64  1  0.367851  0.542810  0.950525  1
  O  O65  1  0.272287  0.975071  0.179183  1
  O  O66  1  0.780948  0.817358  0.550605  1
  O  O67  1  0.234041  0.053069  0.804906  1
  O  O68  1  0.938688  0.032654  0.699562  1
  O  O69  1  0.984465  0.679280  0.422705  1
  O  O70  1  0.772706  0.867170  0.336910  1
  O  O71  1  0.234041  0.553069  0.695094  1
  O  O72  1  0.990376  0.171204  0.218122  1
  O  O73  1  0.508867  0.030902  0.697152  1
  O  O74  1  0.780948  0.317358  0.949395  1
  O  O75  1  0.453678  0.118886  0.931427  1
  O  O76  1  0.542984  0.181834  0.073659  1
  O  O77  1  0.984465  0.179280  0.077295  1
  O  O78  1  0.015535  0.820720  0.922705  1
  O  O79  1  0.227294  0.132830  0.663090  1
  O  O80  1  0.932031  0.381987  0.435674  1
  O  O81  1  0.457016  0.318166  0.573659  1
  O  O82  1  0.219052  0.682642  0.050605  1
  O  O83  1  0.632149  0.457190  0.049475  1
  O  O84  1  0.274615  0.751079  0.330287  1
  O  O85  1  0.272287  0.475071  0.320817  1
  O  O86  1  0.228979  0.335420  0.837368  1
  O  O87  1  0.718156  0.594053  0.929378  1
  O  O88  1  0.725385  0.748921  0.830287  1
  O  O89  1  0.765959  0.446931  0.304906  1
  O  O90  1  0.491133  0.969098  0.302848  1
  O  O91  1  0.713669  0.293696  0.815561  1
  O  O92  1  0.491133  0.469098  0.197152  1
  O  O93  1  0.274615  0.251079  0.169713  1
  O  O94  1  0.286331  0.706304  0.184439  1
  O  O95  1  0.027637  0.040490  0.555056  1
  O  O96  1  0.015535  0.320720  0.577295  1
  O  O97  1  0.067969  0.618013  0.564326  1
  O  O98  1  0.725385  0.248921  0.669713  1
  O  O99  1  0.990376  0.671204  0.281878  1
  O  O100  1  0.938688  0.532654  0.800438  1
  O  O101  1  0.771021  0.664580  0.162632  1
  O  O102  1  0.546322  0.881114  0.068573  1
  O  O103  1  0.227294  0.632830  0.836910  1
  O  O104  1  0.718156  0.094053  0.570622  1
  O  O105  1  0.727713  0.524929  0.679183  1
  O  O106  1  0.445659  0.830041  0.784917  1
  O  O107  1  0.747492  0.024288  0.969246  1
