# generated using pymatgen
data_SrV2(NiO4)2
_symmetry_space_group_name_H-M   'P 1'
_cell_length_a   8.46037407
_cell_length_b   9.70300760
_cell_length_c   9.70300687
_cell_angle_alpha   79.03752119
_cell_angle_beta   64.15022829
_cell_angle_gamma   64.15023810
_symmetry_Int_Tables_number   1
_chemical_formula_structural   SrV2(NiO4)2
_chemical_formula_sum   'Sr4 V8 Ni8 O32'
_cell_volume   645.10404452
_cell_formula_units_Z   4
loop_
 _symmetry_equiv_pos_site_id
 _symmetry_equiv_pos_as_xyz
  1  'x, y, z'
loop_
 _atom_site_type_symbol
 _atom_site_label
 _atom_site_symmetry_multiplicity
 _atom_site_fract_x
 _atom_site_fract_y
 _atom_site_fract_z
 _atom_site_occupancy
  Sr  Sr0  1  0.004246  -0.000001  0.000015  1
  Sr  Sr1  1  0.254261  0.499984  0.499975  1
  Sr  Sr2  1  0.754261  0.499975  0.499984  1
  Sr  Sr3  1  0.504246  0.000015  -0.000001  1
  V  V4  1  0.359754  0.823801  0.664127  1
  V  V5  1  0.273831  0.835900  0.323819  1
  V  V6  1  0.433558  0.164111  0.676156  1
  V  V7  1  0.847648  0.176150  0.335895  1
  V  V8  1  0.933558  0.676156  0.164111  1
  V  V9  1  0.773831  0.323819  0.835900  1
  V  V10  1  0.859754  0.664127  0.823801  1
  V  V11  1  0.347648  0.335895  0.176150  1
  Ni  Ni12  1  0.562394  0.002013  0.336551  1
  Ni  Ni13  1  0.148944  0.163477  0.502023  1
  Ni  Ni14  1  0.814422  0.836506  0.497978  1
  Ni  Ni15  1  0.900951  0.997988  0.663454  1
  Ni  Ni16  1  0.314422  0.497978  0.836506  1
  Ni  Ni17  1  0.648944  0.502023  0.163477  1
  Ni  Ni18  1  0.062394  0.336551  0.002013  1
  Ni  Ni19  1  0.400951  0.663454  0.997988  1
  O  O20  1  0.160566  0.345917  0.352863  1
  O  O21  1  0.763490  0.147140  0.845879  1
  O  O22  1  0.756492  0.852855  0.154116  1
  O  O23  1  0.859411  0.654103  0.647139  1
  O  O24  1  0.256492  0.154116  0.852855  1
  O  O25  1  0.263490  0.845879  0.147140  1
  O  O26  1  0.660566  0.352863  0.345917  1
  O  O27  1  0.359411  0.647139  0.654103  1
  O  O28  1  0.830276  0.330775  0.988990  1
  O  O29  1  0.069294  0.511029  0.830784  1
  O  O30  1  0.411060  0.488983  0.169244  1
  O  O31  1  0.150066  0.669201  0.011031  1
  O  O32  1  0.911061  0.169244  0.488983  1
  O  O33  1  0.569294  0.830784  0.511029  1
  O  O34  1  0.330276  0.988990  0.330775  1
  O  O35  1  0.650066  0.011031  0.669201  1
  O  O36  1  0.879593  0.519514  0.164319  1
  O  O37  1  0.293928  0.335696  0.019502  1
  O  O38  1  0.649148  0.664291  0.980469  1
  O  O39  1  0.563397  0.480478  0.835734  1
  O  O40  1  0.149148  0.980469  0.664291  1
  O  O41  1  0.793928  0.019502  0.335696  1
  O  O42  1  0.379593  0.164319  0.519514  1
  O  O43  1  0.063397  0.835734  0.480478  1
  O  O44  1  0.536040  0.163378  0.167947  1
  O  O45  1  0.953995  0.332085  0.663357  1
  O  O46  1  0.949459  0.667911  0.336631  1
  O  O47  1  0.867377  0.836658  0.832059  1
  O  O48  1  0.449459  0.336631  0.667911  1
  O  O49  1  0.453995  0.663357  0.332085  1
  O  O50  1  0.036040  0.167947  0.163378  1
  O  O51  1  0.367377  0.832059  0.836658  1
