# generated using pymatgen
data_BaVSi2O7
_symmetry_space_group_name_H-M   'P 1'
_cell_length_a   7.16474386
_cell_length_b   7.16474334
_cell_length_c   7.71389501
_cell_angle_alpha   117.67172794
_cell_angle_beta   117.67172569
_cell_angle_gamma   90.00000046
_symmetry_Int_Tables_number   1
_chemical_formula_structural   BaVSi2O7
_chemical_formula_sum   'Ba2 V2 Si4 O14'
_cell_volume   298.60685933
_cell_formula_units_Z   2
loop_
 _symmetry_equiv_pos_site_id
 _symmetry_equiv_pos_as_xyz
  1  'x, y, z'
loop_
 _atom_site_type_symbol
 _atom_site_label
 _atom_site_symmetry_multiplicity
 _atom_site_fract_x
 _atom_site_fract_y
 _atom_site_fract_z
 _atom_site_occupancy
  Ba  Ba0  1  0.750000  0.250000  0.500000  1
  Ba  Ba1  1  0.250000  0.750000  0.500000  1
  V  V2  1  0.342164  0.342164  0.684326  1
  V  V3  1  0.657836  0.657836  0.315674  1
  Si  Si4  1  0.768453  0.783602  1.000000  1
  Si  Si5  1  0.216398  0.768453  1.000000  1
  Si  Si6  1  0.783602  0.231547  0.000000  1
  Si  Si7  1  0.231547  0.216398  0.000000  1
  O  O8  1  0.820383  0.440145  0.236383  1
  O  O9  1  0.200718  0.200718  0.401436  1
  O  O10  1  0.799282  0.799282  0.598564  1
  O  O11  1  0.584000  0.203761  0.763617  1
  O  O12  1  0.009260  0.270594  1.000000  1
  O  O13  1  0.559855  0.584000  0.763617  1
  O  O14  1  0.990740  0.729406  0.000000  1
  O  O15  1  0.440145  0.416000  0.236383  1
  O  O16  1  0.729406  0.009260  1.000000  1
  O  O17  1  0.416000  0.796239  0.236383  1
  O  O18  1  0.796239  0.820383  0.236383  1
  O  O19  1  0.179617  0.559855  0.763617  1
  O  O20  1  0.270594  0.990740  0.000000  1
  O  O21  1  0.203761  0.179617  0.763617  1
