# generated using pymatgen
data_CsSi2HO5
_symmetry_space_group_name_H-M   'P 1'
_cell_length_a   5.04919696
_cell_length_b   8.98412872
_cell_length_c   13.04073080
_cell_angle_alpha   90.00000000
_cell_angle_beta   89.86387586
_cell_angle_gamma   90.00000000
_symmetry_Int_Tables_number   1
_chemical_formula_structural   CsSi2HO5
_chemical_formula_sum   'Cs4 Si8 H4 O20'
_cell_volume   591.56024691
_cell_formula_units_Z   4
loop_
 _symmetry_equiv_pos_site_id
 _symmetry_equiv_pos_as_xyz
  1  'x, y, z'
loop_
 _atom_site_type_symbol
 _atom_site_label
 _atom_site_symmetry_multiplicity
 _atom_site_fract_x
 _atom_site_fract_y
 _atom_site_fract_z
 _atom_site_occupancy
  Cs  Cs0  1  0.067765  0.750000  0.440433  1
  Cs  Cs1  1  0.566468  0.750000  0.056755  1
  Cs  Cs2  1  0.433532  0.250000  0.943245  1
  Cs  Cs3  1  0.932235  0.250000  0.559567  1
  Si  Si4  1  0.030812  0.071166  0.182090  1
  Si  Si5  1  0.969188  0.571166  0.817910  1
  Si  Si6  1  0.470673  0.571225  0.681718  1
  Si  Si7  1  0.969188  0.928834  0.817910  1
  Si  Si8  1  0.529327  0.428775  0.318282  1
  Si  Si9  1  0.470673  0.928775  0.681718  1
  Si  Si10  1  0.529327  0.071225  0.318282  1
  Si  Si11  1  0.030812  0.428834  0.182090  1
  H  H12  1  0.500000  0.500000  0.500000  1
  H  H13  1  0.500000  0.000000  0.500000  1
  H  H14  1  0.000000  0.500000  0.000000  1
  H  H15  1  0.000000  0.000000  0.000000  1
  O  O16  1  0.397161  0.474838  0.582166  1
  O  O17  1  0.726813  0.033254  0.220716  1
  O  O18  1  0.602839  0.525162  0.417834  1
  O  O19  1  0.547521  0.250000  0.344489  1
  O  O20  1  0.273187  0.966746  0.779284  1
  O  O21  1  0.945954  0.750000  0.843088  1
  O  O22  1  0.226718  0.468885  0.279341  1
  O  O23  1  0.226718  0.031115  0.279341  1
  O  O24  1  0.896133  0.024331  0.918076  1
  O  O25  1  0.726813  0.466746  0.220716  1
  O  O26  1  0.602839  0.974838  0.417834  1
  O  O27  1  0.103867  0.975669  0.081924  1
  O  O28  1  0.773282  0.531115  0.720659  1
  O  O29  1  0.103867  0.524331  0.081924  1
  O  O30  1  0.773282  0.968885  0.720659  1
  O  O31  1  0.054046  0.250000  0.156912  1
  O  O32  1  0.273187  0.533254  0.779284  1
  O  O33  1  0.452479  0.750000  0.655511  1
  O  O34  1  0.397161  0.025162  0.582166  1
  O  O35  1  0.896133  0.475669  0.918076  1
