# generated using pymatgen
data_Ca4P2O9
_symmetry_space_group_name_H-M   'P 1'
_cell_length_a   7.06741392
_cell_length_b   12.08309928
_cell_length_c   9.54428291
_cell_angle_alpha   90.00000000
_cell_angle_beta   90.91987308
_cell_angle_gamma   90.00000000
_symmetry_Int_Tables_number   1
_chemical_formula_structural   Ca4P2O9
_chemical_formula_sum   'Ca16 P8 O36'
_cell_volume   814.94106436
_cell_formula_units_Z   4
loop_
 _symmetry_equiv_pos_site_id
 _symmetry_equiv_pos_as_xyz
  1  'x, y, z'
loop_
 _atom_site_type_symbol
 _atom_site_label
 _atom_site_symmetry_multiplicity
 _atom_site_fract_x
 _atom_site_fract_y
 _atom_site_fract_z
 _atom_site_occupancy
  Ca  Ca0  1  0.970132  0.843070  0.104065  1
  Ca  Ca1  1  0.029868  0.343070  0.895935  1
  Ca  Ca2  1  0.470431  0.797530  0.104719  1
  Ca  Ca3  1  0.529569  0.297530  0.895281  1
  Ca  Ca4  1  0.230148  0.802882  0.470083  1
  Ca  Ca5  1  0.769852  0.302882  0.529917  1
  Ca  Ca6  1  0.733058  0.800171  0.749499  1
  Ca  Ca7  1  0.266942  0.300171  0.250501  1
  Ca  Ca8  1  0.258597  0.604714  0.741697  1
  Ca  Ca9  1  0.741403  0.104714  0.258303  1
  Ca  Ca10  1  0.749885  0.578699  0.988388  1
  Ca  Ca11  1  0.250115  0.078699  0.011612  1
  Ca  Ca12  1  0.012392  0.567278  0.366932  1
  Ca  Ca13  1  0.987608  0.067278  0.633068  1
  Ca  Ca14  1  0.484482  0.552218  0.409617  1
  Ca  Ca15  1  0.515518  0.052218  0.590383  1
  P  P16  1  0.236756  0.892661  0.784549  1
  P  P17  1  0.763244  0.392661  0.215451  1
  P  P18  1  0.716037  0.824881  0.377126  1
  P  P19  1  0.283963  0.324881  0.622874  1
  P  P20  1  0.762405  0.540819  0.682385  1
  P  P21  1  0.237595  0.040819  0.317615  1
  P  P22  1  0.237247  0.577108  0.089524  1
  P  P23  1  0.762753  0.077108  0.910476  1
  O  O24  1  0.268443  0.021157  0.773674  1
  O  O25  1  0.731557  0.521157  0.226326  1
  O  O26  1  0.392427  0.827041  0.707927  1
  O  O27  1  0.607572  0.327041  0.292073  1
  O  O28  1  0.047744  0.865164  0.707322  1
  O  O29  1  0.952256  0.365164  0.292678  1
  O  O30  1  0.236899  0.864320  0.943279  1
  O  O31  1  0.763101  0.364320  0.056721  1
  O  O32  1  0.716737  0.908843  0.251369  1
  O  O33  1  0.283263  0.408843  0.748631  1
  O  O34  1  0.907845  0.761355  0.373149  1
  O  O35  1  0.092155  0.261355  0.626851  1
  O  O36  1  0.544307  0.744963  0.346932  1
  O  O37  1  0.455693  0.244963  0.653068  1
  O  O38  1  0.687445  0.883694  0.517847  1
  O  O39  1  0.312555  0.383694  0.482153  1
  O  O40  1  0.783481  0.503708  0.526887  1
  O  O41  1  0.216519  0.003708  0.473113  1
  O  O42  1  0.923227  0.616540  0.736177  1
  O  O43  1  0.076773  0.116540  0.263823  1
  O  O44  1  0.579348  0.609546  0.695082  1
  O  O45  1  0.420652  0.109546  0.304918  1
  O  O46  1  0.754299  0.433555  0.773968  1
  O  O47  1  0.245701  0.933555  0.226032  1
  O  O48  1  0.413277  0.603704  -0.000606  1
  O  O49  1  0.586723  0.103704  0.000606  1
  O  O50  1  0.167992  0.687228  0.158010  1
  O  O51  1  0.832008  0.187228  0.841990  1
  O  O52  1  0.284818  0.498529  0.214263  1
  O  O53  1  0.715182  0.998529  0.785737  1
  O  O54  1  0.080252  0.527508  0.993433  1
  O  O55  1  0.919748  0.027508  0.006567  1
  O  O56  1  0.736757  0.761462  0.985302  1
  O  O57  1  0.263243  0.261462  0.014698  1
  O  O58  1  0.234005  0.627873  0.509799  1
  O  O59  1  0.765995  0.127873  0.490201  1
