# generated using pymatgen
data_H6CNF
_symmetry_space_group_name_H-M   'P 1'
_cell_length_a   5.23632215
_cell_length_b   5.23632205
_cell_length_c   5.23632145
_cell_angle_alpha   50.73295683
_cell_angle_beta   50.73295782
_cell_angle_gamma   50.73295685
_symmetry_Int_Tables_number   1
_chemical_formula_structural   H6CNF
_chemical_formula_sum   'H6 C1 N1 F1'
_cell_volume   79.33025234
_cell_formula_units_Z   1
loop_
 _symmetry_equiv_pos_site_id
 _symmetry_equiv_pos_as_xyz
  1  'x, y, z'
loop_
 _atom_site_type_symbol
 _atom_site_label
 _atom_site_symmetry_multiplicity
 _atom_site_fract_x
 _atom_site_fract_y
 _atom_site_fract_z
 _atom_site_occupancy
  H  H0  1  0.228529  0.614231  0.228529  1
  H  H1  1  0.614231  0.228529  0.228529  1
  H  H2  1  0.651529  0.651529  0.254397  1
  H  H3  1  0.228529  0.228529  0.614231  1
  H  H4  1  0.254397  0.651529  0.651529  1
  H  H5  1  0.651529  0.254397  0.651529  1
  C  C6  1  0.491521  0.491521  0.491521  1
  N  N7  1  0.382829  0.382829  0.382829  1
  F  F8  1  0.998371  0.998371  0.998371  1
