# generated using pymatgen
data_H6C3SN3O2F3
_symmetry_space_group_name_H-M   'P 1'
_cell_length_a   8.02926855
_cell_length_b   8.99585787
_cell_length_c   12.23740209
_cell_angle_alpha   90.00000000
_cell_angle_beta   90.00000000
_cell_angle_gamma   90.00000000
_symmetry_Int_Tables_number   1
_chemical_formula_structural   H6C3SN3O2F3
_chemical_formula_sum   'H24 C12 S4 N12 O8 F12'
_cell_volume   883.90949474
_cell_formula_units_Z   4
loop_
 _symmetry_equiv_pos_site_id
 _symmetry_equiv_pos_as_xyz
  1  'x, y, z'
loop_
 _atom_site_type_symbol
 _atom_site_label
 _atom_site_symmetry_multiplicity
 _atom_site_fract_x
 _atom_site_fract_y
 _atom_site_fract_z
 _atom_site_occupancy
  H  H0  1  0.734266  0.883090  0.235921  1
  H  H1  1  0.482792  0.095230  0.735493  1
  H  H2  1  0.234266  0.116910  0.264079  1
  H  H3  1  0.017208  0.095230  0.235493  1
  H  H4  1  0.765734  0.616910  0.735921  1
  H  H5  1  0.265734  0.383090  0.764079  1
  H  H6  1  0.169321  0.016356  0.145595  1
  H  H7  1  0.517208  0.904770  0.264507  1
  H  H8  1  0.169321  0.483644  0.145595  1
  H  H9  1  0.830679  0.516356  0.854405  1
  H  H10  1  0.330679  0.483644  0.645595  1
  H  H11  1  0.830679  0.983644  0.854405  1
  H  H12  1  0.982792  0.595230  0.764507  1
  H  H13  1  0.669321  0.983644  0.354405  1
  H  H14  1  0.330679  0.016356  0.645595  1
  H  H15  1  0.517208  0.595230  0.264507  1
  H  H16  1  0.234266  0.383090  0.264079  1
  H  H17  1  0.765734  0.883090  0.735921  1
  H  H18  1  0.265734  0.116910  0.764079  1
  H  H19  1  0.982792  0.904770  0.764507  1
  H  H20  1  0.734266  0.616910  0.235921  1
  H  H21  1  0.669321  0.516356  0.354405  1
  H  H22  1  0.017208  0.404770  0.235493  1
  H  H23  1  0.482792  0.404770  0.735493  1
  C  C24  1  0.640910  0.889210  0.301253  1
  C  C25  1  0.640910  0.610790  0.301253  1
  C  C26  1  0.620001  0.250000  0.054709  1
  C  C27  1  0.359090  0.110790  0.698747  1
  C  C28  1  0.359090  0.389210  0.698747  1
  C  C29  1  0.859090  0.610790  0.801253  1
  C  C30  1  0.859090  0.889210  0.801253  1
  C  C31  1  0.140910  0.389210  0.198747  1
  C  C32  1  0.379999  0.750000  0.945291  1
  C  C33  1  0.879999  0.250000  0.554709  1
  C  C34  1  0.140910  0.110790  0.198747  1
  C  C35  1  0.120001  0.750000  0.445291  1
  S  S36  1  0.604699  0.750000  0.492662  1
  S  S37  1  0.395301  0.250000  0.507338  1
  S  S38  1  0.895301  0.750000  0.992662  1
  S  S39  1  0.104699  0.250000  0.007338  1
  N  N40  1  0.617907  0.250000  0.484967  1
  N  N41  1  0.302958  0.750000  0.428458  1
  N  N42  1  0.697042  0.250000  0.571542  1
  N  N43  1  0.382093  0.750000  0.515033  1
  N  N44  1  0.197042  0.750000  0.928458  1
  N  N45  1  0.850445  0.750000  0.864000  1
  N  N46  1  0.649555  0.750000  0.364000  1
  N  N47  1  0.802958  0.250000  0.071542  1
  N  N48  1  0.350445  0.250000  0.636000  1
  N  N49  1  0.149555  0.250000  0.136000  1
  N  N50  1  0.117907  0.750000  0.015033  1
  N  N51  1  0.882093  0.250000  0.984967  1
  O  O52  1  0.652261  0.610472  0.541166  1
  O  O53  1  0.347739  0.110472  0.458834  1
  O  O54  1  0.347739  0.389528  0.458834  1
  O  O55  1  0.152261  0.110472  0.958834  1
  O  O56  1  0.847739  0.610472  0.041166  1
  O  O57  1  0.652261  0.889528  0.541166  1
  O  O58  1  0.847739  0.889528  0.041166  1
  O  O59  1  0.152261  0.389528  0.958834  1
  F  F60  1  0.058659  0.872289  0.395277  1
  F  F61  1  0.558659  0.127711  0.104723  1
  F  F62  1  0.441341  0.627711  0.895277  1
  F  F63  1  0.058659  0.627711  0.395277  1
  F  F64  1  0.930855  0.250000  0.449635  1
  F  F65  1  0.941341  0.127711  0.604723  1
  F  F66  1  0.941341  0.372289  0.604723  1
  F  F67  1  0.569145  0.250000  0.949635  1
  F  F68  1  0.441341  0.872289  0.895277  1
  F  F69  1  0.069145  0.750000  0.550365  1
  F  F70  1  0.430855  0.750000  0.050365  1
  F  F71  1  0.558659  0.372289  0.104723  1
