# generated using pymatgen
data_ZnS
_symmetry_space_group_name_H-M   'P 1'
_cell_length_a   22.15738050
_cell_length_b   22.15738044
_cell_length_c   22.15738086
_cell_angle_alpha   9.99203065
_cell_angle_beta   9.99203147
_cell_angle_gamma   9.99203139
_symmetry_Int_Tables_number   1
_chemical_formula_structural   ZnS
_chemical_formula_sum   'Zn7 S7'
_cell_volume   284.34148341
_cell_formula_units_Z   7
loop_
 _symmetry_equiv_pos_site_id
 _symmetry_equiv_pos_as_xyz
  1  'x, y, z'
loop_
 _atom_site_type_symbol
 _atom_site_label
 _atom_site_symmetry_multiplicity
 _atom_site_fract_x
 _atom_site_fract_y
 _atom_site_fract_z
 _atom_site_occupancy
  Zn  Zn0  1  0.000018  0.000018  0.000018  1
  Zn  Zn1  1  0.714283  0.714283  0.714283  1
  Zn  Zn2  1  0.428565  0.428565  0.428565  1
  Zn  Zn3  1  0.809534  0.809534  0.809534  1
  Zn  Zn4  1  0.523827  0.523827  0.523827  1
  Zn  Zn5  1  0.904778  0.904778  0.904778  1
  Zn  Zn6  1  0.285719  0.285719  0.285719  1
  S  S7  1  0.035704  0.035704  0.035704  1
  S  S8  1  0.749962  0.749962  0.749962  1
  S  S9  1  0.464277  0.464277  0.464277  1
  S  S10  1  0.845231  0.845231  0.845231  1
  S  S11  1  0.559545  0.559545  0.559545  1
  S  S12  1  0.940443  0.940443  0.940443  1
  S  S13  1  0.321447  0.321447  0.321447  1
