# generated using pymatgen
data_K5Yb(MoO4)4
_symmetry_space_group_name_H-M   'P 1'
_cell_length_a   9.81945654
_cell_length_b   9.81945640
_cell_length_c   10.79230382
_cell_angle_alpha   70.65228319
_cell_angle_beta   70.65228349
_cell_angle_gamma   77.67028439
_symmetry_Int_Tables_number   1
_chemical_formula_structural   K5Yb(MoO4)4
_chemical_formula_sum   'K10 Yb2 Mo8 O32'
_cell_volume   920.07909245
_cell_formula_units_Z   2
loop_
 _symmetry_equiv_pos_site_id
 _symmetry_equiv_pos_as_xyz
  1  'x, y, z'
loop_
 _atom_site_type_symbol
 _atom_site_label
 _atom_site_symmetry_multiplicity
 _atom_site_fract_x
 _atom_site_fract_y
 _atom_site_fract_z
 _atom_site_occupancy
  Yb  Yb0  1  0.885452  0.114548  0.250000  1
  Yb  Yb1  1  0.114548  0.885452  0.750000  1
  K  K2  1  0.330057  0.077587  0.935892  1
  K  K3  1  0.669943  0.922413  0.064108  1
  K  K4  1  0.077587  0.330057  0.435892  1
  K  K5  1  0.387603  0.174155  0.563530  1
  K  K6  1  0.922413  0.669943  0.564108  1
  K  K7  1  0.612397  0.825845  0.436470  1
  K  K8  1  0.825845  0.612397  0.936470  1
  K  K9  1  0.612624  0.387376  0.750000  1
  K  K10  1  0.387376  0.612624  0.250000  1
  K  K11  1  0.174155  0.387603  0.063530  1
  Mo  Mo12  1  0.772541  0.043749  0.637927  1
  Mo  Mo13  1  0.265044  0.529342  0.655230  1
  Mo  Mo14  1  0.470658  0.734956  0.844770  1
  Mo  Mo15  1  0.529342  0.265044  0.155230  1
  Mo  Mo16  1  0.956251  0.227459  0.862073  1
  Mo  Mo17  1  0.043749  0.772541  0.137927  1
  Mo  Mo18  1  0.734956  0.470658  0.344770  1
  Mo  Mo19  1  0.227459  0.956251  0.362073  1
  O  O20  1  0.070167  0.584981  0.232350  1
  O  O21  1  0.844320  0.210671  0.592430  1
  O  O22  1  0.574249  0.381350  0.428249  1
  O  O23  1  0.122997  0.649907  0.736304  1
  O  O24  1  0.929833  0.415019  0.767650  1
  O  O25  1  0.415019  0.929833  0.267650  1
  O  O26  1  0.997883  0.213772  0.017510  1
  O  O27  1  0.649907  0.122997  0.236304  1
  O  O28  1  0.350093  0.877003  0.763696  1
  O  O29  1  0.618650  0.425751  0.071751  1
  O  O30  1  0.476428  0.215059  0.032264  1
  O  O31  1  0.213772  0.997883  0.517510  1
  O  O32  1  0.786228  0.002117  0.482490  1
  O  O33  1  0.210671  0.844320  0.092430  1
  O  O34  1  0.899922  0.877826  0.235632  1
  O  O35  1  0.215059  0.476428  0.532264  1
  O  O36  1  0.155680  0.789329  0.407570  1
  O  O37  1  0.002117  0.786228  0.982490  1
  O  O38  1  0.584981  0.070167  0.732350  1
  O  O39  1  0.877826  0.899922  0.735632  1
  O  O40  1  0.694444  0.634956  0.219149  1
  O  O41  1  0.425751  0.618650  0.571751  1
  O  O42  1  0.784941  0.523572  0.467736  1
  O  O43  1  0.365044  0.305556  0.280851  1
  O  O44  1  0.523572  0.784941  0.967736  1
  O  O45  1  0.789329  0.155680  0.907570  1
  O  O46  1  0.634956  0.694444  0.719149  1
  O  O47  1  0.122174  0.100078  0.264368  1
  O  O48  1  0.305556  0.365044  0.780851  1
  O  O49  1  0.100078  0.122174  0.764368  1
  O  O50  1  0.381350  0.574249  0.928249  1
  O  O51  1  0.877003  0.350093  0.263696  1
