# generated using pymatgen
data_PH16C6S2NO4
_symmetry_space_group_name_H-M   'P 1'
_cell_length_a   9.00628694
_cell_length_b   9.16620306
_cell_length_c   15.83379438
_cell_angle_alpha   90.00000000
_cell_angle_beta   103.43943013
_cell_angle_gamma   90.00000000
_symmetry_Int_Tables_number   1
_chemical_formula_structural   PH16C6S2NO4
_chemical_formula_sum   'P4 H64 C24 S8 N4 O16'
_cell_volume   1271.34007333
_cell_formula_units_Z   4
loop_
 _symmetry_equiv_pos_site_id
 _symmetry_equiv_pos_as_xyz
  1  'x, y, z'
loop_
 _atom_site_type_symbol
 _atom_site_label
 _atom_site_symmetry_multiplicity
 _atom_site_fract_x
 _atom_site_fract_y
 _atom_site_fract_z
 _atom_site_occupancy
  P  P0  1  0.604252  0.385766  0.840175  1
  P  P1  1  0.395748  0.614234  0.159825  1
  P  P2  1  0.395748  0.885766  0.659825  1
  P  P3  1  0.604252  0.114234  0.340175  1
  H  H4  1  0.151994  0.393538  0.167570  1
  H  H5  1  0.047540  0.961965  0.606691  1
  H  H6  1  0.188337  0.110008  0.047552  1
  H  H7  1  0.541336  0.262609  0.965569  1
  H  H8  1  0.416551  0.093061  0.421091  1
  H  H9  1  0.719719  0.664368  0.606408  1
  H  H10  1  0.719719  0.835632  0.106408  1
  H  H11  1  0.843238  0.436272  0.715413  1
  H  H12  1  0.458664  0.762609  0.534431  1
  H  H13  1  0.986629  0.200391  0.255883  1
  H  H14  1  0.938022  0.868310  0.443606  1
  H  H15  1  0.848006  0.893538  0.332430  1
  H  H16  1  0.893843  0.191203  0.140995  1
  H  H17  1  0.106157  0.808797  0.859005  1
  H  H18  1  0.344459  0.096324  0.573673  1
  H  H19  1  0.757502  0.050818  0.486511  1
  H  H20  1  0.416551  0.406939  0.921091  1
  H  H21  1  0.458664  0.737391  0.034431  1
  H  H22  1  0.811663  0.889992  0.952448  1
  H  H23  1  0.156762  0.936272  0.784587  1
  H  H24  1  0.287917  0.246715  0.295364  1
  H  H25  1  0.242498  0.949182  0.513489  1
  H  H26  1  0.013371  0.700391  0.244117  1
  H  H27  1  0.712083  0.753285  0.704636  1
  H  H28  1  0.952460  0.038035  0.393309  1
  H  H29  1  0.952460  0.461965  0.893309  1
  H  H30  1  0.843238  0.063728  0.215413  1
  H  H31  1  0.013371  0.799609  0.744117  1
  H  H32  1  0.986629  0.299609  0.755883  1
  H  H33  1  0.625592  0.963482  0.903037  1
  H  H34  1  0.287917  0.253285  0.795364  1
  H  H35  1  0.655541  0.903676  0.426327  1
  H  H36  1  0.587954  0.604933  0.667140  1
  H  H37  1  0.757502  0.449182  0.986511  1
  H  H38  1  0.848006  0.606462  0.832430  1
  H  H39  1  0.344459  0.403676  0.073673  1
  H  H40  1  0.750166  0.593367  0.335215  1
  H  H41  1  0.047540  0.538035  0.106691  1
  H  H42  1  0.625592  0.536518  0.403037  1
  H  H43  1  0.541336  0.237391  0.465569  1
  H  H44  1  0.106157  0.691203  0.359005  1
  H  H45  1  0.188337  0.389992  0.547552  1
  H  H46  1  0.249834  0.406633  0.664785  1
  H  H47  1  0.938022  0.631690  0.943606  1
  H  H48  1  0.811663  0.610008  0.452448  1
  H  H49  1  0.587954  0.895067  0.167140  1
  H  H50  1  0.655541  0.596324  0.926327  1
  H  H51  1  0.374408  0.036518  0.096963  1
  H  H52  1  0.712083  0.746715  0.204636  1
  H  H53  1  0.412046  0.104933  0.832860  1
  H  H54  1  0.280281  0.335632  0.393592  1
  H  H55  1  0.249834  0.093367  0.164785  1
  H  H56  1  0.893843  0.308797  0.640995  1
  H  H57  1  0.583449  0.906939  0.578909  1
  H  H58  1  0.061978  0.131690  0.556394  1
  H  H59  1  0.151994  0.106462  0.667570  1
  H  H60  1  0.583449  0.593061  0.078909  1
  H  H61  1  0.374408  0.463482  0.596963  1
  H  H62  1  0.242498  0.550818  0.013489  1
  H  H63  1  0.280281  0.164368  0.893592  1
  H  H64  1  0.750166  0.906633  0.835215  1
  H  H65  1  0.061978  0.368310  0.056394  1
  H  H66  1  0.156762  0.563728  0.284587  1
  H  H67  1  0.412046  0.395067  0.332860  1
  C  C68  1  0.524649  0.809320  0.595638  1
  C  C69  1  0.255677  0.453276  0.602091  1
  C  C70  1  0.475351  0.190680  0.404362  1
  C  C71  1  0.255677  0.046724  0.102091  1
  C  C72  1  0.874552  0.553040  0.896356  1
  C  C73  1  0.524649  0.690680  0.095638  1
  C  C74  1  0.744323  0.546724  0.397909  1
  C  C75  1  0.744323  0.953276  0.897909  1
  C  C76  1  0.881259  0.175318  0.207675  1
  C  C77  1  0.118741  0.675318  0.292325  1
  C  C78  1  0.118741  0.824682  0.792325  1
  C  C79  1  0.730014  0.997940  0.422578  1
  C  C80  1  0.269986  0.497940  0.077422  1
  C  C81  1  0.269986  0.002060  0.577422  1
  C  C82  1  0.125448  0.446960  0.103644  1
  C  C83  1  0.357973  0.201691  0.853832  1
  C  C84  1  0.357973  0.298309  0.353832  1
  C  C85  1  0.642027  0.798309  0.146168  1
  C  C86  1  0.475351  0.309320  0.904362  1
  C  C87  1  0.125448  0.053040  0.603644  1
  C  C88  1  0.881259  0.324682  0.707675  1
  C  C89  1  0.730014  0.502060  0.922578  1
  C  C90  1  0.874552  0.946960  0.396356  1
  C  C91  1  0.642027  0.701691  0.646168  1
  S  S92  1  0.737264  0.298601  0.221879  1
  S  S93  1  0.262736  0.701399  0.778121  1
  S  S94  1  0.830256  0.129063  0.908152  1
  S  S95  1  0.169744  0.629063  0.591848  1
  S  S96  1  0.830256  0.370937  0.408152  1
  S  S97  1  0.262736  0.798601  0.278121  1
  S  S98  1  0.737264  0.201399  0.721879  1
  S  S99  1  0.169744  0.870937  0.091848  1
  N  N100  1  0.720067  0.267742  0.326636  1
  N  N101  1  0.279933  0.767742  0.173364  1
  N  N102  1  0.279933  0.732258  0.673364  1
  N  N103  1  0.720067  0.232258  0.826636  1
  O  O104  1  0.791953  0.053650  0.718697  1
  O  O105  1  0.791953  0.446350  0.218697  1
  O  O106  1  0.809530  0.193174  0.988043  1
  O  O107  1  0.594187  0.257033  0.164686  1
  O  O108  1  0.983402  0.118295  0.894709  1
  O  O109  1  0.208047  0.946350  0.281303  1
  O  O110  1  0.405813  0.742967  0.835314  1
  O  O111  1  0.016598  0.881705  0.105291  1
  O  O112  1  0.190470  0.806826  0.011957  1
  O  O113  1  0.208047  0.553650  0.781303  1
  O  O114  1  0.016598  0.618295  0.605291  1
  O  O115  1  0.594187  0.242967  0.664686  1
  O  O116  1  0.190470  0.693174  0.511957  1
  O  O117  1  0.983402  0.381705  0.394709  1
  O  O118  1  0.405813  0.757033  0.335314  1
  O  O119  1  0.809530  0.306826  0.488043  1
