# generated using pymatgen
data_SiO2
_symmetry_space_group_name_H-M   'P 1'
_cell_length_a   9.00605055
_cell_length_b   9.25887442
_cell_length_c   9.25887349
_cell_angle_alpha   110.94477464
_cell_angle_beta   98.73319473
_cell_angle_gamma   98.73319998
_symmetry_Int_Tables_number   1
_chemical_formula_structural   SiO2
_chemical_formula_sum   'Si12 O24'
_cell_volume   694.69394566
_cell_formula_units_Z   12
loop_
 _symmetry_equiv_pos_site_id
 _symmetry_equiv_pos_as_xyz
  1  'x, y, z'
loop_
 _atom_site_type_symbol
 _atom_site_label
 _atom_site_symmetry_multiplicity
 _atom_site_fract_x
 _atom_site_fract_y
 _atom_site_fract_z
 _atom_site_occupancy
  Si  Si0  1  0.307685  0.201308  0.000280  1
  Si  Si1  1  0.307685  0.000280  0.201308  1
  Si  Si2  1  0.330341  0.908944  0.703444  1
  Si  Si3  1  0.104204  0.404119  0.889283  1
  Si  Si4  1  0.670856  0.098804  0.300000  1
  Si  Si5  1  0.893079  0.596101  0.104745  1
  Si  Si6  1  0.685289  0.800016  0.005405  1
  Si  Si7  1  0.104204  0.889283  0.404119  1
  Si  Si8  1  0.685289  0.005405  0.800016  1
  Si  Si9  1  0.330341  0.703444  0.908944  1
  Si  Si10  1  0.893079  0.104745  0.596101  1
  Si  Si11  1  0.670856  0.300000  0.098804  1
  O  O12  1  0.805463  0.687743  0.009447  1
  O  O13  1  0.718021  0.245696  0.245696  1
  O  O14  1  0.993990  0.993317  0.496439  1
  O  O15  1  0.304688  0.765451  0.765451  1
  O  O16  1  0.283976  0.064643  0.823179  1
  O  O17  1  0.002932  0.271475  0.721724  1
  O  O18  1  0.993990  0.496439  0.993317  1
  O  O19  1  0.256069  0.120414  0.120414  1
  O  O20  1  0.712505  0.181029  0.939647  1
  O  O21  1  0.805463  0.009447  0.687743  1
  O  O22  1  0.487282  0.296831  0.066902  1
  O  O23  1  0.283976  0.823179  0.064643  1
  O  O24  1  0.712505  0.939647  0.181029  1
  O  O25  1  0.199407  0.991891  0.323464  1
  O  O26  1  0.509777  0.953497  0.693885  1
  O  O27  1  0.509777  0.693885  0.953497  1
  O  O28  1  0.767187  0.144321  0.478267  1
  O  O29  1  0.002932  0.721724  0.271475  1
  O  O30  1  0.715728  0.876796  0.876796  1
  O  O31  1  0.199407  0.323464  0.991891  1
  O  O32  1  0.767187  0.478267  0.144321  1
  O  O33  1  0.223440  0.849662  0.527499  1
  O  O34  1  0.223440  0.527499  0.849662  1
  O  O35  1  0.487282  0.066902  0.296831  1
