# generated using pymatgen
data_LiTm2Cl5
_symmetry_space_group_name_H-M   'P 1'
_cell_length_a   6.33293209
_cell_length_b   7.27911269
_cell_length_c   8.24683631
_cell_angle_alpha   91.79749559
_cell_angle_beta   112.57927390
_cell_angle_gamma   90.00000200
_symmetry_Int_Tables_number   1
_chemical_formula_structural   LiTm2Cl5
_chemical_formula_sum   'Li2 Tm4 Cl10'
_cell_volume   350.82123496
_cell_formula_units_Z   2
loop_
 _symmetry_equiv_pos_site_id
 _symmetry_equiv_pos_as_xyz
  1  'x, y, z'
loop_
 _atom_site_type_symbol
 _atom_site_label
 _atom_site_symmetry_multiplicity
 _atom_site_fract_x
 _atom_site_fract_y
 _atom_site_fract_z
 _atom_site_occupancy
  Li  Li0  1  0.000000  0.000000  0.500000  1
  Li  Li1  1  0.500000  0.500000  0.500000  1
  Tm  Tm2  1  0.735507  0.935352  0.852461  1
  Tm  Tm3  1  0.264493  0.064648  0.147539  1
  Tm  Tm4  1  0.883045  0.564648  0.147539  1
  Tm  Tm5  1  0.116955  0.435352  0.852461  1
  Cl  Cl6  1  0.881483  0.250000  1.000000  1
  Cl  Cl7  1  0.733440  0.166643  0.592337  1
  Cl  Cl8  1  0.492206  0.397968  0.177788  1
  Cl  Cl9  1  0.266560  0.833357  0.407663  1
  Cl  Cl10  1  0.507794  0.602032  0.822212  1
  Cl  Cl11  1  0.118517  0.750000  0.000000  1
  Cl  Cl12  1  0.858896  0.666643  0.592337  1
  Cl  Cl13  1  0.685583  0.897968  0.177788  1
  Cl  Cl14  1  0.141104  0.333357  0.407663  1
  Cl  Cl15  1  0.314417  0.102032  0.822212  1
