# generated using pymatgen
data_GaCl3
_symmetry_space_group_name_H-M   'P 1'
_cell_length_a   7.17430213
_cell_length_b   7.11695237
_cell_length_c   7.29194302
_cell_angle_alpha   116.13160260
_cell_angle_beta   91.93479479
_cell_angle_gamma   116.90915958
_symmetry_Int_Tables_number   1
_chemical_formula_structural   GaCl3
_chemical_formula_sum   'Ga2 Cl6'
_cell_volume   285.15762024
_cell_formula_units_Z   2
loop_
 _symmetry_equiv_pos_site_id
 _symmetry_equiv_pos_as_xyz
  1  'x, y, z'
loop_
 _atom_site_type_symbol
 _atom_site_label
 _atom_site_symmetry_multiplicity
 _atom_site_fract_x
 _atom_site_fract_y
 _atom_site_fract_z
 _atom_site_occupancy
  Ga  Ga0  1  0.151911  0.068954  0.220188  1
  Ga  Ga1  1  0.848089  0.931046  0.779812  1
  Cl  Cl2  1  0.828396  0.654903  0.482602  1
  Cl  Cl3  1  0.214721  0.210978  0.980817  1
  Cl  Cl4  1  0.319025  0.881480  0.196557  1
  Cl  Cl5  1  0.171604  0.345097  0.517398  1
  Cl  Cl6  1  0.785279  0.789022  0.019183  1
  Cl  Cl7  1  0.680975  0.118520  0.803443  1
