# generated using pymatgen
data_Sr2LaGaCu2O7
_symmetry_space_group_name_H-M   'P 1'
_cell_length_a   5.49388042
_cell_length_b   5.62792911
_cell_length_c   12.30570703
_cell_angle_alpha   103.22088416
_cell_angle_beta   102.89894367
_cell_angle_gamma   89.99745225
_symmetry_Int_Tables_number   1
_chemical_formula_structural   Sr2LaGaCu2O7
_chemical_formula_sum   'Sr4 La2 Ga2 Cu4 O14'
_cell_volume   360.52888681
_cell_formula_units_Z   2
loop_
 _symmetry_equiv_pos_site_id
 _symmetry_equiv_pos_as_xyz
  1  'x, y, z'
loop_
 _atom_site_type_symbol
 _atom_site_label
 _atom_site_symmetry_multiplicity
 _atom_site_fract_x
 _atom_site_fract_y
 _atom_site_fract_z
 _atom_site_occupancy
  La  La0  1  0.502074  0.500039  1.000049  1
  La  La1  1  0.002075  0.999970  1.000023  1
  Sr  Sr2  1  0.346037  0.366794  0.693078  1
  Sr  Sr3  1  0.652984  0.633169  0.306855  1
  Sr  Sr4  1  0.846083  0.826241  0.693054  1
  Sr  Sr5  1  0.152937  0.173588  0.306842  1
  Cu  Cu6  1  0.925555  0.421330  0.845531  1
  Cu  Cu7  1  0.080410  0.578948  0.155017  1
  Cu  Cu8  1  0.425409  0.924101  0.845282  1
  Cu  Cu9  1  0.580182  0.075947  0.154648  1
  Ga  Ga10  1  0.720572  0.179701  0.499906  1
  Ga  Ga11  1  0.220582  0.820263  0.499966  1
  O  O12  1  0.874694  0.874543  0.499907  1
  O  O13  1  0.374705  0.125310  0.499931  1
  O  O14  1  0.182267  0.179460  0.859934  1
  O  O15  1  0.322464  0.820680  0.140150  1
  O  O16  1  0.682464  0.180656  0.859908  1
  O  O17  1  0.822552  0.819459  0.140135  1
  O  O18  1  0.685018  0.681247  0.866193  1
  O  O19  1  0.818865  0.318639  0.133836  1
  O  O20  1  0.184813  0.684604  0.866192  1
  O  O21  1  0.318787  0.315300  0.133849  1
  O  O22  1  0.357974  0.770493  0.643780  1
  O  O23  1  0.714249  0.229534  0.356139  1
  O  O24  1  0.858024  0.373323  0.643661  1
  O  O25  1  0.214224  0.626662  0.356134  1
