# generated using pymatgen
data_ScP(H2O3)2
_symmetry_space_group_name_H-M   'P 1'
_cell_length_a   5.47845235
_cell_length_b   9.00813455
_cell_length_c   10.33755665
_cell_angle_alpha   90.00000000
_cell_angle_beta   90.00000000
_cell_angle_gamma   91.63360296
_symmetry_Int_Tables_number   1
_chemical_formula_structural   ScP(H2O3)2
_chemical_formula_sum   'Sc4 P4 H16 O24'
_cell_volume   509.95764668
_cell_formula_units_Z   4
loop_
 _symmetry_equiv_pos_site_id
 _symmetry_equiv_pos_as_xyz
  1  'x, y, z'
loop_
 _atom_site_type_symbol
 _atom_site_label
 _atom_site_symmetry_multiplicity
 _atom_site_fract_x
 _atom_site_fract_y
 _atom_site_fract_z
 _atom_site_occupancy
  Sc  Sc0  1  0.588730  0.699664  0.669482  1
  Sc  Sc1  1  0.911270  0.800336  0.169482  1
  Sc  Sc2  1  0.411270  0.300336  0.330518  1
  Sc  Sc3  1  0.088730  0.199664  0.830518  1
  P  P4  1  0.093093  0.818270  0.849988  1
  P  P5  1  0.406907  0.681730  0.349988  1
  P  P6  1  0.906907  0.181730  0.150012  1
  P  P7  1  0.593093  0.318270  0.650012  1
  O  O8  1  0.835608  0.751027  0.818244  1
  O  O9  1  0.664392  0.748973  0.318244  1
  O  O10  1  0.164392  0.248973  0.181756  1
  O  O11  1  0.335608  0.251027  0.681756  1
  O  O12  1  0.124810  0.975407  0.790087  1
  O  O13  1  0.375190  0.524593  0.290087  1
  O  O14  1  0.875190  0.024593  0.209913  1
  O  O15  1  0.624810  0.475407  0.709913  1
  O  O16  1  0.288140  0.715561  0.791818  1
  O  O17  1  0.211860  0.784439  0.291818  1
  O  O18  1  0.711860  0.284439  0.208182  1
  O  O19  1  0.788140  0.215561  0.708182  1
  O  O20  1  0.121892  0.824922  0.999540  1
  O  O21  1  0.378108  0.675078  0.499540  1
  O  O22  1  0.878108  0.175078  0.000460  1
  O  O23  1  0.621892  0.324922  0.500460  1
  O  O24  1  0.893090  0.714198  0.540189  1
  O  O25  1  0.606910  0.785802  0.040189  1
  O  O26  1  0.106910  0.285802  0.459811  1
  O  O27  1  0.393090  0.214198  0.959811  1
  H  H28  1  0.836916  0.730776  0.449364  1
  H  H29  1  0.663084  0.769224  0.949364  1
  H  H30  1  0.163084  0.269224  0.550636  1
  H  H31  1  0.336916  0.230776  0.050636  1
  H  H32  1  0.071772  0.697017  0.537850  1
  H  H33  1  0.428228  0.802983  0.037850  1
  H  H34  1  0.928228  0.302983  0.462150  1
  H  H35  1  0.571772  0.197017  0.962150  1
  O  O36  1  0.554295  0.939813  0.646319  1
  O  O37  1  0.945705  0.560187  0.146319  1
  O  O38  1  0.445705  0.060187  0.353681  1
  O  O39  1  0.054295  0.439813  0.853681  1
  H  H40  1  0.677785  0.019412  0.663055  1
  H  H41  1  0.822215  0.480588  0.163055  1
  H  H42  1  0.322215  0.980588  0.336945  1
  H  H43  1  0.177785  0.519412  0.836945  1
  H  H44  1  0.399390  0.976102  0.681966  1
  H  H45  1  0.100610  0.523898  0.181966  1
  H  H46  1  0.600610  0.023898  0.318034  1
  H  H47  1  0.899390  0.476102  0.818034  1
