# generated using pymatgen
data_K2Ni2(MoO4)3
_symmetry_space_group_name_H-M   'P 1'
_cell_length_a   7.05743941
_cell_length_b   9.10712042
_cell_length_c   19.14674673
_cell_angle_alpha   90.00000000
_cell_angle_beta   92.45831985
_cell_angle_gamma   90.00000000
_symmetry_Int_Tables_number   1
_chemical_formula_structural   K2Ni2(MoO4)3
_chemical_formula_sum   'K8 Ni8 Mo12 O48'
_cell_volume   1229.48535441
_cell_formula_units_Z   4
loop_
 _symmetry_equiv_pos_site_id
 _symmetry_equiv_pos_as_xyz
  1  'x, y, z'
loop_
 _atom_site_type_symbol
 _atom_site_label
 _atom_site_symmetry_multiplicity
 _atom_site_fract_x
 _atom_site_fract_y
 _atom_site_fract_z
 _atom_site_occupancy
  K  K0  1  0.269789  0.489788  0.772408  1
  K  K1  1  0.781721  0.955524  0.593629  1
  K  K2  1  0.769789  0.010212  0.272408  1
  K  K3  1  0.218279  0.044476  0.406371  1
  K  K4  1  0.730211  0.510212  0.227592  1
  K  K5  1  0.281721  0.544476  0.093629  1
  K  K6  1  0.718279  0.455524  0.906371  1
  K  K7  1  0.230211  0.989788  0.727592  1
  Ni  Ni8  1  0.088188  0.651597  0.364656  1
  Ni  Ni9  1  0.862973  0.073897  0.941671  1
  Ni  Ni10  1  0.411812  0.151597  0.135344  1
  Ni  Ni11  1  0.588188  0.848403  0.864656  1
  Ni  Ni12  1  0.911812  0.348403  0.635344  1
  Ni  Ni13  1  0.137027  0.926103  0.058329  1
  Ni  Ni14  1  0.362973  0.426103  0.441671  1
  Ni  Ni15  1  0.637027  0.573897  0.558329  1
  Mo  Mo16  1  0.902403  0.230972  0.098191  1
  Mo  Mo17  1  0.724135  0.157565  0.771475  1
  Mo  Mo18  1  0.872318  0.337456  0.460049  1
  Mo  Mo19  1  0.372318  0.162544  0.960049  1
  Mo  Mo20  1  0.597597  0.730972  0.401809  1
  Mo  Mo21  1  0.224135  0.342435  0.271475  1
  Mo  Mo22  1  0.402403  0.269028  0.598191  1
  Mo  Mo23  1  0.127682  0.662544  0.539951  1
  Mo  Mo24  1  0.627682  0.837456  0.039951  1
  Mo  Mo25  1  0.775865  0.657565  0.728525  1
  Mo  Mo26  1  0.275865  0.842435  0.228525  1
  Mo  Mo27  1  0.097597  0.769028  0.901809  1
  O  O28  1  0.618841  0.380006  0.612250  1
  O  O29  1  0.606410  0.982230  0.778974  1
  O  O30  1  0.862793  0.193383  0.851416  1
  O  O31  1  0.929345  0.543164  0.566068  1
  O  O32  1  0.703103  0.164978  0.145491  1
  O  O33  1  0.375306  0.337405  0.196002  1
  O  O34  1  0.651435  0.443669  0.462571  1
  O  O35  1  0.345656  0.297990  0.896132  1
  O  O36  1  0.844848  0.251422  0.005717  1
  O  O37  1  0.381159  0.619994  0.387750  1
  O  O38  1  0.070655  0.456836  0.433932  1
  O  O39  1  0.570655  0.043164  0.933932  1
  O  O40  1  0.455746  0.090415  0.627688  1
  O  O41  1  0.348565  0.556331  0.537429  1
  O  O42  1  0.137207  0.806617  0.148584  1
  O  O43  1  0.655152  0.751422  0.494283  1
  O  O44  1  0.637207  0.693383  0.648584  1
  O  O45  1  0.547024  0.293141  0.763076  1
  O  O46  1  0.124694  0.837405  0.303998  1
  O  O47  1  0.154344  0.797990  0.603868  1
  O  O48  1  0.296897  0.835022  0.854509  1
  O  O49  1  0.106410  0.517770  0.278974  1
  O  O50  1  0.044254  0.590415  0.872312  1
  O  O51  1  0.585117  0.735949  0.960131  1
  O  O52  1  0.881159  0.880006  0.887750  1
  O  O53  1  0.085117  0.764051  0.460131  1
  O  O54  1  0.952976  0.793141  0.736924  1
  O  O55  1  0.344848  0.248578  0.505717  1
  O  O56  1  0.544254  0.909585  0.372312  1
  O  O57  1  0.393590  0.017770  0.221026  1
  O  O58  1  0.429345  0.956836  0.066068  1
  O  O59  1  0.654344  0.702010  0.103868  1
  O  O60  1  0.955746  0.409585  0.127688  1
  O  O61  1  0.155152  0.748578  0.994283  1
  O  O62  1  0.452976  0.706859  0.236924  1
  O  O63  1  0.796897  0.664978  0.354509  1
  O  O64  1  0.914883  0.235949  0.539869  1
  O  O65  1  0.362793  0.306617  0.351416  1
  O  O66  1  0.845656  0.202010  0.396132  1
  O  O67  1  0.118841  0.119994  0.112250  1
  O  O68  1  0.848565  0.943669  0.037429  1
  O  O69  1  0.875306  0.162595  0.696002  1
  O  O70  1  0.047024  0.206859  0.263076  1
  O  O71  1  0.151435  0.056330  0.962571  1
  O  O72  1  0.893590  0.482230  0.721026  1
  O  O73  1  0.624694  0.662595  0.803998  1
  O  O74  1  0.414883  0.264051  0.039869  1
  O  O75  1  0.203103  0.335022  0.645491  1
