# generated using pymatgen
data_Na2In2Sb3
_symmetry_space_group_name_H-M   'P 1'
_cell_length_a   7.68755744
_cell_length_b   14.83001214
_cell_length_c   15.84302388
_cell_angle_alpha   89.99286058
_cell_angle_beta   90.00000000
_cell_angle_gamma   90.00000000
_symmetry_Int_Tables_number   1
_chemical_formula_structural   Na2In2Sb3
_chemical_formula_sum   'Na16 In16 Sb24'
_cell_volume   1806.20879947
_cell_formula_units_Z   8
loop_
 _symmetry_equiv_pos_site_id
 _symmetry_equiv_pos_as_xyz
  1  'x, y, z'
loop_
 _atom_site_type_symbol
 _atom_site_label
 _atom_site_symmetry_multiplicity
 _atom_site_fract_x
 _atom_site_fract_y
 _atom_site_fract_z
 _atom_site_occupancy
  Na  Na0  1  0.953183  0.141478  0.987448  1
  Na  Na1  1  0.453183  0.858522  0.512552  1
  Na  Na2  1  0.046817  0.858522  0.012552  1
  Na  Na3  1  0.546817  0.141478  0.487448  1
  Na  Na4  1  0.575111  0.659047  0.024974  1
  Na  Na5  1  0.075111  0.340953  0.475026  1
  Na  Na6  1  0.424889  0.340953  0.975026  1
  Na  Na7  1  0.924889  0.659047  0.524974  1
  Na  Na8  1  0.547596  0.918611  0.115857  1
  Na  Na9  1  0.047596  0.081389  0.384143  1
  Na  Na10  1  0.452404  0.081389  0.884143  1
  Na  Na11  1  0.952404  0.918611  0.615857  1
  Na  Na12  1  0.909457  0.438666  0.911596  1
  Na  Na13  1  0.409457  0.561334  0.588404  1
  Na  Na14  1  0.090543  0.561334  0.088404  1
  Na  Na15  1  0.590543  0.438666  0.411596  1
  In  In16  1  0.285664  0.680383  0.849254  1
  In  In17  1  0.785664  0.319617  0.650746  1
  In  In18  1  0.714336  0.319617  0.150746  1
  In  In19  1  0.214336  0.680383  0.349254  1
  In  In20  1  0.784028  0.092206  0.726982  1
  In  In21  1  0.284028  0.907794  0.773018  1
  In  In22  1  0.215972  0.907794  0.273018  1
  In  In23  1  0.715972  0.092206  0.226982  1
  In  In24  1  0.759183  0.815225  0.837647  1
  In  In25  1  0.259183  0.184775  0.662353  1
  In  In26  1  0.240817  0.184775  0.162353  1
  In  In27  1  0.740817  0.815225  0.337647  1
  In  In28  1  0.768840  0.586457  0.758598  1
  In  In29  1  0.268840  0.413543  0.741402  1
  In  In30  1  0.231160  0.413543  0.241402  1
  In  In31  1  0.731160  0.586457  0.258598  1
  Sb  Sb32  1  0.967397  0.977187  0.841987  1
  Sb  Sb33  1  0.467397  0.022813  0.658013  1
  Sb  Sb34  1  0.032603  0.022813  0.158013  1
  Sb  Sb35  1  0.532603  0.977187  0.341987  1
  Sb  Sb36  1  0.443557  0.845101  0.929454  1
  Sb  Sb37  1  0.943557  0.154899  0.570546  1
  Sb  Sb38  1  0.556443  0.154899  0.070546  1
  Sb  Sb39  1  0.056443  0.845101  0.429454  1
  Sb  Sb40  1  0.940631  0.656735  0.912191  1
  Sb  Sb41  1  0.440631  0.343265  0.587809  1
  Sb  Sb42  1  0.059369  0.343265  0.087809  1
  Sb  Sb43  1  0.559369  0.656735  0.412191  1
  Sb  Sb44  1  0.838473  0.751797  0.169236  1
  Sb  Sb45  1  0.338473  0.248203  0.330764  1
  Sb  Sb46  1  0.161527  0.248203  0.830764  1
  Sb  Sb47  1  0.661527  0.751797  0.669236  1
  Sb  Sb48  1  0.485249  0.514382  0.855750  1
  Sb  Sb49  1  0.985249  0.485618  0.644250  1
  Sb  Sb50  1  0.514751  0.485618  0.144250  1
  Sb  Sb51  1  0.014751  0.514382  0.355750  1
  Sb  Sb52  1  0.216331  0.741794  0.175673  1
  Sb  Sb53  1  0.716331  0.258206  0.324327  1
  Sb  Sb54  1  0.783669  0.258206  0.824327  1
  Sb  Sb55  1  0.283669  0.741794  0.675673  1
