# generated using pymatgen
data_Ba2Co2ClF7
_symmetry_space_group_name_H-M   'P 1'
_cell_length_a   5.88666476
_cell_length_b   7.82727291
_cell_length_c   9.03303785
_cell_angle_alpha   106.79166481
_cell_angle_beta   90.00000000
_cell_angle_gamma   90.00000000
_symmetry_Int_Tables_number   1
_chemical_formula_structural   Ba2Co2ClF7
_chemical_formula_sum   'Ba4 Co4 Cl2 F14'
_cell_volume   398.46445341
_cell_formula_units_Z   2
loop_
 _symmetry_equiv_pos_site_id
 _symmetry_equiv_pos_as_xyz
  1  'x, y, z'
loop_
 _atom_site_type_symbol
 _atom_site_label
 _atom_site_symmetry_multiplicity
 _atom_site_fract_x
 _atom_site_fract_y
 _atom_site_fract_z
 _atom_site_occupancy
  Ba  Ba0  1  0.250000  0.301678  0.073482  1
  Ba  Ba1  1  0.750000  0.698322  0.926518  1
  Ba  Ba2  1  0.750000  0.668213  0.412656  1
  Ba  Ba3  1  0.250000  0.331787  0.587344  1
  Co  Co4  1  0.750000  0.173303  0.266446  1
  Co  Co5  1  0.250000  0.826697  0.733554  1
  Co  Co6  1  0.250000  0.817897  0.175324  1
  Co  Co7  1  0.750000  0.182103  0.824676  1
  Cl  Cl8  1  0.250000  0.882515  0.469142  1
  Cl  Cl9  1  0.750000  0.117485  0.530858  1
  F  F10  1  0.007706  0.628876  0.160796  1
  F  F11  1  0.996457  0.361296  0.345701  1
  F  F12  1  0.750000  0.252198  0.064065  1
  F  F13  1  0.502543  0.995958  0.171344  1
  F  F14  1  0.492294  0.628876  0.160796  1
  F  F15  1  0.003543  0.638704  0.654299  1
  F  F16  1  0.503543  0.361296  0.345701  1
  F  F17  1  0.992294  0.371124  0.839204  1
  F  F18  1  0.002543  0.004042  0.828656  1
  F  F19  1  0.497457  0.004042  0.828656  1
  F  F20  1  0.507706  0.371124  0.839204  1
  F  F21  1  0.997457  0.995958  0.171344  1
  F  F22  1  0.250000  0.747802  0.935935  1
  F  F23  1  0.496457  0.638704  0.654299  1
