# generated using pymatgen
data_Sr3(LiSb)4
_symmetry_space_group_name_H-M   'P 1'
_cell_length_a   4.85176740
_cell_length_b   7.54545310
_cell_length_c   9.12748679
_cell_angle_alpha   114.41462747
_cell_angle_beta   105.41318078
_cell_angle_gamma   89.99999461
_symmetry_Int_Tables_number   1
_chemical_formula_structural   Sr3(LiSb)4
_chemical_formula_sum   'Sr3 Li4 Sb4'
_cell_volume   291.01710611
_cell_formula_units_Z   1
loop_
 _symmetry_equiv_pos_site_id
 _symmetry_equiv_pos_as_xyz
  1  'x, y, z'
loop_
 _atom_site_type_symbol
 _atom_site_label
 _atom_site_symmetry_multiplicity
 _atom_site_fract_x
 _atom_site_fract_y
 _atom_site_fract_z
 _atom_site_occupancy
  Sr  Sr0  1  0.629896  0.629896  0.259791  1
  Sr  Sr1  1  0.500000  0.000000  0.000000  1
  Sr  Sr2  1  0.370104  0.370104  0.740209  1
  Li  Li3  1  0.177277  0.983578  0.354554  1
  Li  Li4  1  0.177277  0.370976  0.354554  1
  Li  Li5  1  0.822723  0.629024  0.645446  1
  Li  Li6  1  0.822723  0.016422  0.645446  1
  Sb  Sb7  1  0.286413  0.786413  0.572827  1
  Sb  Sb8  1  0.713587  0.213587  0.427173  1
  Sb  Sb9  1  1.000000  0.308822  0.000000  1
  Sb  Sb10  1  0.000000  0.691178  1.000000  1
