# generated using pymatgen
data_Na2Zr(MoO4)3
_symmetry_space_group_name_H-M   'P 1'
_cell_length_a   5.16865973
_cell_length_b   10.15280130
_cell_length_c   10.15299575
_cell_angle_alpha   68.40703650
_cell_angle_beta   80.67106378
_cell_angle_gamma   80.67038577
_symmetry_Int_Tables_number   1
_chemical_formula_structural   Na2Zr(MoO4)3
_chemical_formula_sum   'Na4 Zr2 Mo6 O24'
_cell_volume   485.79223557
_cell_formula_units_Z   2
loop_
 _symmetry_equiv_pos_site_id
 _symmetry_equiv_pos_as_xyz
  1  'x, y, z'
loop_
 _atom_site_type_symbol
 _atom_site_label
 _atom_site_symmetry_multiplicity
 _atom_site_fract_x
 _atom_site_fract_y
 _atom_site_fract_z
 _atom_site_occupancy
  O  O0  1  0.905854  0.790567  0.419181  1
  O  O1  1  0.594143  0.580819  0.209432  1
  O  O2  1  0.094146  0.209433  0.580818  1
  O  O3  1  0.405855  0.419180  0.790568  1
  O  O4  1  0.263555  0.928011  0.500491  1
  O  O5  1  0.236441  0.499512  0.071983  1
  O  O6  1  0.736446  0.071989  0.499510  1
  O  O7  1  0.763559  0.500488  0.928017  1
  O  O8  1  0.384228  0.610103  0.526522  1
  O  O9  1  0.115771  0.473478  0.389897  1
  O  O10  1  0.615772  0.389897  0.473478  1
  O  O11  1  0.884229  0.526522  0.610104  1
  O  O12  1  0.569590  0.131769  0.024824  1
  O  O13  1  0.930390  0.975192  0.868234  1
  O  O14  1  0.430410  0.868232  0.975176  1
  O  O15  1  0.069610  0.024807  0.131767  1
  O  O16  1  0.982852  0.275466  0.815492  1
  O  O17  1  0.517144  0.184511  0.724538  1
  O  O18  1  0.921056  0.737172  0.712138  1
  O  O19  1  0.482856  0.815490  0.275463  1
  O  O20  1  0.421061  0.712133  0.737173  1
  O  O21  1  0.078944  0.262828  0.287863  1
  O  O22  1  0.578939  0.287867  0.262826  1
  O  O23  1  0.017148  0.724534  0.184509  1
  Na  Na24  1  0.126130  0.286452  0.030712  1
  Na  Na25  1  0.373868  0.969289  0.713547  1
  Na  Na26  1  0.873870  0.713548  0.969288  1
  Na  Na27  1  0.626132  0.030711  0.286452  1
  Zr  Zr28  1  0.250001  0.375919  0.624080  1
  Zr  Zr29  1  0.749999  0.624081  0.375920  1
  Mo  Mo30  1  0.134795  0.766249  0.549996  1
  Mo  Mo31  1  0.365211  0.450000  0.233757  1
  Mo  Mo32  1  0.865205  0.233752  0.450004  1
  Mo  Mo33  1  0.634789  0.550000  0.766243  1
  Mo  Mo34  1  0.249988  0.859569  0.140442  1
  Mo  Mo35  1  0.750012  0.140431  0.859558  1
