# generated using pymatgen
data_Li3Fe2(PO4)3
_symmetry_space_group_name_H-M   'P 1'
_cell_length_a   8.47191425
_cell_length_b   8.79904239
_cell_length_c   12.30617361
_cell_angle_alpha   90.00000000
_cell_angle_beta   87.53286236
_cell_angle_gamma   90.00000000
_symmetry_Int_Tables_number   1
_chemical_formula_structural   Li3Fe2(PO4)3
_chemical_formula_sum   'Li12 Fe8 P12 O48'
_cell_volume   916.51009737
_cell_formula_units_Z   4
loop_
 _symmetry_equiv_pos_site_id
 _symmetry_equiv_pos_as_xyz
  1  'x, y, z'
loop_
 _atom_site_type_symbol
 _atom_site_label
 _atom_site_symmetry_multiplicity
 _atom_site_fract_x
 _atom_site_fract_y
 _atom_site_fract_z
 _atom_site_occupancy
  Li  Li0  1  0.709079  0.191668  0.952911  1
  Li  Li1  1  0.290922  0.808332  0.047089  1
  Li  Li2  1  0.500000  0.402740  0.250000  1
  Li  Li3  1  0.000000  0.097324  0.250000  1
  Li  Li4  1  0.709079  0.808332  0.452911  1
  Li  Li5  1  0.500000  0.597260  0.750000  1
  Li  Li6  1  0.290922  0.191668  0.547089  1
  Li  Li7  1  0.500000  0.500000  0.000000  1
  Li  Li8  1  0.000000  0.000000  0.500000  1
  Li  Li9  1  0.000000  0.902676  0.750000  1
  Li  Li10  1  0.000000  0.000000  0.000000  1
  Li  Li11  1  0.500000  0.500000  0.500000  1
  Fe  Fe12  1  0.287058  0.994953  0.357211  1
  Fe  Fe13  1  0.712942  0.005047  0.642789  1
  Fe  Fe14  1  0.712942  0.994953  0.142789  1
  Fe  Fe15  1  0.287058  0.005047  0.857211  1
  Fe  Fe16  1  0.789787  0.499629  0.355079  1
  Fe  Fe17  1  0.210212  0.500371  0.644921  1
  Fe  Fe18  1  0.210212  0.499629  0.144921  1
  Fe  Fe19  1  0.789787  0.500371  0.855079  1
  P  P20  1  0.500000  0.293614  0.750000  1
  P  P21  1  0.500000  0.706387  0.250000  1
  P  P22  1  0.649411  0.147612  0.397569  1
  P  P23  1  0.000000  0.798046  0.250000  1
  P  P24  1  0.156407  0.643403  0.894893  1
  P  P25  1  0.843593  0.643403  0.605107  1
  P  P26  1  0.350589  0.147612  0.102431  1
  P  P27  1  0.350589  0.852388  0.602431  1
  P  P28  1  0.000000  0.201954  0.750000  1
  P  P29  1  0.156407  0.356597  0.394893  1
  P  P30  1  0.649411  0.852388  0.897569  1
  P  P31  1  0.843593  0.356597  0.105107  1
  O  O32  1  0.249765  0.060901  0.019005  1
  O  O33  1  0.472342  0.894922  0.911210  1
  O  O34  1  0.277036  0.902349  0.713913  1
  O  O35  1  0.570199  0.399868  0.837439  1
  O  O36  1  0.870643  0.703166  0.308884  1
  O  O37  1  0.140123  0.820110  0.909089  1
  O  O38  1  0.744764  0.589720  0.508260  1
  O  O39  1  0.065535  0.907943  0.337754  1
  O  O40  1  0.750235  0.060901  0.480995  1
  O  O41  1  0.010865  0.419725  0.106315  1
  O  O42  1  0.744764  0.410280  0.008260  1
  O  O43  1  0.859877  0.179890  0.090911  1
  O  O44  1  0.859877  0.820110  0.590911  1
  O  O45  1  0.379763  0.806258  0.312280  1
  O  O46  1  0.129357  0.703166  0.191116  1
  O  O47  1  0.749371  0.597053  0.710186  1
  O  O48  1  0.429801  0.399868  0.662561  1
  O  O49  1  0.250629  0.597053  0.789814  1
  O  O50  1  0.989135  0.419725  0.393685  1
  O  O51  1  0.348369  0.322887  0.088098  1
  O  O52  1  0.277036  0.097651  0.213913  1
  O  O53  1  0.010865  0.580275  0.606315  1
  O  O54  1  0.570199  0.600132  0.337439  1
  O  O55  1  0.129357  0.296834  0.691116  1
  O  O56  1  0.379763  0.193742  0.812280  1
  O  O57  1  0.527658  0.105078  0.088790  1
  O  O58  1  0.255236  0.589720  0.991740  1
  O  O59  1  0.750235  0.939099  0.980995  1
  O  O60  1  0.722964  0.097651  0.286087  1
  O  O61  1  0.255236  0.410280  0.491740  1
  O  O62  1  0.065535  0.092057  0.837754  1
  O  O63  1  0.140123  0.179890  0.409089  1
  O  O64  1  0.348369  0.677113  0.588098  1
  O  O65  1  0.749371  0.402947  0.210186  1
  O  O66  1  0.250629  0.402947  0.289814  1
  O  O67  1  0.934465  0.092057  0.662246  1
  O  O68  1  0.989135  0.580275  0.893685  1
  O  O69  1  0.429801  0.600132  0.162561  1
  O  O70  1  0.651631  0.322887  0.411902  1
  O  O71  1  0.722964  0.902349  0.786087  1
  O  O72  1  0.620237  0.806258  0.187720  1
  O  O73  1  0.472342  0.105078  0.411210  1
  O  O74  1  0.249765  0.939099  0.519005  1
  O  O75  1  0.620237  0.193742  0.687720  1
  O  O76  1  0.870643  0.296834  0.808884  1
  O  O77  1  0.651631  0.677113  0.911902  1
  O  O78  1  0.527658  0.894922  0.588790  1
  O  O79  1  0.934465  0.907943  0.162246  1
