# generated using pymatgen
data_Ba(FeO2)2
_symmetry_space_group_name_H-M   'P 1'
_cell_length_a   9.58301022
_cell_length_b   11.06365661
_cell_length_c   17.64984841
_cell_angle_alpha   90.00000000
_cell_angle_beta   90.00000000
_cell_angle_gamma   90.00000000
_symmetry_Int_Tables_number   1
_chemical_formula_structural   Ba(FeO2)2
_chemical_formula_sum   'Ba16 Fe32 O64'
_cell_volume   1871.29224948
_cell_formula_units_Z   16
loop_
 _symmetry_equiv_pos_site_id
 _symmetry_equiv_pos_as_xyz
  1  'x, y, z'
loop_
 _atom_site_type_symbol
 _atom_site_label
 _atom_site_symmetry_multiplicity
 _atom_site_fract_x
 _atom_site_fract_y
 _atom_site_fract_z
 _atom_site_occupancy
  Ba  Ba0  1  0.721626  0.143879  0.250000  1
  Ba  Ba1  1  0.221626  0.356121  0.750000  1
  Ba  Ba2  1  0.280227  0.381974  0.987612  1
  Ba  Ba3  1  0.219773  0.881974  0.987612  1
  Ba  Ba4  1  0.761002  0.615948  0.750000  1
  Ba  Ba5  1  0.780227  0.118026  0.012388  1
  Ba  Ba6  1  0.778374  0.643879  0.250000  1
  Ba  Ba7  1  0.219773  0.881974  0.512388  1
  Ba  Ba8  1  0.280227  0.381974  0.512388  1
  Ba  Ba9  1  0.719773  0.618026  0.487612  1
  Ba  Ba10  1  0.738998  0.115948  0.750000  1
  Ba  Ba11  1  0.278374  0.856121  0.750000  1
  Ba  Ba12  1  0.261002  0.884052  0.250000  1
  Ba  Ba13  1  0.719773  0.618026  0.012388  1
  Ba  Ba14  1  0.238998  0.384052  0.250000  1
  Ba  Ba15  1  0.780227  0.118026  0.487612  1
  Fe  Fe16  1  0.089489  0.633245  0.406256  1
  Fe  Fe17  1  0.909367  0.390987  0.386448  1
  Fe  Fe18  1  0.089489  0.633245  0.093744  1
  Fe  Fe19  1  0.409367  0.109013  0.886448  1
  Fe  Fe20  1  0.089986  0.137367  0.147542  1
  Fe  Fe21  1  0.909367  0.390987  0.113552  1
  Fe  Fe22  1  0.590633  0.890987  0.386448  1
  Fe  Fe23  1  0.410511  0.133245  0.093744  1
  Fe  Fe24  1  0.410014  0.637367  0.352458  1
  Fe  Fe25  1  0.590633  0.890987  0.113552  1
  Fe  Fe26  1  0.409367  0.109013  0.613552  1
  Fe  Fe27  1  0.568943  0.381679  0.351734  1
  Fe  Fe28  1  0.589986  0.362633  0.647542  1
  Fe  Fe29  1  0.910014  0.862633  0.852458  1
  Fe  Fe30  1  0.410014  0.637367  0.147542  1
  Fe  Fe31  1  0.431057  0.618321  0.648266  1
  Fe  Fe32  1  0.410511  0.133245  0.406256  1
  Fe  Fe33  1  0.068943  0.118321  0.851734  1
  Fe  Fe34  1  0.568943  0.381679  0.148266  1
  Fe  Fe35  1  0.589489  0.866755  0.906256  1
  Fe  Fe36  1  0.090633  0.609013  0.886448  1
  Fe  Fe37  1  0.910511  0.366755  0.593744  1
  Fe  Fe38  1  0.089986  0.137367  0.352458  1
  Fe  Fe39  1  0.931057  0.881679  0.148266  1
  Fe  Fe40  1  0.910511  0.366755  0.906256  1
  Fe  Fe41  1  0.090633  0.609013  0.613552  1
  Fe  Fe42  1  0.589489  0.866755  0.593744  1
  Fe  Fe43  1  0.068943  0.118321  0.648266  1
  Fe  Fe44  1  0.931057  0.881679  0.351734  1
  Fe  Fe45  1  0.431057  0.618321  0.851734  1
  Fe  Fe46  1  0.589986  0.362633  0.852458  1
  Fe  Fe47  1  0.910014  0.862633  0.647542  1
  O  O48  1  0.125776  0.597328  0.508995  1
  O  O49  1  0.935314  0.515137  0.646755  1
  O  O50  1  0.374224  0.097328  0.508995  1
  O  O51  1  0.064686  0.484863  0.146755  1
  O  O52  1  0.564686  0.015137  0.853245  1
  O  O53  1  0.750419  0.770144  0.882150  1
  O  O54  1  0.560356  0.513965  0.902276  1
  O  O55  1  0.021091  0.161665  0.750000  1
  O  O56  1  0.374224  0.097328  0.991005  1
  O  O57  1  0.578533  0.226785  0.399428  1
  O  O58  1  0.249581  0.229856  0.382150  1
  O  O59  1  0.127334  0.102356  0.250000  1
  O  O60  1  0.435314  0.984863  0.146755  1
  O  O61  1  0.418519  0.275445  0.640606  1
  O  O62  1  0.749581  0.270144  0.617850  1
  O  O63  1  0.749581  0.270144  0.882150  1
  O  O64  1  0.418519  0.275445  0.859394  1
  O  O65  1  0.918519  0.224555  0.359394  1
  O  O66  1  0.521091  0.338335  0.250000  1
  O  O67  1  0.581481  0.724555  0.359394  1
  O  O68  1  0.742384  0.465263  0.349162  1
  O  O69  1  0.249581  0.229856  0.117850  1
  O  O70  1  0.757616  0.965263  0.349162  1
  O  O71  1  0.435314  0.984863  0.353245  1
  O  O72  1  0.625776  0.902672  0.491005  1
  O  O73  1  0.560356  0.513965  0.597724  1
  O  O74  1  0.750419  0.770144  0.617850  1
  O  O75  1  0.564686  0.015137  0.646755  1
  O  O76  1  0.064686  0.484863  0.353245  1
  O  O77  1  0.935314  0.515137  0.853245  1
  O  O78  1  0.874224  0.402672  0.008995  1
  O  O79  1  0.060356  0.986035  0.402276  1
  O  O80  1  0.939644  0.013965  0.597724  1
  O  O81  1  0.250419  0.729856  0.117850  1
  O  O82  1  0.421467  0.773215  0.600572  1
  O  O83  1  0.918519  0.224555  0.140606  1
  O  O84  1  0.257616  0.534737  0.849162  1
  O  O85  1  0.939644  0.013965  0.902276  1
  O  O86  1  0.078533  0.273215  0.600572  1
  O  O87  1  0.242384  0.034737  0.849162  1
  O  O88  1  0.478909  0.661665  0.750000  1
  O  O89  1  0.921467  0.726785  0.100572  1
  O  O90  1  0.081481  0.775445  0.859394  1
  O  O91  1  0.578533  0.226785  0.100572  1
  O  O92  1  0.081481  0.775445  0.640606  1
  O  O93  1  0.581481  0.724555  0.140606  1
  O  O94  1  0.372666  0.602356  0.250000  1
  O  O95  1  0.625776  0.902672  0.008995  1
  O  O96  1  0.921467  0.726785  0.399428  1
  O  O97  1  0.242384  0.034737  0.650838  1
  O  O98  1  0.439644  0.486035  0.402276  1
  O  O99  1  0.078533  0.273215  0.899428  1
  O  O100  1  0.250419  0.729856  0.382150  1
  O  O101  1  0.257616  0.534737  0.650838  1
  O  O102  1  0.978909  0.838335  0.250000  1
  O  O103  1  0.874224  0.402672  0.491005  1
  O  O104  1  0.421467  0.773215  0.899428  1
  O  O105  1  0.125776  0.597328  0.991005  1
  O  O106  1  0.060356  0.986035  0.097724  1
  O  O107  1  0.757616  0.965263  0.150838  1
  O  O108  1  0.439644  0.486035  0.097724  1
  O  O109  1  0.872666  0.897644  0.750000  1
  O  O110  1  0.627334  0.397644  0.750000  1
  O  O111  1  0.742384  0.465263  0.150838  1
