# generated using pymatgen
data_Sr2MnCuSO3
_symmetry_space_group_name_H-M   'P 1'
_cell_length_a   3.90565449
_cell_length_b   3.90565449
_cell_length_c   16.03708057
_cell_angle_alpha   90.00000000
_cell_angle_beta   90.00000000
_cell_angle_gamma   90.00000000
_symmetry_Int_Tables_number   1
_chemical_formula_structural   Sr2MnCuSO3
_chemical_formula_sum   'Sr4 Mn2 Cu2 S2 O6'
_cell_volume   244.63182402
_cell_formula_units_Z   2
loop_
 _symmetry_equiv_pos_site_id
 _symmetry_equiv_pos_as_xyz
  1  'x, y, z'
loop_
 _atom_site_type_symbol
 _atom_site_label
 _atom_site_symmetry_multiplicity
 _atom_site_fract_x
 _atom_site_fract_y
 _atom_site_fract_z
 _atom_site_occupancy
  O  O0  1  0.749999  0.749999  0.568348  1
  O  O1  1  0.250000  0.250000  0.431652  1
  O  O2  1  0.250000  0.749999  0.715440  1
  O  O3  1  0.250000  0.749999  0.284560  1
  O  O4  1  0.749999  0.250000  0.284560  1
  O  O5  1  0.749999  0.250000  0.715440  1
  S  S6  1  0.749999  0.749999  0.912656  1
  S  S7  1  0.250000  0.250000  0.087344  1
  Mn  Mn8  1  0.250000  0.250000  0.304495  1
  Mn  Mn9  1  0.749999  0.749999  0.695505  1
  Cu  Cu10  1  0.250000  0.749999  0.000000  1
  Cu  Cu11  1  0.749999  0.250000  0.000000  1
  Sr  Sr12  1  0.749999  0.749999  0.185657  1
  Sr  Sr13  1  0.250000  0.250000  0.814343  1
  Sr  Sr14  1  0.749999  0.749999  0.416660  1
  Sr  Sr15  1  0.250000  0.250000  0.583341  1
