# generated using pymatgen
data_C37F21
_symmetry_space_group_name_H-M   'P 1'
_cell_length_a   11.29745503
_cell_length_b   11.34937732
_cell_length_c   12.51415309
_cell_angle_alpha   69.58924273
_cell_angle_beta   69.72392718
_cell_angle_gamma   76.53408017
_symmetry_Int_Tables_number   1
_chemical_formula_structural   C37F21
_chemical_formula_sum   'C74 F42'
_cell_volume   1399.13181051
_cell_formula_units_Z   2
loop_
 _symmetry_equiv_pos_site_id
 _symmetry_equiv_pos_as_xyz
  1  'x, y, z'
loop_
 _atom_site_type_symbol
 _atom_site_label
 _atom_site_symmetry_multiplicity
 _atom_site_fract_x
 _atom_site_fract_y
 _atom_site_fract_z
 _atom_site_occupancy
  C  C0  1  0.481604  0.609949  0.466119  1
  C  C1  1  0.258989  0.637828  0.745022  1
  C  C2  1  0.411421  0.493727  0.247423  1
  C  C3  1  0.691950  0.012338  0.375975  1
  C  C4  1  0.281843  0.539906  0.490557  1
  C  C5  1  0.992960  0.101473  0.331286  1
  C  C6  1  0.511852  0.171143  0.829255  1
  C  C7  1  0.456542  0.572142  0.587991  1
  C  C8  1  0.306673  0.420793  0.346778  1
  C  C9  1  0.167489  0.398087  0.666335  1
  C  C10  1  0.649126  0.135455  0.286315  1
  C  C11  1  0.322238  0.294122  0.347923  1
  C  C12  1  0.691590  0.786761  0.701789  1
  C  C13  1  0.824669  0.314803  0.491552  1
  C  C14  1  0.382956  0.621348  0.403808  1
  C  C15  1  0.464931  0.051141  0.414077  1
  C  C16  1  0.636202  0.927159  0.649871  1
  C  C17  1  0.251362  0.506981  0.611485  1
  C  C18  1  0.691232  0.471929  0.220982  1
  C  C19  1  0.509467  0.381174  0.217040  1
  C  C20  1  0.633528  0.371580  0.205239  1
  C  C21  1  0.537348  0.938526  0.587696  1
  C  C22  1  0.759000  0.566983  0.099806  1
  C  C23  1  0.555893  0.499281  0.639025  1
  C  C24  1  0.936598  0.497895  0.325151  1
  C  C25  1  0.384748  0.181399  0.840790  1
  C  C26  1  0.556200  0.986306  0.751748  1
  C  C27  1  0.815819  0.428202  0.381596  1
  C  C28  1  0.441729  0.264437  0.251158  1
  C  C29  1  0.369549  0.413025  0.763124  1
  C  C30  1  0.080503  0.050952  0.720922  1
  C  C31  1  0.405572  0.243362  0.150236  1
  C  C32  1  0.698968  0.256258  0.702388  1
  C  C33  1  0.678137  0.471688  0.565571  1
  C  C34  1  0.751534  0.348933  0.597762  1
  C  C35  1  0.604732  0.575162  0.392415  1
  C  C36  1  0.026422  0.448048  0.721950  1
  C  C37  1  0.610019  0.057283  0.803261  1
  C  C38  1  0.241868  0.451069  0.453039  1
  C  C39  1  0.850164  0.152204  0.383246  1
  C  C40  1  0.414340  0.973822  0.660414  1
  C  C41  1  0.181698  0.359183  0.556896  1
  C  C42  1  0.521901  0.147061  0.305746  1
  C  C43  1  0.253313  0.995275  0.954179  1
  C  C44  1  0.326975  0.761183  0.354597  1
  C  C45  1  0.462961  0.562446  0.302348  1
  C  C46  1  0.270568  0.201971  0.452217  1
  C  C47  1  0.326204  0.536961  0.676691  1
  C  C48  1  0.314557  0.302832  0.802389  1
  C  C49  1  0.757468  0.902377  0.317599  1
  C  C50  1  0.325717  0.079775  0.829508  1
  C  C51  1  0.315405  0.034884  0.611514  1
  C  C52  1  0.201195  0.120192  0.668303  1
  C  C53  1  0.657288  0.977127  0.914122  1
  C  C54  1  0.572724  0.283503  0.778519  1
  C  C55  1  0.195259  0.234912  0.557643  1
  C  C56  1  0.342593  0.077156  0.485845  1
  C  C57  1  0.562455  0.977816  0.465347  1
  C  C58  1  0.368821  0.586169  0.135452  1
  C  C59  1  0.502221  0.402785  0.746692  1
  C  C60  1  0.779955  0.385619  0.295281  1
  C  C61  1  0.796001  0.263646  0.295132  1
  C  C62  1  0.736741  0.009742  0.561749  1
  C  C63  1  0.703738  0.513936  0.439722  1
  C  C64  1  0.812046  0.236732  0.089589  1
  C  C65  1  0.836852  0.191457  0.492361  1
  C  C66  1  0.778835  0.098166  0.598055  1
  C  C67  1  0.223459  0.285950  0.751086  1
  C  C68  1  0.765666  0.043711  0.440573  1
  C  C69  1  0.430721  1.001680  0.759642  1
  C  C70  1  0.717255  0.127538  0.703881  1
  C  C71  1  0.724499  0.246420  0.217118  1
  C  C72  1  0.587545  0.547295  0.294022  1
  C  C73  1  0.234584  0.162291  0.755539  1
  F  F74  1  0.603088  0.725475  0.798719  1
  F  F75  1  0.017043  0.084218  0.223823  1
  F  F76  1  0.199352  0.740422  0.679409  1
  F  F77  1  0.975023  0.123209  0.768091  1
  F  F78  1  0.727353  0.720397  0.621850  1
  F  F79  1  0.418820  0.830222  0.270896  1
  F  F80  1  0.769806  0.904281  0.883499  1
  F  F81  1  0.880889  0.911772  0.255097  1
  F  F82  1  0.917857  0.609980  0.242667  1
  F  F83  1  0.313883  0.975396  0.036665  1
  F  F84  1  0.503382  0.257516  0.048353  1
  F  F85  1  0.039671  0.428255  0.271562  1
  F  F86  1  0.754291  0.788265  0.402713  1
  F  F87  1  0.235448  0.767606  0.304500  1
  F  F88  1  0.411205  0.536655  0.042252  1
  F  F89  1  0.273167  0.817859  0.442579  1
  F  F90  1  0.701001  0.584633  0.015664  1
  F  F91  1  0.094919  0.941698  0.807834  1
  F  F92  1  0.883429  0.525234  0.057020  1
  F  F93  1  0.946975  0.362117  0.748546  1
  F  F94  1  0.071469  0.183440  0.317288  1
  F  F95  1  0.133505  0.051791  0.994223  1
  F  F96  1  0.752411  0.304151  0.004923  1
  F  F97  1  0.676191  0.054671  0.967147  1
  F  F98  1  0.240318  0.612270  0.161328  1
  F  F99  1  0.417230  0.697557  0.096281  1
  F  F100  1  0.171841  0.589894  0.849444  1
  F  F101  1  0.839548  0.115646  0.084965  1
  F  F102  1  0.010882  0.474864  0.823586  1
  F  F103  1  0.026434  0.988988  0.406872  1
  F  F104  1  0.244630  0.879983  0.949427  1
  F  F105  1  0.752334  0.682324  0.113158  1
  F  F106  1  0.965343  0.523664  0.411349  1
  F  F107  1  0.923682  0.282857  0.057609  1
  F  F108  1  0.303130  0.324441  0.124728  1
  F  F109  1  0.346563  0.678925  0.772010  1
  F  F110  1  0.987389  0.555599  0.644089  1
  F  F111  1  0.795561  0.780904  0.734977  1
  F  F112  1  0.057882  0.020773  0.633911  1
  F  F113  1  0.694527  0.899220  0.243817  1
  F  F114  1  0.571865  0.900064  -0.003705  1
  F  F115  1  0.374774  0.123698  0.184351  1
