# generated using pymatgen
data_SiO2
_symmetry_space_group_name_H-M   'P 1'
_cell_length_a   5.16379993
_cell_length_b   11.27882060
_cell_length_c   11.27882060
_cell_angle_alpha   90.00000000
_cell_angle_beta   90.00000000
_cell_angle_gamma   90.00000000
_symmetry_Int_Tables_number   1
_chemical_formula_structural   SiO2
_chemical_formula_sum   'Si16 O32'
_cell_volume   656.89625361
_cell_formula_units_Z   16
loop_
 _symmetry_equiv_pos_site_id
 _symmetry_equiv_pos_as_xyz
  1  'x, y, z'
loop_
 _atom_site_type_symbol
 _atom_site_label
 _atom_site_symmetry_multiplicity
 _atom_site_fract_x
 _atom_site_fract_y
 _atom_site_fract_z
 _atom_site_occupancy
  Si  Si0  1  0.626576  0.056786  0.630601  1
  Si  Si1  1  0.873424  0.869399  0.443214  1
  Si  Si2  1  0.626576  0.630601  0.443214  1
  Si  Si3  1  0.126576  0.943214  0.130601  1
  Si  Si4  1  0.373424  0.369399  0.556786  1
  Si  Si5  1  0.626576  0.869399  0.056786  1
  Si  Si6  1  0.126576  0.556786  0.369399  1
  Si  Si7  1  0.626576  0.443214  0.869399  1
  Si  Si8  1  0.373424  0.130601  0.943214  1
  Si  Si9  1  0.373424  0.943214  0.369399  1
  Si  Si10  1  0.873424  0.443214  0.630601  1
  Si  Si11  1  0.373424  0.556786  0.130601  1
  Si  Si12  1  0.126576  0.130601  0.556786  1
  Si  Si13  1  0.873424  0.056786  0.869399  1
  Si  Si14  1  0.873424  0.630601  0.056786  1
  Si  Si15  1  0.126576  0.369399  0.943214  1
  O  O16  1  0.348620  0.658898  0.383091  1
  O  O17  1  0.651380  0.616909  0.158898  1
  O  O18  1  0.651380  0.883091  0.341102  1
  O  O19  1  0.000000  0.000000  0.500000  1
  O  O20  1  0.750000  0.518441  0.750000  1
  O  O21  1  0.348620  0.841102  0.116909  1
  O  O22  1  0.500000  0.000000  0.000000  1
  O  O23  1  0.750000  0.981559  0.750000  1
  O  O24  1  0.651380  0.158898  0.883091  1
  O  O25  1  0.848620  0.158898  0.616909  1
  O  O26  1  0.750000  0.750000  0.981559  1
  O  O27  1  0.250000  0.018441  0.250000  1
  O  O28  1  0.500000  0.000000  0.500000  1
  O  O29  1  0.151380  0.658898  0.116909  1
  O  O30  1  0.500000  0.500000  0.500000  1
  O  O31  1  0.151380  0.841102  0.383091  1
  O  O32  1  0.848620  0.341102  0.883091  1
  O  O33  1  0.750000  0.750000  0.518441  1
  O  O34  1  0.250000  0.250000  0.481559  1
  O  O35  1  0.651380  0.341102  0.616909  1
  O  O36  1  0.250000  0.250000  0.018441  1
  O  O37  1  0.000000  0.000000  0.000000  1
  O  O38  1  0.348620  0.383091  0.841102  1
  O  O39  1  0.848620  0.883091  0.158898  1
  O  O40  1  0.000000  0.500000  0.500000  1
  O  O41  1  0.250000  0.481559  0.250000  1
  O  O42  1  0.151380  0.383091  0.658898  1
  O  O43  1  0.500000  0.500000  0.000000  1
  O  O44  1  0.151380  0.116909  0.841102  1
  O  O45  1  0.848620  0.616909  0.341102  1
  O  O46  1  0.000000  0.500000  0.000000  1
  O  O47  1  0.348620  0.116909  0.658898  1
