# generated using pymatgen
data_Pr3Si2S8Cl
_symmetry_space_group_name_H-M   'P 1'
_cell_length_a   7.73864485
_cell_length_b   8.80605599
_cell_length_c   11.05109707
_cell_angle_alpha   96.88223102
_cell_angle_beta   90.00000000
_cell_angle_gamma   116.06518082
_symmetry_Int_Tables_number   1
_chemical_formula_structural   Pr3Si2S8Cl
_chemical_formula_sum   'Pr6 Si4 S16 Cl2'
_cell_volume   670.45834642
_cell_formula_units_Z   2
loop_
 _symmetry_equiv_pos_site_id
 _symmetry_equiv_pos_as_xyz
  1  'x, y, z'
loop_
 _atom_site_type_symbol
 _atom_site_label
 _atom_site_symmetry_multiplicity
 _atom_site_fract_x
 _atom_site_fract_y
 _atom_site_fract_z
 _atom_site_occupancy
  Pr  Pr0  1  0.318128  0.391172  0.185504  1
  Pr  Pr1  1  0.621970  0.000000  0.250000  1
  Pr  Pr2  1  0.073044  0.391172  0.685504  1
  Pr  Pr3  1  0.926956  0.608828  0.314496  1
  Pr  Pr4  1  0.378030  0.000000  0.750000  1
  Pr  Pr5  1  0.681872  0.608828  0.814496  1
  Si  Si6  1  0.307876  0.680424  0.970767  1
  Si  Si7  1  0.627451  0.319576  0.529233  1
  Si  Si8  1  0.692124  0.319576  0.029233  1
  Si  Si9  1  0.372549  0.680424  0.470767  1
  S  S10  1  0.723348  0.131769  0.548965  1
  S  S11  1  0.396286  0.292498  0.642081  1
  S  S12  1  0.711053  0.567661  0.085419  1
  S  S13  1  0.263025  0.705166  0.160558  1
  S  S14  1  0.103789  0.707503  0.857919  1
  S  S15  1  0.288947  0.432339  0.914581  1
  S  S16  1  0.591578  0.868231  0.951035  1
  S  S17  1  0.736975  0.294834  0.839442  1
  S  S18  1  0.856608  0.567661  0.585419  1
  S  S19  1  0.557859  0.294834  0.339442  1
  S  S20  1  0.896211  0.292498  0.142081  1
  S  S21  1  0.143392  0.432339  0.414581  1
  S  S22  1  0.603714  0.707503  0.357919  1
  S  S23  1  0.442141  0.705166  0.660558  1
  S  S24  1  0.408422  0.131769  0.048965  1
  S  S25  1  0.276653  0.868231  0.451035  1
  Cl  Cl26  1  0.993247  0.000000  0.250000  1
  Cl  Cl27  1  0.006753  0.000000  0.750000  1
