# generated using pymatgen
data_Al2CoCl8
_symmetry_space_group_name_H-M   'P 1'
_cell_length_a   8.18898099
_cell_length_b   9.91628434
_cell_length_c   10.35340239
_cell_angle_alpha   70.05845143
_cell_angle_beta   66.70452860
_cell_angle_gamma   65.61250530
_symmetry_Int_Tables_number   1
_chemical_formula_structural   Al2CoCl8
_chemical_formula_sum   'Al4 Co2 Cl16'
_cell_volume   687.23683666
_cell_formula_units_Z   2
loop_
 _symmetry_equiv_pos_site_id
 _symmetry_equiv_pos_as_xyz
  1  'x, y, z'
loop_
 _atom_site_type_symbol
 _atom_site_label
 _atom_site_symmetry_multiplicity
 _atom_site_fract_x
 _atom_site_fract_y
 _atom_site_fract_z
 _atom_site_occupancy
  Co  Co0  1  0.995299  0.750000  0.250000  1
  Co  Co1  1  0.004701  0.250000  0.750000  1
  Al  Al2  1  0.318893  0.364896  0.472778  1
  Al  Al3  1  0.156567  0.135104  0.027222  1
  Al  Al4  1  0.681107  0.635104  0.527222  1
  Al  Al5  1  0.843433  0.864896  0.972778  1
  Cl  Cl6  1  0.606255  0.248065  0.447710  1
  Cl  Cl7  1  0.302030  0.251935  0.052290  1
  Cl  Cl8  1  0.393745  0.751935  0.552290  1
  Cl  Cl9  1  0.697970  0.748065  0.947710  1
  Cl  Cl10  1  0.156196  0.223918  0.498216  1
  Cl  Cl11  1  0.878330  0.276082  0.001784  1
  Cl  Cl12  1  0.843804  0.776082  0.501784  1
  Cl  Cl13  1  0.121670  0.723918  0.998216  1
  Cl  Cl14  1  0.291576  0.557160  0.289487  1
  Cl  Cl15  1  0.138223  0.942840  0.210513  1
  Cl  Cl16  1  0.708424  0.442840  0.710513  1
  Cl  Cl17  1  0.861777  0.057160  0.789487  1
  Cl  Cl18  1  0.163646  0.441005  0.675988  1
  Cl  Cl19  1  0.280639  0.058995  0.824012  1
  Cl  Cl20  1  0.836354  0.558995  0.324012  1
  Cl  Cl21  1  0.719361  0.941005  0.175988  1
