# generated using pymatgen
data_Eu(Cu2Sn)2
_symmetry_space_group_name_H-M   'P 1'
_cell_length_a   8.20084039
_cell_length_b   8.20083949
_cell_length_c   8.20083939
_cell_angle_alpha   109.35526888
_cell_angle_beta   109.35526708
_cell_angle_gamma   109.70337219
_symmetry_Int_Tables_number   1
_chemical_formula_structural   Eu(Cu2Sn)2
_chemical_formula_sum   'Eu2 Cu8 Sn4'
_cell_volume   424.56848653
_cell_formula_units_Z   2
loop_
 _symmetry_equiv_pos_site_id
 _symmetry_equiv_pos_as_xyz
  1  'x, y, z'
loop_
 _atom_site_type_symbol
 _atom_site_label
 _atom_site_symmetry_multiplicity
 _atom_site_fract_x
 _atom_site_fract_y
 _atom_site_fract_z
 _atom_site_occupancy
  Eu  Eu0  1  0.250000  0.250000  0.000000  1
  Eu  Eu1  1  0.750000  0.750000  0.000000  1
  Cu  Cu2  1  0.524772  0.024772  0.226599  1
  Cu  Cu3  1  0.975228  0.201827  0.500000  1
  Cu  Cu4  1  0.475228  0.975228  0.773401  1
  Cu  Cu5  1  0.024772  0.798173  0.500000  1
  Cu  Cu6  1  0.798173  0.298173  0.773401  1
  Cu  Cu7  1  0.701827  0.475228  0.500000  1
  Cu  Cu8  1  0.298173  0.524772  0.500000  1
  Cu  Cu9  1  0.201827  0.701827  0.226599  1
  Sn  Sn10  1  0.161384  0.661384  0.822767  1
  Sn  Sn11  1  0.661384  0.838616  0.500000  1
  Sn  Sn12  1  0.838616  0.338616  0.177233  1
  Sn  Sn13  1  0.338616  0.161384  0.500000  1
