# generated using pymatgen
data_Np2Si4Tc3
_symmetry_space_group_name_H-M   'P 1'
_cell_length_a   5.66225457
_cell_length_b   6.76394526
_cell_length_c   8.05095228
_cell_angle_alpha   90.00000000
_cell_angle_beta   90.00000000
_cell_angle_gamma   104.17026608
_symmetry_Int_Tables_number   1
_chemical_formula_structural   Np2Si4Tc3
_chemical_formula_sum   'Np4 Tc6 Si8'
_cell_volume   298.96271382
_cell_formula_units_Z   2
loop_
 _symmetry_equiv_pos_site_id
 _symmetry_equiv_pos_as_xyz
  1  'x, y, z'
loop_
 _atom_site_type_symbol
 _atom_site_label
 _atom_site_symmetry_multiplicity
 _atom_site_fract_x
 _atom_site_fract_y
 _atom_site_fract_z
 _atom_site_occupancy
  Np  Np0  1  0.426602  0.254597  0.056382  1
  Np  Np1  1  0.073398  0.745403  0.556382  1
  Np  Np2  1  0.573398  0.745403  0.943618  1
  Np  Np3  1  0.926602  0.254597  0.443618  1
  Tc  Tc4  1  0.384000  0.111603  0.707050  1
  Tc  Tc5  1  0.116000  0.888397  0.207050  1
  Tc  Tc6  1  0.616000  0.888397  0.292950  1
  Tc  Tc7  1  0.884000  0.111603  0.792950  1
  Tc  Tc8  1  0.500000  0.500000  0.500000  1
  Tc  Tc9  1  0.000000  0.500000  0.000000  1
  Si  Si10  1  0.383988  0.127369  0.403802  1
  Si  Si11  1  0.116012  0.872631  0.903802  1
  Si  Si12  1  0.616012  0.872631  0.596198  1
  Si  Si13  1  0.883988  0.127369  0.096198  1
  Si  Si14  1  0.275600  0.578611  0.248740  1
  Si  Si15  1  0.224400  0.421389  0.748740  1
  Si  Si16  1  0.724400  0.421389  0.751260  1
  Si  Si17  1  0.775600  0.578611  0.251260  1
