# generated using pymatgen
data_Na3Zn(BO2)5
_symmetry_space_group_name_H-M   'P 1'
_cell_length_a   6.75610947
_cell_length_b   7.95952371
_cell_length_c   18.36470964
_cell_angle_alpha   90.00000000
_cell_angle_beta   90.00000000
_cell_angle_gamma   114.44344159
_symmetry_Int_Tables_number   1
_chemical_formula_structural   Na3Zn(BO2)5
_chemical_formula_sum   'Na12 Zn4 B20 O40'
_cell_volume   899.05415005
_cell_formula_units_Z   4
loop_
 _symmetry_equiv_pos_site_id
 _symmetry_equiv_pos_as_xyz
  1  'x, y, z'
loop_
 _atom_site_type_symbol
 _atom_site_label
 _atom_site_symmetry_multiplicity
 _atom_site_fract_x
 _atom_site_fract_y
 _atom_site_fract_z
 _atom_site_occupancy
  Na  Na0  1  0.215286  0.886108  0.579919  1
  Na  Na1  1  0.700856  0.339297  0.570467  1
  Na  Na2  1  0.299144  0.660703  0.429533  1
  Na  Na3  1  0.875058  0.080590  0.742858  1
  Na  Na4  1  0.200856  0.839297  0.929533  1
  Na  Na5  1  0.799144  0.160703  0.070467  1
  Na  Na6  1  0.624942  0.419410  0.242858  1
  Na  Na7  1  0.784714  0.113892  0.420081  1
  Na  Na8  1  0.124942  0.919410  0.257142  1
  Na  Na9  1  0.375058  0.580590  0.757142  1
  Na  Na10  1  0.284714  0.613892  0.079919  1
  Na  Na11  1  0.715286  0.386108  0.920081  1
  Zn  Zn12  1  0.154932  0.306472  0.596272  1
  Zn  Zn13  1  0.345068  0.193528  0.096272  1
  Zn  Zn14  1  0.654932  0.806472  0.903728  1
  Zn  Zn15  1  0.845068  0.693528  0.403728  1
  B  B16  1  0.018589  0.837575  0.077274  1
  B  B17  1  0.981411  0.162425  0.922726  1
  B  B18  1  0.635190  0.831452  0.296756  1
  B  B19  1  0.289227  0.227486  0.834399  1
  B  B20  1  0.551329  0.997336  0.196527  1
  B  B21  1  0.364810  0.168548  0.703244  1
  B  B22  1  0.206908  0.034574  0.427808  1
  B  B23  1  0.051329  0.497336  0.303473  1
  B  B24  1  0.710773  0.772514  0.165601  1
  B  B25  1  0.448671  0.002664  0.803473  1
  B  B26  1  0.706908  0.534574  0.072192  1
  B  B27  1  0.293092  0.465426  0.927808  1
  B  B28  1  0.864810  0.668548  0.796756  1
  B  B29  1  0.481411  0.662425  0.577274  1
  B  B30  1  0.948671  0.502664  0.696527  1
  B  B31  1  0.518589  0.337575  0.422726  1
  B  B32  1  0.793092  0.965426  0.572192  1
  B  B33  1  0.210773  0.272514  0.334399  1
  B  B34  1  0.789227  0.727486  0.665601  1
  B  B35  1  0.135190  0.331452  0.203244  1
  O  O36  1  0.561649  0.624326  0.641606  1
  O  O37  1  0.386723  0.410560  0.870180  1
  O  O38  1  0.108666  0.865813  0.458381  1
  O  O39  1  0.438351  0.375674  0.358394  1
  O  O40  1  0.646061  0.806157  0.369225  1
  O  O41  1  0.446164  0.041014  0.728063  1
  O  O42  1  0.983245  0.355522  0.676465  1
  O  O43  1  0.891334  0.134187  0.541619  1
  O  O44  1  0.201148  0.957078  0.044966  1
  O  O45  1  0.798852  0.042922  0.955034  1
  O  O46  1  0.083849  0.379919  0.353967  1
  O  O47  1  0.416151  0.120081  0.853967  1
  O  O48  1  0.113277  0.089440  0.370180  1
  O  O49  1  0.946164  0.541014  0.771937  1
  O  O50  1  0.613277  0.589440  0.129820  1
  O  O51  1  0.588339  0.840535  0.545834  1
  O  O52  1  0.553836  0.958986  0.271937  1
  O  O53  1  0.516755  0.144478  0.176465  1
  O  O54  1  0.391334  0.634187  0.958381  1
  O  O55  1  0.886723  0.910560  0.629820  1
  O  O56  1  0.583849  0.879919  0.146033  1
  O  O57  1  0.061649  0.124326  0.858394  1
  O  O58  1  0.016755  0.644478  0.323535  1
  O  O59  1  0.298852  0.542922  0.544966  1
  O  O60  1  0.701148  0.457078  0.455034  1
  O  O61  1  0.053836  0.458987  0.228063  1
  O  O62  1  0.911661  0.659465  0.045834  1
  O  O63  1  0.938351  0.875674  0.141606  1
  O  O64  1  0.088339  0.340535  0.954166  1
  O  O65  1  0.411661  0.159465  0.454166  1
  O  O66  1  0.207804  0.243221  0.255003  1
  O  O67  1  0.146061  0.306157  0.130775  1
  O  O68  1  0.483245  0.855522  0.823535  1
  O  O69  1  0.853939  0.693843  0.869225  1
  O  O70  1  0.707804  0.743221  0.244997  1
  O  O71  1  0.353939  0.193843  0.630775  1
  O  O72  1  0.916151  0.620081  0.646033  1
  O  O73  1  0.792196  0.756779  0.744997  1
  O  O74  1  0.292196  0.256779  0.755003  1
  O  O75  1  0.608666  0.365813  0.041619  1
