# generated using pymatgen
data_Pr5Ti4FeO17
_symmetry_space_group_name_H-M   'P 1'
_cell_length_a   5.55126019
_cell_length_b   7.74919452
_cell_length_c   32.24696570
_cell_angle_alpha   96.52651603
_cell_angle_beta   90.00000000
_cell_angle_gamma   90.00000000
_symmetry_Int_Tables_number   1
_chemical_formula_structural   Pr5Ti4FeO17
_chemical_formula_sum   'Pr20 Ti16 Fe4 O68'
_cell_volume   1378.20345951
_cell_formula_units_Z   4
loop_
 _symmetry_equiv_pos_site_id
 _symmetry_equiv_pos_as_xyz
  1  'x, y, z'
loop_
 _atom_site_type_symbol
 _atom_site_label
 _atom_site_symmetry_multiplicity
 _atom_site_fract_x
 _atom_site_fract_y
 _atom_site_fract_z
 _atom_site_occupancy
  Pr  Pr0  1  0.015142  0.293592  0.078866  1
  Pr  Pr1  1  0.515142  0.206408  0.421134  1
  Pr  Pr2  1  0.544552  0.846754  0.201121  1
  Pr  Pr3  1  0.455448  0.153246  0.798879  1
  Pr  Pr4  1  0.114917  0.135886  0.279029  1
  Pr  Pr5  1  0.500363  0.298341  0.595493  1
  Pr  Pr6  1  0.508838  0.752364  0.008523  1
  Pr  Pr7  1  0.999637  0.798341  0.095493  1
  Pr  Pr8  1  0.499637  0.701659  0.404507  1
  Pr  Pr9  1  0.991162  0.252364  0.508523  1
  Pr  Pr10  1  0.000363  0.201659  0.904507  1
  Pr  Pr11  1  0.008838  0.747636  0.491477  1
  Pr  Pr12  1  0.484858  0.793592  0.578866  1
  Pr  Pr13  1  0.491162  0.247636  0.991477  1
  Pr  Pr14  1  0.044552  0.653246  0.298879  1
  Pr  Pr15  1  0.885083  0.864114  0.720971  1
  Pr  Pr16  1  0.955448  0.346754  0.701121  1
  Pr  Pr17  1  0.614917  0.364114  0.220971  1
  Pr  Pr18  1  0.385083  0.635886  0.779029  1
  Pr  Pr19  1  0.984858  0.706408  0.921134  1
  Ti  Ti20  1  0.513064  0.049579  0.093509  1
  Ti  Ti21  1  0.484665  0.448639  0.903927  1
  Ti  Ti22  1  0.986936  0.549579  0.593509  1
  Ti  Ti23  1  0.054390  0.587055  0.178638  1
  Ti  Ti24  1  0.044437  0.100044  0.176076  1
  Ti  Ti25  1  0.945610  0.412945  0.821362  1
  Ti  Ti26  1  0.455563  0.600044  0.676076  1
  Ti  Ti27  1  0.013064  0.450421  0.406491  1
  Ti  Ti28  1  0.015335  0.948639  0.403927  1
  Ti  Ti29  1  0.554390  0.912945  0.321362  1
  Ti  Ti30  1  0.984665  0.051361  0.596073  1
  Ti  Ti31  1  0.486936  0.950421  0.906491  1
  Ti  Ti32  1  0.515335  0.551361  0.096073  1
  Ti  Ti33  1  0.445610  0.087055  0.678638  1
  Ti  Ti34  1  0.955563  0.899956  0.823924  1
  Ti  Ti35  1  0.544437  0.399956  0.323924  1
  Fe  Fe36  1  0.500000  0.000000  0.500000  1
  Fe  Fe37  1  0.000000  0.000000  0.000000  1
  Fe  Fe38  1  0.000000  0.500000  0.000000  1
  Fe  Fe39  1  0.500000  0.500000  0.500000  1
  O  O40  1  0.311747  0.130117  0.210908  1
  O  O41  1  0.080811  0.746436  0.997945  1
  O  O42  1  0.653214  0.133023  0.725779  1
  O  O43  1  0.391175  0.334742  0.670425  1
  O  O44  1  0.671664  0.587067  0.720213  1
  O  O45  1  0.688253  0.869883  0.789092  1
  O  O46  1  0.232794  0.432064  0.945200  1
  O  O47  1  0.288487  0.989147  0.862588  1
  O  O48  1  0.919189  0.253564  0.002055  1
  O  O49  1  0.328336  0.412933  0.279787  1
  O  O50  1  0.801069  0.913450  0.880428  1
  O  O51  1  0.198931  0.086550  0.119572  1
  O  O52  1  0.205507  0.867287  0.359872  1
  O  O53  1  0.794493  0.132713  0.640128  1
  O  O54  1  0.221676  0.009884  0.948152  1
  O  O55  1  0.211513  0.489147  0.362588  1
  O  O56  1  0.163011  0.072884  0.703846  1
  O  O57  1  0.778324  0.990116  0.051848  1
  O  O58  1  0.171664  0.912933  0.779787  1
  O  O59  1  0.336989  0.572884  0.203846  1
  O  O60  1  0.836989  0.927116  0.296154  1
  O  O61  1  0.572437  0.297433  0.091411  1
  O  O62  1  0.721676  0.490116  0.551848  1
  O  O63  1  0.705507  0.632713  0.140128  1
  O  O64  1  0.188253  0.630117  0.710908  1
  O  O65  1  0.711513  0.010853  0.137412  1
  O  O66  1  0.419189  0.246436  0.497945  1
  O  O67  1  0.713187  0.936148  0.963453  1
  O  O68  1  0.698931  0.413450  0.380428  1
  O  O69  1  0.811747  0.369883  0.289092  1
  O  O70  1  0.301069  0.586550  0.619572  1
  O  O71  1  0.192145  0.536936  0.118793  1
  O  O72  1  0.286813  0.063852  0.036547  1
  O  O73  1  0.453935  0.163202  0.328932  1
  O  O74  1  0.213187  0.563852  0.536547  1
  O  O75  1  0.294493  0.367287  0.859872  1
  O  O76  1  0.108825  0.834742  0.170425  1
  O  O77  1  0.891175  0.165258  0.829575  1
  O  O78  1  0.427563  0.702567  0.908589  1
  O  O79  1  0.927563  0.797433  0.591411  1
  O  O80  1  0.221386  0.973998  0.534504  1
  O  O81  1  0.767206  0.567936  0.054800  1
  O  O82  1  0.692145  0.963064  0.381207  1
  O  O83  1  0.924621  0.706561  0.417053  1
  O  O84  1  0.721386  0.526002  0.965496  1
  O  O85  1  0.153214  0.366977  0.774221  1
  O  O86  1  0.307855  0.036936  0.618793  1
  O  O87  1  0.575379  0.206561  0.917053  1
  O  O88  1  0.072437  0.202567  0.408589  1
  O  O89  1  0.267206  0.932064  0.445200  1
  O  O90  1  0.663011  0.427116  0.796154  1
  O  O91  1  0.424621  0.793439  0.082947  1
  O  O92  1  0.732794  0.067936  0.554800  1
  O  O93  1  0.546065  0.836798  0.671068  1
  O  O94  1  0.075379  0.293439  0.582947  1
  O  O95  1  0.778614  0.026002  0.465496  1
  O  O96  1  0.828336  0.087067  0.220213  1
  O  O97  1  0.278324  0.509884  0.448152  1
  O  O98  1  0.846786  0.633023  0.225779  1
  O  O99  1  0.786813  0.436148  0.463453  1
  O  O100  1  0.278614  0.473998  0.034504  1
  O  O101  1  0.608825  0.665258  0.329575  1
  O  O102  1  0.788487  0.510853  0.637412  1
  O  O103  1  0.346786  0.866977  0.274221  1
  O  O104  1  0.580811  0.753564  0.502055  1
  O  O105  1  0.807855  0.463064  0.881207  1
  O  O106  1  0.046065  0.663202  0.828932  1
  O  O107  1  0.953935  0.336798  0.171068  1
