# generated using pymatgen
data_Rh4Pb5
_symmetry_space_group_name_H-M   'P 1'
_cell_length_a   5.78615359
_cell_length_b   5.78625875
_cell_length_c   13.85220802
_cell_angle_alpha   96.09512493
_cell_angle_beta   96.08551129
_cell_angle_gamma   119.46803953
_symmetry_Int_Tables_number   1
_chemical_formula_structural   Rh4Pb5
_chemical_formula_sum   'Rh8 Pb10'
_cell_volume   394.72883331
_cell_formula_units_Z   2
loop_
 _symmetry_equiv_pos_site_id
 _symmetry_equiv_pos_as_xyz
  1  'x, y, z'
loop_
 _atom_site_type_symbol
 _atom_site_label
 _atom_site_symmetry_multiplicity
 _atom_site_fract_x
 _atom_site_fract_y
 _atom_site_fract_z
 _atom_site_occupancy
  Rh  Rh0  1  0.916061  0.916070  0.832103  1
  Rh  Rh1  1  0.083939  0.083930  0.167897  1
  Rh  Rh2  1  0.750009  0.249997  0.499998  1
  Rh  Rh3  1  0.918251  0.418259  0.836511  1
  Rh  Rh4  1  0.081749  0.581741  0.163489  1
  Rh  Rh5  1  0.418253  0.918242  0.836511  1
  Rh  Rh6  1  0.581747  0.081758  0.163489  1
  Rh  Rh7  1  0.249991  0.750003  0.500002  1
  Pb  Pb8  1  0.835942  0.164063  0.999999  1
  Pb  Pb9  1  0.999252  0.333208  0.332435  1
  Pb  Pb10  1  0.412039  0.412039  0.824047  1
  Pb  Pb11  1  0.164058  0.835937  0.000001  1
  Pb  Pb12  1  0.587961  0.587961  0.175953  1
  Pb  Pb13  1  0.666795  0.000746  0.667561  1
  Pb  Pb14  1  0.333205  0.999254  0.332439  1
  Pb  Pb15  1  0.000748  0.666792  0.667565  1
  Pb  Pb16  1  0.286665  0.286667  0.573349  1
  Pb  Pb17  1  0.713335  0.713333  0.426651  1
