# generated using pymatgen
data_La8Ni4Br7
_symmetry_space_group_name_H-M   'P 1'
_cell_length_a   4.03246031
_cell_length_b   8.79183964
_cell_length_c   14.96863034
_cell_angle_alpha   94.20473278
_cell_angle_beta   97.74019891
_cell_angle_gamma   89.99519282
_symmetry_Int_Tables_number   1
_chemical_formula_structural   La8Ni4Br7
_chemical_formula_sum   'La8 Ni4 Br7'
_cell_volume   524.40289386
_cell_formula_units_Z   1
loop_
 _symmetry_equiv_pos_site_id
 _symmetry_equiv_pos_as_xyz
  1  'x, y, z'
loop_
 _atom_site_type_symbol
 _atom_site_label
 _atom_site_symmetry_multiplicity
 _atom_site_fract_x
 _atom_site_fract_y
 _atom_site_fract_z
 _atom_site_occupancy
  La  La0  1  0.790102  0.776823  0.580094  1
  La  La1  1  0.987595  0.189282  0.975076  1
  La  La2  1  0.402361  0.649884  0.804632  1
  La  La3  1  0.597639  0.350116  0.195368  1
  La  La4  1  0.626142  0.938892  0.252417  1
  La  La5  1  0.209898  0.223177  0.419906  1
  La  La6  1  0.012405  0.810718  0.024924  1
  La  La7  1  0.373858  0.061108  0.747583  1
  Ni  Ni8  1  0.541189  0.054129  0.082172  1
  Ni  Ni9  1  0.100431  0.134685  0.200892  1
  Ni  Ni10  1  0.899569  0.865315  0.799108  1
  Ni  Ni11  1  0.458811  0.945871  0.917828  1
  Br  Br12  1  0.212409  0.868172  0.425017  1
  Br  Br13  1  0.787591  0.131828  0.574983  1
  Br  Br14  1  0.697904  0.483356  0.396587  1
  Br  Br15  1  0.302096  0.516644  0.603413  1
  Br  Br16  1  0.500000  0.500000  0.000000  1
  Br  Br17  1  0.896695  0.353918  0.793179  1
  Br  Br18  1  0.103305  0.646082  0.206821  1
