# generated using pymatgen
data_SbXe2OF15
_symmetry_space_group_name_H-M   'P 1'
_cell_length_a   5.76686359
_cell_length_b   9.14641426
_cell_length_c   12.72046510
_cell_angle_alpha   90.00000000
_cell_angle_beta   103.48401029
_cell_angle_gamma   90.00000000
_symmetry_Int_Tables_number   1
_chemical_formula_structural   SbXe2OF15
_chemical_formula_sum   'Sb2 Xe4 O2 F30'
_cell_volume   652.46036176
_cell_formula_units_Z   2
loop_
 _symmetry_equiv_pos_site_id
 _symmetry_equiv_pos_as_xyz
  1  'x, y, z'
loop_
 _atom_site_type_symbol
 _atom_site_label
 _atom_site_symmetry_multiplicity
 _atom_site_fract_x
 _atom_site_fract_y
 _atom_site_fract_z
 _atom_site_occupancy
  Sb  Sb0  1  0.247442  0.750000  0.434425  1
  Sb  Sb1  1  0.752558  0.250000  0.565575  1
  Xe  Xe2  1  0.090363  0.250000  0.291879  1
  Xe  Xe3  1  0.317307  0.250000  0.905514  1
  Xe  Xe4  1  0.909637  0.750000  0.708121  1
  Xe  Xe5  1  0.682693  0.750000  0.094486  1
  O  O6  1  0.443519  0.250000  0.051261  1
  O  O7  1  0.556481  0.750000  0.948739  1
  F  F8  1  0.948167  0.250000  0.136533  1
  F  F9  1  0.454069  0.907572  0.120314  1
  F  F10  1  0.923182  0.592286  0.083323  1
  F  F11  1  0.992905  0.250000  0.477705  1
  F  F12  1  0.454069  0.592428  0.120314  1
  F  F13  1  0.545931  0.092428  0.879686  1
  F  F14  1  0.502799  0.250000  0.431336  1
  F  F15  1  0.843696  0.098281  0.287084  1
  F  F16  1  0.240484  0.542112  0.441671  1
  F  F17  1  0.292606  0.400787  0.247820  1
  F  F18  1  0.483036  0.750000  0.352582  1
  F  F19  1  0.707394  0.599213  0.752180  1
  F  F20  1  0.156304  0.901719  0.712916  1
  F  F21  1  0.843696  0.401719  0.287084  1
  F  F22  1  0.007095  0.750000  0.522295  1
  F  F23  1  1.008054  0.250000  0.692819  1
  F  F24  1  0.923182  0.907714  0.083323  1
  F  F25  1  0.516964  0.250000  0.647418  1
  F  F26  1  0.759516  0.457888  0.558329  1
  F  F27  1  0.545931  0.407572  0.879686  1
  F  F28  1  0.497201  0.750000  0.568664  1
  F  F29  1  -0.008054  0.750000  0.307181  1
  F  F30  1  0.076818  0.407714  0.916677  1
  F  F31  1  0.051833  0.750000  0.863467  1
  F  F32  1  0.076818  0.092286  0.916677  1
  F  F33  1  0.240484  0.957888  0.441671  1
  F  F34  1  0.759516  0.042112  0.558329  1
  F  F35  1  0.292606  0.099213  0.247820  1
  F  F36  1  0.156304  0.598281  0.712916  1
  F  F37  1  0.707394  0.900787  0.752180  1
