# generated using pymatgen
data_WSF4
_symmetry_space_group_name_H-M   'P 1'
_cell_length_a   5.77388998
_cell_length_b   9.83452862
_cell_length_c   17.68128601
_cell_angle_alpha   90.00000000
_cell_angle_beta   90.00000000
_cell_angle_gamma   90.00000000
_symmetry_Int_Tables_number   1
_chemical_formula_structural   WSF4
_chemical_formula_sum   'W8 S8 F32'
_cell_volume   1004.00506116
_cell_formula_units_Z   8
loop_
 _symmetry_equiv_pos_site_id
 _symmetry_equiv_pos_as_xyz
  1  'x, y, z'
loop_
 _atom_site_type_symbol
 _atom_site_label
 _atom_site_symmetry_multiplicity
 _atom_site_fract_x
 _atom_site_fract_y
 _atom_site_fract_z
 _atom_site_occupancy
  F  F0  1  0.308659  0.764917  0.326667  1
  F  F1  1  0.691341  0.264917  0.673333  1
  F  F2  1  0.691341  0.764917  0.826667  1
  F  F3  1  0.308659  0.264917  0.173333  1
  F  F4  1  0.326051  0.511028  0.253867  1
  F  F5  1  0.673949  0.011028  0.746133  1
  F  F6  1  0.673949  0.511028  0.753867  1
  F  F7  1  0.326051  0.011028  0.246133  1
  F  F8  1  0.551818  0.910808  0.438682  1
  F  F9  1  0.448182  0.410808  0.561318  1
  F  F10  1  0.448182  0.910808  0.938682  1
  F  F11  1  0.551818  0.410808  0.061318  1
  F  F12  1  0.156978  0.008708  0.384493  1
  F  F13  1  0.843022  0.508708  0.615507  1
  F  F14  1  0.843022  0.008708  0.884493  1
  F  F15  1  0.156978  0.508708  0.115507  1
  F  F16  1  0.068062  0.919761  0.120575  1
  F  F17  1  0.931938  0.419761  0.879425  1
  F  F18  1  0.931938  0.919761  0.620575  1
  F  F19  1  0.068062  0.419761  0.379425  1
  F  F20  1  0.460668  0.054193  0.097788  1
  F  F21  1  0.539332  0.554193  0.902212  1
  F  F22  1  0.539332  0.054193  0.597788  1
  F  F23  1  0.460668  0.554193  0.402212  1
  F  F24  1  0.922390  0.131835  0.201546  1
  F  F25  1  0.077610  0.631835  0.798454  1
  F  F26  1  0.077610  0.131835  0.701546  1
  F  F27  1  0.922390  0.631835  0.298454  1
  F  F28  1  0.712583  0.407354  0.202012  1
  F  F29  1  0.287417  0.907354  0.797988  1
  F  F30  1  0.287417  0.407354  0.702012  1
  F  F31  1  0.712583  0.907354  0.297988  1
  S  S32  1  0.591524  0.195794  0.363295  1
  S  S33  1  0.408476  0.695794  0.636705  1
  S  S34  1  0.408476  0.195794  0.863295  1
  S  S35  1  0.591524  0.695794  0.136705  1
  S  S36  1  0.013643  0.689740  0.469931  1
  S  S37  1  0.986357  0.189740  0.530069  1
  S  S38  1  0.986357  0.689740  0.969931  1
  S  S39  1  0.013643  0.189740  0.030069  1
  W  W40  1  0.464291  0.995665  0.347132  1
  W  W41  1  0.535709  0.495665  0.652868  1
  W  W42  1  0.535709  0.995665  0.847132  1
  W  W43  1  0.464291  0.495665  0.152868  1
  W  W44  1  0.158461  0.603699  0.370674  1
  W  W45  1  0.841539  0.103699  0.629326  1
  W  W46  1  0.841539  0.603699  0.870674  1
  W  W47  1  0.158461  0.103699  0.129326  1
