# generated using pymatgen
data_NdTe2BrO5
_symmetry_space_group_name_H-M   'P 1'
_cell_length_a   5.43878434
_cell_length_b   5.43878434
_cell_length_c   10.22532818
_cell_angle_alpha   105.41964351
_cell_angle_beta   105.41964351
_cell_angle_gamma   90.01293781
_symmetry_Int_Tables_number   1
_chemical_formula_structural   NdTe2BrO5
_chemical_formula_sum   'Nd2 Te4 Br2 O10'
_cell_volume   280.26602903
_cell_formula_units_Z   2
loop_
 _symmetry_equiv_pos_site_id
 _symmetry_equiv_pos_as_xyz
  1  'x, y, z'
loop_
 _atom_site_type_symbol
 _atom_site_label
 _atom_site_symmetry_multiplicity
 _atom_site_fract_x
 _atom_site_fract_y
 _atom_site_fract_z
 _atom_site_occupancy
  Nd  Nd0  1  0.000000  0.000000  0.000000  1
  Nd  Nd1  1  0.500000  0.500000  0.000000  1
  Te  Te2  1  0.622662  0.122662  0.245324  1
  Te  Te3  1  0.144917  0.644918  0.289837  1
  Te  Te4  1  0.355082  0.855082  0.710163  1
  Te  Te5  1  0.877338  0.377338  0.754676  1
  Br  Br6  1  0.249828  0.249828  0.499657  1
  Br  Br7  1  0.750171  0.750171  0.500343  1
  O  O8  1  0.519989  0.019989  0.039978  1
  O  O9  1  0.860094  0.359237  0.185579  1
  O  O10  1  0.325485  0.826341  0.185579  1
  O  O11  1  0.326418  0.360124  0.185592  1
  O  O12  1  0.859174  0.825468  0.185592  1
  O  O13  1  0.174532  0.140826  0.814408  1
  O  O14  1  0.639876  0.673582  0.814408  1
  O  O15  1  0.640763  0.139906  0.814421  1
  O  O16  1  0.173659  0.674515  0.814421  1
  O  O17  1  0.980011  0.480010  0.960021  1
