# generated using pymatgen
data_Sr21(Mn2Sb9)2
_symmetry_space_group_name_H-M   'P 1'
_cell_length_a   12.71075410
_cell_length_b   12.71075364
_cell_length_c   18.00054926
_cell_angle_alpha   88.63605438
_cell_angle_beta   88.63605444
_cell_angle_gamma   87.55857145
_symmetry_Int_Tables_number   1
_chemical_formula_structural   Sr21(Mn2Sb9)2
_chemical_formula_sum   'Sr42 Mn8 Sb36'
_cell_volume   2904.00822885
_cell_formula_units_Z   2
loop_
 _symmetry_equiv_pos_site_id
 _symmetry_equiv_pos_as_xyz
  1  'x, y, z'
loop_
 _atom_site_type_symbol
 _atom_site_label
 _atom_site_symmetry_multiplicity
 _atom_site_fract_x
 _atom_site_fract_y
 _atom_site_fract_z
 _atom_site_occupancy
  Sr  Sr0  1  0.097129  0.759352  0.340607  1
  Sr  Sr1  1  0.996345  0.322924  0.062717  1
  Sr  Sr2  1  0.509187  0.271163  0.077675  1
  Sr  Sr3  1  0.490813  0.728837  0.922325  1
  Sr  Sr4  1  0.421611  0.749532  0.353739  1
  Sr  Sr5  1  0.902871  0.240648  0.659393  1
  Sr  Sr6  1  0.567297  0.923581  0.742764  1
  Sr  Sr7  1  0.240648  0.902871  0.659393  1
  Sr  Sr8  1  0.097010  0.097010  0.244976  1
  Sr  Sr9  1  0.070667  0.822588  0.119320  1
  Sr  Sr10  1  0.250468  0.578389  0.646261  1
  Sr  Sr11  1  0.177412  0.929333  0.880679  1
  Sr  Sr12  1  0.007711  0.754405  0.556012  1
  Sr  Sr13  1  0.902990  0.902990  0.755024  1
  Sr  Sr14  1  0.923581  0.567297  0.742764  1
  Sr  Sr15  1  0.763086  0.763086  0.408836  1
  Sr  Sr16  1  0.929333  0.177412  0.880679  1
  Sr  Sr17  1  0.271163  0.509187  0.077675  1
  Sr  Sr18  1  0.677076  0.003655  0.937283  1
  Sr  Sr19  1  0.236914  0.236914  0.591164  1
  Sr  Sr20  1  0.754405  0.007711  0.556012  1
  Sr  Sr21  1  0.578389  0.250468  0.646261  1
  Sr  Sr22  1  0.822588  0.070667  0.119320  1
  Sr  Sr23  1  0.432703  0.076419  0.257236  1
  Sr  Sr24  1  0.496278  0.236533  0.441567  1
  Sr  Sr25  1  0.571516  0.261455  0.849296  1
  Sr  Sr26  1  0.261455  0.571516  0.849296  1
  Sr  Sr27  1  0.428484  0.738545  0.150704  1
  Sr  Sr28  1  0.236533  0.496278  0.441567  1
  Sr  Sr29  1  0.751703  0.751703  0.080141  1
  Sr  Sr30  1  0.759352  0.097129  0.340607  1
  Sr  Sr31  1  0.322924  0.996345  0.062717  1
  Sr  Sr32  1  0.738545  0.428484  0.150704  1
  Sr  Sr33  1  0.992289  0.245595  0.443988  1
  Sr  Sr34  1  0.728837  0.490813  0.922325  1
  Sr  Sr35  1  0.076419  0.432703  0.257236  1
  Sr  Sr36  1  0.003655  0.677076  0.937283  1
  Sr  Sr37  1  0.749532  0.421611  0.353739  1
  Sr  Sr38  1  0.763467  0.503722  0.558433  1
  Sr  Sr39  1  0.503722  0.763467  0.558433  1
  Sr  Sr40  1  0.245595  0.992289  0.443988  1
  Sr  Sr41  1  0.248297  0.248297  0.919859  1
  Mn  Mn42  1  0.348871  0.125735  0.749262  1
  Mn  Mn43  1  0.651129  0.874265  0.250738  1
  Mn  Mn44  1  0.500941  0.500941  0.294747  1
  Mn  Mn45  1  0.341694  0.341694  0.256818  1
  Mn  Mn46  1  0.658306  0.658306  0.743182  1
  Mn  Mn47  1  0.874265  0.651129  0.250738  1
  Mn  Mn48  1  0.125735  0.348871  0.749262  1
  Mn  Mn49  1  0.499059  0.499059  0.705253  1
  Sb  Sb50  1  0.739188  0.101809  0.757559  1
  Sb  Sb51  1  0.040210  0.422521  0.884655  1
  Sb  Sb52  1  0.562410  0.295599  0.261232  1
  Sb  Sb53  1  0.126501  0.126501  0.755886  1
  Sb  Sb54  1  0.435251  0.049864  0.603276  1
  Sb  Sb55  1  0.349129  0.349129  0.749650  1
  Sb  Sb56  1  0.758091  0.758091  0.621381  1
  Sb  Sb57  1  0.254627  0.745373  0.000000  1
  Sb  Sb58  1  0.555389  0.555389  0.439573  1
  Sb  Sb59  1  0.950136  0.564749  0.396724  1
  Sb  Sb60  1  0.547738  0.547738  0.062761  1
  Sb  Sb61  1  0.422521  0.040210  0.884655  1
  Sb  Sb62  1  0.444611  0.444611  0.560427  1
  Sb  Sb63  1  0.101809  0.739188  0.757559  1
  Sb  Sb64  1  0.049864  0.435251  0.603276  1
  Sb  Sb65  1  0.437590  0.704401  0.738768  1
  Sb  Sb66  1  0.704401  0.437590  0.738768  1
  Sb  Sb67  1  0.927256  0.927256  0.966191  1
  Sb  Sb68  1  0.035106  0.035106  0.573699  1
  Sb  Sb69  1  0.898191  0.260812  0.242441  1
  Sb  Sb70  1  0.564749  0.950136  0.396724  1
  Sb  Sb71  1  0.745325  0.254675  0.500000  1
  Sb  Sb72  1  0.241909  0.241909  0.378619  1
  Sb  Sb73  1  0.650871  0.650871  0.250350  1
  Sb  Sb74  1  0.746043  0.746043  0.870615  1
  Sb  Sb75  1  0.745373  0.254627  0.000000  1
  Sb  Sb76  1  0.295599  0.562410  0.261232  1
  Sb  Sb77  1  0.959790  0.577479  0.115345  1
  Sb  Sb78  1  0.260812  0.898191  0.242441  1
  Sb  Sb79  1  0.452262  0.452262  0.937239  1
  Sb  Sb80  1  0.577479  0.959790  0.115345  1
  Sb  Sb81  1  0.964894  0.964894  0.426301  1
  Sb  Sb82  1  0.254675  0.745325  0.500000  1
  Sb  Sb83  1  0.873499  0.873499  0.244114  1
  Sb  Sb84  1  0.253957  0.253957  0.129385  1
  Sb  Sb85  1  0.072744  0.072744  0.033809  1
