# generated using pymatgen
data_K4La6OsI14
_symmetry_space_group_name_H-M   'P 1'
_cell_length_a   13.37422288
_cell_length_b   13.37422288
_cell_length_c   25.34424570
_cell_angle_alpha   90.00000000
_cell_angle_beta   90.00000000
_cell_angle_gamma   90.00000000
_symmetry_Int_Tables_number   1
_chemical_formula_structural   K4La6OsI14
_chemical_formula_sum   'K16 La24 Os4 I56'
_cell_volume   4533.32111357
_cell_formula_units_Z   4
loop_
 _symmetry_equiv_pos_site_id
 _symmetry_equiv_pos_as_xyz
  1  'x, y, z'
loop_
 _atom_site_type_symbol
 _atom_site_label
 _atom_site_symmetry_multiplicity
 _atom_site_fract_x
 _atom_site_fract_y
 _atom_site_fract_z
 _atom_site_occupancy
  K  K0  1  0.956560  0.188660  0.425434  1
  K  K1  1  0.956560  0.311340  0.925434  1
  K  K2  1  0.043440  0.811340  0.574566  1
  K  K3  1  0.811340  0.456560  0.574566  1
  K  K4  1  0.811340  0.043440  0.074566  1
  K  K5  1  0.311340  0.956560  0.425434  1
  K  K6  1  0.188660  0.543440  0.425434  1
  K  K7  1  0.543440  0.188660  0.925434  1
  K  K8  1  0.688660  0.456560  0.074566  1
  K  K9  1  0.456560  0.811340  0.074566  1
  K  K10  1  0.188660  0.956560  0.925434  1
  K  K11  1  0.043440  0.688660  0.074566  1
  K  K12  1  0.543440  0.311340  0.425434  1
  K  K13  1  0.688660  0.043440  0.574566  1
  K  K14  1  0.311340  0.543440  0.925434  1
  K  K15  1  0.456560  0.688660  0.574566  1
  La  La16  1  0.750000  0.750000  0.430953  1
  La  La17  1  0.123953  0.078389  0.182794  1
  La  La18  1  0.578389  0.623953  0.317206  1
  La  La19  1  0.078389  0.123953  0.682794  1
  La  La20  1  0.250000  0.250000  0.069047  1
  La  La21  1  0.123953  0.421611  0.682794  1
  La  La22  1  0.921611  0.876047  0.317206  1
  La  La23  1  0.623953  0.578389  0.817206  1
  La  La24  1  0.876047  0.578389  0.317206  1
  La  La25  1  0.078389  0.376047  0.182794  1
  La  La26  1  0.376047  0.421611  0.182794  1
  La  La27  1  0.421611  0.123953  0.182794  1
  La  La28  1  0.750000  0.750000  0.930953  1
  La  La29  1  0.750000  0.750000  0.202667  1
  La  La30  1  0.421611  0.376047  0.682794  1
  La  La31  1  0.578389  0.876047  0.817206  1
  La  La32  1  0.750000  0.750000  0.702667  1
  La  La33  1  0.876047  0.921611  0.817206  1
  La  La34  1  0.250000  0.250000  0.797333  1
  La  La35  1  0.921611  0.623953  0.817206  1
  La  La36  1  0.376047  0.078389  0.682794  1
  La  La37  1  0.250000  0.250000  0.569047  1
  La  La38  1  0.250000  0.250000  0.297333  1
  La  La39  1  0.623953  0.921611  0.317206  1
  Os  Os40  1  0.750000  0.750000  0.816211  1
  Os  Os41  1  0.750000  0.750000  0.316211  1
  Os  Os42  1  0.250000  0.250000  0.683789  1
  Os  Os43  1  0.250000  0.250000  0.183789  1
  I  I44  1  0.442047  0.099911  0.054777  1
  I  I45  1  0.250000  0.250000  0.432679  1
  I  I46  1  0.871688  0.538353  0.185873  1
  I  I47  1  0.900089  0.942047  0.945223  1
  I  I48  1  0.628312  0.538353  0.685873  1
  I  I49  1  0.057953  0.400089  0.054777  1
  I  I50  1  0.913389  0.199390  0.177542  1
  I  I51  1  0.599911  0.557953  0.945223  1
  I  I52  1  0.300610  0.586611  0.677542  1
  I  I53  1  0.461647  0.128312  0.314127  1
  I  I54  1  0.628312  0.961647  0.185873  1
  I  I55  1  0.750000  0.750000  0.067321  1
  I  I56  1  0.199390  0.913389  0.677542  1
  I  I57  1  0.538353  0.628312  0.185873  1
  I  I58  1  0.400089  0.442047  0.054777  1
  I  I59  1  0.128312  0.461647  0.814127  1
  I  I60  1  0.371688  0.461647  0.314127  1
  I  I61  1  0.038353  0.371688  0.314127  1
  I  I62  1  0.557953  0.599911  0.445223  1
  I  I63  1  0.586611  0.300610  0.177542  1
  I  I64  1  0.199390  0.586611  0.177542  1
  I  I65  1  0.461647  0.371688  0.814127  1
  I  I66  1  0.371688  0.038353  0.814127  1
  I  I67  1  0.557953  0.900089  0.945223  1
  I  I68  1  0.750000  0.250000  0.500000  1
  I  I69  1  0.538353  0.871688  0.685873  1
  I  I70  1  0.699390  0.413389  0.322458  1
  I  I71  1  0.800610  0.413389  0.822458  1
  I  I72  1  0.750000  0.750000  0.567321  1
  I  I73  1  0.099911  0.057953  0.054777  1
  I  I74  1  0.586611  0.199390  0.677542  1
  I  I75  1  0.099911  0.442047  0.554777  1
  I  I76  1  0.800610  0.086611  0.322458  1
  I  I77  1  0.300610  0.913389  0.177542  1
  I  I78  1  0.086611  0.800610  0.822458  1
  I  I79  1  0.599911  0.942047  0.445223  1
  I  I80  1  0.400089  0.057953  0.554777  1
  I  I81  1  0.750000  0.250000  0.000000  1
  I  I82  1  0.871688  0.961647  0.685873  1
  I  I83  1  0.900089  0.557953  0.445223  1
  I  I84  1  0.942047  0.599911  0.945223  1
  I  I85  1  0.699390  0.086611  0.822458  1
  I  I86  1  0.250000  0.750000  0.000000  1
  I  I87  1  0.913389  0.300610  0.677542  1
  I  I88  1  0.961647  0.871688  0.185873  1
  I  I89  1  0.413389  0.800610  0.322458  1
  I  I90  1  0.038353  0.128312  0.814127  1
  I  I91  1  0.057953  0.099911  0.554777  1
  I  I92  1  0.128312  0.038353  0.314127  1
  I  I93  1  0.086611  0.699390  0.322458  1
  I  I94  1  0.413389  0.699390  0.822458  1
  I  I95  1  0.250000  0.750000  0.500000  1
  I  I96  1  0.442047  0.400089  0.554777  1
  I  I97  1  0.961647  0.628312  0.685873  1
  I  I98  1  0.942047  0.900089  0.445223  1
  I  I99  1  0.250000  0.250000  0.932679  1
