# generated using pymatgen
data_Mn3B7ClO13
_symmetry_space_group_name_H-M   'P 1'
_cell_length_a   8.77579240
_cell_length_b   8.77797614
_cell_length_c   12.43078328
_cell_angle_alpha   90.00000000
_cell_angle_beta   90.00000000
_cell_angle_gamma   90.00000000
_symmetry_Int_Tables_number   1
_chemical_formula_structural   Mn3B7ClO13
_chemical_formula_sum   'Mn12 B28 Cl4 O52'
_cell_volume   957.58918392
_cell_formula_units_Z   4
loop_
 _symmetry_equiv_pos_site_id
 _symmetry_equiv_pos_as_xyz
  1  'x, y, z'
loop_
 _atom_site_type_symbol
 _atom_site_label
 _atom_site_symmetry_multiplicity
 _atom_site_fract_x
 _atom_site_fract_y
 _atom_site_fract_z
 _atom_site_occupancy
  Mn  Mn0  1  0.480809  0.535746  0.499085  1
  Mn  Mn1  1  0.761179  0.252310  0.219601  1
  Mn  Mn2  1  0.980809  0.464254  0.499085  1
  Mn  Mn3  1  0.738821  0.252310  0.719601  1
  Mn  Mn4  1  0.982202  0.036120  0.503118  1
  Mn  Mn5  1  0.261179  0.747690  0.219601  1
  Mn  Mn6  1  0.519191  0.464254  0.999085  1
  Mn  Mn7  1  0.019191  0.535746  0.999085  1
  Mn  Mn8  1  0.517798  0.036120  0.003118  1
  Mn  Mn9  1  0.238821  0.747690  0.719601  1
  Mn  Mn10  1  0.482202  0.963880  0.503118  1
  Mn  Mn11  1  0.017798  0.963880  0.003118  1
  B  B12  1  0.753518  0.599136  0.668700  1
  B  B13  1  0.002960  0.504688  0.248806  1
  B  B14  1  0.458483  0.249152  0.351513  1
  B  B15  1  0.257777  0.246816  0.496094  1
  B  B16  1  0.002036  0.996620  0.250417  1
  B  B17  1  0.502036  0.003380  0.250417  1
  B  B18  1  0.904750  0.750060  0.819871  1
  B  B19  1  0.246482  0.400864  0.168700  1
  B  B20  1  0.246122  0.097853  0.169585  1
  B  B21  1  0.041517  0.249152  0.851513  1
  B  B22  1  0.595250  0.750060  0.319871  1
  B  B23  1  0.541517  0.750848  0.851513  1
  B  B24  1  0.253878  0.097853  0.669585  1
  B  B25  1  0.757777  0.753184  0.496094  1
  B  B26  1  0.753878  0.902147  0.669585  1
  B  B27  1  0.746482  0.599136  0.168700  1
  B  B28  1  0.997964  0.003380  0.750417  1
  B  B29  1  0.253518  0.400864  0.668700  1
  B  B30  1  0.958483  0.750848  0.351513  1
  B  B31  1  0.502960  0.495312  0.248806  1
  B  B32  1  0.242223  0.246816  0.996094  1
  B  B33  1  0.997040  0.495312  0.748806  1
  B  B34  1  0.497040  0.504688  0.748806  1
  B  B35  1  0.404750  0.249940  0.819871  1
  B  B36  1  0.095250  0.249940  0.319871  1
  B  B37  1  0.746122  0.902147  0.169585  1
  B  B38  1  0.742223  0.753184  0.996094  1
  B  B39  1  0.497964  0.996620  0.750417  1
  Cl  Cl40  1  0.773427  0.250154  0.510571  1
  Cl  Cl41  1  0.226573  0.749846  0.010571  1
  Cl  Cl42  1  0.273427  0.749846  0.510571  1
  Cl  Cl43  1  0.726573  0.250154  0.010571  1
  O  O44  1  0.615116  0.676837  0.934768  1
  O  O45  1  0.470041  0.841719  0.274203  1
  O  O46  1  0.970041  0.158281  0.274203  1
  O  O47  1  0.815133  0.636932  0.064880  1
  O  O48  1  0.884884  0.676837  0.434768  1
  O  O49  1  0.643203  0.817723  0.422186  1
  O  O50  1  0.660347  0.487910  0.726286  1
  O  O51  1  0.532382  0.907661  0.851359  1
  O  O52  1  0.041640  0.667380  0.277737  1
  O  O53  1  0.529959  0.158281  0.774203  1
  O  O54  1  0.179473  0.124357  0.062902  1
  O  O55  1  0.384884  0.323163  0.434768  1
  O  O56  1  0.593060  0.535178  0.153141  1
  O  O57  1  0.836003  0.023813  0.724156  1
  O  O58  1  0.406940  0.464822  0.653141  1
  O  O59  1  0.906940  0.535178  0.653141  1
  O  O60  1  0.820527  0.875643  0.562902  1
  O  O61  1  0.356797  0.182277  0.922186  1
  O  O62  1  0.045921  0.406097  0.339006  1
  O  O63  1  0.339653  0.512090  0.226286  1
  O  O64  1  0.454079  0.406097  0.839006  1
  O  O65  1  0.663997  0.023813  0.224156  1
  O  O66  1  0.029959  0.841719  0.774203  1
  O  O67  1  0.115116  0.323163  0.934768  1
  O  O68  1  0.315133  0.363068  0.064880  1
  O  O69  1  0.467618  0.092339  0.351359  1
  O  O70  1  0.967618  0.907661  0.351359  1
  O  O71  1  0.954079  0.593903  0.839006  1
  O  O72  1  0.184867  0.363068  0.564880  1
  O  O73  1  0.272227  0.250039  0.735679  1
  O  O74  1  0.592256  0.942904  0.659337  1
  O  O75  1  0.684867  0.636932  0.564880  1
  O  O76  1  0.679473  0.875643  0.062902  1
  O  O77  1  0.092256  0.057096  0.659337  1
  O  O78  1  0.545921  0.593903  0.339006  1
  O  O79  1  0.336003  0.976187  0.724156  1
  O  O80  1  0.093060  0.464822  0.153141  1
  O  O81  1  0.458360  0.667380  0.777737  1
  O  O82  1  0.839653  0.487910  0.226286  1
  O  O83  1  0.541640  0.332620  0.277737  1
  O  O84  1  0.727773  0.749961  0.235679  1
  O  O85  1  0.407744  0.057096  0.159337  1
  O  O86  1  0.958360  0.332620  0.777737  1
  O  O87  1  0.160347  0.512090  0.726286  1
  O  O88  1  0.227773  0.250039  0.235679  1
  O  O89  1  0.320527  0.124357  0.562902  1
  O  O90  1  0.032382  0.092339  0.851359  1
  O  O91  1  0.163997  0.976187  0.224156  1
  O  O92  1  0.772227  0.749961  0.735679  1
  O  O93  1  0.907744  0.942904  0.159337  1
  O  O94  1  0.143203  0.182277  0.422186  1
  O  O95  1  0.856797  0.817723  0.922186  1
