# generated using pymatgen
data_Nb4CrS8
_symmetry_space_group_name_H-M   'P 1'
_cell_length_a   6.69420258
_cell_length_b   6.69420259
_cell_length_c   12.08494419
_cell_angle_alpha   90.00000000
_cell_angle_beta   90.00000000
_cell_angle_gamma   119.99999997
_symmetry_Int_Tables_number   1
_chemical_formula_structural   Nb4CrS8
_chemical_formula_sum   'Nb8 Cr2 S16'
_cell_volume   469.00015157
_cell_formula_units_Z   2
loop_
 _symmetry_equiv_pos_site_id
 _symmetry_equiv_pos_as_xyz
  1  'x, y, z'
loop_
 _atom_site_type_symbol
 _atom_site_label
 _atom_site_symmetry_multiplicity
 _atom_site_fract_x
 _atom_site_fract_y
 _atom_site_fract_z
 _atom_site_occupancy
  S  S0  1  0.833953  0.166047  0.119832  1
  S  S1  1  0.833953  0.667907  0.119832  1
  S  S2  1  0.332093  0.166047  0.119832  1
  S  S3  1  0.667907  0.833953  0.619832  1
  S  S4  1  0.166047  0.332093  0.880168  1
  S  S5  1  0.166047  0.833953  0.619832  1
  S  S6  1  0.166047  0.332093  0.619832  1
  S  S7  1  0.833953  0.166047  0.380168  1
  S  S8  1  0.332093  0.166047  0.380168  1
  S  S9  1  0.667907  0.833953  0.880168  1
  S  S10  1  0.333333  0.666667  0.116822  1
  S  S11  1  0.666667  0.333333  0.616822  1
  S  S12  1  0.666667  0.333333  0.883178  1
  S  S13  1  0.333333  0.666667  0.383178  1
  S  S14  1  0.833953  0.667907  0.380168  1
  S  S15  1  0.166047  0.833953  0.880168  1
  Cr  Cr16  1  0.000000  0.000000  0.500000  1
  Cr  Cr17  1  0.000000  0.000000  0.000000  1
  Nb  Nb18  1  0.506291  0.012582  0.750000  1
  Nb  Nb19  1  0.493709  0.506291  0.250000  1
  Nb  Nb20  1  0.012582  0.506291  0.250000  1
  Nb  Nb21  1  0.987418  0.493709  0.750000  1
  Nb  Nb22  1  0.506291  0.493709  0.750000  1
  Nb  Nb23  1  0.493709  0.987418  0.250000  1
  Nb  Nb24  1  0.000000  0.000000  0.750000  1
  Nb  Nb25  1  0.000000  0.000000  0.250000  1
