# generated using pymatgen
data_Nd(Re2Si)2
_symmetry_space_group_name_H-M   'P 1'
_cell_length_a   4.16268686
_cell_length_b   7.38983048
_cell_length_c   15.47299513
_cell_angle_alpha   90.00000000
_cell_angle_beta   90.00000000
_cell_angle_gamma   90.00000000
_symmetry_Int_Tables_number   1
_chemical_formula_structural   Nd(Re2Si)2
_chemical_formula_sum   'Nd4 Re16 Si8'
_cell_volume   475.97331700
_cell_formula_units_Z   4
loop_
 _symmetry_equiv_pos_site_id
 _symmetry_equiv_pos_as_xyz
  1  'x, y, z'
loop_
 _atom_site_type_symbol
 _atom_site_label
 _atom_site_symmetry_multiplicity
 _atom_site_fract_x
 _atom_site_fract_y
 _atom_site_fract_z
 _atom_site_occupancy
  Nd  Nd0  1  0.000000  0.576263  0.118569  1
  Nd  Nd1  1  0.000000  0.423737  0.881431  1
  Nd  Nd2  1  0.500000  0.076263  0.381431  1
  Nd  Nd3  1  0.500000  0.923737  0.618569  1
  Re  Re4  1  0.000000  0.137478  0.051834  1
  Re  Re5  1  0.000000  0.862522  0.948166  1
  Re  Re6  1  0.500000  0.637478  0.448166  1
  Re  Re7  1  0.500000  0.362522  0.551834  1
  Re  Re8  1  0.000000  0.730271  0.321269  1
  Re  Re9  1  0.000000  0.269729  0.678731  1
  Re  Re10  1  0.500000  0.230271  0.178731  1
  Re  Re11  1  0.500000  0.769729  0.821269  1
  Re  Re12  1  0.000000  0.430759  0.417901  1
  Re  Re13  1  0.000000  0.569241  0.582099  1
  Re  Re14  1  0.500000  0.930759  0.082099  1
  Re  Re15  1  0.500000  0.069241  0.917901  1
  Re  Re16  1  0.000000  0.986557  0.206282  1
  Re  Re17  1  0.000000  0.013443  0.793718  1
  Re  Re18  1  0.500000  0.486557  0.293718  1
  Re  Re19  1  0.500000  0.513443  0.706282  1
  Si  Si20  1  0.000000  0.827994  0.476164  1
  Si  Si21  1  0.000000  0.172006  0.523836  1
  Si  Si22  1  0.500000  0.327994  0.023836  1
  Si  Si23  1  0.500000  0.672006  0.976164  1
  Si  Si24  1  0.000000  0.288025  0.272785  1
  Si  Si25  1  0.000000  0.711975  0.727215  1
  Si  Si26  1  0.500000  0.788025  0.227215  1
  Si  Si27  1  0.500000  0.211975  0.772785  1
