# generated using pymatgen
data_CNCl
_symmetry_space_group_name_H-M   'P 1'
_cell_length_a   7.65954642
_cell_length_b   7.65954644
_cell_length_c   8.27558327
_cell_angle_alpha   65.75907336
_cell_angle_beta   65.75907326
_cell_angle_gamma   60.06696612
_symmetry_Int_Tables_number   1
_chemical_formula_structural   CNCl
_chemical_formula_sum   'C6 N6 Cl6'
_cell_volume   370.42735682
_cell_formula_units_Z   6
loop_
 _symmetry_equiv_pos_site_id
 _symmetry_equiv_pos_as_xyz
  1  'x, y, z'
loop_
 _atom_site_type_symbol
 _atom_site_label
 _atom_site_symmetry_multiplicity
 _atom_site_fract_x
 _atom_site_fract_y
 _atom_site_fract_z
 _atom_site_occupancy
  C  C0  1  0.843277  0.156723  0.250000  1
  C  C1  1  0.504330  0.322079  0.259104  1
  C  C2  1  0.495670  0.677921  0.740896  1
  C  C3  1  0.677921  0.495670  0.240896  1
  C  C4  1  0.156723  0.843277  0.750000  1
  C  C5  1  0.322079  0.504330  0.759104  1
  N  N6  1  0.504669  0.495331  0.750000  1
  N  N7  1  0.495331  0.504669  0.250000  1
  N  N8  1  0.142299  0.672329  0.759292  1
  N  N9  1  0.857701  0.327671  0.240708  1
  N  N10  1  0.672329  0.142299  0.259292  1
  N  N11  1  0.327671  0.857701  0.740708  1
  Cl  Cl12  1  0.066530  0.933470  0.250000  1
  Cl  Cl13  1  0.933470  0.066530  0.750000  1
  Cl  Cl14  1  0.319278  0.277285  0.770468  1
  Cl  Cl15  1  0.722715  0.680722  0.729532  1
  Cl  Cl16  1  0.680722  0.722715  0.229532  1
  Cl  Cl17  1  0.277285  0.319278  0.270468  1
