# generated using pymatgen
data_Er3(Si3Ru)4
_symmetry_space_group_name_H-M   'P 1'
_cell_length_a   8.10997028
_cell_length_b   8.11252524
_cell_length_c   10.11116950
_cell_angle_alpha   90.00000000
_cell_angle_beta   113.64322072
_cell_angle_gamma   90.00000000
_symmetry_Int_Tables_number   1
_chemical_formula_structural   Er3(Si3Ru)4
_chemical_formula_sum   'Er6 Si24 Ru8'
_cell_volume   609.39776454
_cell_formula_units_Z   2
loop_
 _symmetry_equiv_pos_site_id
 _symmetry_equiv_pos_as_xyz
  1  'x, y, z'
loop_
 _atom_site_type_symbol
 _atom_site_label
 _atom_site_symmetry_multiplicity
 _atom_site_fract_x
 _atom_site_fract_y
 _atom_site_fract_z
 _atom_site_occupancy
  Si  Si0  1  0.388508  0.994390  0.234084  1
  Si  Si1  1  0.654424  0.505610  0.765916  1
  Si  Si2  1  0.111492  0.494390  0.765916  1
  Si  Si3  1  0.845576  0.005610  0.234084  1
  Si  Si4  1  0.611492  0.005610  0.765916  1
  Si  Si5  1  0.345576  0.494390  0.234084  1
  Si  Si6  1  0.888508  0.505610  0.234084  1
  Si  Si7  1  0.154424  0.994390  0.765916  1
  Si  Si8  1  0.612920  0.771516  0.234164  1
  Si  Si9  1  0.878757  0.728484  0.765836  1
  Si  Si10  1  0.887080  0.271516  0.765836  1
  Si  Si11  1  0.621243  0.228484  0.234164  1
  Si  Si12  1  0.387080  0.228484  0.765836  1
  Si  Si13  1  0.121243  0.271516  0.234164  1
  Si  Si14  1  0.704885  0.000000  0.409771  1
  Si  Si15  1  0.795115  0.500000  0.590229  1
  Si  Si16  1  0.295115  0.000000  0.590229  1
  Si  Si17  1  0.204885  0.500000  0.409771  1
  Si  Si18  1  0.167510  0.666881  0.000000  1
  Si  Si19  1  0.667510  0.833119  0.000000  1
  Si  Si20  1  0.332490  0.166881  0.000000  1
  Si  Si21  1  0.832490  0.333119  0.000000  1
  Si  Si22  1  0.378757  0.771516  0.765836  1
  Si  Si23  1  0.112920  0.728484  0.234164  1
  Ru  Ru24  1  0.626936  0.127504  0.000000  1
  Ru  Ru25  1  0.126936  0.372496  0.000000  1
  Ru  Ru26  1  0.873064  0.627504  0.000000  1
  Ru  Ru27  1  0.373064  0.872496  0.000000  1
  Ru  Ru28  1  0.330133  0.500000  0.660265  1
  Ru  Ru29  1  0.169867  0.000000  0.339735  1
  Ru  Ru30  1  0.669867  0.500000  0.339735  1
  Ru  Ru31  1  0.830133  0.000000  0.660265  1
  Er  Er32  1  0.496936  0.750000  0.500000  1
  Er  Er33  1  0.003064  0.250000  0.500000  1
  Er  Er34  1  0.503064  0.250000  0.500000  1
  Er  Er35  1  0.996936  0.750000  0.500000  1
  Er  Er36  1  0.500000  0.500000  0.000000  1
  Er  Er37  1  0.000000  0.000000  0.000000  1
