# generated using pymatgen
data_Na2TeO3
_symmetry_space_group_name_H-M   'P 1'
_cell_length_a   5.01558641
_cell_length_b   6.96836469
_cell_length_c   10.39270217
_cell_angle_alpha   90.00000000
_cell_angle_beta   90.00000000
_cell_angle_gamma   91.30026616
_symmetry_Int_Tables_number   1
_chemical_formula_structural   Na2TeO3
_chemical_formula_sum   'Na8 Te4 O12'
_cell_volume   363.13593422
_cell_formula_units_Z   4
loop_
 _symmetry_equiv_pos_site_id
 _symmetry_equiv_pos_as_xyz
  1  'x, y, z'
loop_
 _atom_site_type_symbol
 _atom_site_label
 _atom_site_symmetry_multiplicity
 _atom_site_fract_x
 _atom_site_fract_y
 _atom_site_fract_z
 _atom_site_occupancy
  Te  Te0  1  0.264353  0.167123  0.082678  1
  Te  Te1  1  0.735647  0.332877  0.582678  1
  Te  Te2  1  0.735647  0.832877  0.917322  1
  Te  Te3  1  0.264353  0.667123  0.417322  1
  Na  Na4  1  0.244518  0.141229  0.413385  1
  Na  Na5  1  0.755482  0.358771  0.913385  1
  Na  Na6  1  0.755482  0.858771  0.586615  1
  Na  Na7  1  0.244518  0.641229  0.086615  1
  Na  Na8  1  0.743661  0.404689  0.246793  1
  Na  Na9  1  0.256339  0.095311  0.746793  1
  Na  Na10  1  0.256339  0.595311  0.753207  1
  Na  Na11  1  0.743661  0.904689  0.253207  1
  O  O12  1  0.226709  0.353986  0.216147  1
  O  O13  1  0.773291  0.146014  0.716147  1
  O  O14  1  0.773291  0.646014  0.783853  1
  O  O15  1  0.226709  0.853986  0.283853  1
  O  O16  1  0.752207  0.166912  0.437352  1
  O  O17  1  0.247793  0.333088  0.937352  1
  O  O18  1  0.247793  0.833088  0.562648  1
  O  O19  1  0.752207  0.666912  0.062648  1
  O  O20  1  0.642486  0.149396  0.095372  1
  O  O21  1  0.357514  0.350604  0.595372  1
  O  O22  1  0.357514  0.850604  0.904628  1
  O  O23  1  0.642486  0.649396  0.404628  1
