# generated using pymatgen
data_K3Bi5(PO4)6
_symmetry_space_group_name_H-M   'P 1'
_cell_length_a   7.05555233
_cell_length_b   9.59219305
_cell_length_c   17.77469045
_cell_angle_alpha   81.42957158
_cell_angle_beta   78.55265778
_cell_angle_gamma   68.42018849
_symmetry_Int_Tables_number   1
_chemical_formula_structural   K3Bi5(PO4)6
_chemical_formula_sum   'K6 Bi10 P12 O48'
_cell_volume   1092.56537907
_cell_formula_units_Z   2
loop_
 _symmetry_equiv_pos_site_id
 _symmetry_equiv_pos_as_xyz
  1  'x, y, z'
loop_
 _atom_site_type_symbol
 _atom_site_label
 _atom_site_symmetry_multiplicity
 _atom_site_fract_x
 _atom_site_fract_y
 _atom_site_fract_z
 _atom_site_occupancy
  K  K0  1  0.686928  0.749893  0.250102  1
  K  K1  1  0.313072  0.250107  0.749898  1
  K  K2  1  0.521545  0.085553  0.070024  1
  K  K3  1  0.323002  0.585793  0.569903  1
  K  K4  1  0.478455  0.914447  0.929976  1
  K  K5  1  0.676998  0.414207  0.430097  1
  Bi  Bi6  1  0.236431  0.196883  0.528638  1
  Bi  Bi7  1  0.166829  0.153495  0.295680  1
  Bi  Bi8  1  0.384044  0.653442  0.795690  1
  Bi  Bi9  1  0.833171  0.846505  0.704320  1
  Bi  Bi10  1  0.038003  0.696902  0.028631  1
  Bi  Bi11  1  0.763569  0.803117  0.471362  1
  Bi  Bi12  1  0.961997  0.303098  0.971369  1
  Bi  Bi13  1  0.852659  0.249994  0.750024  1
  Bi  Bi14  1  0.147341  0.750006  0.249976  1
  Bi  Bi15  1  0.615956  0.346558  0.204310  1
  P  P16  1  0.846266  0.526694  0.618266  1
  P  P17  1  0.681715  0.082151  0.348869  1
  P  P18  1  0.112741  0.417876  0.151133  1
  P  P19  1  0.543071  0.648904  0.091322  1
  P  P20  1  0.887259  0.582124  0.848867  1
  P  P21  1  0.318285  0.917849  0.651131  1
  P  P22  1  0.991349  0.973285  0.881735  1
  P  P23  1  0.456929  0.351096  0.908678  1
  P  P24  1  0.716728  0.148858  0.591339  1
  P  P25  1  0.008651  0.026715  0.118265  1
  P  P26  1  0.153734  0.473306  0.381734  1
  P  P27  1  0.283272  0.851142  0.408661  1
  O  O28  1  0.133352  0.780424  0.457267  1
  O  O29  1  0.629063  0.280306  0.957267  1
  O  O30  1  0.950892  0.884517  0.118753  1
  O  O31  1  0.296850  0.845157  0.318050  1
  O  O32  1  0.692631  0.738962  0.075510  1
  O  O33  1  0.460120  0.654886  0.181940  1
  O  O34  1  0.213691  0.023959  0.415459  1
  O  O35  1  0.864752  0.931540  0.957142  1
  O  O36  1  0.867457  0.005216  0.813181  1
  O  O37  1  0.314242  0.505209  0.313176  1
  O  O38  1  0.418178  0.914248  0.565785  1
  O  O39  1  0.923871  0.415160  0.838229  1
  O  O40  1  0.674575  0.691551  0.826912  1
  O  O41  1  0.798898  0.161780  0.129935  1
  O  O42  1  0.307369  0.261038  0.924490  1
  O  O43  1  0.954299  0.615531  0.381253  1
  O  O44  1  0.177270  0.084799  0.661775  1
  O  O45  1  0.581822  0.085752  0.434215  1
  O  O46  1  0.135248  0.068460  0.042858  1
  O  O47  1  0.822730  0.915201  0.338225  1
  O  O48  1  0.090671  0.338250  0.370074  1
  O  O49  1  0.949646  0.365227  0.209171  1
  O  O50  1  0.492885  0.238929  0.575538  1
  O  O51  1  0.539880  0.345114  0.818060  1
  O  O52  1  0.806922  0.191578  0.326908  1
  O  O53  1  0.045701  0.384469  0.618747  1
  O  O54  1  0.685758  0.494791  0.686824  1
  O  O55  1  0.076129  0.584840  0.161771  1
  O  O56  1  0.325425  0.308449  0.173088  1
  O  O57  1  0.523980  0.134825  0.290833  1
  O  O58  1  0.653028  0.476095  0.084513  1
  O  O59  1  0.346972  0.523905  0.915487  1
  O  O60  1  0.101796  0.414275  0.065781  1
  O  O61  1  0.050354  0.634773  0.790829  1
  O  O62  1  0.246675  0.431536  0.457146  1
  O  O63  1  0.703150  0.154843  0.681950  1
  O  O64  1  0.370937  0.719694  0.042733  1
  O  O65  1  0.909329  0.661750  0.629926  1
  O  O66  1  0.507115  0.761071  0.424462  1
  O  O67  1  0.753325  0.568464  0.542854  1
  O  O68  1  0.866648  0.219576  0.542733  1
  O  O69  1  0.201102  0.838220  0.870065  1
  O  O70  1  0.049108  0.115483  0.881247  1
  O  O71  1  0.898204  0.585725  0.934219  1
  O  O72  1  0.193078  0.808422  0.673092  1
  O  O73  1  0.476020  0.865175  0.709167  1
  O  O74  1  0.132543  0.994784  0.186819  1
  O  O75  1  0.786309  0.976041  0.584541  1
