# generated using pymatgen
data_Rb2FeI4
_symmetry_space_group_name_H-M   'P 1'
_cell_length_a   7.89586348
_cell_length_b   8.34604991
_cell_length_c   10.49171902
_cell_angle_alpha   90.00000000
_cell_angle_beta   109.21604493
_cell_angle_gamma   90.00000000
_symmetry_Int_Tables_number   1
_chemical_formula_structural   Rb2FeI4
_chemical_formula_sum   'Rb4 Fe2 I8'
_cell_volume   652.87494204
_cell_formula_units_Z   2
loop_
 _symmetry_equiv_pos_site_id
 _symmetry_equiv_pos_as_xyz
  1  'x, y, z'
loop_
 _atom_site_type_symbol
 _atom_site_label
 _atom_site_symmetry_multiplicity
 _atom_site_fract_x
 _atom_site_fract_y
 _atom_site_fract_z
 _atom_site_occupancy
  Rb  Rb0  1  0.201442  0.740214  0.039655  1
  Rb  Rb1  1  0.289023  0.739314  0.582179  1
  Rb  Rb2  1  0.710977  0.239314  0.417821  1
  Rb  Rb3  1  0.798558  0.240214  0.960345  1
  Fe  Fe4  1  0.796221  0.744899  0.210846  1
  Fe  Fe5  1  0.203779  0.244899  0.789154  1
  I  I6  1  0.628229  0.750383  0.948074  1
  I  I7  1  0.583904  0.747726  0.358238  1
  I  I8  1  0.009681  0.493661  0.268900  1
  I  I9  1  0.371771  0.250383  0.051926  1
  I  I10  1  0.985037  0.492503  0.725476  1
  I  I11  1  0.416096  0.247726  0.641762  1
  I  I12  1  0.990319  0.993661  0.731100  1
  I  I13  1  0.014963  0.992503  0.274524  1
