# generated using pymatgen
data_KNa2Y(Si2O5)3
_symmetry_space_group_name_H-M   'P 1'
_cell_length_a   8.65719974
_cell_length_b   10.24496042
_cell_length_c   10.24496071
_cell_angle_alpha   63.31526556
_cell_angle_beta   65.00683740
_cell_angle_gamma   65.00683638
_symmetry_Int_Tables_number   1
_chemical_formula_structural   KNa2Y(Si2O5)3
_chemical_formula_sum   'K2 Na4 Y2 Si12 O30'
_cell_volume   704.79602432
_cell_formula_units_Z   2
loop_
 _symmetry_equiv_pos_site_id
 _symmetry_equiv_pos_as_xyz
  1  'x, y, z'
loop_
 _atom_site_type_symbol
 _atom_site_label
 _atom_site_symmetry_multiplicity
 _atom_site_fract_x
 _atom_site_fract_y
 _atom_site_fract_z
 _atom_site_occupancy
  K  K0  1  0.750000  0.569948  0.430052  1
  K  K1  1  0.250000  0.430052  0.569948  1
  Na  Na2  1  0.743446  0.756554  0.756554  1
  Na  Na3  1  0.256554  0.243446  0.243446  1
  Na  Na4  1  0.243446  0.756554  0.756554  1
  Na  Na5  1  0.756554  0.243446  0.243446  1
  Y  Y6  1  0.500000  0.000000  0.500000  1
  Y  Y7  1  0.000000  0.500000  0.000000  1
  Si  Si8  1  0.317940  0.824253  0.383969  1
  Si  Si9  1  0.649996  0.134075  0.065933  1
  Si  Si10  1  0.526162  0.616031  0.175747  1
  Si  Si11  1  0.149996  0.065933  0.134075  1
  Si  Si12  1  0.850004  0.934067  0.865925  1
  Si  Si13  1  0.026162  0.175747  0.616031  1
  Si  Si14  1  0.682060  0.175747  0.616031  1
  Si  Si15  1  0.350004  0.865925  0.934067  1
  Si  Si16  1  0.817940  0.383969  0.824253  1
  Si  Si17  1  0.473838  0.383969  0.824253  1
  Si  Si18  1  0.973838  0.824253  0.383969  1
  Si  Si19  1  0.182060  0.616031  0.175747  1
  O  O20  1  0.895331  0.496856  0.830308  1
  O  O21  1  0.291420  0.983751  0.238381  1
  O  O22  1  0.104669  0.503144  0.169692  1
  O  O23  1  0.427453  0.889234  0.755860  1
  O  O24  1  0.986448  0.983751  0.238381  1
  O  O25  1  0.222496  0.169692  0.503144  1
  O  O26  1  0.455861  0.680702  0.319298  1
  O  O27  1  0.604669  0.169692  0.503144  1
  O  O28  1  0.927453  0.755860  0.889234  1
  O  O29  1  0.208580  0.761619  0.016249  1
  O  O30  1  0.544139  0.319298  0.680702  1
  O  O31  1  0.572547  0.110766  0.244140  1
  O  O32  1  0.277504  0.496856  0.830308  1
  O  O33  1  0.013552  0.016249  0.761619  1
  O  O34  1  0.777504  0.830308  0.496856  1
  O  O35  1  0.878828  0.212222  0.530122  1
  O  O36  1  0.708580  0.016249  0.761619  1
  O  O37  1  0.378828  0.530122  0.212222  1
  O  O38  1  0.395331  0.830308  0.496856  1
  O  O39  1  0.955861  0.319298  0.680702  1
  O  O40  1  0.750000  0.974968  0.025032  1
  O  O41  1  0.722496  0.503144  0.169692  1
  O  O42  1  0.044139  0.680702  0.319298  1
  O  O43  1  0.250000  0.025032  0.974968  1
  O  O44  1  0.486448  0.238381  0.983751  1
  O  O45  1  0.513552  0.761619  0.016249  1
  O  O46  1  0.791420  0.238381  0.983751  1
  O  O47  1  0.621172  0.469878  0.787778  1
  O  O48  1  0.072547  0.244140  0.110766  1
  O  O49  1  0.121172  0.787778  0.469878  1
