# generated using pymatgen
data_TaPt3
_symmetry_space_group_name_H-M   'P 1'
_cell_length_a   4.93450331
_cell_length_b   5.61094602
_cell_length_c   27.68938030
_cell_angle_alpha   90.00000000
_cell_angle_beta   90.59060322
_cell_angle_gamma   90.00000000
_symmetry_Int_Tables_number   1
_chemical_formula_structural   TaPt3
_chemical_formula_sum   'Ta12 Pt36'
_cell_volume   766.60155965
_cell_formula_units_Z   12
loop_
 _symmetry_equiv_pos_site_id
 _symmetry_equiv_pos_as_xyz
  1  'x, y, z'
loop_
 _atom_site_type_symbol
 _atom_site_label
 _atom_site_symmetry_multiplicity
 _atom_site_fract_x
 _atom_site_fract_y
 _atom_site_fract_z
 _atom_site_occupancy
  Ta  Ta0  1  0.328484  0.750000  0.292525  1
  Ta  Ta1  1  0.995505  0.750000  0.625825  1
  Ta  Ta2  1  0.670485  0.250000  0.542352  1
  Ta  Ta3  1  0.996381  0.750000  0.791002  1
  Ta  Ta4  1  0.003619  0.250000  0.208998  1
  Ta  Ta5  1  0.662035  0.750000  0.959202  1
  Ta  Ta6  1  0.337965  0.250000  0.040798  1
  Ta  Ta7  1  0.004495  0.250000  0.374175  1
  Ta  Ta8  1  0.662930  0.750000  0.124267  1
  Ta  Ta9  1  0.671516  0.250000  0.707475  1
  Ta  Ta10  1  0.329515  0.750000  0.457648  1
  Ta  Ta11  1  0.337070  0.250000  0.875733  1
  Pt  Pt12  1  0.000653  0.250000  0.790456  1
  Pt  Pt13  1  0.165179  0.001357  0.125750  1
  Pt  Pt14  1  0.171435  0.498532  0.708530  1
  Pt  Pt15  1  0.837762  0.498386  0.041875  1
  Pt  Pt16  1  0.498628  0.498633  0.792404  1
  Pt  Pt17  1  0.501372  0.501367  0.207596  1
  Pt  Pt18  1  0.017544  0.750000  0.374789  1
  Pt  Pt19  1  0.831765  0.001390  0.459089  1
  Pt  Pt20  1  0.162238  0.501614  0.958125  1
  Pt  Pt21  1  0.999347  0.750000  0.209544  1
  Pt  Pt22  1  0.333858  0.250000  0.457155  1
  Pt  Pt23  1  0.165179  0.498643  0.125750  1
  Pt  Pt24  1  0.831765  0.498610  0.459089  1
  Pt  Pt25  1  0.648961  0.250000  0.958574  1
  Pt  Pt26  1  0.168235  0.501390  0.540911  1
  Pt  Pt27  1  0.666142  0.750000  0.542845  1
  Pt  Pt28  1  0.828565  0.501468  0.291470  1
  Pt  Pt29  1  0.162238  0.998386  0.958125  1
  Pt  Pt30  1  0.834821  0.998643  0.874250  1
  Pt  Pt31  1  0.504357  0.001481  0.375204  1
  Pt  Pt32  1  0.168235  0.998610  0.540911  1
  Pt  Pt33  1  0.171435  0.001468  0.708530  1
  Pt  Pt34  1  0.504357  0.498519  0.375204  1
  Pt  Pt35  1  0.332515  0.750000  0.876222  1
  Pt  Pt36  1  0.315355  0.250000  0.291894  1
  Pt  Pt37  1  0.837762  0.001614  0.041875  1
  Pt  Pt38  1  0.351039  0.750000  0.041426  1
  Pt  Pt39  1  0.684645  0.750000  0.708106  1
  Pt  Pt40  1  0.828565  0.998532  0.291470  1
  Pt  Pt41  1  0.667485  0.250000  0.123778  1
  Pt  Pt42  1  0.834821  0.501357  0.874250  1
  Pt  Pt43  1  0.501372  0.998633  0.207596  1
  Pt  Pt44  1  0.498628  0.001367  0.792404  1
  Pt  Pt45  1  0.982456  0.250000  0.625212  1
  Pt  Pt46  1  0.495643  0.501481  0.624796  1
  Pt  Pt47  1  0.495643  0.998519  0.624796  1
