# generated using pymatgen
data_Tl3Hg2S3ClO12
_symmetry_space_group_name_H-M   'P 1'
_cell_length_a   8.11573900
_cell_length_b   9.98962052
_cell_length_c   10.18244020
_cell_angle_alpha   90.00000000
_cell_angle_beta   110.56311605
_cell_angle_gamma   90.00000000
_symmetry_Int_Tables_number   1
_chemical_formula_structural   Tl3Hg2S3ClO12
_chemical_formula_sum   'Tl6 Hg4 S6 Cl2 O24'
_cell_volume   772.92505478
_cell_formula_units_Z   2
loop_
 _symmetry_equiv_pos_site_id
 _symmetry_equiv_pos_as_xyz
  1  'x, y, z'
loop_
 _atom_site_type_symbol
 _atom_site_label
 _atom_site_symmetry_multiplicity
 _atom_site_fract_x
 _atom_site_fract_y
 _atom_site_fract_z
 _atom_site_occupancy
  Tl  Tl0  1  0.908702  0.256609  0.728779  1
  Tl  Tl1  1  0.309931  0.123292  0.139404  1
  Tl  Tl2  1  0.690069  0.623292  0.860596  1
  Tl  Tl3  1  0.677667  0.445460  0.292334  1
  Tl  Tl4  1  0.091298  0.756609  0.271221  1
  Tl  Tl5  1  0.322333  0.945460  0.707666  1
  Hg  Hg6  1  0.243176  0.578331  0.958523  1
  Hg  Hg7  1  0.732045  0.861757  0.500825  1
  Hg  Hg8  1  0.756824  0.078331  0.041477  1
  Hg  Hg9  1  0.267955  0.361757  0.499175  1
  S  S10  1  0.982804  0.913376  0.892299  1
  S  S11  1  0.555503  0.797446  0.137823  1
  S  S12  1  0.017196  0.413376  0.107701  1
  S  S13  1  0.910840  0.114337  0.389446  1
  S  S14  1  0.444497  0.297445  0.862177  1
  S  S15  1  0.089160  0.614337  0.610554  1
  Cl  Cl16  1  0.520273  0.707192  0.515474  1
  Cl  Cl17  1  0.479727  0.207192  0.484526  1
  O  O18  1  0.505867  0.650835  0.093672  1
  O  O19  1  0.871629  0.046395  0.511800  1
  O  O20  1  0.952863  0.540223  0.643063  1
  O  O21  1  0.015145  0.459932  0.961493  1
  O  O22  1  0.427063  0.367206  0.986452  1
  O  O23  1  0.047136  0.040223  0.356937  1
  O  O24  1  0.729387  0.789097  0.253857  1
  O  O25  1  0.120734  0.992446  0.862529  1
  O  O26  1  0.572937  0.867206  0.013548  1
  O  O27  1  0.128371  0.546395  0.488200  1
  O  O28  1  0.976997  0.267869  0.094631  1
  O  O29  1  0.984855  0.959932  0.038507  1
  O  O30  1  0.965995  0.252260  0.442916  1
  O  O31  1  0.579699  0.358578  0.815760  1
  O  O32  1  0.420301  0.858578  0.184240  1
  O  O33  1  0.270613  0.289097  0.746143  1
  O  O34  1  0.879266  0.492446  0.137471  1
  O  O35  1  0.023003  0.767869  0.905369  1
  O  O36  1  0.494133  0.150835  0.906328  1
  O  O37  1  0.805683  0.938970  0.787663  1
  O  O38  1  0.740826  0.121889  0.266446  1
  O  O39  1  0.259174  0.621889  0.733554  1
  O  O40  1  0.194317  0.438970  0.212337  1
  O  O41  1  0.034005  0.752260  0.557084  1
