# generated using pymatgen
data_NaYbP2O7
_symmetry_space_group_name_H-M   'P 1'
_cell_length_a   5.49439927
_cell_length_b   9.29718612
_cell_length_c   13.16832252
_cell_angle_alpha   103.24495466
_cell_angle_beta   90.00000000
_cell_angle_gamma   90.00000000
_symmetry_Int_Tables_number   1
_chemical_formula_structural   NaYbP2O7
_chemical_formula_sum   'Na4 Yb4 P8 O28'
_cell_volume   654.77680542
_cell_formula_units_Z   4
loop_
 _symmetry_equiv_pos_site_id
 _symmetry_equiv_pos_as_xyz
  1  'x, y, z'
loop_
 _atom_site_type_symbol
 _atom_site_label
 _atom_site_symmetry_multiplicity
 _atom_site_fract_x
 _atom_site_fract_y
 _atom_site_fract_z
 _atom_site_occupancy
  Na  Na0  1  0.273051  0.136798  0.693604  1
  Na  Na1  1  0.726949  0.863202  0.306395  1
  Na  Na2  1  0.773051  0.363202  0.806396  1
  Na  Na3  1  0.226949  0.636798  0.193605  1
  Yb  Yb4  1  0.739050  0.269764  0.522469  1
  Yb  Yb5  1  0.239050  0.230236  0.977531  1
  Yb  Yb6  1  0.260950  0.730236  0.477531  1
  Yb  Yb7  1  0.760950  0.769764  0.022469  1
  P  P8  1  0.248805  0.471791  0.656109  1
  P  P9  1  0.783788  0.932660  0.619806  1
  P  P10  1  0.283788  0.567340  0.880194  1
  P  P11  1  0.716212  0.432660  0.119806  1
  P  P12  1  0.216212  0.067340  0.380194  1
  P  P13  1  0.751196  0.528209  0.343891  1
  P  P14  1  0.748804  0.028209  0.843891  1
  P  P15  1  0.251196  0.971791  0.156109  1
  O  O16  1  0.510606  0.610553  0.338084  1
  O  O17  1  0.705541  0.092420  0.622344  1
  O  O18  1  0.556551  0.589579  0.899763  1
  O  O19  1  0.294459  0.907580  0.377656  1
  O  O20  1  0.740781  0.943764  0.929154  1
  O  O21  1  0.278818  0.095030  0.265420  1
  O  O22  1  0.128373  0.676940  0.956772  1
  O  O23  1  0.010606  0.889447  0.161916  1
  O  O24  1  0.721182  0.904970  0.734580  1
  O  O25  1  0.259219  0.056236  0.070846  1
  O  O26  1  0.535646  0.137537  0.850552  1
  O  O27  1  0.964354  0.637537  0.350552  1
  O  O28  1  0.464354  0.862463  0.149448  1
  O  O29  1  0.056551  0.910421  0.600237  1
  O  O30  1  0.240781  0.556236  0.570846  1
  O  O31  1  0.989394  0.110553  0.838084  1
  O  O32  1  0.759219  0.443764  0.429154  1
  O  O33  1  0.221182  0.595030  0.765420  1
  O  O34  1  0.371627  0.176940  0.456772  1
  O  O35  1  0.778818  0.404970  0.234580  1
  O  O36  1  0.794459  0.592420  0.122344  1
  O  O37  1  0.489394  0.389447  0.661916  1
  O  O38  1  0.035646  0.362463  0.649448  1
  O  O39  1  0.205541  0.407580  0.877656  1
  O  O40  1  0.871627  0.323060  0.043228  1
  O  O41  1  0.628373  0.823060  0.543228  1
  O  O42  1  0.943449  0.089579  0.399763  1
  O  O43  1  0.443449  0.410421  0.100237  1
