# generated using pymatgen
data_CF2
_symmetry_space_group_name_H-M   'P 1'
_cell_length_a   6.20699095
_cell_length_b   6.37372735
_cell_length_c   6.72379359
_cell_angle_alpha   92.34148501
_cell_angle_beta   109.08003261
_cell_angle_gamma   94.32806062
_symmetry_Int_Tables_number   1
_chemical_formula_structural   CF2
_chemical_formula_sum   'C6 F12'
_cell_volume   250.06737995
_cell_formula_units_Z   6
loop_
 _symmetry_equiv_pos_site_id
 _symmetry_equiv_pos_as_xyz
  1  'x, y, z'
loop_
 _atom_site_type_symbol
 _atom_site_label
 _atom_site_symmetry_multiplicity
 _atom_site_fract_x
 _atom_site_fract_y
 _atom_site_fract_z
 _atom_site_occupancy
  C  C0  1  0.548277  0.825989  0.767018  1
  C  C1  1  0.451723  0.174011  0.232982  1
  C  C2  1  0.344624  0.743042  0.634611  1
  C  C3  1  0.655376  0.256958  0.365389  1
  C  C4  1  0.254615  0.288284  0.108417  1
  C  C5  1  0.745385  0.711716  0.891583  1
  F  F6  1  0.692815  0.499595  0.870842  1
  F  F7  1  0.720424  0.460936  0.409106  1
  F  F8  1  0.812931  0.774941  0.100638  1
  F  F9  1  0.931608  0.753553  0.828329  1
  F  F10  1  0.307185  0.500405  0.129158  1
  F  F11  1  0.187069  0.225059  0.899362  1
  F  F12  1  0.068392  0.246447  0.171672  1
  F  F13  1  0.591090  0.039018  0.795363  1
  F  F14  1  0.183879  0.861385  0.530871  1
  F  F15  1  0.279576  0.539064  0.590894  1
  F  F16  1  0.816121  0.138615  0.469129  1
  F  F17  1  0.408910  0.960982  0.204637  1
