# generated using pymatgen
data_Cd2AsO4F
_symmetry_space_group_name_H-M   'P 1'
_cell_length_a   6.98953804
_cell_length_b   8.06821530
_cell_length_c   10.20507568
_cell_angle_alpha   72.69263759
_cell_angle_beta   69.97354434
_cell_angle_gamma   64.33219398
_symmetry_Int_Tables_number   1
_chemical_formula_structural   Cd2AsO4F
_chemical_formula_sum   'Cd8 As4 O16 F4'
_cell_volume   479.72254069
_cell_formula_units_Z   4
loop_
 _symmetry_equiv_pos_site_id
 _symmetry_equiv_pos_as_xyz
  1  'x, y, z'
loop_
 _atom_site_type_symbol
 _atom_site_label
 _atom_site_symmetry_multiplicity
 _atom_site_fract_x
 _atom_site_fract_y
 _atom_site_fract_z
 _atom_site_occupancy
  Cd  Cd0  1  0.687176  0.114597  0.990496  1
  Cd  Cd1  1  0.792269  0.385403  0.509504  1
  Cd  Cd2  1  0.312824  0.885403  0.009504  1
  Cd  Cd3  1  0.207731  0.614597  0.490496  1
  Cd  Cd4  1  0.258491  0.041341  0.651474  1
  Cd  Cd5  1  0.951306  0.458659  0.848526  1
  Cd  Cd6  1  0.741509  0.958659  0.348526  1
  Cd  Cd7  1  0.048694  0.541341  0.151474  1
  As  As8  1  0.416693  0.547381  0.806885  1
  As  As9  1  0.770959  0.952619  0.693115  1
  As  As10  1  0.583307  0.452619  0.193115  1
  As  As11  1  0.229041  0.047381  0.306885  1
  O  O12  1  0.605322  0.034925  0.577946  1
  O  O13  1  0.218193  0.465075  0.922054  1
  O  O14  1  0.394678  0.965075  0.422054  1
  O  O15  1  0.781807  0.534925  0.077946  1
  O  O16  1  0.644674  0.224143  0.185219  1
  O  O17  1  0.054036  0.275857  0.314781  1
  O  O18  1  0.355326  0.775857  0.814781  1
  O  O19  1  0.945964  0.724143  0.685219  1
  O  O20  1  0.546058  0.471102  0.364415  1
  O  O21  1  0.381574  0.028898  0.135585  1
  O  O22  1  0.453942  0.528898  0.635585  1
  O  O23  1  0.618426  0.971102  0.864415  1
  O  O24  1  0.342810  0.596354  0.142552  1
  O  O25  1  0.081715  0.903646  0.357448  1
  O  O26  1  0.657190  0.403646  0.857448  1
  O  O27  1  0.918285  0.096354  0.642552  1
  F  F28  1  0.900267  0.634050  0.389394  1
  F  F29  1  0.923711  0.865950  0.110606  1
  F  F30  1  0.099733  0.365950  0.610606  1
  F  F31  1  0.076289  0.134050  0.889394  1
