# generated using pymatgen
data_Ho7In(CoGe3)4
_symmetry_space_group_name_H-M   'P 1'
_cell_length_a   4.17662010
_cell_length_b   10.38062959
_cell_length_c   10.38062959
_cell_angle_alpha   90.00000000
_cell_angle_beta   90.00000000
_cell_angle_gamma   90.00000000
_symmetry_Int_Tables_number   1
_chemical_formula_structural   Ho7In(CoGe3)4
_chemical_formula_sum   'Ho7 In1 Co4 Ge12'
_cell_volume   450.06201799
_cell_formula_units_Z   1
loop_
 _symmetry_equiv_pos_site_id
 _symmetry_equiv_pos_as_xyz
  1  'x, y, z'
loop_
 _atom_site_type_symbol
 _atom_site_label
 _atom_site_symmetry_multiplicity
 _atom_site_fract_x
 _atom_site_fract_y
 _atom_site_fract_z
 _atom_site_occupancy
  Ho  Ho0  1  0.500000  0.677651  0.674803  1
  Ho  Ho1  1  0.500000  0.674803  0.322349  1
  Ho  Ho2  1  0.000000  0.000000  0.000000  1
  Ho  Ho3  1  0.500000  0.322349  0.325197  1
  Ho  Ho4  1  0.500000  0.500000  0.000000  1
  Ho  Ho5  1  0.500000  0.325197  0.677651  1
  Ho  Ho6  1  0.500000  0.000000  0.500000  1
  In  In7  1  0.000000  0.500000  0.500000  1
  Co  Co8  1  0.000000  0.278536  0.117696  1
  Co  Co9  1  0.000000  0.117696  0.721464  1
  Co  Co10  1  0.000000  0.721464  0.882304  1
  Co  Co11  1  0.000000  0.882304  0.278536  1
  Ge  Ge12  1  0.000000  0.787774  0.486432  1
  Ge  Ge13  1  0.000000  0.513568  0.787774  1
  Ge  Ge14  1  0.000000  0.212226  0.513568  1
  Ge  Ge15  1  0.500000  0.194393  0.065366  1
  Ge  Ge16  1  0.000000  0.285076  0.887232  1
  Ge  Ge17  1  0.000000  0.887232  0.714924  1
  Ge  Ge18  1  0.500000  0.805607  0.934634  1
  Ge  Ge19  1  0.500000  0.065366  0.805607  1
  Ge  Ge20  1  0.000000  0.714924  0.112768  1
  Ge  Ge21  1  0.500000  0.934634  0.194393  1
  Ge  Ge22  1  0.000000  0.112768  0.285076  1
  Ge  Ge23  1  0.000000  0.486432  0.212226  1
