# generated using pymatgen
data_UBC
_symmetry_space_group_name_H-M   'P 1'
_cell_length_a   3.28605982
_cell_length_b   3.63009894
_cell_length_c   6.24462961
_cell_angle_alpha   106.89733371
_cell_angle_beta   90.00000000
_cell_angle_gamma   90.00000000
_symmetry_Int_Tables_number   1
_chemical_formula_structural   UBC
_chemical_formula_sum   'U2 B2 C2'
_cell_volume   71.27448418
_cell_formula_units_Z   2
loop_
 _symmetry_equiv_pos_site_id
 _symmetry_equiv_pos_as_xyz
  1  'x, y, z'
loop_
 _atom_site_type_symbol
 _atom_site_label
 _atom_site_symmetry_multiplicity
 _atom_site_fract_x
 _atom_site_fract_y
 _atom_site_fract_z
 _atom_site_occupancy
  B  B0  1  0.250000  0.534296  0.068592  1
  B  B1  1  0.750000  0.465704  0.931408  1
  C  C2  1  0.750000  0.333504  0.667008  1
  C  C3  1  0.250000  0.666496  0.332992  1
  U  U4  1  0.250000  0.862163  0.724325  1
  U  U5  1  0.750000  0.137837  0.275675  1
