# generated using pymatgen
data_Sb2SNF11
_symmetry_space_group_name_H-M   'P 1'
_cell_length_a   8.30907261
_cell_length_b   10.47766811
_cell_length_c   12.05195472
_cell_angle_alpha   90.00000000
_cell_angle_beta   90.00000000
_cell_angle_gamma   92.58813576
_symmetry_Int_Tables_number   1
_chemical_formula_structural   Sb2SNF11
_chemical_formula_sum   'Sb8 S4 N4 F44'
_cell_volume   1048.16933775
_cell_formula_units_Z   4
loop_
 _symmetry_equiv_pos_site_id
 _symmetry_equiv_pos_as_xyz
  1  'x, y, z'
loop_
 _atom_site_type_symbol
 _atom_site_label
 _atom_site_symmetry_multiplicity
 _atom_site_fract_x
 _atom_site_fract_y
 _atom_site_fract_z
 _atom_site_occupancy
  Sb  Sb0  1  0.177835  0.958204  0.222308  1
  Sb  Sb1  1  0.177835  0.458204  0.277692  1
  Sb  Sb2  1  0.822165  0.041796  0.777692  1
  Sb  Sb3  1  0.318814  0.273529  0.550459  1
  Sb  Sb4  1  0.681186  0.726471  0.449541  1
  Sb  Sb5  1  0.318814  0.773529  0.949541  1
  Sb  Sb6  1  0.681186  0.226471  0.050459  1
  Sb  Sb7  1  0.822165  0.541796  0.722308  1
  S  S8  1  0.792243  0.238746  0.452097  1
  S  S9  1  0.207757  0.261254  0.952097  1
  S  S10  1  0.792243  0.738746  0.047903  1
  S  S11  1  0.207757  0.761254  0.547903  1
  N  N12  1  0.751154  0.123083  0.393426  1
  N  N13  1  0.248846  0.376917  0.893426  1
  N  N14  1  0.248846  0.876917  0.606574  1
  N  N15  1  0.751154  0.623083  0.106574  1
  F  F16  1  0.071922  0.562091  0.174904  1
  F  F17  1  0.288078  0.838391  0.111388  1
  F  F18  1  0.868378  0.937534  0.902019  1
  F  F19  1  0.230036  0.834035  0.331473  1
  F  F20  1  0.131622  0.062466  0.097981  1
  F  F21  1  0.383386  0.040089  0.239095  1
  F  F22  1  0.367994  0.616652  0.016781  1
  F  F23  1  0.272091  0.940297  0.902767  1
  F  F24  1  0.014060  0.643394  0.688218  1
  F  F25  1  0.769964  0.165965  0.668527  1
  F  F26  1  0.711922  0.161609  0.888612  1
  F  F27  1  0.769964  0.665965  0.831473  1
  F  F28  1  0.906224  0.774112  0.454576  1
  F  F29  1  0.539997  0.830629  0.974704  1
  F  F30  1  0.632006  0.883348  0.516781  1
  F  F31  1  0.014060  0.143394  0.811782  1
  F  F32  1  0.460003  0.669371  0.474704  1
  F  F33  1  0.351469  0.214108  0.696554  1
  F  F34  1  0.131622  0.562466  0.402019  1
  F  F35  1  0.985940  0.356606  0.311782  1
  F  F36  1  0.093776  0.225887  0.545424  1
  F  F37  1  0.648531  0.785892  0.303446  1
  F  F38  1  0.648531  0.285892  0.196554  1
  F  F39  1  0.539997  0.330629  0.525296  1
  F  F40  1  0.928078  0.937909  0.674904  1
  F  F41  1  0.711922  0.661609  0.611388  1
  F  F42  1  0.906224  0.274112  0.045424  1
  F  F43  1  0.272091  0.440297  0.597233  1
  F  F44  1  0.071922  0.062091  0.325096  1
  F  F45  1  0.230036  0.334035  0.168527  1
  F  F46  1  0.460003  0.169371  0.025296  1
  F  F47  1  0.288078  0.338391  0.388612  1
  F  F48  1  0.727909  0.559703  0.402767  1
  F  F49  1  0.727909  0.059703  0.097233  1
  F  F50  1  0.985940  0.856606  0.188218  1
  F  F51  1  0.632006  0.383348  0.983219  1
  F  F52  1  0.351469  0.714108  0.803446  1
  F  F53  1  0.616614  0.459911  0.739095  1
  F  F54  1  0.383386  0.540089  0.260905  1
  F  F55  1  0.928078  0.437909  0.825096  1
  F  F56  1  0.367994  0.116652  0.483219  1
  F  F57  1  0.868378  0.437534  0.597981  1
  F  F58  1  0.616614  0.959911  0.760905  1
  F  F59  1  0.093776  0.725888  0.954576  1
