# generated using pymatgen
data_Eu2Sn2O7
_symmetry_space_group_name_H-M   'P 1'
_cell_length_a   7.53584083
_cell_length_b   7.53584067
_cell_length_c   7.53584107
_cell_angle_alpha   59.99999828
_cell_angle_beta   59.99999899
_cell_angle_gamma   59.99999591
_symmetry_Int_Tables_number   1
_chemical_formula_structural   Eu2Sn2O7
_chemical_formula_sum   'Eu4 Sn4 O14'
_cell_volume   302.60781157
_cell_formula_units_Z   2
loop_
 _symmetry_equiv_pos_site_id
 _symmetry_equiv_pos_as_xyz
  1  'x, y, z'
loop_
 _atom_site_type_symbol
 _atom_site_label
 _atom_site_symmetry_multiplicity
 _atom_site_fract_x
 _atom_site_fract_y
 _atom_site_fract_z
 _atom_site_occupancy
  Eu  Eu0  1  0.500000  0.500000  0.500000  1
  Eu  Eu1  1  0.500000  0.500000  0.000000  1
  Eu  Eu2  1  0.000000  0.500000  0.500000  1
  Eu  Eu3  1  0.500000  0.000000  0.500000  1
  Sn  Sn4  1  0.000000  0.000000  0.000000  1
  Sn  Sn5  1  0.000000  0.000000  0.500000  1
  Sn  Sn6  1  0.500000  0.000000  0.000000  1
  Sn  Sn7  1  0.000000  0.500000  0.000000  1
  O  O8  1  0.915572  0.334428  0.334428  1
  O  O9  1  0.665572  0.665572  0.084428  1
  O  O10  1  0.084428  0.084428  0.665572  1
  O  O11  1  0.665572  0.084428  0.084428  1
  O  O12  1  0.665572  0.084428  0.665572  1
  O  O13  1  0.084428  0.665572  0.084428  1
  O  O14  1  0.334428  0.915572  0.334428  1
  O  O15  1  0.334428  0.334428  0.915572  1
  O  O16  1  0.915572  0.915572  0.334428  1
  O  O17  1  0.915572  0.334428  0.915572  1
  O  O18  1  0.084428  0.665572  0.665572  1
  O  O19  1  0.334428  0.915572  0.915572  1
  O  O20  1  0.375000  0.375000  0.375000  1
  O  O21  1  0.625000  0.625000  0.625000  1
