# generated using pymatgen
data_Ni4B3
_symmetry_space_group_name_H-M   'P 1'
_cell_length_a   4.01384077
_cell_length_b   4.01384128
_cell_length_c   7.83222766
_cell_angle_alpha   80.34860455
_cell_angle_beta   80.34860310
_cell_angle_gamma   75.00444161
_symmetry_Int_Tables_number   1
_chemical_formula_structural   Ni4B3
_chemical_formula_sum   'Ni8 B6'
_cell_volume   119.13448190
_cell_formula_units_Z   2
loop_
 _symmetry_equiv_pos_site_id
 _symmetry_equiv_pos_as_xyz
  1  'x, y, z'
loop_
 _atom_site_type_symbol
 _atom_site_label
 _atom_site_symmetry_multiplicity
 _atom_site_fract_x
 _atom_site_fract_y
 _atom_site_fract_z
 _atom_site_occupancy
  Ni  Ni0  1  0.202600  0.707322  0.491076  1
  Ni  Ni1  1  0.797400  0.292678  0.508924  1
  Ni  Ni2  1  0.365516  0.222936  0.289589  1
  Ni  Ni3  1  0.707322  0.202600  0.991076  1
  Ni  Ni4  1  0.292678  0.797400  0.008924  1
  Ni  Ni5  1  0.634484  0.777064  0.710411  1
  Ni  Ni6  1  0.222936  0.365516  0.789589  1
  Ni  Ni7  1  0.777064  0.634484  0.210411  1
  B  B8  1  0.688397  0.844199  0.440471  1
  B  B9  1  0.311603  0.155801  0.559529  1
  B  B10  1  0.155801  0.311603  0.059529  1
  B  B11  1  0.844199  0.688397  0.940471  1
  B  B12  1  0.921614  0.078386  0.250000  1
  B  B13  1  0.078386  0.921614  0.750000  1
