# generated using pymatgen
data_Li2Ni(PO3)4
_symmetry_space_group_name_H-M   'P 1'
_cell_length_a   9.40834796
_cell_length_b   10.23219244
_cell_length_c   9.24042721
_cell_angle_alpha   90.00000000
_cell_angle_beta   90.00000000
_cell_angle_gamma   90.00000000
_symmetry_Int_Tables_number   1
_chemical_formula_structural   Li2Ni(PO3)4
_chemical_formula_sum   'Li8 Ni4 P16 O48'
_cell_volume   889.55769494
_cell_formula_units_Z   4
loop_
 _symmetry_equiv_pos_site_id
 _symmetry_equiv_pos_as_xyz
  1  'x, y, z'
loop_
 _atom_site_type_symbol
 _atom_site_label
 _atom_site_symmetry_multiplicity
 _atom_site_fract_x
 _atom_site_fract_y
 _atom_site_fract_z
 _atom_site_occupancy
  Li  Li0  1  0.008102  0.822613  0.094814  1
  Li  Li1  1  0.008102  0.822613  0.405186  1
  Li  Li2  1  0.491898  0.322613  0.594814  1
  Li  Li3  1  0.491898  0.322613  0.905186  1
  Li  Li4  1  0.508102  0.677387  0.094814  1
  Li  Li5  1  0.508102  0.677387  0.405186  1
  Li  Li6  1  0.991898  0.177387  0.594814  1
  Li  Li7  1  0.991898  0.177387  0.905186  1
  Ni  Ni8  1  0.011059  0.203225  0.250000  1
  Ni  Ni9  1  0.488941  0.703225  0.750000  1
  Ni  Ni10  1  0.511059  0.296775  0.250000  1
  Ni  Ni11  1  0.988941  0.796775  0.750000  1
  O  O12  1  0.096527  0.276428  0.750000  1
  O  O13  1  0.110870  0.964599  0.750000  1
  O  O14  1  0.113224  0.725149  0.575643  1
  O  O15  1  0.113224  0.725149  0.924357  1
  O  O16  1  0.132214  0.125543  0.071488  1
  O  O17  1  0.132214  0.125543  0.428512  1
  O  O18  1  0.134729  0.365632  0.250000  1
  O  O19  1  0.148432  0.480857  0.614290  1
  O  O20  1  0.148432  0.480857  0.885710  1
  O  O21  1  0.147970  0.870624  0.250000  1
  O  O22  1  0.183720  0.580776  0.123448  1
  O  O23  1  0.183720  0.580776  0.376552  1
  O  O24  1  0.316280  0.080776  0.623448  1
  O  O25  1  0.316280  0.080776  0.876552  1
  O  O26  1  0.352030  0.370624  0.750000  1
  O  O27  1  0.351568  0.980857  0.114290  1
  O  O28  1  0.351568  0.980857  0.385710  1
  O  O29  1  0.365271  0.865632  0.750000  1
  O  O30  1  0.367786  0.625543  0.571488  1
  O  O31  1  0.367786  0.625543  0.928512  1
  O  O32  1  0.386776  0.225149  0.075643  1
  O  O33  1  0.386776  0.225149  0.424357  1
  O  O34  1  0.389130  0.464599  0.250000  1
  O  O35  1  0.403473  0.776427  0.250000  1
  O  O36  1  0.596527  0.223573  0.750000  1
  O  O37  1  0.610870  0.535401  0.750000  1
  O  O38  1  0.613224  0.774851  0.575643  1
  O  O39  1  0.613224  0.774851  0.924357  1
  O  O40  1  0.632214  0.374457  0.071488  1
  O  O41  1  0.632214  0.374457  0.428512  1
  O  O42  1  0.634729  0.134368  0.250000  1
  O  O43  1  0.648432  0.019143  0.614290  1
  O  O44  1  0.648432  0.019143  0.885710  1
  O  O45  1  0.647970  0.629376  0.250000  1
  O  O46  1  0.683720  0.919224  0.123448  1
  O  O47  1  0.683720  0.919224  0.376552  1
  O  O48  1  0.816280  0.419224  0.623448  1
  O  O49  1  0.816280  0.419224  0.876552  1
  O  O50  1  0.852030  0.129376  0.750000  1
  O  O51  1  0.851568  0.519143  0.114290  1
  O  O52  1  0.851568  0.519143  0.385710  1
  O  O53  1  0.865271  0.634368  0.750000  1
  O  O54  1  0.867786  0.874457  0.571488  1
  O  O55  1  0.867786  0.874457  0.928512  1
  O  O56  1  0.886776  0.274851  0.075643  1
  O  O57  1  0.886776  0.274851  0.424357  1
  O  O58  1  0.889130  0.035401  0.250000  1
  O  O59  1  0.903473  0.723573  0.250000  1
  P  P60  1  0.194652  0.391359  0.750000  1
  P  P61  1  0.210432  0.612073  0.542076  1
  P  P62  1  0.210432  0.612073  0.957924  1
  P  P63  1  0.229982  0.480957  0.250000  1
  P  P64  1  0.270018  0.980957  0.750000  1
  P  P65  1  0.289568  0.112073  0.042076  1
  P  P66  1  0.289568  0.112073  0.457924  1
  P  P67  1  0.305348  0.891359  0.250000  1
  P  P68  1  0.694652  0.108641  0.750000  1
  P  P69  1  0.710432  0.887927  0.542076  1
  P  P70  1  0.710432  0.887927  0.957924  1
  P  P71  1  0.729982  0.019043  0.250000  1
  P  P72  1  0.770018  0.519043  0.750000  1
  P  P73  1  0.789568  0.387927  0.042076  1
  P  P74  1  0.789568  0.387927  0.457924  1
  P  P75  1  0.805348  0.608641  0.250000  1
