# generated using pymatgen
data_La4Si4I3
_symmetry_space_group_name_H-M   'P 1'
_cell_length_a   4.26166124
_cell_length_b   12.49587609
_cell_length_c   12.67796259
_cell_angle_alpha   97.51883077
_cell_angle_beta   90.00000000
_cell_angle_gamma   99.81821174
_symmetry_Int_Tables_number   1
_chemical_formula_structural   La4Si4I3
_chemical_formula_sum   'La8 Si8 I6'
_cell_volume   659.36167921
_cell_formula_units_Z   2
loop_
 _symmetry_equiv_pos_site_id
 _symmetry_equiv_pos_as_xyz
  1  'x, y, z'
loop_
 _atom_site_type_symbol
 _atom_site_label
 _atom_site_symmetry_multiplicity
 _atom_site_fract_x
 _atom_site_fract_y
 _atom_site_fract_z
 _atom_site_occupancy
  La  La0  1  0.503248  0.006497  0.165382  1
  La  La1  1  0.073591  0.147182  0.445724  1
  La  La2  1  0.644213  0.288427  0.023251  1
  La  La3  1  0.926409  0.852818  0.554276  1
  La  La4  1  0.355787  0.711573  0.976749  1
  La  La5  1  0.361973  0.723945  0.290904  1
  La  La6  1  0.638027  0.276055  0.709096  1
  La  La7  1  0.496752  0.993503  0.834618  1
  Si  Si8  1  0.476703  0.953406  0.409091  1
  Si  Si9  1  0.957358  0.914715  0.316989  1
  Si  Si10  1  0.949654  0.899308  0.984258  1
  Si  Si11  1  0.523297  0.046594  0.590909  1
  Si  Si12  1  0.095691  0.191381  0.859939  1
  Si  Si13  1  0.050346  0.100692  0.015742  1
  Si  Si14  1  0.042642  0.085285  0.683011  1
  Si  Si15  1  0.904309  0.808619  0.140061  1
  I  I16  1  0.756641  0.513283  0.869742  1
  I  I17  1  0.243359  0.486717  0.130258  1
  I  I18  1  0.199820  0.399640  0.573050  1
  I  I19  1  0.631525  0.263049  0.288121  1
  I  I20  1  0.800180  0.600360  0.426950  1
  I  I21  1  0.368475  0.736951  0.711879  1
