# generated using pymatgen
data_K2B6H2O11
_symmetry_space_group_name_H-M   'P 1'
_cell_length_a   6.70486769
_cell_length_b   9.16642469
_cell_length_c   16.16559873
_cell_angle_alpha   92.32919198
_cell_angle_beta   90.00000000
_cell_angle_gamma   90.00000000
_symmetry_Int_Tables_number   1
_chemical_formula_structural   K2B6H2O11
_chemical_formula_sum   'K8 B24 H8 O44'
_cell_volume   992.71144039
_cell_formula_units_Z   4
loop_
 _symmetry_equiv_pos_site_id
 _symmetry_equiv_pos_as_xyz
  1  'x, y, z'
loop_
 _atom_site_type_symbol
 _atom_site_label
 _atom_site_symmetry_multiplicity
 _atom_site_fract_x
 _atom_site_fract_y
 _atom_site_fract_z
 _atom_site_occupancy
  K  K0  1  0.837759  0.518743  0.628552  1
  K  K1  1  0.583297  0.486271  0.156681  1
  K  K2  1  0.416703  0.513729  0.843319  1
  K  K3  1  0.662241  0.018743  0.128552  1
  K  K4  1  0.162241  0.481257  0.371448  1
  K  K5  1  0.083297  0.013729  0.343319  1
  K  K6  1  0.337759  0.981257  0.871448  1
  K  K7  1  0.916703  0.986271  0.656681  1
  B  B8  1  0.891637  0.313751  0.833005  1
  B  B9  1  0.687721  0.737571  0.985319  1
  B  B10  1  0.202547  0.230228  0.160256  1
  B  B11  1  0.539658  0.785144  0.549741  1
  B  B12  1  0.179188  0.939471  0.145701  1
  B  B13  1  0.312279  0.262429  0.014681  1
  B  B14  1  0.460342  0.214856  0.450259  1
  B  B15  1  0.108363  0.686249  0.166995  1
  B  B16  1  0.320812  0.439471  0.645701  1
  B  B17  1  0.679188  0.560529  0.354299  1
  B  B18  1  0.820812  0.060529  0.854299  1
  B  B19  1  0.391637  0.186249  0.666995  1
  B  B20  1  0.702547  0.269772  0.339744  1
  B  B21  1  0.668263  0.253714  0.948698  1
  B  B22  1  0.168263  0.246286  0.551302  1
  B  B23  1  0.297453  0.730228  0.660256  1
  B  B24  1  0.039658  0.714856  0.950259  1
  B  B25  1  0.187721  0.762429  0.514681  1
  B  B26  1  0.812279  0.237571  0.485319  1
  B  B27  1  0.608363  0.813751  0.333005  1
  B  B28  1  0.331737  0.746286  0.051302  1
  B  B29  1  0.960342  0.285144  0.049741  1
  B  B30  1  0.797453  0.769772  0.839744  1
  B  B31  1  0.831737  0.753714  0.448698  1
  H  H32  1  0.358304  0.259657  0.269099  1
  H  H33  1  0.858304  0.240343  0.230901  1
  H  H34  1  0.970896  0.515256  0.813640  1
  H  H35  1  0.529104  0.015256  0.313640  1
  H  H36  1  0.641696  0.740343  0.730901  1
  H  H37  1  0.141696  0.759657  0.769099  1
  H  H38  1  0.470896  0.984744  0.686360  1
  H  H39  1  0.029104  0.484744  0.186360  1
  O  O40  1  0.797034  0.598335  0.420946  1
  O  O41  1  0.202966  0.401665  0.579054  1
  O  O42  1  0.449739  0.276181  0.953273  1
  O  O43  1  1.000055  0.584288  0.209072  1
  O  O44  1  0.987753  0.700062  0.867177  1
  O  O45  1  0.702966  0.098335  0.920946  1
  O  O46  1  0.110420  0.269904  0.990222  1
  O  O47  1  0.737395  0.782492  0.530683  1
  O  O48  1  0.500055  0.915712  0.290928  1
  O  O49  1  0.569420  0.667290  0.313318  1
  O  O50  1  0.762605  0.282492  0.030683  1
  O  O51  1  0.858884  0.260026  0.404511  1
  O  O52  1  0.760530  0.189121  0.264134  1
  O  O53  1  0.297034  0.901665  0.079054  1
  O  O54  1  0.747362  0.355694  0.888479  1
  O  O55  1  0.389580  0.769904  0.490222  1
  O  O56  1  0.155791  0.077234  0.178204  1
  O  O57  1  0.655791  0.422766  0.321796  1
  O  O58  1  0.949739  0.223819  0.546727  1
  O  O59  1  0.260530  0.310879  0.235866  1
  O  O60  1  0.239470  0.810879  0.735866  1
  O  O61  1  0.512247  0.200062  0.367177  1
  O  O62  1  0.550261  0.723819  0.046727  1
  O  O63  1  0.252638  0.644306  0.111521  1
  O  O64  1  0.752638  0.855694  0.388479  1
  O  O65  1  0.844209  0.922766  0.821796  1
  O  O66  1  0.069420  0.832710  0.186682  1
  O  O67  1  0.739470  0.689121  0.764134  1
  O  O68  1  -0.000055  0.415712  0.790928  1
  O  O69  1  0.499945  0.084288  0.709072  1
  O  O70  1  0.344209  0.577234  0.678204  1
  O  O71  1  0.012247  0.299938  0.132823  1
  O  O72  1  0.641116  0.760026  0.904511  1
  O  O73  1  0.237395  0.717508  0.969317  1
  O  O74  1  0.430580  0.332710  0.686682  1
  O  O75  1  0.930580  0.167290  0.813318  1
  O  O76  1  0.262605  0.217508  0.469317  1
  O  O77  1  0.050261  0.776181  0.453273  1
  O  O78  1  0.889580  0.730096  0.009778  1
  O  O79  1  0.610420  0.230096  0.509778  1
  O  O80  1  0.141116  0.739974  0.595489  1
  O  O81  1  0.247362  0.144306  0.611521  1
  O  O82  1  0.358884  0.239974  0.095489  1
  O  O83  1  0.487753  0.799938  0.632823  1
