# generated using pymatgen
data_BaH16C4S4(NO5)2
_symmetry_space_group_name_H-M   'P 1'
_cell_length_a   8.17164139
_cell_length_b   8.31348158
_cell_length_c   23.67531079
_cell_angle_alpha   98.56985700
_cell_angle_beta   90.00000000
_cell_angle_gamma   90.00000000
_symmetry_Int_Tables_number   1
_chemical_formula_structural   BaH16C4S4(NO5)2
_chemical_formula_sum   'Ba4 H64 C16 S16 N8 O40'
_cell_volume   1590.41960070
_cell_formula_units_Z   4
loop_
 _symmetry_equiv_pos_site_id
 _symmetry_equiv_pos_as_xyz
  1  'x, y, z'
loop_
 _atom_site_type_symbol
 _atom_site_label
 _atom_site_symmetry_multiplicity
 _atom_site_fract_x
 _atom_site_fract_y
 _atom_site_fract_z
 _atom_site_occupancy
  Ba  Ba0  1  0.185698  0.690946  0.567353  1
  Ba  Ba1  1  0.814302  0.309054  0.432647  1
  Ba  Ba2  1  0.685698  0.809054  0.932647  1
  Ba  Ba3  1  0.314302  0.190946  0.067353  1
  H  H4  1  0.410516  0.398226  0.305851  1
  H  H5  1  0.271322  0.952407  0.934731  1
  H  H6  1  0.736914  0.181863  0.747933  1
  H  H7  1  0.217351  0.186293  0.684184  1
  H  H8  1  0.287023  0.176968  0.426039  1
  H  H9  1  0.240627  0.973309  0.438782  1
  H  H10  1  0.594872  0.360285  0.263666  1
  H  H11  1  0.898753  0.429268  0.585030  1
  H  H12  1  0.589484  0.601774  0.694149  1
  H  H13  1  0.002211  0.977796  0.371380  1
  H  H14  1  0.405128  0.639715  0.736334  1
  H  H15  1  0.763086  0.681863  0.247933  1
  H  H16  1  0.497789  0.477796  0.871380  1
  H  H17  1  0.398753  0.070732  0.914970  1
  H  H18  1  0.897832  0.198140  0.267377  1
  H  H19  1  0.787023  0.323032  0.073961  1
  H  H20  1  0.432554  0.680902  0.238834  1
  H  H21  1  0.932554  0.819098  0.261166  1
  H  H22  1  0.771322  0.547593  0.565269  1
  H  H23  1  0.470584  0.144489  0.622303  1
  H  H24  1  0.236914  0.318137  0.752067  1
  H  H25  1  0.069603  0.844879  0.160422  1
  H  H26  1  0.997789  0.022204  0.628620  1
  H  H27  1  0.433120  0.066526  0.461877  1
  H  H28  1  0.861923  0.785167  0.140663  1
  H  H29  1  0.502211  0.522204  0.128620  1
  H  H30  1  0.282649  0.686293  0.184184  1
  H  H31  1  0.878531  0.907620  0.655218  1
  H  H32  1  0.638077  0.285167  0.640663  1
  H  H33  1  0.567446  0.319098  0.761166  1
  H  H34  1  0.263086  0.818137  0.252067  1
  H  H35  1  0.759373  0.026691  0.561218  1
  H  H36  1  0.933120  0.433474  0.038123  1
  H  H37  1  0.529416  0.855511  0.377697  1
  H  H38  1  0.089484  0.898226  0.805851  1
  H  H39  1  0.397832  0.301860  0.232623  1
  H  H40  1  0.066880  0.566526  0.961877  1
  H  H41  1  0.138077  0.214833  0.859337  1
  H  H42  1  0.728678  0.047593  0.065269  1
  H  H43  1  0.101247  0.570732  0.414970  1
  H  H44  1  0.102168  0.801860  0.732623  1
  H  H45  1  0.094872  0.139715  0.236334  1
  H  H46  1  0.621469  0.407620  0.155218  1
  H  H47  1  0.569603  0.655121  0.339578  1
  H  H48  1  0.712977  0.823032  0.573961  1
  H  H49  1  0.212977  0.676968  0.926039  1
  H  H50  1  0.361923  0.714833  0.359337  1
  H  H51  1  0.228678  0.452407  0.434731  1
  H  H52  1  0.740627  0.526691  0.061218  1
  H  H53  1  0.601247  0.929268  0.085030  1
  H  H54  1  0.782649  0.813707  0.315816  1
  H  H55  1  0.566880  0.933474  0.538123  1
  H  H56  1  0.970584  0.355511  0.877697  1
  H  H57  1  0.378531  0.592380  0.844782  1
  H  H58  1  0.905128  0.860285  0.763666  1
  H  H59  1  0.602168  0.698140  0.767377  1
  H  H60  1  0.029416  0.644489  0.122303  1
  H  H61  1  0.430397  0.344879  0.660422  1
  H  H62  1  0.910516  0.101774  0.194149  1
  H  H63  1  0.259373  0.473309  0.938782  1
  H  H64  1  0.930397  0.155121  0.839578  1
  H  H65  1  0.717351  0.313707  0.815816  1
  H  H66  1  0.067446  0.180902  0.738834  1
  H  H67  1  0.121469  0.092380  0.344782  1
  C  C68  1  0.971647  0.183210  0.228347  1
  C  C69  1  0.508385  0.272389  0.628734  1
  C  C70  1  0.652396  0.241088  0.780407  1
  C  C71  1  0.303047  0.087349  0.454963  1
  C  C72  1  0.008385  0.227611  0.871266  1
  C  C73  1  0.347604  0.758912  0.219593  1
  C  C74  1  0.847604  0.741088  0.280407  1
  C  C75  1  0.028353  0.816790  0.771653  1
  C  C76  1  0.528353  0.683210  0.728347  1
  C  C77  1  0.991615  0.772389  0.128734  1
  C  C78  1  0.491615  0.727611  0.371266  1
  C  C79  1  0.696953  0.912651  0.545037  1
  C  C80  1  0.471647  0.316790  0.271653  1
  C  C81  1  0.152396  0.258912  0.719593  1
  C  C82  1  0.803047  0.412651  0.045037  1
  C  C83  1  0.196953  0.587349  0.954963  1
  S  S84  1  0.288538  0.662161  0.021512  1
  S  S85  1  0.016454  0.852257  0.063845  1
  S  S86  1  0.990631  0.374632  0.204361  1
  S  S87  1  0.964122  0.588004  0.307278  1
  S  S88  1  0.509369  0.874632  0.704361  1
  S  S89  1  0.788538  0.837839  0.478488  1
  S  S90  1  0.490631  0.125368  0.295639  1
  S  S91  1  0.464122  0.911996  0.192722  1
  S  S92  1  0.009369  0.625368  0.795639  1
  S  S93  1  0.535878  0.088004  0.807278  1
  S  S94  1  0.516454  0.647743  0.436155  1
  S  S95  1  0.483546  0.352257  0.563845  1
  S  S96  1  0.711462  0.337839  0.978488  1
  S  S97  1  0.035878  0.411996  0.692722  1
  S  S98  1  0.211462  0.162161  0.521512  1
  S  S99  1  0.983546  0.147743  0.936155  1
  N  N100  1  0.295794  0.335277  0.544607  1
  N  N101  1  0.795794  0.164723  0.955393  1
  N  N102  1  0.070440  0.498371  0.255439  1
  N  N103  1  0.204206  0.835277  0.044607  1
  N  N104  1  0.570440  0.001629  0.244561  1
  N  N105  1  0.704206  0.664723  0.455393  1
  N  N106  1  0.929560  0.501629  0.744561  1
  N  N107  1  0.429560  0.998371  0.755439  1
  O  O108  1  0.013173  0.088368  0.362727  1
  O  O109  1  0.240489  0.041457  0.559728  1
  O  O110  1  0.890243  0.643706  0.842185  1
  O  O111  1  0.420613  0.174879  0.848760  1
  O  O112  1  0.759511  0.958543  0.440272  1
  O  O113  1  0.486827  0.588368  0.862727  1
  O  O114  1  0.109757  0.356294  0.157815  1
  O  O115  1  0.174523  0.576743  0.810981  1
  O  O116  1  0.615308  0.010913  0.059086  1
  O  O117  1  0.825477  0.423257  0.189019  1
  O  O118  1  0.384692  0.989087  0.940914  1
  O  O119  1  0.740489  0.458543  0.940272  1
  O  O120  1  0.115308  0.489087  0.440914  1
  O  O121  1  0.986827  0.911632  0.637273  1
  O  O122  1  0.597454  0.263430  0.522589  1
  O  O123  1  0.512805  0.528389  0.576730  1
  O  O124  1  0.325477  0.076743  0.310981  1
  O  O125  1  0.920613  0.325121  0.651240  1
  O  O126  1  0.650857  0.980213  0.831455  1
  O  O127  1  0.079387  0.674879  0.348760  1
  O  O128  1  0.349143  0.019786  0.168545  1
  O  O129  1  0.579387  0.825121  0.151240  1
  O  O130  1  0.402546  0.736570  0.477411  1
  O  O131  1  0.487195  0.471611  0.423270  1
  O  O132  1  0.884692  0.510913  0.559086  1
  O  O133  1  0.459634  0.697419  0.011187  1
  O  O134  1  0.674523  0.923257  0.689019  1
  O  O135  1  0.259511  0.541457  0.059728  1
  O  O136  1  0.097454  0.236570  0.977411  1
  O  O137  1  0.609757  0.143706  0.342185  1
  O  O138  1  0.902546  0.763430  0.022589  1
  O  O139  1  0.040366  0.197419  0.511187  1
  O  O140  1  0.390243  0.856294  0.657815  1
  O  O141  1  0.012805  0.971611  0.923270  1
  O  O142  1  0.150857  0.519787  0.668545  1
  O  O143  1  0.987195  0.028389  0.076730  1
  O  O144  1  0.959634  0.802581  0.488813  1
  O  O145  1  0.849143  0.480214  0.331455  1
  O  O146  1  0.540366  0.302581  0.988813  1
  O  O147  1  0.513173  0.411632  0.137273  1
