# generated using pymatgen
data_NaInAs2O7
_symmetry_space_group_name_H-M   'P 1'
_cell_length_a   6.86199082
_cell_length_b   6.86190534
_cell_length_c   14.08750133
_cell_angle_alpha   100.55207766
_cell_angle_beta   103.07291844
_cell_angle_gamma   99.19199234
_symmetry_Int_Tables_number   1
_chemical_formula_structural   NaInAs2O7
_chemical_formula_sum   'Na4 In4 As8 O28'
_cell_volume   621.03644861
_cell_formula_units_Z   4
loop_
 _symmetry_equiv_pos_site_id
 _symmetry_equiv_pos_as_xyz
  1  'x, y, z'
loop_
 _atom_site_type_symbol
 _atom_site_label
 _atom_site_symmetry_multiplicity
 _atom_site_fract_x
 _atom_site_fract_y
 _atom_site_fract_z
 _atom_site_occupancy
  Na  Na0  1  0.883807  0.957995  0.119254  1
  Na  Na1  1  0.116193  0.042005  0.880746  1
  Na  Na2  1  0.338579  0.764469  0.380753  1
  Na  Na3  1  0.661421  0.235531  0.619247  1
  In  In4  1  0.730848  0.593821  0.859560  1
  In  In5  1  0.765691  0.128532  0.359514  1
  In  In6  1  0.234309  0.871468  0.640486  1
  In  In7  1  0.269152  0.406179  0.140440  1
  As  As8  1  0.156655  0.333382  0.575656  1
  As  As9  1  0.742354  0.419117  0.075722  1
  As  As10  1  0.257646  0.580883  0.924278  1
  As  As11  1  0.275331  0.247250  0.365495  1
  As  As12  1  0.724669  0.752750  0.634505  1
  As  As13  1  0.618326  0.090136  0.865573  1
  As  As14  1  0.381674  0.909864  0.134427  1
  As  As15  1  0.843345  0.666618  0.424344  1
  O  O16  1  0.464919  0.115677  0.392969  1
  O  O17  1  0.331718  0.426515  0.301348  1
  O  O18  1  0.535081  0.884323  0.607031  1
  O  O19  1  0.815262  0.611919  0.020873  1
  O  O20  1  0.668282  0.573485  0.698652  1
  O  O21  1  0.263000  0.729696  0.183436  1
  O  O22  1  0.693819  0.811661  0.369347  1
  O  O23  1  0.374865  0.969593  0.801400  1
  O  O24  1  0.575609  0.206384  0.981344  1
  O  O25  1  0.184738  0.388080  0.979127  1
  O  O26  1  0.737000  0.270305  0.816564  1
  O  O27  1  0.725061  0.594266  0.518725  1
  O  O28  1  0.424391  0.793616  0.018656  1
  O  O29  1  0.777300  0.927981  0.893045  1
  O  O30  1  0.091023  0.794431  0.479168  1
  O  O31  1  0.942422  0.324586  0.130691  1
  O  O32  1  0.306181  0.188339  0.630653  1
  O  O33  1  0.163633  0.558983  0.650037  1
  O  O34  1  0.591145  0.486478  0.150108  1
  O  O35  1  0.625135  0.030407  0.198600  1
  O  O36  1  0.046156  0.079481  0.316493  1
  O  O37  1  0.953844  0.920519  0.683507  1
  O  O38  1  0.274939  0.405734  0.481275  1
  O  O39  1  0.057578  0.675414  0.869309  1
  O  O40  1  0.408855  0.513522  0.849892  1
  O  O41  1  0.908977  0.205569  0.520832  1
  O  O42  1  0.836367  0.441017  0.349963  1
  O  O43  1  0.222700  0.072019  0.106955  1
