# generated using pymatgen
data_Rb3MnO3
_symmetry_space_group_name_H-M   'P 1'
_cell_length_a   7.04484436
_cell_length_b   7.17349120
_cell_length_c   12.06770965
_cell_angle_alpha   90.00000000
_cell_angle_beta   90.00000000
_cell_angle_gamma   98.27023992
_symmetry_Int_Tables_number   1
_chemical_formula_structural   Rb3MnO3
_chemical_formula_sum   'Rb12 Mn4 O12'
_cell_volume   603.51322411
_cell_formula_units_Z   4
loop_
 _symmetry_equiv_pos_site_id
 _symmetry_equiv_pos_as_xyz
  1  'x, y, z'
loop_
 _atom_site_type_symbol
 _atom_site_label
 _atom_site_symmetry_multiplicity
 _atom_site_fract_x
 _atom_site_fract_y
 _atom_site_fract_z
 _atom_site_occupancy
  Rb  Rb0  1  0.007122  0.073608  0.272308  1
  Rb  Rb1  1  0.992878  0.926392  0.727692  1
  Rb  Rb2  1  0.531190  0.506275  0.710073  1
  Rb  Rb3  1  0.531190  0.006275  0.789927  1
  Rb  Rb4  1  0.468810  0.493725  0.289927  1
  Rb  Rb5  1  0.342097  0.641869  0.989768  1
  Rb  Rb6  1  0.342097  0.141869  0.510232  1
  Rb  Rb7  1  0.657903  0.858131  0.489768  1
  Rb  Rb8  1  0.468810  0.993725  0.210073  1
  Rb  Rb9  1  0.657903  0.358131  0.010233  1
  Rb  Rb10  1  0.007122  0.573608  0.227692  1
  Rb  Rb11  1  0.992878  0.426392  0.772308  1
  Mn  Mn12  1  0.157928  0.156575  0.996348  1
  Mn  Mn13  1  0.842072  0.843425  0.003652  1
  Mn  Mn14  1  0.842072  0.343425  0.496348  1
  Mn  Mn15  1  0.157928  0.656575  0.503652  1
  O  O16  1  0.272934  0.801022  0.383396  1
  O  O17  1  0.898446  0.092995  0.929236  1
  O  O18  1  0.299900  0.773199  0.624995  1
  O  O19  1  0.700100  0.226801  0.375005  1
  O  O20  1  0.700100  0.726801  0.124995  1
  O  O21  1  0.101554  0.407005  0.429236  1
  O  O22  1  0.898446  0.592995  0.570764  1
  O  O23  1  0.727066  0.698978  0.883396  1
  O  O24  1  0.727066  0.198978  0.616604  1
  O  O25  1  0.272934  0.301022  0.116604  1
  O  O26  1  0.299900  0.273199  0.875005  1
  O  O27  1  0.101554  0.907005  0.070764  1
