# generated using pymatgen
data_AgPS3
_symmetry_space_group_name_H-M   'P 1'
_cell_length_a   7.31550329
_cell_length_b   7.31550330
_cell_length_c   6.59845963
_cell_angle_alpha   98.99811238
_cell_angle_beta   113.20523562
_cell_angle_gamma   120.23338523
_symmetry_Int_Tables_number   1
_chemical_formula_structural   AgPS3
_chemical_formula_sum   'Ag2 P2 S6'
_cell_volume   250.86575783
_cell_formula_units_Z   2
loop_
 _symmetry_equiv_pos_site_id
 _symmetry_equiv_pos_as_xyz
  1  'x, y, z'
loop_
 _atom_site_type_symbol
 _atom_site_label
 _atom_site_symmetry_multiplicity
 _atom_site_fract_x
 _atom_site_fract_y
 _atom_site_fract_z
 _atom_site_occupancy
  P  P0  1  0.062869  0.355462  0.418331  1
  P  P1  1  0.937131  0.644538  0.581669  1
  S  S2  1  0.680601  0.671112  0.351713  1
  S  S3  1  0.319399  0.328888  0.648287  1
  S  S4  1  0.785841  0.285841  0.500000  1
  S  S5  1  0.214159  0.714159  0.500000  1
  S  S6  1  0.112929  0.831927  0.944856  1
  S  S7  1  0.887071  0.168073  0.055144  1
  Ag  Ag8  1  0.746193  0.746193  0.000000  1
  Ag  Ag9  1  0.253807  0.253807  0.000000  1
