# generated using pymatgen
data_Cs2Li3F5
_symmetry_space_group_name_H-M   'P 1'
_cell_length_a   4.05038985
_cell_length_b   4.13460900
_cell_length_c   10.41359120
_cell_angle_alpha   101.45041706
_cell_angle_beta   90.00000000
_cell_angle_gamma   90.00000000
_symmetry_Int_Tables_number   1
_chemical_formula_structural   Cs2Li3F5
_chemical_formula_sum   'Cs2 Li3 F5'
_cell_volume   170.92311440
_cell_formula_units_Z   1
loop_
 _symmetry_equiv_pos_site_id
 _symmetry_equiv_pos_as_xyz
  1  'x, y, z'
loop_
 _atom_site_type_symbol
 _atom_site_label
 _atom_site_symmetry_multiplicity
 _atom_site_fract_x
 _atom_site_fract_y
 _atom_site_fract_z
 _atom_site_occupancy
  Cs  Cs0  1  0.000000  0.268283  0.536565  1
  Cs  Cs1  1  0.500000  0.618457  0.236915  1
  Li  Li2  1  0.000000  0.423117  0.846234  1
  Li  Li3  1  0.000000  0.013890  0.027781  1
  Li  Li4  1  0.500000  0.877299  0.754597  1
  F  F5  1  0.000000  0.914812  0.829625  1
  F  F6  1  0.000000  0.109887  0.219774  1
  F  F7  1  0.500000  0.779955  0.559909  1
  F  F8  1  0.500000  0.390607  0.781214  1
  F  F9  1  0.000000  0.512962  0.025925  1
