# generated using pymatgen
data_Li3ScF6
_symmetry_space_group_name_H-M   'P 1'
_cell_length_a   8.89653025
_cell_length_b   8.89653013
_cell_length_c   9.64906794
_cell_angle_alpha   90.00000000
_cell_angle_beta   90.00000000
_cell_angle_gamma   120.00000040
_symmetry_Int_Tables_number   1
_chemical_formula_structural   Li3ScF6
_chemical_formula_sum   'Li18 Sc6 F36'
_cell_volume   661.38951861
_cell_formula_units_Z   6
loop_
 _symmetry_equiv_pos_site_id
 _symmetry_equiv_pos_as_xyz
  1  'x, y, z'
loop_
 _atom_site_type_symbol
 _atom_site_label
 _atom_site_symmetry_multiplicity
 _atom_site_fract_x
 _atom_site_fract_y
 _atom_site_fract_z
 _atom_site_occupancy
  Li  Li0  1  0.340482  0.360811  0.963184  1
  Li  Li1  1  0.699462  0.000000  0.250000  1
  Li  Li2  1  0.699462  0.699462  0.750000  1
  Li  Li3  1  0.979671  0.639189  0.536816  1
  Li  Li4  1  0.659518  0.639189  0.036816  1
  Li  Li5  1  0.340482  0.979671  0.463184  1
  Li  Li6  1  0.639189  0.659518  0.463184  1
  Li  Li7  1  0.300538  0.300538  0.250000  1
  Li  Li8  1  0.000000  0.699462  0.250000  1
  Li  Li9  1  0.300538  0.000000  0.750000  1
  Li  Li10  1  0.020329  0.360811  0.463184  1
  Li  Li11  1  0.360811  0.020329  0.036816  1
  Li  Li12  1  0.020329  0.659518  0.963184  1
  Li  Li13  1  0.659518  0.020329  0.536816  1
  Li  Li14  1  0.979671  0.340482  0.036816  1
  Li  Li15  1  0.639189  0.979671  0.963184  1
  Li  Li16  1  0.000000  0.300538  0.750000  1
  Li  Li17  1  0.360811  0.340482  0.536816  1
  Sc  Sc18  1  0.666667  0.333333  0.263888  1
  Sc  Sc19  1  0.666667  0.333333  0.763888  1
  Sc  Sc20  1  0.000000  0.000000  0.000000  1
  Sc  Sc21  1  0.333333  0.666667  0.236112  1
  Sc  Sc22  1  0.000000  0.000000  0.500000  1
  Sc  Sc23  1  0.333333  0.666667  0.736112  1
  F  F24  1  0.882167  0.773158  0.892808  1
  F  F25  1  0.783986  0.552550  0.144810  1
  F  F26  1  0.447450  0.231436  0.144810  1
  F  F27  1  0.117833  0.890991  0.607192  1
  F  F28  1  0.783986  0.231436  0.644810  1
  F  F29  1  0.882167  0.109009  0.392808  1
  F  F30  1  0.552550  0.768564  0.855190  1
  F  F31  1  0.773158  0.890991  0.107192  1
  F  F32  1  0.571311  0.111925  0.381529  1
  F  F33  1  0.890991  0.117833  0.892808  1
  F  F34  1  0.109009  0.226842  0.607192  1
  F  F35  1  0.768564  0.216014  0.144810  1
  F  F36  1  0.540614  0.111925  0.881529  1
  F  F37  1  0.216014  0.768564  0.355190  1
  F  F38  1  0.888075  0.459386  0.381529  1
  F  F39  1  0.109009  0.882167  0.107192  1
  F  F40  1  0.773158  0.882167  0.607192  1
  F  F41  1  0.447450  0.216014  0.644810  1
  F  F42  1  0.226842  0.117833  0.392808  1
  F  F43  1  0.428689  0.888075  0.618471  1
  F  F44  1  0.226842  0.109009  0.892808  1
  F  F45  1  0.117833  0.226842  0.107192  1
  F  F46  1  0.459386  0.888075  0.118471  1
  F  F47  1  0.888075  0.428689  0.881529  1
  F  F48  1  0.768564  0.552550  0.644810  1
  F  F49  1  0.231436  0.447450  0.355190  1
  F  F50  1  0.111925  0.571311  0.118471  1
  F  F51  1  0.231436  0.783986  0.855190  1
  F  F52  1  0.216014  0.447450  0.855190  1
  F  F53  1  0.111925  0.540614  0.618471  1
  F  F54  1  0.890991  0.773158  0.392808  1
  F  F55  1  0.571311  0.459386  0.881529  1
  F  F56  1  0.540614  0.428689  0.381529  1
  F  F57  1  0.459386  0.571311  0.618471  1
  F  F58  1  0.428689  0.540614  0.118471  1
  F  F59  1  0.552550  0.783986  0.355190  1
