# generated using pymatgen
data_BeCl2
_symmetry_space_group_name_H-M   'P 1'
_cell_length_a   11.52321409
_cell_length_b   11.52321414
_cell_length_c   8.40369630
_cell_angle_alpha   90.00000000
_cell_angle_beta   90.00000000
_cell_angle_gamma   119.99999989
_symmetry_Int_Tables_number   1
_chemical_formula_structural   BeCl2
_chemical_formula_sum   'Be9 Cl18'
_cell_volume   966.38069278
_cell_formula_units_Z   9
loop_
 _symmetry_equiv_pos_site_id
 _symmetry_equiv_pos_as_xyz
  1  'x, y, z'
loop_
 _atom_site_type_symbol
 _atom_site_label
 _atom_site_symmetry_multiplicity
 _atom_site_fract_x
 _atom_site_fract_y
 _atom_site_fract_z
 _atom_site_occupancy
  Be  Be0  1  0.705103  0.262567  0.416426  1
  Be  Be1  1  0.262594  0.705153  0.365939  1
  Be  Be2  1  0.557464  0.294897  0.749759  1
  Be  Be3  1  0.000017  0.411638  0.224572  1
  Be  Be4  1  0.294847  0.557441  0.032606  1
  Be  Be5  1  0.737433  0.442536  0.083092  1
  Be  Be6  1  0.411621  0.999982  0.557905  1
  Be  Be7  1  0.442559  0.737406  0.699273  1
  Be  Be8  1  0.588362  0.588379  0.891239  1
  Cl  Cl9  1  0.457588  0.537241  0.076833  1
  Cl  Cl10  1  0.537027  0.457510  0.705693  1
  Cl  Cl11  1  0.381361  0.142509  0.660456  1
  Cl  Cl12  1  0.576184  0.276141  0.987485  1
  Cl  Cl13  1  0.238858  0.857556  0.455122  1
  Cl  Cl14  1  0.423885  0.700080  0.461509  1
  Cl  Cl15  1  0.079652  0.542412  0.410166  1
  Cl  Cl16  1  0.276195  0.576115  0.794842  1
  Cl  Cl17  1  0.462759  0.920348  0.743500  1
  Cl  Cl18  1  0.542490  0.079518  0.372360  1
  Cl  Cl19  1  0.299920  0.723805  0.128175  1
  Cl  Cl20  1  0.857491  0.238852  0.327123  1
  Cl  Cl21  1  0.723859  0.300043  0.654152  1
  Cl  Cl22  1  0.618698  0.761142  0.788456  1
  Cl  Cl23  1  0.699957  0.423816  0.320819  1
  Cl  Cl24  1  0.920482  0.462973  0.039026  1
  Cl  Cl25  1  0.142444  0.381302  0.121789  1
  Cl  Cl26  1  0.761148  0.618639  0.993789  1
