# generated using pymatgen
data_CaMg2TiAl2SiO10
_symmetry_space_group_name_H-M   'P 1'
_cell_length_a   9.02116576
_cell_length_b   9.91280126
_cell_length_c   10.48400340
_cell_angle_alpha   64.55437633
_cell_angle_beta   84.28916743
_cell_angle_gamma   65.74214155
_symmetry_Int_Tables_number   1
_chemical_formula_structural   CaMg2TiAl2SiO10
_chemical_formula_sum   'Ca4 Mg8 Ti4 Al8 Si4 O40'
_cell_volume   768.45228509
_cell_formula_units_Z   4
loop_
 _symmetry_equiv_pos_site_id
 _symmetry_equiv_pos_as_xyz
  1  'x, y, z'
loop_
 _atom_site_type_symbol
 _atom_site_label
 _atom_site_symmetry_multiplicity
 _atom_site_fract_x
 _atom_site_fract_y
 _atom_site_fract_z
 _atom_site_occupancy
  Al  Al0  1  0.047125  0.433171  0.203622  1
  Al  Al1  1  0.439777  0.051046  0.301925  1
  Al  Al2  1  0.346047  0.770923  0.255481  1
  Al  Al3  1  0.328284  0.768233  0.760285  1
  Al  Al4  1  0.769291  0.335145  0.445567  1
  Al  Al5  1  0.774305  0.340903  0.932730  1
  Al  Al6  1  0.567943  0.940243  0.695826  1
  Al  Al7  1  0.952590  0.567447  0.805383  1
  Ca  Ca8  1  0.396414  0.368053  0.421516  1
  Ca  Ca9  1  0.369014  0.392580  0.948350  1
  Ca  Ca10  1  0.625303  0.619562  0.041258  1
  Ca  Ca11  1  0.603953  0.631339  0.580727  1
  Mg  Mg12  1  0.055850  0.055786  0.345239  1
  Mg  Mg13  1  0.054641  0.057854  0.848267  1
  Mg  Mg14  1  0.265978  0.261042  0.745550  1
  Mg  Mg15  1  0.501120  0.998456  0.993446  1
  Mg  Mg16  1  0.822741  0.858199  0.460209  1
  Mg  Mg17  1  0.851284  0.828524  0.942791  1
  Mg  Mg18  1  0.949608  0.942827  0.153596  1
  Mg  Mg19  1  0.936632  0.944890  0.652683  1
  O  O20  1  0.044924  0.271804  0.173211  1
  O  O21  1  0.058093  0.281945  0.651165  1
  O  O22  1  0.122325  0.374377  0.384852  1
  O  O23  1  0.276747  0.049932  0.415424  1
  O  O24  1  0.136662  0.376679  0.877717  1
  O  O25  1  0.260988  0.063851  0.925573  1
  O  O26  1  0.062359  0.832317  0.018442  1
  O  O27  1  0.194754  0.497810  0.101519  1
  O  O28  1  0.371919  0.124365  0.118712  1
  O  O29  1  0.066238  0.829060  0.510502  1
  O  O30  1  0.209588  0.496993  0.567074  1
  O  O31  1  0.374112  0.132383  0.617324  1
  O  O32  1  0.165431  0.950738  0.209146  1
  O  O33  1  0.317085  0.625811  0.214893  1
  O  O34  1  0.502586  0.201395  0.298007  1
  O  O35  1  0.158503  0.957170  0.707483  1
  O  O36  1  0.492345  0.216006  0.822803  1
  O  O37  1  0.322338  0.620034  0.707110  1
  O  O38  1  0.373647  0.678323  0.443585  1
  O  O39  1  0.357919  0.662487  0.948680  1
  O  O40  1  0.629125  0.330520  0.061934  1
  O  O41  1  0.618014  0.318458  0.568676  1
  O  O42  1  0.668007  0.366247  0.290640  1
  O  O43  1  0.527546  0.777112  0.178195  1
  O  O44  1  0.832443  0.064914  0.282419  1
  O  O45  1  0.503157  0.793842  0.694000  1
  O  O46  1  0.678023  0.372104  0.778427  1
  O  O47  1  0.827531  0.069026  0.788985  1
  O  O48  1  0.614770  0.859944  0.371692  1
  O  O49  1  0.789790  0.512399  0.435106  1
  O  O50  1  0.955074  0.163173  0.482878  1
  O  O51  1  0.619261  0.873542  0.879639  1
  O  O52  1  0.799782  0.514518  0.903677  1
  O  O53  1  0.950766  0.159554  0.987251  1
  O  O54  1  0.737660  0.931948  0.091841  1
  O  O55  1  0.857870  0.610073  0.146802  1
  O  O56  1  0.721569  0.967133  0.584913  1
  O  O57  1  0.886604  0.608176  0.624439  1
  O  O58  1  0.936721  0.718703  0.340122  1
  O  O59  1  0.979121  0.725522  0.816966  1
  Si  Si60  1  0.224502  0.660766  0.069516  1
  Si  Si61  1  0.232757  0.660123  0.556442  1
  Si  Si62  1  0.665496  0.232658  0.236360  1
  Si  Si63  1  0.655144  0.233366  0.743717  1
  Ti  Ti64  1  0.153630  0.170144  0.044029  1
  Ti  Ti65  1  0.179796  0.144102  0.540836  1
  Ti  Ti66  1  0.740768  0.751012  0.244682  1
  Ti  Ti67  1  0.988610  0.501215  0.508145  1
