# generated using pymatgen
data_YbP5
_symmetry_space_group_name_H-M   'P 1'
_cell_length_a   5.60711384
_cell_length_b   5.52402429
_cell_length_c   16.65265410
_cell_angle_alpha   90.00000000
_cell_angle_beta   90.00000000
_cell_angle_gamma   103.54071762
_symmetry_Int_Tables_number   1
_chemical_formula_structural   YbP5
_chemical_formula_sum   'Yb4 P20'
_cell_volume   501.45933152
_cell_formula_units_Z   4
loop_
 _symmetry_equiv_pos_site_id
 _symmetry_equiv_pos_as_xyz
  1  'x, y, z'
loop_
 _atom_site_type_symbol
 _atom_site_label
 _atom_site_symmetry_multiplicity
 _atom_site_fract_x
 _atom_site_fract_y
 _atom_site_fract_z
 _atom_site_occupancy
  Yb  Yb0  1  0.026478  0.119644  0.509098  1
  Yb  Yb1  1  0.981428  0.421992  0.737455  1
  Yb  Yb2  1  0.973522  0.880356  0.009098  1
  Yb  Yb3  1  0.018572  0.578008  0.237455  1
  P  P4  1  0.708687  0.833772  0.328848  1
  P  P5  1  0.261968  0.787509  0.864605  1
  P  P6  1  0.427708  0.790868  0.679398  1
  P  P7  1  0.782924  0.870273  0.741548  1
  P  P8  1  0.654052  0.773345  0.864810  1
  P  P9  1  0.291313  0.166228  0.828848  1
  P  P10  1  0.414854  0.284809  0.062801  1
  P  P11  1  0.656177  0.373105  0.872106  1
  P  P12  1  0.238661  0.671749  0.496264  1
  P  P13  1  0.738032  0.212491  0.364605  1
  P  P14  1  0.658770  0.348489  0.594057  1
  P  P15  1  0.341230  0.651511  0.094057  1
  P  P16  1  0.585146  0.715191  0.562801  1
  P  P17  1  0.345948  0.226655  0.364810  1
  P  P18  1  0.343823  0.626895  0.372106  1
  P  P19  1  0.572292  0.209132  0.179398  1
  P  P20  1  0.341682  0.163023  0.663110  1
  P  P21  1  0.217076  0.129727  0.241548  1
  P  P22  1  0.658318  0.836977  0.163110  1
  P  P23  1  0.761339  0.328251  0.996264  1
