# generated using pymatgen
data_OsN2
_symmetry_space_group_name_H-M   'P 1'
_cell_length_a   4.93601271
_cell_length_b   4.94395948
_cell_length_c   4.97620556
_cell_angle_alpha   112.90785338
_cell_angle_beta   90.00000000
_cell_angle_gamma   90.00000000
_symmetry_Int_Tables_number   1
_chemical_formula_structural   OsN2
_chemical_formula_sum   'Os4 N8'
_cell_volume   111.85911592
_cell_formula_units_Z   4
loop_
 _symmetry_equiv_pos_site_id
 _symmetry_equiv_pos_as_xyz
  1  'x, y, z'
loop_
 _atom_site_type_symbol
 _atom_site_label
 _atom_site_symmetry_multiplicity
 _atom_site_fract_x
 _atom_site_fract_y
 _atom_site_fract_z
 _atom_site_occupancy
  Os  Os0  1  0.499197  0.234833  0.724624  1
  Os  Os1  1  0.500803  0.765167  0.275376  1
  Os  Os2  1  0.999197  0.765167  0.775376  1
  Os  Os3  1  0.000803  0.234833  0.224624  1
  N  N4  1  0.403294  0.807986  0.692998  1
  N  N5  1  0.096706  0.807986  0.192998  1
  N  N6  1  0.094382  0.321307  0.675852  1
  N  N7  1  0.405618  0.321307  0.175852  1
  N  N8  1  0.905618  0.678693  0.324148  1
  N  N9  1  0.594382  0.678693  0.824148  1
  N  N10  1  0.903294  0.192014  0.807002  1
  N  N11  1  0.596706  0.192014  0.307002  1
