# generated using pymatgen
data_RbCuCl3
_symmetry_space_group_name_H-M   'P 1'
_cell_length_a   6.99746860
_cell_length_b   7.04882816
_cell_length_c   12.58885744
_cell_angle_alpha   90.63402480
_cell_angle_beta   90.00000000
_cell_angle_gamma   119.75926390
_symmetry_Int_Tables_number   1
_chemical_formula_structural   RbCuCl3
_chemical_formula_sum   'Rb4 Cu4 Cl12'
_cell_volume   538.99900103
_cell_formula_units_Z   4
loop_
 _symmetry_equiv_pos_site_id
 _symmetry_equiv_pos_as_xyz
  1  'x, y, z'
loop_
 _atom_site_type_symbol
 _atom_site_label
 _atom_site_symmetry_multiplicity
 _atom_site_fract_x
 _atom_site_fract_y
 _atom_site_fract_z
 _atom_site_occupancy
  Rb  Rb0  1  0.677898  0.341139  0.125085  1
  Rb  Rb1  1  0.709218  0.329015  0.623712  1
  Rb  Rb2  1  0.336759  0.658861  0.874915  1
  Rb  Rb3  1  0.380203  0.670985  0.376288  1
  Cu  Cu4  1  0.981638  0.000000  0.000000  1
  Cu  Cu5  1  0.029401  0.006415  0.250333  1
  Cu  Cu6  1  0.076515  0.000000  0.500000  1
  Cu  Cu7  1  0.022986  0.993585  0.749667  1
  Cl  Cl8  1  0.836762  0.169108  0.900018  1
  Cl  Cl9  1  0.218910  0.826759  0.599458  1
  Cl  Cl10  1  0.910848  0.147438  0.389659  1
  Cl  Cl11  1  0.154180  0.866351  0.113380  1
  Cl  Cl12  1  0.201157  0.320164  0.662192  1
  Cl  Cl13  1  0.843354  0.668220  0.837557  1
  Cl  Cl14  1  0.667653  0.830892  0.099982  1
  Cl  Cl15  1  0.763410  0.852562  0.610341  1
  Cl  Cl16  1  0.392151  0.173241  0.400542  1
  Cl  Cl17  1  0.880992  0.679836  0.337808  1
  Cl  Cl18  1  0.175134  0.331780  0.162443  1
  Cl  Cl19  1  0.287829  0.133649  0.886620  1
