# generated using pymatgen
data_Cs2Si2Se5
_symmetry_space_group_name_H-M   'P 1'
_cell_length_a   9.93915988
_cell_length_b   11.87880446
_cell_length_c   11.87880378
_cell_angle_alpha   90.44684269
_cell_angle_beta   100.11391926
_cell_angle_gamma   100.11391565
_symmetry_Int_Tables_number   1
_chemical_formula_structural   Cs2Si2Se5
_chemical_formula_sum   'Cs8 Si8 Se20'
_cell_volume   1358.14574707
_cell_formula_units_Z   4
loop_
 _symmetry_equiv_pos_site_id
 _symmetry_equiv_pos_as_xyz
  1  'x, y, z'
loop_
 _atom_site_type_symbol
 _atom_site_label
 _atom_site_symmetry_multiplicity
 _atom_site_fract_x
 _atom_site_fract_y
 _atom_site_fract_z
 _atom_site_occupancy
  Cs  Cs0  1  0.625718  0.712764  0.979523  1
  Cs  Cs1  1  0.874282  0.020477  0.287236  1
  Cs  Cs2  1  0.374282  0.287236  0.020477  1
  Cs  Cs3  1  0.125718  0.979523  0.712764  1
  Cs  Cs4  1  0.131925  0.555627  0.708193  1
  Cs  Cs5  1  0.368075  0.291807  0.444373  1
  Cs  Cs6  1  0.868075  0.444373  0.291807  1
  Cs  Cs7  1  0.631925  0.708193  0.555627  1
  Se  Se8  1  0.968923  0.742631  0.869768  1
  Se  Se9  1  0.531077  0.130232  0.257369  1
  Se  Se10  1  0.031077  0.257369  0.130232  1
  Se  Se11  1  0.468923  0.869768  0.742631  1
  Se  Se12  1  0.482318  0.486317  0.746706  1
  Se  Se13  1  0.017682  0.253294  0.513683  1
  Se  Se14  1  0.517682  0.513683  0.253294  1
  Se  Se15  1  0.982318  0.746706  0.486317  1
  Se  Se16  1  0.241297  0.619126  0.052779  1
  Se  Se17  1  0.258703  0.947221  0.380874  1
  Se  Se18  1  0.758703  0.380874  0.947221  1
  Se  Se19  1  0.741297  0.052779  0.619126  1
  Se  Se20  1  0.973126  0.743999  0.178834  1
  Se  Se21  1  0.526874  0.821166  0.256001  1
  Se  Se22  1  0.026874  0.256001  0.821166  1
  Se  Se23  1  0.473126  0.178834  0.743999  1
  Se  Se24  1  0.250000  0.944877  0.055123  1
  Se  Se25  1  0.750000  0.055123  0.944877  1
  Se  Se26  1  0.750000  0.377503  0.622497  1
  Se  Se27  1  0.250000  0.622497  0.377503  1
  Si  Si28  1  0.618594  0.356926  0.768152  1
  Si  Si29  1  0.881406  0.231848  0.643074  1
  Si  Si30  1  0.381406  0.643074  0.231848  1
  Si  Si31  1  0.118594  0.768152  0.356926  1
  Si  Si32  1  0.109884  0.765079  0.036403  1
  Si  Si33  1  0.390116  0.963597  0.234921  1
  Si  Si34  1  0.890116  0.234921  0.963597  1
  Si  Si35  1  0.609884  0.036403  0.765079  1
