# generated using pymatgen
data_CsBrF6
_symmetry_space_group_name_H-M   'P 1'
_cell_length_a   5.39595302
_cell_length_b   5.39595320
_cell_length_c   5.39595274
_cell_angle_alpha   96.58629328
_cell_angle_beta   96.58629336
_cell_angle_gamma   96.58629300
_symmetry_Int_Tables_number   1
_chemical_formula_structural   CsBrF6
_chemical_formula_sum   'Cs1 Br1 F6'
_cell_volume   153.73652559
_cell_formula_units_Z   1
loop_
 _symmetry_equiv_pos_site_id
 _symmetry_equiv_pos_as_xyz
  1  'x, y, z'
loop_
 _atom_site_type_symbol
 _atom_site_label
 _atom_site_symmetry_multiplicity
 _atom_site_fract_x
 _atom_site_fract_y
 _atom_site_fract_z
 _atom_site_occupancy
  Cs  Cs0  1  0.500000  0.500000  0.500000  1
  Br  Br1  1  0.000000  0.000000  0.000000  1
  F  F2  1  0.809100  0.706064  0.076774  1
  F  F3  1  0.076774  0.809100  0.706064  1
  F  F4  1  0.706064  0.076774  0.809100  1
  F  F5  1  0.190900  0.293936  0.923226  1
  F  F6  1  0.923226  0.190900  0.293936  1
  F  F7  1  0.293936  0.923226  0.190900  1
