# generated using pymatgen
data_EuSi6
_symmetry_space_group_name_H-M   'P 1'
_cell_length_a   4.49882127
_cell_length_b   5.56710403
_cell_length_c   11.54863297
_cell_angle_alpha   90.00000000
_cell_angle_beta   90.00000000
_cell_angle_gamma   113.83185938
_symmetry_Int_Tables_number   1
_chemical_formula_structural   EuSi6
_chemical_formula_sum   'Eu2 Si12'
_cell_volume   264.57817465
_cell_formula_units_Z   2
loop_
 _symmetry_equiv_pos_site_id
 _symmetry_equiv_pos_as_xyz
  1  'x, y, z'
loop_
 _atom_site_type_symbol
 _atom_site_label
 _atom_site_symmetry_multiplicity
 _atom_site_fract_x
 _atom_site_fract_y
 _atom_site_fract_z
 _atom_site_occupancy
  Eu  Eu0  1  0.272986  0.545973  0.750000  1
  Eu  Eu1  1  0.727014  0.454027  0.250000  1
  Si  Si2  1  0.247153  0.494305  0.462738  1
  Si  Si3  1  0.752847  0.505695  0.537262  1
  Si  Si4  1  0.752847  0.505695  0.962738  1
  Si  Si5  1  0.247153  0.494305  0.037262  1
  Si  Si6  1  0.556348  0.112696  0.647050  1
  Si  Si7  1  0.443652  0.887304  0.352950  1
  Si  Si8  1  0.443652  0.887304  0.147050  1
  Si  Si9  1  0.556348  0.112696  0.852950  1
  Si  Si10  1  0.022134  0.044267  0.397329  1
  Si  Si11  1  0.977866  0.955733  0.602671  1
  Si  Si12  1  0.977866  0.955733  0.897329  1
  Si  Si13  1  0.022134  0.044267  0.102671  1
