# generated using pymatgen
data_PH6CNO3
_symmetry_space_group_name_H-M   'P 1'
_cell_length_a   9.19597780
_cell_length_b   9.24782456
_cell_length_c   10.18125064
_cell_angle_alpha   90.00000000
_cell_angle_beta   90.00000000
_cell_angle_gamma   90.00000000
_symmetry_Int_Tables_number   1
_chemical_formula_structural   PH6CNO3
_chemical_formula_sum   'P8 H48 C8 N8 O24'
_cell_volume   865.84195352
_cell_formula_units_Z   8
loop_
 _symmetry_equiv_pos_site_id
 _symmetry_equiv_pos_as_xyz
  1  'x, y, z'
loop_
 _atom_site_type_symbol
 _atom_site_label
 _atom_site_symmetry_multiplicity
 _atom_site_fract_x
 _atom_site_fract_y
 _atom_site_fract_z
 _atom_site_occupancy
  C  C0  1  0.070784  0.105716  0.162998  1
  C  C1  1  0.570784  0.394284  0.837002  1
  C  C2  1  0.929216  0.605716  0.337002  1
  C  C3  1  0.429216  0.894284  0.662998  1
  C  C4  1  0.929216  0.894284  0.837002  1
  C  C5  1  0.429216  0.605716  0.162998  1
  C  C6  1  0.070784  0.394284  0.662998  1
  C  C7  1  0.570784  0.105716  0.337002  1
  H  H8  1  0.182442  0.007996  0.322938  1
  H  H9  1  0.682442  0.492004  0.677062  1
  H  H10  1  0.817558  0.507996  0.177062  1
  H  H11  1  0.317558  0.992004  0.822938  1
  H  H12  1  0.817558  0.992004  0.677062  1
  H  H13  1  0.317558  0.507996  0.322938  1
  H  H14  1  0.182442  0.492004  0.822938  1
  H  H15  1  0.682442  0.007996  0.177062  1
  H  H16  1  0.008762  0.054581  0.354290  1
  H  H17  1  0.508762  0.445419  0.645710  1
  H  H18  1  0.991238  0.554581  0.145710  1
  H  H19  1  0.491238  0.945419  0.854290  1
  H  H20  1  0.991238  0.945419  0.645710  1
  H  H21  1  0.491238  0.554581  0.354290  1
  H  H22  1  0.008762  0.445419  0.854290  1
  H  H23  1  0.508762  0.054581  0.145710  1
  H  H24  1  0.140251  0.184781  0.348264  1
  H  H25  1  0.640251  0.315219  0.651736  1
  H  H26  1  0.859749  0.684781  0.151736  1
  H  H27  1  0.359749  0.815219  0.848264  1
  H  H28  1  0.859749  0.815219  0.651736  1
  H  H29  1  0.359749  0.684781  0.348264  1
  H  H30  1  0.140251  0.315219  0.848264  1
  H  H31  1  0.640251  0.184781  0.151736  1
  H  H32  1  0.008945  0.010734  0.129763  1
  H  H33  1  0.508945  0.489266  0.870237  1
  H  H34  1  0.991055  0.510734  0.370237  1
  H  H35  1  0.491055  0.989266  0.629763  1
  H  H36  1  0.991055  0.989266  0.870237  1
  H  H37  1  0.491055  0.510734  0.129763  1
  H  H38  1  0.008945  0.489266  0.629763  1
  H  H39  1  0.508945  0.010734  0.370237  1
  H  H40  1  0.000483  0.200940  0.152342  1
  H  H41  1  0.500483  0.299060  0.847658  1
  H  H42  1  0.999517  0.700940  0.347658  1
  H  H43  1  0.499517  0.799060  0.652342  1
  H  H44  1  0.999517  0.799060  0.847658  1
  H  H45  1  0.499517  0.700940  0.152342  1
  H  H46  1  0.000483  0.299060  0.652342  1
  H  H47  1  0.500483  0.200940  0.347658  1
  H  H48  1  0.252021  0.358956  0.110548  1
  H  H49  1  0.752021  0.141044  0.889452  1
  H  H50  1  0.747979  0.858956  0.389452  1
  H  H51  1  0.247979  0.641044  0.610548  1
  H  H52  1  0.747979  0.641044  0.889452  1
  H  H53  1  0.247979  0.858956  0.110548  1
  H  H54  1  0.252021  0.141044  0.610548  1
  H  H55  1  0.752021  0.358956  0.389452  1
  N  N56  1  0.104398  0.087213  0.305633  1
  N  N57  1  0.604398  0.412787  0.694367  1
  N  N58  1  0.895602  0.587213  0.194367  1
  N  N59  1  0.395602  0.912787  0.805633  1
  N  N60  1  0.895602  0.912787  0.694367  1
  N  N61  1  0.395602  0.587213  0.305633  1
  N  N62  1  0.104398  0.412787  0.805633  1
  N  N63  1  0.604398  0.087213  0.194367  1
  O  O64  1  0.334844  0.999311  0.094804  1
  O  O65  1  0.834844  0.500689  0.905196  1
  O  O66  1  0.665156  0.499311  0.405196  1
  O  O67  1  0.165156  0.000689  0.594804  1
  O  O68  1  0.665156  0.000689  0.905196  1
  O  O69  1  0.165156  0.499311  0.094804  1
  O  O70  1  0.334844  0.500689  0.594804  1
  O  O71  1  0.834844  0.999311  0.405196  1
  O  O72  1  0.313367  0.266123  0.121259  1
  O  O73  1  0.813367  0.233877  0.878741  1
  O  O74  1  0.686633  0.766123  0.378741  1
  O  O75  1  0.186633  0.733877  0.621259  1
  O  O76  1  0.686633  0.733877  0.878741  1
  O  O77  1  0.186633  0.766123  0.121259  1
  O  O78  1  0.313367  0.233877  0.621259  1
  O  O79  1  0.813367  0.266123  0.378741  1
  O  O80  1  0.191703  0.144571  0.920123  1
  O  O81  1  0.691703  0.355429  0.079877  1
  O  O82  1  0.808297  0.644571  0.579877  1
  O  O83  1  0.308297  0.855429  0.420123  1
  O  O84  1  0.808297  0.855429  0.079877  1
  O  O85  1  0.308297  0.644571  0.920123  1
  O  O86  1  0.191703  0.355429  0.420123  1
  O  O87  1  0.691703  0.144571  0.579877  1
  P  P88  1  0.234864  0.127364  0.062829  1
  P  P89  1  0.734864  0.372636  0.937171  1
  P  P90  1  0.765136  0.627364  0.437171  1
  P  P91  1  0.265136  0.872636  0.562829  1
  P  P92  1  0.765136  0.872636  0.937171  1
  P  P93  1  0.265136  0.627364  0.062829  1
  P  P94  1  0.234864  0.372636  0.562829  1
  P  P95  1  0.734864  0.127364  0.437171  1
