# generated using pymatgen
data_Na4UO5
_symmetry_space_group_name_H-M   'P 1'
_cell_length_a   4.64955593
_cell_length_b   5.90797951
_cell_length_c   5.90797952
_cell_angle_alpha   81.09244509
_cell_angle_beta   66.82767062
_cell_angle_gamma   66.82767056
_symmetry_Int_Tables_number   1
_chemical_formula_structural   Na4UO5
_chemical_formula_sum   'Na4 U1 O5'
_cell_volume   137.16017649
_cell_formula_units_Z   1
loop_
 _symmetry_equiv_pos_site_id
 _symmetry_equiv_pos_as_xyz
  1  'x, y, z'
loop_
 _atom_site_type_symbol
 _atom_site_label
 _atom_site_symmetry_multiplicity
 _atom_site_fract_x
 _atom_site_fract_y
 _atom_site_fract_z
 _atom_site_occupancy
  O  O0  1  0.745711  0.178420  0.330157  1
  O  O1  1  0.075868  0.669843  0.178420  1
  O  O2  1  0.924132  0.330157  0.821580  1
  O  O3  1  0.254289  0.821580  0.669843  1
  O  O4  1  0.500000  0.000000  0.000000  1
  Na  Na5  1  0.602090  0.594897  0.200922  1
  Na  Na6  1  0.397910  0.405103  0.799078  1
  Na  Na7  1  0.196988  0.200922  0.405103  1
  Na  Na8  1  0.803012  0.799078  0.594897  1
  U  U9  1  0.000000  0.000000  0.000000  1
