# generated using pymatgen
data_Na2Si2O5
_symmetry_space_group_name_H-M   'P 1'
_cell_length_a   4.89813412
_cell_length_b   8.48946127
_cell_length_c   12.19810870
_cell_angle_alpha   90.00000000
_cell_angle_beta   90.00000000
_cell_angle_gamma   90.56550471
_symmetry_Int_Tables_number   1
_chemical_formula_structural   Na2Si2O5
_chemical_formula_sum   'Na8 Si8 O20'
_cell_volume   507.20339220
_cell_formula_units_Z   4
loop_
 _symmetry_equiv_pos_site_id
 _symmetry_equiv_pos_as_xyz
  1  'x, y, z'
loop_
 _atom_site_type_symbol
 _atom_site_label
 _atom_site_symmetry_multiplicity
 _atom_site_fract_x
 _atom_site_fract_y
 _atom_site_fract_z
 _atom_site_occupancy
  Na  Na0  1  0.757275  0.369741  0.002819  1
  Na  Na1  1  0.233857  0.119474  0.962176  1
  Na  Na2  1  0.257275  0.869741  0.497181  1
  Na  Na3  1  0.742725  0.130259  0.502819  1
  Na  Na4  1  0.733857  0.619474  0.537824  1
  Na  Na5  1  0.266143  0.380526  0.462176  1
  Na  Na6  1  0.242725  0.630259  0.997181  1
  Na  Na7  1  0.766143  0.880526  0.037824  1
  Si  Si8  1  0.695680  0.676065  0.821174  1
  Si  Si9  1  0.806260  0.449530  0.302714  1
  Si  Si10  1  0.306260  0.949530  0.197286  1
  Si  Si11  1  0.193740  0.550470  0.697286  1
  Si  Si12  1  0.304320  0.323935  0.178826  1
  Si  Si13  1  0.804320  0.823935  0.321174  1
  Si  Si14  1  0.195680  0.176065  0.678826  1
  Si  Si15  1  0.693740  0.050470  0.802714  1
  O  O16  1  0.132290  0.861732  0.296653  1
  O  O17  1  0.739141  0.864694  0.446526  1
  O  O18  1  0.760859  0.635306  0.946526  1
  O  O19  1  0.260859  0.135306  0.553474  1
  O  O20  1  0.366177  0.074467  0.771811  1
  O  O21  1  0.752375  0.113168  0.924518  1
  O  O22  1  0.254869  0.361531  0.709254  1
  O  O23  1  0.866177  0.574467  0.728189  1
  O  O24  1  0.745131  0.638469  0.290746  1
  O  O25  1  0.247625  0.886832  0.075482  1
  O  O26  1  0.633823  0.925533  0.228189  1
  O  O27  1  0.747625  0.386832  0.424518  1
  O  O28  1  0.252375  0.613168  0.575482  1
  O  O29  1  0.245131  0.138469  0.209254  1
  O  O30  1  0.367710  0.638268  0.796653  1
  O  O31  1  0.754869  0.861531  0.790746  1
  O  O32  1  0.133823  0.425533  0.271811  1
  O  O33  1  0.867710  0.138268  0.703347  1
  O  O34  1  0.239141  0.364694  0.053474  1
  O  O35  1  0.632290  0.361732  0.203347  1
