# generated using pymatgen
data_La6P17Pd6
_symmetry_space_group_name_H-M   'P 1'
_cell_length_a   9.07808120
_cell_length_b   9.07808137
_cell_length_c   9.07808056
_cell_angle_alpha   109.47122107
_cell_angle_beta   109.47122146
_cell_angle_gamma   109.47121938
_symmetry_Int_Tables_number   1
_chemical_formula_structural   La6P17Pd6
_chemical_formula_sum   'La6 P17 Pd6'
_cell_volume   575.91750071
_cell_formula_units_Z   1
loop_
 _symmetry_equiv_pos_site_id
 _symmetry_equiv_pos_as_xyz
  1  'x, y, z'
loop_
 _atom_site_type_symbol
 _atom_site_label
 _atom_site_symmetry_multiplicity
 _atom_site_fract_x
 _atom_site_fract_y
 _atom_site_fract_z
 _atom_site_occupancy
  La  La0  1  0.000000  0.285768  0.285768  1
  La  La1  1  0.714232  1.000000  0.714232  1
  La  La2  1  0.285768  0.000000  0.285768  1
  La  La3  1  0.285768  0.285768  1.000000  1
  La  La4  1  0.714232  0.714232  0.000000  1
  La  La5  1  1.000000  0.714232  0.714232  1
  Pd  Pd6  1  0.500000  0.250000  0.750000  1
  Pd  Pd7  1  0.750000  0.500000  0.250000  1
  Pd  Pd8  1  0.250000  0.500000  0.750000  1
  Pd  Pd9  1  0.750000  0.250000  0.500000  1
  Pd  Pd10  1  0.250000  0.750000  0.500000  1
  Pd  Pd11  1  0.500000  0.750000  0.250000  1
  P  P12  1  0.637631  0.637631  0.419583  1
  P  P13  1  0.362369  0.781952  0.000000  1
  P  P14  1  0.781952  0.362369  0.000000  1
  P  P15  1  0.000000  0.781952  0.362369  1
  P  P16  1  0.580417  0.218048  0.218048  1
  P  P17  1  0.218048  0.580417  0.218048  1
  P  P18  1  0.781952  0.000000  0.362369  1
  P  P19  1  0.362369  1.000000  0.781952  1
  P  P20  1  1.000000  0.362369  0.781952  1
  P  P21  1  0.419583  0.637631  0.637631  1
  P  P22  1  0.637631  0.419583  0.637631  1
  P  P23  1  0.218048  0.218048  0.580417  1
  P  P24  1  0.432633  0.432633  0.432633  1
  P  P25  1  0.567367  1.000000  1.000000  1
  P  P26  1  1.000000  0.567367  1.000000  1
  P  P27  1  0.000000  0.000000  0.567367  1
  P  P28  1  0.000000  0.000000  0.000000  1
