# generated using pymatgen
data_B2S3
_symmetry_space_group_name_H-M   'P 1'
_cell_length_a   4.54610798
_cell_length_b   10.80679345
_cell_length_c   19.64244984
_cell_angle_alpha   90.00000000
_cell_angle_beta   101.27943261
_cell_angle_gamma   90.00000000
_symmetry_Int_Tables_number   1
_chemical_formula_structural   B2S3
_chemical_formula_sum   'B16 S24'
_cell_volume   946.37171971
_cell_formula_units_Z   8
loop_
 _symmetry_equiv_pos_site_id
 _symmetry_equiv_pos_as_xyz
  1  'x, y, z'
loop_
 _atom_site_type_symbol
 _atom_site_label
 _atom_site_symmetry_multiplicity
 _atom_site_fract_x
 _atom_site_fract_y
 _atom_site_fract_z
 _atom_site_occupancy
  B  B0  1  0.645978  0.313634  0.901187  1
  B  B1  1  0.897944  0.966191  0.318607  1
  B  B2  1  0.145978  0.186366  0.401187  1
  B  B3  1  0.602056  0.466191  0.181393  1
  B  B4  1  0.102056  0.033809  0.681393  1
  B  B5  1  0.854022  0.813634  0.598813  1
  B  B6  1  0.200017  0.781387  0.741369  1
  B  B7  1  0.299983  0.281387  0.758631  1
  B  B8  1  0.397944  0.533809  0.818607  1
  B  B9  1  0.799983  0.218613  0.258631  1
  B  B10  1  0.062983  0.901012  0.010340  1
  B  B11  1  0.437017  0.401012  0.489660  1
  B  B12  1  0.937017  0.098988  0.989660  1
  B  B13  1  0.562983  0.598988  0.510340  1
  B  B14  1  0.354022  0.686366  0.098813  1
  B  B15  1  0.700017  0.718613  0.241369  1
  S  S16  1  0.988214  0.702547  0.666612  1
  S  S17  1  0.115908  0.202944  0.678949  1
  S  S18  1  0.633720  0.763664  0.514813  1
  S  S19  1  0.488214  0.797453  0.166612  1
  S  S20  1  0.133720  0.736336  0.014813  1
  S  S21  1  0.398963  0.520006  0.097648  1
  S  S22  1  0.866280  0.263664  0.985187  1
  S  S23  1  0.731210  0.054149  0.243361  1
  S  S24  1  0.601037  0.479994  0.902352  1
  S  S25  1  0.231210  0.445851  0.743361  1
  S  S26  1  0.898963  0.979994  0.597648  1
  S  S27  1  0.011786  0.297453  0.333388  1
  S  S28  1  0.884092  0.797056  0.321051  1
  S  S29  1  0.268790  0.945851  0.756639  1
  S  S30  1  0.158548  0.031321  0.069661  1
  S  S31  1  0.341452  0.531321  0.430339  1
  S  S32  1  0.841452  0.968679  0.930339  1
  S  S33  1  0.384092  0.702944  0.821051  1
  S  S34  1  0.658548  0.468679  0.569661  1
  S  S35  1  0.615908  0.297056  0.178949  1
  S  S36  1  0.366280  0.236336  0.485187  1
  S  S37  1  0.101037  0.020006  0.402352  1
  S  S38  1  0.511786  0.202547  0.833388  1
  S  S39  1  0.768790  0.554149  0.256639  1
