# generated using pymatgen
data_In6Se7
_symmetry_space_group_name_H-M   'P 1'
_cell_length_a   4.13432739
_cell_length_b   9.61999365
_cell_length_c   18.02767172
_cell_angle_alpha   100.91087817
_cell_angle_beta   90.00000000
_cell_angle_gamma   90.00000000
_symmetry_Int_Tables_number   1
_chemical_formula_structural   In6Se7
_chemical_formula_sum   'In12 Se14'
_cell_volume   704.03886205
_cell_formula_units_Z   2
loop_
 _symmetry_equiv_pos_site_id
 _symmetry_equiv_pos_as_xyz
  1  'x, y, z'
loop_
 _atom_site_type_symbol
 _atom_site_label
 _atom_site_symmetry_multiplicity
 _atom_site_fract_x
 _atom_site_fract_y
 _atom_site_fract_z
 _atom_site_occupancy
  In  In0  1  0.743337  0.526353  0.727999  1
  In  In1  1  0.748562  0.671699  0.533761  1
  In  In2  1  0.252977  0.015659  0.603971  1
  In  In3  1  0.754713  0.352666  0.046960  1
  In  In4  1  0.254215  0.068779  0.124234  1
  In  In5  1  0.754215  0.931221  0.875766  1
  In  In6  1  0.248562  0.328301  0.466239  1
  In  In7  1  0.752977  0.984341  0.396029  1
  In  In8  1  0.754987  0.180764  0.813070  1
  In  In9  1  0.254987  0.819236  0.186930  1
  In  In10  1  0.254713  0.647334  0.953040  1
  In  In11  1  0.243337  0.473647  0.272001  1
  Se  Se12  1  0.754093  0.759286  0.273128  1
  Se  Se13  1  0.253642  0.753837  0.820370  1
  Se  Se14  1  0.246534  0.529859  0.592652  1
  Se  Se15  1  0.755679  0.443904  0.908143  1
  Se  Se16  1  0.254093  0.240714  0.726872  1
  Se  Se17  1  0.751223  0.879104  0.658105  1
  Se  Se18  1  0.753642  0.246163  0.179630  1
  Se  Se19  1  0.746534  0.470141  0.407348  1
  Se  Se20  1  0.753133  0.835818  0.006172  1
  Se  Se21  1  0.251223  0.120896  0.341895  1
  Se  Se22  1  0.255679  0.556096  0.091857  1
  Se  Se23  1  0.741805  0.169138  0.531993  1
  Se  Se24  1  0.241805  0.830862  0.468007  1
  Se  Se25  1  0.253133  0.164182  0.993828  1
