# generated using pymatgen
data_Na5Li(PO4)2
_symmetry_space_group_name_H-M   'P 1'
_cell_length_a   10.26370951
_cell_length_b   10.27690235
_cell_length_c   14.92099827
_cell_angle_alpha   90.00000000
_cell_angle_beta   90.00000000
_cell_angle_gamma   90.00000000
_symmetry_Int_Tables_number   1
_chemical_formula_structural   Na5Li(PO4)2
_chemical_formula_sum   'Na40 Li8 P16 O64'
_cell_volume   1573.85407118
_cell_formula_units_Z   8
loop_
 _symmetry_equiv_pos_site_id
 _symmetry_equiv_pos_as_xyz
  1  'x, y, z'
loop_
 _atom_site_type_symbol
 _atom_site_label
 _atom_site_symmetry_multiplicity
 _atom_site_fract_x
 _atom_site_fract_y
 _atom_site_fract_z
 _atom_site_occupancy
  Na  Na0  1  0.722412  0.753166  0.247759  1
  Na  Na1  1  0.723328  0.753438  0.751963  1
  Na  Na2  1  0.243030  0.007578  0.645118  1
  Na  Na3  1  0.223328  0.246562  0.748037  1
  Na  Na4  1  0.776672  0.253438  0.248037  1
  Na  Na5  1  0.725071  0.003686  0.386760  1
  Na  Na6  1  0.984260  0.759623  0.362740  1
  Na  Na7  1  0.984482  0.760075  0.635983  1
  Na  Na8  1  0.276672  0.746562  0.251963  1
  Na  Na9  1  0.275171  0.497229  0.112799  1
  Na  Na10  1  0.066236  0.517713  0.500218  1
  Na  Na11  1  0.515740  0.259623  0.637260  1
  Na  Na12  1  0.016788  0.036189  0.497986  1
  Na  Na13  1  0.566236  0.482287  0.999782  1
  Na  Na14  1  0.274929  0.496314  0.886760  1
  Na  Na15  1  0.933764  0.982287  0.000218  1
  Na  Na16  1  0.225071  0.996314  0.113240  1
  Na  Na17  1  0.774929  0.503686  0.613240  1
  Na  Na18  1  0.484260  0.240377  0.137260  1
  Na  Na19  1  0.015740  0.740377  0.862740  1
  Na  Na20  1  0.483212  0.536189  0.502014  1
  Na  Na21  1  0.433764  0.017713  0.499782  1
  Na  Na22  1  0.756429  0.494277  0.855216  1
  Na  Na23  1  0.756970  0.492422  0.145118  1
  Na  Na24  1  0.516788  0.963811  0.002014  1
  Na  Na25  1  0.256429  0.505723  0.644784  1
  Na  Na26  1  0.775171  0.502771  0.387201  1
  Na  Na27  1  0.983212  0.463811  0.997986  1
  Na  Na28  1  0.222412  0.246834  0.252241  1
  Na  Na29  1  0.777588  0.253166  0.752241  1
  Na  Na30  1  0.515518  0.260075  0.364017  1
  Na  Na31  1  0.743030  0.992422  0.854882  1
  Na  Na32  1  0.743571  0.994277  0.144784  1
  Na  Na33  1  0.256970  0.507578  0.354882  1
  Na  Na34  1  0.015518  0.739925  0.135983  1
  Na  Na35  1  0.277588  0.746834  0.747759  1
  Na  Na36  1  0.224829  0.997229  0.887201  1
  Na  Na37  1  0.724829  0.002771  0.612799  1
  Na  Na38  1  0.484482  0.239925  0.864017  1
  Na  Na39  1  0.243571  0.005723  0.355216  1
  Li  Li40  1  0.995734  0.260005  0.610155  1
  Li  Li41  1  0.995973  0.260711  0.389889  1
  Li  Li42  1  0.504027  0.760711  0.610111  1
  Li  Li43  1  0.495973  0.739289  0.110111  1
  Li  Li44  1  0.504266  0.760005  0.389845  1
  Li  Li45  1  0.495734  0.739995  0.889845  1
  Li  Li46  1  0.004266  0.239995  0.110155  1
  Li  Li47  1  0.004027  0.239289  0.889889  1
  P  P48  1  0.747746  0.229592  0.000731  1
  P  P49  1  0.247746  0.770408  0.499269  1
  P  P50  1  0.505268  0.501187  0.750755  1
  P  P51  1  0.494573  0.998286  0.749425  1
  P  P52  1  0.494732  0.998813  0.250755  1
  P  P53  1  0.274962  0.247177  0.000610  1
  P  P54  1  0.752254  0.729592  0.999269  1
  P  P55  1  0.505427  0.501714  0.249425  1
  P  P56  1  0.005427  0.498286  0.250575  1
  P  P57  1  0.994573  0.001714  0.750575  1
  P  P58  1  0.725038  0.252823  0.500610  1
  P  P59  1  0.994732  0.001187  0.249245  1
  P  P60  1  0.225038  0.747177  0.999390  1
  P  P61  1  0.005268  0.498813  0.749245  1
  P  P62  1  0.252254  0.270408  0.500731  1
  P  P63  1  0.774962  0.752823  0.499390  1
  O  O64  1  0.869608  0.930402  0.718332  1
  O  O65  1  0.394430  0.397682  0.761009  1
  O  O66  1  0.124496  0.861782  0.999587  1
  O  O67  1  0.605570  0.102318  0.261009  1
  O  O68  1  0.534564  0.568201  0.157442  1
  O  O69  1  0.041114  0.106065  0.681684  1
  O  O70  1  0.190499  0.257044  0.087071  1
  O  O71  1  0.541114  0.893935  0.818316  1
  O  O72  1  0.894022  0.601173  0.261351  1
  O  O73  1  0.784044  0.580325  0.000710  1
  O  O74  1  0.188351  0.704801  0.583901  1
  O  O75  1  0.959507  0.395570  0.819352  1
  O  O76  1  0.399717  0.752527  0.500045  1
  O  O77  1  0.351429  0.115665  1.000452  1
  O  O78  1  0.875504  0.638218  0.499587  1
  O  O79  1  0.394022  0.398827  0.238649  1
  O  O80  1  0.648571  0.384335  0.500452  1
  O  O81  1  0.189827  0.257158  0.914374  1
  O  O82  1  0.309501  0.757044  0.912929  1
  O  O83  1  0.368592  0.069439  0.219889  1
  O  O84  1  0.605978  0.101173  0.738649  1
  O  O85  1  0.968011  0.068422  0.157275  1
  O  O86  1  0.105570  0.897682  0.238991  1
  O  O87  1  0.458886  0.606065  0.318316  1
  O  O88  1  0.309105  0.209295  0.587764  1
  O  O89  1  0.631408  0.430561  0.719889  1
  O  O90  1  0.689827  0.742842  0.585626  1
  O  O91  1  0.540493  0.895570  0.180648  1
  O  O92  1  0.131408  0.569439  0.780111  1
  O  O93  1  0.690499  0.742956  0.412929  1
  O  O94  1  0.809105  0.790705  0.912236  1
  O  O95  1  0.690895  0.290705  0.087764  1
  O  O96  1  0.468011  0.931578  0.342725  1
  O  O97  1  0.600283  0.747473  0.000045  1
  O  O98  1  0.965436  0.068201  0.842558  1
  O  O99  1  0.459507  0.604430  0.680648  1
  O  O100  1  0.310173  0.757158  0.085626  1
  O  O101  1  0.465436  0.931799  0.657442  1
  O  O102  1  0.284044  0.419675  0.499290  1
  O  O103  1  0.369608  0.069598  0.781668  1
  O  O104  1  0.868592  0.930561  0.280111  1
  O  O105  1  0.105978  0.898827  0.761351  1
  O  O106  1  0.958886  0.393935  0.181684  1
  O  O107  1  0.851429  0.884335  0.499548  1
  O  O108  1  0.531989  0.568422  0.842725  1
  O  O109  1  0.630392  0.430402  0.281668  1
  O  O110  1  0.100283  0.252527  0.499955  1
  O  O111  1  0.375504  0.361782  0.000413  1
  O  O112  1  0.715956  0.080325  0.999290  1
  O  O113  1  0.190895  0.709295  0.412236  1
  O  O114  1  0.148571  0.615665  -0.000452  1
  O  O115  1  0.811649  0.795199  0.083901  1
  O  O116  1  0.810173  0.242842  0.414374  1
  O  O117  1  0.688351  0.295199  0.916099  1
  O  O118  1  0.624496  0.138218  0.500413  1
  O  O119  1  0.034564  0.431799  0.342558  1
  O  O120  1  0.894430  0.602318  0.738991  1
  O  O121  1  0.031989  0.431578  0.657275  1
  O  O122  1  0.809501  0.242956  0.587071  1
  O  O123  1  0.130392  0.569598  0.218332  1
  O  O124  1  0.215956  0.919675  0.500710  1
  O  O125  1  0.311649  0.204801  0.416099  1
  O  O126  1  0.899717  0.247473  0.999955  1
  O  O127  1  0.040493  0.104430  0.319352  1
