# generated using pymatgen
data_Rb2Sb2OF10
_symmetry_space_group_name_H-M   'P 1'
_cell_length_a   8.20323288
_cell_length_b   8.58560148
_cell_length_c   15.58417720
_cell_angle_alpha   90.00000000
_cell_angle_beta   90.00000000
_cell_angle_gamma   96.57567002
_symmetry_Int_Tables_number   1
_chemical_formula_structural   Rb2Sb2OF10
_chemical_formula_sum   'Rb8 Sb8 O4 F40'
_cell_volume   1090.36823702
_cell_formula_units_Z   4
loop_
 _symmetry_equiv_pos_site_id
 _symmetry_equiv_pos_as_xyz
  1  'x, y, z'
loop_
 _atom_site_type_symbol
 _atom_site_label
 _atom_site_symmetry_multiplicity
 _atom_site_fract_x
 _atom_site_fract_y
 _atom_site_fract_z
 _atom_site_occupancy
  Rb  Rb0  1  0.247243  0.032243  0.683735  1
  Rb  Rb1  1  0.705990  0.171014  0.042988  1
  Rb  Rb2  1  0.205990  0.671014  0.457012  1
  Rb  Rb3  1  0.794010  0.328986  0.542988  1
  Rb  Rb4  1  0.294010  0.828986  0.957012  1
  Rb  Rb5  1  0.252757  0.467757  0.183735  1
  Rb  Rb6  1  0.752757  0.967757  0.316265  1
  Rb  Rb7  1  0.747243  0.532243  0.816265  1
  Sb  Sb8  1  0.761069  0.692698  0.071777  1
  Sb  Sb9  1  0.282643  0.952326  0.242863  1
  Sb  Sb10  1  0.238931  0.307302  0.928223  1
  Sb  Sb11  1  0.217357  0.547674  0.742863  1
  Sb  Sb12  1  0.717357  0.047674  0.757137  1
  Sb  Sb13  1  0.261069  0.192698  0.428223  1
  Sb  Sb14  1  0.782643  0.452326  0.257137  1
  Sb  Sb15  1  0.738931  0.807302  0.571777  1
  O  O16  1  0.367777  0.073612  0.342749  1
  O  O17  1  0.632223  0.926388  0.657251  1
  O  O18  1  0.867777  0.573612  0.157251  1
  O  O19  1  0.132223  0.426388  0.842749  1
  F  F20  1  0.678474  0.609812  0.629926  1
  F  F21  1  0.989458  0.514026  0.314390  1
  F  F22  1  0.838978  0.686090  0.485075  1
  F  F23  1  0.874777  0.272514  0.209610  1
  F  F24  1  0.010542  0.485974  0.685610  1
  F  F25  1  0.178474  0.109812  0.870074  1
  F  F26  1  0.804349  0.993561  0.503640  1
  F  F27  1  0.695651  0.506439  0.003640  1
  F  F28  1  0.315053  0.377770  0.691597  1
  F  F29  1  0.039796  0.279682  0.994810  1
  F  F30  1  0.950409  0.827316  0.626901  1
  F  F31  1  0.195651  0.006439  0.496360  1
  F  F32  1  0.815053  0.877770  0.808403  1
  F  F33  1  0.049591  0.172684  0.373099  1
  F  F34  1  0.125223  0.727486  0.790390  1
  F  F35  1  0.920660  0.128301  0.701617  1
  F  F36  1  0.684947  0.622230  0.308403  1
  F  F37  1  0.549591  0.672684  0.126901  1
  F  F38  1  0.184947  0.122230  0.191597  1
  F  F39  1  0.625223  0.227486  0.709610  1
  F  F40  1  0.539796  0.779682  0.505190  1
  F  F41  1  0.218656  0.823678  0.144158  1
  F  F42  1  0.321526  0.390188  0.370074  1
  F  F43  1  0.374777  0.772514  0.290390  1
  F  F44  1  0.338978  0.186090  0.014925  1
  F  F45  1  0.450409  0.327316  0.873099  1
  F  F46  1  0.718656  0.323678  0.355842  1
  F  F47  1  0.579340  0.371699  0.201617  1
  F  F48  1  0.510542  0.985974  0.814390  1
  F  F49  1  0.821526  0.890188  0.129926  1
  F  F50  1  0.460204  0.220318  0.494810  1
  F  F51  1  0.420660  0.628301  0.798383  1
  F  F52  1  0.079340  0.871699  0.298383  1
  F  F53  1  0.281344  0.676322  0.644158  1
  F  F54  1  0.161022  0.313910  0.514925  1
  F  F55  1  0.661022  0.813910  0.985075  1
  F  F56  1  0.489458  0.014026  0.185610  1
  F  F57  1  0.960204  0.720318  0.005190  1
  F  F58  1  0.781344  0.176322  0.855842  1
  F  F59  1  0.304349  0.493561  0.996360  1
