# generated using pymatgen
data_Na3Nb34Al2O64
_symmetry_space_group_name_H-M   'P 1'
_cell_length_a   24.38176566
_cell_length_b   24.38176583
_cell_length_c   24.38176614
_cell_angle_alpha   18.72083741
_cell_angle_beta   18.72083619
_cell_angle_gamma   18.72083653
_symmetry_Int_Tables_number   1
_chemical_formula_structural   Na3Nb34Al2O64
_chemical_formula_sum   'Na3 Nb34 Al2 O64'
_cell_volume   1304.56837132
_cell_formula_units_Z   1
loop_
 _symmetry_equiv_pos_site_id
 _symmetry_equiv_pos_as_xyz
  1  'x, y, z'
loop_
 _atom_site_type_symbol
 _atom_site_label
 _atom_site_symmetry_multiplicity
 _atom_site_fract_x
 _atom_site_fract_y
 _atom_site_fract_z
 _atom_site_occupancy
  Na  Na0  1  0.062795  0.062795  0.062795  1
  Na  Na1  1  0.937205  0.937205  0.937205  1
  Na  Na2  1  0.500000  0.500000  0.500000  1
  Nb  Nb3  1  0.196375  0.441252  0.618057  1
  Nb  Nb4  1  0.871056  0.020271  0.562099  1
  Nb  Nb5  1  0.128944  0.979729  0.437901  1
  Nb  Nb6  1  0.117063  0.117063  0.117063  1
  Nb  Nb7  1  0.574269  0.740897  0.332090  1
  Nb  Nb8  1  0.381943  0.803625  0.558748  1
  Nb  Nb9  1  0.210387  0.797791  0.040759  1
  Nb  Nb10  1  0.797791  0.040759  0.210387  1
  Nb  Nb11  1  0.332090  0.574269  0.740897  1
  Nb  Nb12  1  0.977335  0.654471  0.517417  1
  Nb  Nb13  1  0.654471  0.517417  0.977335  1
  Nb  Nb14  1  0.482583  0.022665  0.345529  1
  Nb  Nb15  1  0.347580  0.347580  0.347580  1
  Nb  Nb16  1  0.425731  0.259103  0.667910  1
  Nb  Nb17  1  0.558748  0.381943  0.803625  1
  Nb  Nb18  1  0.202209  0.959241  0.789613  1
  Nb  Nb19  1  0.789613  0.202209  0.959241  1
  Nb  Nb20  1  0.517417  0.977335  0.654471  1
  Nb  Nb21  1  0.020271  0.562099  0.871056  1
  Nb  Nb22  1  0.259103  0.667910  0.425731  1
  Nb  Nb23  1  0.803625  0.558748  0.381943  1
  Nb  Nb24  1  0.959241  0.789613  0.202209  1
  Nb  Nb25  1  0.618057  0.196375  0.441252  1
  Nb  Nb26  1  0.979729  0.437901  0.128944  1
  Nb  Nb27  1  0.441252  0.618057  0.196375  1
  Nb  Nb28  1  0.562099  0.871056  0.020271  1
  Nb  Nb29  1  0.437901  0.128944  0.979729  1
  Nb  Nb30  1  0.345529  0.482583  0.022665  1
  Nb  Nb31  1  0.652420  0.652420  0.652420  1
  Nb  Nb32  1  0.882937  0.882937  0.882937  1
  Nb  Nb33  1  0.022665  0.345529  0.482583  1
  Nb  Nb34  1  0.040759  0.210387  0.797791  1
  Nb  Nb35  1  0.740897  0.332090  0.574269  1
  Nb  Nb36  1  0.667910  0.425731  0.259103  1
  Al  Al37  1  0.775158  0.775158  0.775158  1
  Al  Al38  1  0.224842  0.224842  0.224842  1
  O  O39  1  0.334603  0.757081  0.503045  1
  O  O40  1  0.572767  0.263042  0.163974  1
  O  O41  1  0.125166  0.435024  0.535043  1
  O  O42  1  0.261690  0.865114  0.175415  1
  O  O43  1  0.959407  0.374227  0.064690  1
  O  O44  1  0.072623  0.509317  0.226146  1
  O  O45  1  0.865114  0.175415  0.261690  1
  O  O46  1  0.230064  0.348366  0.923465  1
  O  O47  1  0.665397  0.242919  0.496955  1
  O  O48  1  0.633399  0.801547  0.362581  1
  O  O49  1  0.002339  0.836020  0.263992  1
  O  O50  1  0.348366  0.923465  0.230064  1
  O  O51  1  0.736958  0.836026  0.427233  1
  O  O52  1  0.836026  0.427233  0.736958  1
  O  O53  1  0.226146  0.072623  0.509317  1
  O  O54  1  0.388351  0.991021  0.316454  1
  O  O55  1  0.935310  0.040593  0.625773  1
  O  O56  1  0.362581  0.633399  0.801547  1
  O  O57  1  0.263992  0.002339  0.836020  1
  O  O58  1  0.637419  0.366601  0.198453  1
  O  O59  1  0.874834  0.564976  0.464957  1
  O  O60  1  0.736008  0.997661  0.163980  1
  O  O61  1  0.490683  0.773854  0.927377  1
  O  O62  1  0.703062  0.703062  0.703062  1
  O  O63  1  0.198453  0.637419  0.366601  1
  O  O64  1  0.927377  0.490683  0.773854  1
  O  O65  1  0.769936  0.651634  0.076535  1
  O  O66  1  0.773854  0.927377  0.490683  1
  O  O67  1  0.163974  0.572767  0.263042  1
  O  O68  1  0.738310  0.134886  0.824585  1
  O  O69  1  0.008979  0.683546  0.611649  1
  O  O70  1  0.757081  0.503045  0.334603  1
  O  O71  1  0.800349  0.800349  0.800349  1
  O  O72  1  0.064690  0.959407  0.374227  1
  O  O73  1  0.316454  0.388351  0.991021  1
  O  O74  1  0.991021  0.316454  0.388351  1
  O  O75  1  0.836020  0.263992  0.002339  1
  O  O76  1  0.683546  0.611649  0.008979  1
  O  O77  1  0.801547  0.362581  0.633399  1
  O  O78  1  0.374227  0.064690  0.959407  1
  O  O79  1  0.564976  0.464957  0.874834  1
  O  O80  1  0.175415  0.261690  0.865114  1
  O  O81  1  0.535043  0.125166  0.435024  1
  O  O82  1  0.923465  0.230064  0.348366  1
  O  O83  1  0.625773  0.935310  0.040593  1
  O  O84  1  0.076535  0.769936  0.651634  1
  O  O85  1  0.611649  0.008979  0.683546  1
  O  O86  1  0.503045  0.334603  0.757081  1
  O  O87  1  0.651634  0.076535  0.769936  1
  O  O88  1  0.296938  0.296938  0.296938  1
  O  O89  1  0.366601  0.198453  0.637419  1
  O  O90  1  0.199651  0.199651  0.199651  1
  O  O91  1  0.427233  0.736958  0.836026  1
  O  O92  1  0.134886  0.824585  0.738310  1
  O  O93  1  0.163980  0.736008  0.997661  1
  O  O94  1  0.263042  0.163974  0.572767  1
  O  O95  1  0.997661  0.163980  0.736008  1
  O  O96  1  0.435024  0.535043  0.125166  1
  O  O97  1  0.509317  0.226146  0.072623  1
  O  O98  1  0.496955  0.665397  0.242919  1
  O  O99  1  0.242919  0.496955  0.665397  1
  O  O100  1  0.824585  0.738310  0.134886  1
  O  O101  1  0.464957  0.874834  0.564976  1
  O  O102  1  0.040593  0.625773  0.935310  1
