# generated using pymatgen
data_Cs2Co3S4
_symmetry_space_group_name_H-M   'P 1'
_cell_length_a   5.41374052
_cell_length_b   9.12814681
_cell_length_c   9.12814698
_cell_angle_alpha   73.25715979
_cell_angle_beta   72.75002828
_cell_angle_gamma   72.75002708
_symmetry_Int_Tables_number   1
_chemical_formula_structural   Cs2Co3S4
_chemical_formula_sum   'Cs4 Co6 S8'
_cell_volume   401.39449037
_cell_formula_units_Z   2
loop_
 _symmetry_equiv_pos_site_id
 _symmetry_equiv_pos_as_xyz
  1  'x, y, z'
loop_
 _atom_site_type_symbol
 _atom_site_label
 _atom_site_symmetry_multiplicity
 _atom_site_fract_x
 _atom_site_fract_y
 _atom_site_fract_z
 _atom_site_occupancy
  Cs  Cs0  1  0.244133  0.124342  0.875658  1
  Cs  Cs1  1  0.255867  0.624342  0.375658  1
  Cs  Cs2  1  0.744133  0.375658  0.624342  1
  Cs  Cs3  1  0.755867  0.875658  0.124342  1
  Co  Co4  1  0.750000  0.997138  0.502862  1
  Co  Co5  1  0.750000  0.502862  0.997138  1
  Co  Co6  1  0.250000  0.497138  0.002862  1
  Co  Co7  1  0.250000  0.250000  0.250000  1
  Co  Co8  1  0.250000  0.002862  0.497138  1
  Co  Co9  1  0.750000  0.750000  0.750000  1
  S  S10  1  0.921811  0.455271  0.203650  1
  S  S11  1  0.421811  0.703650  0.955271  1
  S  S12  1  0.080731  0.044729  0.296350  1
  S  S13  1  0.078189  0.544729  0.796350  1
  S  S14  1  0.578189  0.296350  0.044729  1
  S  S15  1  0.919269  0.955271  0.703650  1
  S  S16  1  0.580731  0.796350  0.544729  1
  S  S17  1  0.419269  0.203650  0.455271  1
