# generated using pymatgen
data_Fe12PbO19
_symmetry_space_group_name_H-M   'P 1'
_cell_length_a   5.96577665
_cell_length_b   5.96577696
_cell_length_c   23.22228369
_cell_angle_alpha   90.00000000
_cell_angle_beta   90.00000000
_cell_angle_gamma   119.99999824
_symmetry_Int_Tables_number   1
_chemical_formula_structural   Fe12PbO19
_chemical_formula_sum   'Fe24 Pb2 O38'
_cell_volume   715.76353289
_cell_formula_units_Z   2
loop_
 _symmetry_equiv_pos_site_id
 _symmetry_equiv_pos_as_xyz
  1  'x, y, z'
loop_
 _atom_site_type_symbol
 _atom_site_label
 _atom_site_symmetry_multiplicity
 _atom_site_fract_x
 _atom_site_fract_y
 _atom_site_fract_z
 _atom_site_occupancy
  Fe  Fe0  1  0.335675  0.167837  0.391453  1
  Fe  Fe1  1  0.666667  0.333333  0.690905  1
  Fe  Fe2  1  0.664325  0.832163  0.608547  1
  Fe  Fe3  1  0.832163  0.167837  0.108547  1
  Fe  Fe4  1  0.832163  0.664325  0.391453  1
  Fe  Fe5  1  0.666667  0.333333  0.973135  1
  Fe  Fe6  1  0.167837  0.832163  0.608547  1
  Fe  Fe7  1  0.333333  0.666667  0.473135  1
  Fe  Fe8  1  0.167837  0.335675  0.608547  1
  Fe  Fe9  1  0.335675  0.167837  0.108547  1
  Fe  Fe10  1  0.333333  0.666667  0.309095  1
  Fe  Fe11  1  0.666667  0.333333  0.809095  1
  Fe  Fe12  1  0.167837  0.335675  0.891453  1
  Fe  Fe13  1  0.000000  0.000000  0.500000  1
  Fe  Fe14  1  0.666667  0.333333  0.526865  1
  Fe  Fe15  1  0.333333  0.666667  0.026865  1
  Fe  Fe16  1  0.832163  0.167837  0.391453  1
  Fe  Fe17  1  0.832163  0.664325  0.108547  1
  Fe  Fe18  1  0.664325  0.832163  0.891453  1
  Fe  Fe19  1  0.000000  0.000000  0.750000  1
  Fe  Fe20  1  0.167837  0.832163  0.891453  1
  Fe  Fe21  1  0.333333  0.666667  0.190905  1
  Fe  Fe22  1  0.000000  0.000000  0.000000  1
  Fe  Fe23  1  0.000000  0.000000  0.250000  1
  Pb  Pb24  1  0.666667  0.333333  0.250000  1
  Pb  Pb25  1  0.333333  0.666667  0.750000  1
  O  O26  1  0.848199  0.696399  0.550483  1
  O  O27  1  0.004832  0.502416  0.649789  1
  O  O28  1  0.497584  0.502416  0.850211  1
  O  O29  1  0.848199  0.151801  0.550483  1
  O  O30  1  0.666667  0.333333  0.056221  1
  O  O31  1  0.502416  0.497584  0.350211  1
  O  O32  1  0.634798  0.817399  0.250000  1
  O  O33  1  0.497584  0.995168  0.649789  1
  O  O34  1  0.365202  0.182601  0.750000  1
  O  O35  1  0.303601  0.151801  0.949517  1
  O  O36  1  0.303601  0.151801  0.550483  1
  O  O37  1  0.696399  0.848199  0.050483  1
  O  O38  1  0.151801  0.303601  0.050483  1
  O  O39  1  0.502416  0.004832  0.350211  1
  O  O40  1  0.333333  0.666667  0.556221  1
  O  O41  1  0.182601  0.365202  0.250000  1
  O  O42  1  0.000000  0.000000  0.847758  1
  O  O43  1  0.182601  0.817399  0.250000  1
  O  O44  1  0.000000  0.000000  0.347758  1
  O  O45  1  0.848199  0.151801  0.949517  1
  O  O46  1  0.502416  0.004832  0.149789  1
  O  O47  1  0.004832  0.502416  0.850211  1
  O  O48  1  0.817399  0.182601  0.750000  1
  O  O49  1  0.000000  0.000000  0.652242  1
  O  O50  1  0.666667  0.333333  0.443779  1
  O  O51  1  0.333333  0.666667  0.943779  1
  O  O52  1  0.502416  0.497584  0.149789  1
  O  O53  1  0.497584  0.502416  0.649789  1
  O  O54  1  0.817399  0.634798  0.750000  1
  O  O55  1  0.995168  0.497584  0.149789  1
  O  O56  1  0.696399  0.848199  0.449517  1
  O  O57  1  0.497584  0.995168  0.850211  1
  O  O58  1  0.151801  0.848199  0.449517  1
  O  O59  1  0.151801  0.303601  0.449517  1
  O  O60  1  0.151801  0.848199  0.050483  1
  O  O61  1  0.000000  0.000000  0.152242  1
  O  O62  1  0.995168  0.497584  0.350211  1
  O  O63  1  0.848199  0.696399  0.949517  1
