# generated using pymatgen
data_Ga23N5O27
_symmetry_space_group_name_H-M   'P 1'
_cell_length_a   5.91806262
_cell_length_b   5.96940911
_cell_length_c   23.87752252
_cell_angle_alpha   59.64807043
_cell_angle_beta   59.36508619
_cell_angle_gamma   59.79354740
_symmetry_Int_Tables_number   1
_chemical_formula_structural   Ga23N5O27
_chemical_formula_sum   'Ga23 N5 O27'
_cell_volume   591.05558149
_cell_formula_units_Z   1
loop_
 _symmetry_equiv_pos_site_id
 _symmetry_equiv_pos_as_xyz
  1  'x, y, z'
loop_
 _atom_site_type_symbol
 _atom_site_label
 _atom_site_symmetry_multiplicity
 _atom_site_fract_x
 _atom_site_fract_y
 _atom_site_fract_z
 _atom_site_occupancy
  Ga  Ga0  1  0.131159  0.122531  0.034687  1
  Ga  Ga1  1  0.462064  0.524289  0.005931  1
  Ga  Ga2  1  0.153568  0.126485  0.275139  1
  Ga  Ga3  1  0.498891  0.501898  0.125758  1
  Ga  Ga4  1  0.006973  0.500895  0.377143  1
  Ga  Ga5  1  0.540803  0.492050  0.243872  1
  Ga  Ga6  1  0.505618  0.001141  0.124016  1
  Ga  Ga7  1  0.139016  0.128577  0.526983  1
  Ga  Ga8  1  0.499425  0.495003  0.375706  1
  Ga  Ga9  1  0.988886  0.497532  0.629711  1
  Ga  Ga10  1  0.865217  0.878889  0.218170  1
  Ga  Ga11  1  0.508431  0.505895  0.498532  1
  Ga  Ga12  1  0.128575  0.121694  0.783143  1
  Ga  Ga13  1  0.501604  0.000950  0.378170  1
  Ga  Ga14  1  0.507299  0.493997  0.626936  1
  Ga  Ga15  1  0.985041  0.499216  0.880256  1
  Ga  Ga16  1  0.866746  0.870949  0.465520  1
  Ga  Ga17  1  0.508083  0.993167  0.626464  1
  Ga  Ga18  1  0.514237  0.498478  0.747054  1
  Ga  Ga19  1  0.497492  0.498667  0.876943  1
  Ga  Ga20  1  0.858471  0.889989  0.714546  1
  Ga  Ga21  1  0.501709  0.990971  0.877984  1
  Ga  Ga22  1  0.841133  0.866194  0.972772  1
  N  N23  1  0.265632  0.260204  0.429567  1
  N  N24  1  0.739772  0.737475  0.434048  1
  N  N25  1  0.736437  0.278202  0.685145  1
  N  N26  1  0.735811  0.744923  0.684779  1
  N  N27  1  0.727142  0.733144  0.936278  1
  O  O28  1  0.288166  0.249831  0.058254  1
  O  O29  1  0.265511  0.743947  0.063775  1
  O  O30  1  0.279677  0.249964  0.180358  1
  O  O31  1  0.734928  0.258967  0.063835  1
  O  O32  1  0.267609  0.743498  0.187152  1
  O  O33  1  0.264274  0.257383  0.314122  1
  O  O34  1  0.268403  0.729034  0.311616  1
  O  O35  1  0.721951  0.753828  0.068043  1
  O  O36  1  0.722016  0.260868  0.189555  1
  O  O37  1  0.724453  0.759383  0.188100  1
  O  O38  1  0.749488  0.257471  0.310339  1
  O  O39  1  0.265327  0.739935  0.436685  1
  O  O40  1  0.267462  0.258571  0.564805  1
  O  O41  1  0.260645  0.721380  0.566695  1
  O  O42  1  0.740799  0.735018  0.318795  1
  O  O43  1  0.743121  0.266061  0.435720  1
  O  O44  1  0.254842  0.254434  0.684410  1
  O  O45  1  0.732079  0.256430  0.563947  1
  O  O46  1  0.260381  0.749114  0.685311  1
  O  O47  1  0.255571  0.257820  0.816850  1
  O  O48  1  0.256490  0.259611  0.931175  1
  O  O49  1  0.740506  0.751272  0.564845  1
  O  O50  1  0.256505  0.725463  0.815208  1
  O  O51  1  0.729916  0.255388  0.815585  1
  O  O52  1  0.253418  0.745919  0.935131  1
  O  O53  1  0.745141  0.264551  0.932044  1
  O  O54  1  0.736087  0.741453  0.817393  1
