# generated using pymatgen
data_FeTe2BrO5
_symmetry_space_group_name_H-M   'P 1'
_cell_length_a   6.70003211
_cell_length_b   13.61677901
_cell_length_c   14.55657532
_cell_angle_alpha   107.76804758
_cell_angle_beta   90.00000000
_cell_angle_gamma   90.00000000
_symmetry_Int_Tables_number   1
_chemical_formula_structural   FeTe2BrO5
_chemical_formula_sum   'Fe8 Te16 Br8 O40'
_cell_volume   1264.69017119
_cell_formula_units_Z   8
loop_
 _symmetry_equiv_pos_site_id
 _symmetry_equiv_pos_as_xyz
  1  'x, y, z'
loop_
 _atom_site_type_symbol
 _atom_site_label
 _atom_site_symmetry_multiplicity
 _atom_site_fract_x
 _atom_site_fract_y
 _atom_site_fract_z
 _atom_site_occupancy
  Fe  Fe0  1  0.500970  0.883587  0.522968  1
  Fe  Fe1  1  0.708392  0.062397  0.143771  1
  Fe  Fe2  1  0.791608  0.062397  0.643771  1
  Fe  Fe3  1  0.000970  0.116413  0.977032  1
  Fe  Fe4  1  0.291608  0.937603  0.856229  1
  Fe  Fe5  1  0.208392  0.937603  0.356229  1
  Fe  Fe6  1  0.999030  0.883587  0.022968  1
  Fe  Fe7  1  0.499030  0.116413  0.477032  1
  Te  Te8  1  0.516914  0.804631  0.980671  1
  Te  Te9  1  0.029673  0.637596  0.863828  1
  Te  Te10  1  0.970327  0.362404  0.136172  1
  Te  Te11  1  0.308896  0.109551  0.713154  1
  Te  Te12  1  0.710317  0.278140  0.358821  1
  Te  Te13  1  0.210317  0.721860  0.141179  1
  Te  Te14  1  0.483086  0.195369  0.019329  1
  Te  Te15  1  0.808896  0.890449  0.786846  1
  Te  Te16  1  0.289683  0.721860  0.641179  1
  Te  Te17  1  0.191104  0.109551  0.213154  1
  Te  Te18  1  0.529673  0.362404  0.636172  1
  Te  Te19  1  0.016914  0.195369  0.519329  1
  Te  Te20  1  0.470327  0.637596  0.363828  1
  Te  Te21  1  0.789683  0.278140  0.858821  1
  Te  Te22  1  0.983086  0.804631  0.480671  1
  Te  Te23  1  0.691104  0.890449  0.286846  1
  Br  Br24  1  0.639911  0.615305  0.721506  1
  Br  Br25  1  0.275136  0.436346  0.542926  1
  Br  Br26  1  0.775136  0.563654  0.957074  1
  Br  Br27  1  0.224864  0.436346  0.042926  1
  Br  Br28  1  0.860089  0.615305  0.221506  1
  Br  Br29  1  0.724864  0.563654  0.457074  1
  Br  Br30  1  0.139911  0.384695  0.778494  1
  Br  Br31  1  0.360089  0.384695  0.278494  1
  O  O32  1  0.234428  0.665432  0.956245  1
  O  O33  1  0.256576  0.989818  0.747173  1
  O  O34  1  0.265572  0.665432  0.456245  1
  O  O35  1  0.765572  0.334568  0.043755  1
  O  O36  1  0.756576  0.010182  0.752827  1
  O  O37  1  0.215272  0.888431  0.480063  1
  O  O38  1  0.950668  0.209268  0.391964  1
  O  O39  1  0.226400  0.791479  0.773773  1
  O  O40  1  0.925184  0.901301  0.363657  1
  O  O41  1  0.298338  0.088137  0.948725  1
  O  O42  1  0.726400  0.208521  0.726227  1
  O  O43  1  0.201662  0.088137  0.448725  1
  O  O44  1  0.798338  0.911863  0.551275  1
  O  O45  1  0.513609  0.962595  0.397148  1
  O  O46  1  0.013609  0.037405  0.102852  1
  O  O47  1  0.773600  0.208521  0.226227  1
  O  O48  1  0.983341  0.185054  0.878452  1
  O  O49  1  0.516659  0.185054  0.378452  1
  O  O50  1  0.715272  0.111569  0.019936  1
  O  O51  1  0.425184  0.098699  0.136343  1
  O  O52  1  0.284728  0.888431  0.980063  1
  O  O53  1  0.486391  0.037405  0.602852  1
  O  O54  1  0.743424  0.010182  0.252827  1
  O  O55  1  0.734428  0.334568  0.543755  1
  O  O56  1  0.701662  0.911863  0.051275  1
  O  O57  1  0.483341  0.814946  0.621548  1
  O  O58  1  0.549332  0.209268  0.891964  1
  O  O59  1  0.243424  0.989818  0.247173  1
  O  O60  1  0.074816  0.098699  0.636343  1
  O  O61  1  0.574816  0.901301  0.863657  1
  O  O62  1  0.906361  0.771136  0.909870  1
  O  O63  1  0.016659  0.814946  0.121548  1
  O  O64  1  0.406361  0.228864  0.590130  1
  O  O65  1  0.049332  0.790732  0.608036  1
  O  O66  1  0.986391  0.962595  0.897148  1
  O  O67  1  0.784728  0.111569  0.519937  1
  O  O68  1  0.273600  0.791479  0.273773  1
  O  O69  1  0.093639  0.228864  0.090130  1
  O  O70  1  0.593639  0.771136  0.409870  1
  O  O71  1  0.450668  0.790732  0.108036  1
