# generated using pymatgen
data_Li10Si2PbO10
_symmetry_space_group_name_H-M   'P 1'
_cell_length_a   5.19441622
_cell_length_b   6.14533961
_cell_length_c   15.39875796
_cell_angle_alpha   101.50898095
_cell_angle_beta   99.50665163
_cell_angle_gamma   89.99931973
_symmetry_Int_Tables_number   1
_chemical_formula_structural   Li10Si2PbO10
_chemical_formula_sum   'Li20 Si4 Pb2 O20'
_cell_volume   474.77626214
_cell_formula_units_Z   2
loop_
 _symmetry_equiv_pos_site_id
 _symmetry_equiv_pos_as_xyz
  1  'x, y, z'
loop_
 _atom_site_type_symbol
 _atom_site_label
 _atom_site_symmetry_multiplicity
 _atom_site_fract_x
 _atom_site_fract_y
 _atom_site_fract_z
 _atom_site_occupancy
  Li  Li0  1  0.967025  0.086606  0.736558  1
  Li  Li1  1  0.788390  0.951314  0.389455  1
  Li  Li2  1  0.967049  0.649946  0.736557  1
  Li  Li3  1  0.136116  0.730645  0.461322  1
  Li  Li4  1  0.231275  0.778704  0.129328  1
  Li  Li5  1  0.863884  0.269355  0.538678  1
  Li  Li6  1  0.032975  0.913394  0.263442  1
  Li  Li7  1  0.514328  0.867565  0.735171  1
  Li  Li8  1  0.788391  0.438140  0.389452  1
  Li  Li9  1  0.485672  0.132435  0.264829  1
  Li  Li10  1  0.420527  0.675264  0.350594  1
  Li  Li11  1  0.231282  0.350640  0.129336  1
  Li  Li12  1  0.759803  0.507742  0.015500  1
  Li  Li13  1  0.211610  0.048686  0.610545  1
  Li  Li14  1  0.579473  0.324736  0.649406  1
  Li  Li15  1  0.768725  0.221296  0.870672  1
  Li  Li16  1  0.768718  0.649360  0.870664  1
  Li  Li17  1  0.240197  0.492258  0.984500  1
  Li  Li18  1  0.032951  0.350054  0.263443  1
  Li  Li19  1  0.211609  0.561860  0.610548  1
  Si  Si20  1  0.304987  0.399503  0.799048  1
  Si  Si21  1  0.695013  0.600497  0.200952  1
  Si  Si22  1  0.309010  0.218976  0.437935  1
  Si  Si23  1  0.690990  0.781024  0.562065  1
  Pb  Pb24  1  0.210068  0.961470  0.922965  1
  Pb  Pb25  1  0.789932  0.038530  0.077035  1
  O  O26  1  0.495670  0.449437  0.898847  1
  O  O27  1  0.171570  0.418807  0.387769  1
  O  O28  1  0.736070  0.727966  0.455960  1
  O  O29  1  0.990739  0.404606  0.809254  1
  O  O30  1  0.000003  0.749391  -0.000001  1
  O  O31  1  0.171574  0.968987  0.387773  1
  O  O32  1  0.999997  0.250609  1.000001  1
  O  O33  1  0.504330  0.550563  0.101153  1
  O  O34  1  0.381863  0.786732  0.573489  1
  O  O35  1  0.359565  0.587694  0.741150  1
  O  O36  1  0.640428  0.846580  0.258851  1
  O  O37  1  0.828426  0.031013  0.612227  1
  O  O38  1  0.359572  0.153420  0.741149  1
  O  O39  1  0.618137  0.213268  0.426511  1
  O  O40  1  0.640435  0.412306  0.258850  1
  O  O41  1  0.263930  0.272034  0.544040  1
  O  O42  1  0.858045  0.908042  0.816130  1
  O  O43  1  0.828430  0.581193  0.612231  1
  O  O44  1  0.009261  0.595394  0.190746  1
  O  O45  1  0.141955  0.091958  0.183870  1
