# generated using pymatgen
data_Sm4I6O
_symmetry_space_group_name_H-M   'P 1'
_cell_length_a   9.88605963
_cell_length_b   9.88605971
_cell_length_c   8.47497893
_cell_angle_alpha   90.00000000
_cell_angle_beta   90.00000000
_cell_angle_gamma   119.99999977
_symmetry_Int_Tables_number   1
_chemical_formula_structural   Sm4I6O
_chemical_formula_sum   'Sm8 I12 O2'
_cell_volume   717.32458315
_cell_formula_units_Z   2
loop_
 _symmetry_equiv_pos_site_id
 _symmetry_equiv_pos_as_xyz
  1  'x, y, z'
loop_
 _atom_site_type_symbol
 _atom_site_label
 _atom_site_symmetry_multiplicity
 _atom_site_fract_x
 _atom_site_fract_y
 _atom_site_fract_z
 _atom_site_occupancy
  Sm  Sm0  1  0.201754  0.798246  0.068938  1
  Sm  Sm1  1  0.798246  0.596491  0.568938  1
  Sm  Sm2  1  0.596491  0.798246  0.068938  1
  Sm  Sm3  1  0.666667  0.333333  0.260955  1
  Sm  Sm4  1  0.403509  0.201754  0.568938  1
  Sm  Sm5  1  0.333333  0.666667  0.760955  1
  Sm  Sm6  1  0.798246  0.201754  0.568938  1
  Sm  Sm7  1  0.201754  0.403509  0.068938  1
  I  I8  1  0.472743  0.945485  0.386281  1
  I  I9  1  0.134936  0.865064  0.698560  1
  I  I10  1  0.134936  0.269872  0.698560  1
  I  I11  1  0.865064  0.134936  0.198560  1
  I  I12  1  0.054515  0.527257  0.386281  1
  I  I13  1  0.269872  0.134936  0.198560  1
  I  I14  1  0.865064  0.730128  0.198560  1
  I  I15  1  0.945485  0.472743  0.886281  1
  I  I16  1  0.527257  0.054515  0.886281  1
  I  I17  1  0.527257  0.472743  0.886281  1
  I  I18  1  0.472743  0.527257  0.386281  1
  I  I19  1  0.730128  0.865064  0.698560  1
  O  O20  1  0.666667  0.333333  0.545619  1
  O  O21  1  0.333333  0.666667  0.045619  1
