# generated using pymatgen
data_KBa3Ca4V7Cu3O28
_symmetry_space_group_name_H-M   'P 1'
_cell_length_a   11.42723338
_cell_length_b   11.42723365
_cell_length_c   12.45572254
_cell_angle_alpha   90.00000000
_cell_angle_beta   90.00000000
_cell_angle_gamma   119.99999923
_symmetry_Int_Tables_number   1
_chemical_formula_structural   KBa3Ca4V7Cu3O28
_chemical_formula_sum   'K2 Ba6 Ca8 V14 Cu6 O56'
_cell_volume   1408.58080188
_cell_formula_units_Z   2
loop_
 _symmetry_equiv_pos_site_id
 _symmetry_equiv_pos_as_xyz
  1  'x, y, z'
loop_
 _atom_site_type_symbol
 _atom_site_label
 _atom_site_symmetry_multiplicity
 _atom_site_fract_x
 _atom_site_fract_y
 _atom_site_fract_z
 _atom_site_occupancy
  K  K0  1  0.333333  0.666667  0.434263  1
  K  K1  1  0.666667  0.333333  0.934263  1
  Ba  Ba2  1  0.141072  0.858928  0.249680  1
  Ba  Ba3  1  0.141072  0.282143  0.249680  1
  Ba  Ba4  1  0.858928  0.141072  0.749680  1
  Ba  Ba5  1  0.858928  0.717857  0.749680  1
  Ba  Ba6  1  0.282143  0.141072  0.749680  1
  Ba  Ba7  1  0.717857  0.858928  0.249680  1
  Ca  Ca8  1  0.000000  0.000000  0.997147  1
  Ca  Ca9  1  0.541086  0.458914  0.534266  1
  Ca  Ca10  1  0.082173  0.541086  0.034266  1
  Ca  Ca11  1  0.458914  0.917827  0.034266  1
  Ca  Ca12  1  0.541086  0.082173  0.534266  1
  Ca  Ca13  1  0.458914  0.541086  0.034266  1
  Ca  Ca14  1  0.917827  0.458914  0.534266  1
  Ca  Ca15  1  0.000000  0.000000  0.497147  1
  V  V16  1  0.177800  0.355600  0.586446  1
  V  V17  1  0.175567  0.351135  0.909050  1
  V  V18  1  0.822200  0.177800  0.086446  1
  V  V19  1  0.648865  0.824433  0.909050  1
  V  V20  1  0.177800  0.822200  0.586446  1
  V  V21  1  0.355600  0.177800  0.086446  1
  V  V22  1  0.822200  0.644400  0.086446  1
  V  V23  1  0.824433  0.648865  0.409050  1
  V  V24  1  0.644400  0.822200  0.586446  1
  V  V25  1  0.824433  0.175567  0.409050  1
  V  V26  1  0.351135  0.175567  0.409050  1
  V  V27  1  0.333333  0.666667  0.179601  1
  V  V28  1  0.666667  0.333333  0.679601  1
  V  V29  1  0.175567  0.824433  0.909050  1
  Cu  Cu30  1  0.084212  0.542106  0.751967  1
  Cu  Cu31  1  0.542106  0.457894  0.251967  1
  Cu  Cu32  1  0.457894  0.915788  0.751967  1
  Cu  Cu33  1  0.915788  0.457894  0.251967  1
  Cu  Cu34  1  0.457894  0.542106  0.751967  1
  Cu  Cu35  1  0.542106  0.084212  0.251967  1
  O  O36  1  0.193710  0.387422  0.452338  1
  O  O37  1  0.576212  0.919796  0.639358  1
  O  O38  1  0.666667  0.333333  0.538584  1
  O  O39  1  0.333333  0.666667  0.038584  1
  O  O40  1  0.181864  0.090932  0.372451  1
  O  O41  1  0.583022  0.416978  0.720923  1
  O  O42  1  0.909068  0.818136  0.372451  1
  O  O43  1  0.656416  0.576212  0.139358  1
  O  O44  1  0.166042  0.583022  0.220923  1
  O  O45  1  0.656416  0.080204  0.139358  1
  O  O46  1  0.576212  0.656416  0.639358  1
  O  O47  1  0.377951  0.188976  0.545323  1
  O  O48  1  0.833958  0.416978  0.720923  1
  O  O49  1  0.080204  0.423788  0.639358  1
  O  O50  1  0.909068  0.090932  0.372451  1
  O  O51  1  0.416978  0.583022  0.220923  1
  O  O52  1  0.811024  0.622049  0.545323  1
  O  O53  1  0.188976  0.811024  0.045323  1
  O  O54  1  0.387422  0.193710  0.952338  1
  O  O55  1  0.806290  0.193710  0.952338  1
  O  O56  1  0.423788  0.080204  0.139358  1
  O  O57  1  0.183906  0.091954  0.115962  1
  O  O58  1  0.423788  0.343584  0.139358  1
  O  O59  1  0.090932  0.909068  0.872451  1
  O  O60  1  0.090932  0.181864  0.872451  1
  O  O61  1  0.622049  0.811024  0.045323  1
  O  O62  1  0.082162  0.656195  0.864156  1
  O  O63  1  0.656195  0.574032  0.364156  1
  O  O64  1  0.425968  0.343805  0.364156  1
  O  O65  1  0.919796  0.343584  0.139358  1
  O  O66  1  0.574032  0.656195  0.864156  1
  O  O67  1  0.082162  0.425968  0.864156  1
  O  O68  1  0.919796  0.576212  0.139358  1
  O  O69  1  0.343584  0.423788  0.639358  1
  O  O70  1  0.656195  0.082162  0.364156  1
  O  O71  1  0.908046  0.816094  0.115962  1
  O  O72  1  0.818136  0.909068  0.872451  1
  O  O73  1  0.343805  0.917838  0.864156  1
  O  O74  1  0.188976  0.377951  0.045323  1
  O  O75  1  0.574032  0.917838  0.864156  1
  O  O76  1  0.816094  0.908046  0.615962  1
  O  O77  1  0.917838  0.574032  0.364156  1
  O  O78  1  0.091954  0.183906  0.615962  1
  O  O79  1  0.343584  0.919796  0.639358  1
  O  O80  1  0.917838  0.343805  0.364156  1
  O  O81  1  0.583022  0.166042  0.720923  1
  O  O82  1  0.612578  0.806290  0.452338  1
  O  O83  1  0.425968  0.082162  0.364156  1
  O  O84  1  0.193710  0.806290  0.452338  1
  O  O85  1  0.416978  0.833958  0.220923  1
  O  O86  1  0.811024  0.188976  0.545323  1
  O  O87  1  0.080204  0.656416  0.639358  1
  O  O88  1  0.091954  0.908046  0.615962  1
  O  O89  1  0.343805  0.425968  0.864156  1
  O  O90  1  0.908046  0.091954  0.115962  1
  O  O91  1  0.806290  0.612578  0.952338  1
