# generated using pymatgen
data_V2Cd6Se5O21
_symmetry_space_group_name_H-M   'P 1'
_cell_length_a   5.55005051
_cell_length_b   15.62974866
_cell_length_c   24.50535241
_cell_angle_alpha   94.33999845
_cell_angle_beta   90.00000000
_cell_angle_gamma   90.00000000
_symmetry_Int_Tables_number   1
_chemical_formula_structural   V2Cd6Se5O21
_chemical_formula_sum   'V8 Cd24 Se20 O84'
_cell_volume   2119.64326013
_cell_formula_units_Z   4
loop_
 _symmetry_equiv_pos_site_id
 _symmetry_equiv_pos_as_xyz
  1  'x, y, z'
loop_
 _atom_site_type_symbol
 _atom_site_label
 _atom_site_symmetry_multiplicity
 _atom_site_fract_x
 _atom_site_fract_y
 _atom_site_fract_z
 _atom_site_occupancy
  V  V0  1  0.261081  0.208799  0.313288  1
  V  V1  1  0.238919  0.208799  0.813288  1
  V  V2  1  0.738919  0.791201  0.686712  1
  V  V3  1  0.776815  0.097021  0.271935  1
  V  V4  1  0.723185  0.097021  0.771935  1
  V  V5  1  0.761081  0.791201  0.186712  1
  V  V6  1  0.276815  0.902979  0.228065  1
  V  V7  1  0.223185  0.902979  0.728065  1
  Cd  Cd8  1  0.217185  0.772886  0.414515  1
  Cd  Cd9  1  0.680667  0.623615  0.355599  1
  Cd  Cd10  1  0.180667  0.376385  0.144401  1
  Cd  Cd11  1  0.282815  0.772886  0.914515  1
  Cd  Cd12  1  0.289772  0.455407  0.796996  1
  Cd  Cd13  1  0.262862  0.087371  0.527396  1
  Cd  Cd14  1  0.782815  0.227114  0.585485  1
  Cd  Cd15  1  0.297312  0.011998  0.875287  1
  Cd  Cd16  1  0.744235  0.469256  0.042743  1
  Cd  Cd17  1  0.819333  0.623615  0.855599  1
  Cd  Cd18  1  0.210228  0.455407  0.296996  1
  Cd  Cd19  1  0.797312  0.988002  0.624713  1
  Cd  Cd20  1  0.244235  0.530744  0.457257  1
  Cd  Cd21  1  0.702688  0.988002  0.124713  1
  Cd  Cd22  1  0.237138  0.087371  0.027396  1
  Cd  Cd23  1  0.202688  0.011998  0.375287  1
  Cd  Cd24  1  0.319333  0.376385  0.644401  1
  Cd  Cd25  1  0.717185  0.227114  0.085485  1
  Cd  Cd26  1  0.255765  0.530744  0.957257  1
  Cd  Cd27  1  0.762862  0.912629  0.972604  1
  Cd  Cd28  1  0.710228  0.544593  0.203004  1
  Cd  Cd29  1  0.789772  0.544593  0.703004  1
  Cd  Cd30  1  0.755765  0.469256  0.542743  1
  Cd  Cd31  1  0.737138  0.912629  0.472604  1
  Se  Se32  1  0.719598  0.425164  0.389776  1
  Se  Se33  1  0.219598  0.574836  0.110224  1
  Se  Se34  1  0.285602  0.317866  0.501208  1
  Se  Se35  1  0.705362  0.118809  0.443673  1
  Se  Se36  1  0.280402  0.574836  0.610224  1
  Se  Se37  1  0.294638  0.881191  0.556327  1
  Se  Se38  1  0.780402  0.425164  0.889776  1
  Se  Se39  1  0.314596  0.660904  0.778832  1
  Se  Se40  1  0.214398  0.317866  0.001208  1
  Se  Se41  1  0.794638  0.118809  0.943673  1
  Se  Se42  1  0.185404  0.660904  0.278832  1
  Se  Se43  1  0.260089  0.141854  0.158181  1
  Se  Se44  1  0.239911  0.141854  0.658181  1
  Se  Se45  1  0.714398  0.682134  0.498792  1
  Se  Se46  1  0.814596  0.339096  0.721168  1
  Se  Se47  1  0.685404  0.339096  0.221168  1
  Se  Se48  1  0.760089  0.858146  0.341819  1
  Se  Se49  1  0.785602  0.682134  0.998792  1
  Se  Se50  1  0.205362  0.881191  0.056327  1
  Se  Se51  1  0.739911  0.858146  0.841819  1
  O  O52  1  0.020239  0.106931  0.606909  1
  O  O53  1  0.948733  0.588134  0.285058  1
  O  O54  1  0.468967  0.506996  0.113238  1
  O  O55  1  0.292301  0.969614  0.285660  1
  O  O56  1  0.018914  0.511292  0.144160  1
  O  O57  1  0.448733  0.411866  0.214942  1
  O  O58  1  0.611104  0.757572  0.969697  1
  O  O59  1  0.756438  0.839099  0.627427  1
  O  O60  1  0.207699  0.969614  0.785660  1
  O  O61  1  0.606395  0.167435  0.505464  1
  O  O62  1  0.256438  0.160901  0.872573  1
  O  O63  1  0.390770  0.582708  0.256298  1
  O  O64  1  0.479761  0.106931  0.106909  1
  O  O65  1  0.410886  0.403594  0.998065  1
  O  O66  1  0.996061  0.965827  0.057737  1
  O  O67  1  0.487473  0.134540  0.616044  1
  O  O68  1  0.480606  0.351337  0.556698  1
  O  O69  1  0.284116  0.316535  0.324522  1
  O  O70  1  0.542452  0.060513  0.960307  1
  O  O71  1  0.990810  0.162691  0.773845  1
  O  O72  1  0.609230  0.417292  0.743702  1
  O  O73  1  0.109230  0.582708  0.756298  1
  O  O74  1  0.518914  0.488708  0.355840  1
  O  O75  1  0.816919  0.046246  0.329319  1
  O  O76  1  0.987473  0.865460  0.883956  1
  O  O77  1  0.495771  0.180668  0.770390  1
  O  O78  1  0.743562  0.839099  0.127427  1
  O  O79  1  0.316919  0.953754  0.170681  1
  O  O80  1  0.162781  0.248228  0.663682  1
  O  O81  1  0.893605  0.167435  0.005464  1
  O  O82  1  0.888896  0.757572  0.469697  1
  O  O83  1  0.481086  0.511292  0.644160  1
  O  O84  1  0.906846  0.442462  0.953880  1
  O  O85  1  0.019394  0.351337  0.056698  1
  O  O86  1  0.715884  0.683465  0.675478  1
  O  O87  1  0.106395  0.832565  0.994536  1
  O  O88  1  0.504229  0.819332  0.229610  1
  O  O89  1  0.111104  0.242428  0.530303  1
  O  O90  1  0.957548  0.060513  0.460307  1
  O  O91  1  0.968967  0.493004  0.386762  1
  O  O92  1  0.003939  0.034173  0.942263  1
  O  O93  1  0.589114  0.596406  0.001935  1
  O  O94  1  0.910886  0.596406  0.501935  1
  O  O95  1  0.243562  0.160901  0.372573  1
  O  O96  1  0.520239  0.893069  0.893091  1
  O  O97  1  0.979761  0.893069  0.393091  1
  O  O98  1  0.093154  0.557538  0.046120  1
  O  O99  1  0.707699  0.030386  0.714340  1
  O  O100  1  0.406846  0.557538  0.546120  1
  O  O101  1  0.289973  0.672652  0.345843  1
  O  O102  1  0.004229  0.180668  0.270390  1
  O  O103  1  0.215884  0.316535  0.824522  1
  O  O104  1  0.683081  0.046246  0.829319  1
  O  O105  1  0.388896  0.242428  0.030303  1
  O  O106  1  0.031033  0.506996  0.613238  1
  O  O107  1  0.337219  0.248228  0.163682  1
  O  O108  1  0.496061  0.034173  0.442263  1
  O  O109  1  0.981086  0.488708  0.855840  1
  O  O110  1  0.012527  0.134540  0.116044  1
  O  O111  1  0.890770  0.417292  0.243702  1
  O  O112  1  0.837219  0.751772  0.336318  1
  O  O113  1  0.183081  0.953754  0.670681  1
  O  O114  1  0.042452  0.939487  0.539693  1
  O  O115  1  0.593154  0.442462  0.453880  1
  O  O116  1  0.509190  0.162691  0.273845  1
  O  O117  1  0.519394  0.648663  0.443302  1
  O  O118  1  0.503939  0.965827  0.557737  1
  O  O119  1  0.490810  0.837309  0.726155  1
  O  O120  1  0.512527  0.865460  0.383956  1
  O  O121  1  0.457548  0.939487  0.039692  1
  O  O122  1  0.789973  0.327348  0.154157  1
  O  O123  1  0.393605  0.832565  0.494536  1
  O  O124  1  0.089114  0.403594  0.498065  1
  O  O125  1  0.995771  0.819332  0.729610  1
  O  O126  1  0.710027  0.327348  0.654157  1
  O  O127  1  0.551267  0.588134  0.785058  1
  O  O128  1  0.792301  0.030386  0.214340  1
  O  O129  1  0.784116  0.683465  0.175478  1
  O  O130  1  0.662781  0.751772  0.836318  1
  O  O131  1  0.531033  0.493004  0.886762  1
  O  O132  1  0.051267  0.411866  0.714942  1
  O  O133  1  0.009190  0.837309  0.226155  1
  O  O134  1  0.210027  0.672652  0.845843  1
  O  O135  1  0.980606  0.648663  0.943302  1
