# generated using pymatgen
data_SbSeCl7O
_symmetry_space_group_name_H-M   'P 1'
_cell_length_a   12.86604083
_cell_length_b   13.69049818
_cell_length_c   15.21154280
_cell_angle_alpha   90.00000000
_cell_angle_beta   90.00000000
_cell_angle_gamma   105.98528948
_symmetry_Int_Tables_number   1
_chemical_formula_structural   SbSeCl7O
_chemical_formula_sum   'Sb8 Se8 Cl56 O8'
_cell_volume   2575.79345700
_cell_formula_units_Z   8
loop_
 _symmetry_equiv_pos_site_id
 _symmetry_equiv_pos_as_xyz
  1  'x, y, z'
loop_
 _atom_site_type_symbol
 _atom_site_label
 _atom_site_symmetry_multiplicity
 _atom_site_fract_x
 _atom_site_fract_y
 _atom_site_fract_z
 _atom_site_occupancy
  Sb  Sb0  1  0.743953  0.237414  0.357175  1
  Sb  Sb1  1  0.753146  0.743210  0.392629  1
  Sb  Sb2  1  0.256047  0.762586  0.642825  1
  Sb  Sb3  1  0.246854  0.256790  0.607371  1
  Sb  Sb4  1  0.243953  0.237414  0.142825  1
  Sb  Sb5  1  0.756047  0.762586  0.857175  1
  Sb  Sb6  1  0.746854  0.256790  0.892629  1
  Sb  Sb7  1  0.253146  0.743210  0.107371  1
  Se  Se8  1  0.762081  0.948801  0.002038  1
  Se  Se9  1  0.731168  0.551908  0.250983  1
  Se  Se10  1  0.768832  0.448092  0.750983  1
  Se  Se11  1  0.237919  0.051199  0.997962  1
  Se  Se12  1  0.231168  0.551908  0.249017  1
  Se  Se13  1  0.737919  0.051199  0.502038  1
  Se  Se14  1  0.262081  0.948801  0.497962  1
  Se  Se15  1  0.268832  0.448092  0.749017  1
  Cl  Cl16  1  0.113634  0.353511  0.608820  1
  Cl  Cl17  1  0.867924  0.865606  0.299535  1
  Cl  Cl18  1  0.888331  0.154159  0.360935  1
  Cl  Cl19  1  0.151550  0.633821  0.548773  1
  Cl  Cl20  1  0.861303  0.115930  0.599968  1
  Cl  Cl21  1  0.348450  0.366179  0.048773  1
  Cl  Cl22  1  0.094424  0.481450  0.333936  1
  Cl  Cl23  1  0.645032  0.395761  0.650835  1
  Cl  Cl24  1  0.365089  0.393701  0.528693  1
  Cl  Cl25  1  0.190268  0.668158  0.772333  1
  Cl  Cl26  1  0.367924  0.865606  0.200465  1
  Cl  Cl27  1  0.634911  0.606299  0.471307  1
  Cl  Cl28  1  0.405576  0.518550  0.833936  1
  Cl  Cl29  1  0.638195  0.095567  0.275949  1
  Cl  Cl30  1  0.886366  0.646489  0.391180  1
  Cl  Cl31  1  0.392806  0.023528  0.409226  1
  Cl  Cl32  1  0.854968  0.604239  0.150835  1
  Cl  Cl33  1  0.892806  0.023528  0.090774  1
  Cl  Cl34  1  0.361805  0.904433  0.724051  1
  Cl  Cl35  1  0.388931  0.178861  0.627346  1
  Cl  Cl36  1  0.138697  0.884070  0.400032  1
  Cl  Cl37  1  0.848450  0.366179  0.451227  1
  Cl  Cl38  1  0.888931  0.178861  0.872654  1
  Cl  Cl39  1  0.613634  0.353511  0.891180  1
  Cl  Cl40  1  0.388331  0.154159  0.139065  1
  Cl  Cl41  1  0.111069  0.821139  0.127346  1
  Cl  Cl42  1  0.354968  0.604239  0.349165  1
  Cl  Cl43  1  0.632076  0.134394  0.799535  1
  Cl  Cl44  1  0.594424  0.481450  0.166064  1
  Cl  Cl45  1  0.809732  0.331842  0.227667  1
  Cl  Cl46  1  0.651550  0.633821  0.951227  1
  Cl  Cl47  1  0.611069  0.821139  0.372654  1
  Cl  Cl48  1  0.607194  0.976472  0.590774  1
  Cl  Cl49  1  0.138195  0.095567  0.224051  1
  Cl  Cl50  1  0.690268  0.668158  0.727667  1
  Cl  Cl51  1  0.591571  0.301007  0.375186  1
  Cl  Cl52  1  0.361303  0.115930  0.900032  1
  Cl  Cl53  1  0.132076  0.134394  0.700465  1
  Cl  Cl54  1  0.107194  0.976472  0.909226  1
  Cl  Cl55  1  0.111669  0.845841  0.639065  1
  Cl  Cl56  1  0.611669  0.845841  0.860935  1
  Cl  Cl57  1  0.865089  0.393701  0.971307  1
  Cl  Cl58  1  0.823084  0.833469  0.522902  1
  Cl  Cl59  1  0.134911  0.606299  0.028693  1
  Cl  Cl60  1  0.905576  0.518550  0.666064  1
  Cl  Cl61  1  0.309732  0.331842  0.272333  1
  Cl  Cl62  1  0.861805  0.904433  0.775949  1
  Cl  Cl63  1  0.091571  0.301007  0.124814  1
  Cl  Cl64  1  0.176916  0.166531  0.477098  1
  Cl  Cl65  1  0.323084  0.833469  0.977098  1
  Cl  Cl66  1  0.408429  0.698993  0.624814  1
  Cl  Cl67  1  0.676916  0.166531  0.022902  1
  Cl  Cl68  1  0.386366  0.646489  0.108820  1
  Cl  Cl69  1  0.908429  0.698993  0.875186  1
  Cl  Cl70  1  0.145032  0.395761  0.849165  1
  Cl  Cl71  1  0.638697  0.884070  0.099968  1
  O  O72  1  0.692157  0.659262  0.274329  1
  O  O73  1  0.192157  0.659262  0.225671  1
  O  O74  1  0.313014  0.849222  0.525002  1
  O  O75  1  0.807843  0.340738  0.774329  1
  O  O76  1  0.686986  0.150778  0.474998  1
  O  O77  1  0.307843  0.340738  0.725671  1
  O  O78  1  0.186986  0.150778  0.025002  1
  O  O79  1  0.813014  0.849222  0.974998  1
