# generated using pymatgen
data_La3AgSnS7
_symmetry_space_group_name_H-M   'P 1'
_cell_length_a   10.47675804
_cell_length_b   10.47675836
_cell_length_c   6.07142908
_cell_angle_alpha   90.00000000
_cell_angle_beta   90.00000000
_cell_angle_gamma   119.99999903
_symmetry_Int_Tables_number   1
_chemical_formula_structural   La3AgSnS7
_chemical_formula_sum   'La6 Ag2 Sn2 S14'
_cell_volume   577.13233044
_cell_formula_units_Z   2
loop_
 _symmetry_equiv_pos_site_id
 _symmetry_equiv_pos_as_xyz
  1  'x, y, z'
loop_
 _atom_site_type_symbol
 _atom_site_label
 _atom_site_symmetry_multiplicity
 _atom_site_fract_x
 _atom_site_fract_y
 _atom_site_fract_z
 _atom_site_occupancy
  La  La0  1  0.131855  0.358763  0.081890  1
  La  La1  1  0.773093  0.131855  0.581890  1
  La  La2  1  0.358763  0.226907  0.581890  1
  La  La3  1  0.641237  0.773093  0.081890  1
  La  La4  1  0.226907  0.868145  0.081890  1
  La  La5  1  0.868145  0.641237  0.581890  1
  Sn  Sn6  1  0.333333  0.666667  0.657494  1
  Sn  Sn7  1  0.666667  0.333333  0.157494  1
  Ag  Ag8  1  0.000000  0.000000  1.002541  1
  Ag  Ag9  1  0.000000  0.000000  0.502541  1
  S  S10  1  0.267662  0.166377  0.055156  1
  S  S11  1  0.101285  0.267662  0.555156  1
  S  S12  1  0.166377  0.898715  0.555156  1
  S  S13  1  0.833623  0.101285  0.055156  1
  S  S14  1  0.898715  0.732338  0.055156  1
  S  S15  1  0.732338  0.833623  0.555156  1
  S  S16  1  0.515863  0.093673  0.327816  1
  S  S17  1  0.422190  0.515863  0.827816  1
  S  S18  1  0.093673  0.577810  0.827816  1
  S  S19  1  0.906327  0.422190  0.327816  1
  S  S20  1  0.577810  0.484137  0.327816  1
  S  S21  1  0.484137  0.906327  0.827816  1
  S  S22  1  0.333333  0.666667  0.265680  1
  S  S23  1  0.666667  0.333333  0.765680  1
