# generated using pymatgen
data_PWO5
_symmetry_space_group_name_H-M   'P 1'
_cell_length_a   5.42144492
_cell_length_b   12.49997119
_cell_length_c   13.29975685
_cell_angle_alpha   90.00000000
_cell_angle_beta   90.00000000
_cell_angle_gamma   90.00000000
_symmetry_Int_Tables_number   1
_chemical_formula_structural   PWO5
_chemical_formula_sum   'P8 W8 O40'
_cell_volume   901.29666283
_cell_formula_units_Z   8
loop_
 _symmetry_equiv_pos_site_id
 _symmetry_equiv_pos_as_xyz
  1  'x, y, z'
loop_
 _atom_site_type_symbol
 _atom_site_label
 _atom_site_symmetry_multiplicity
 _atom_site_fract_x
 _atom_site_fract_y
 _atom_site_fract_z
 _atom_site_occupancy
  P  P0  1  0.234880  0.368309  0.519850  1
  P  P1  1  0.234880  0.131691  0.519850  1
  P  P2  1  0.765120  0.631691  0.480150  1
  P  P3  1  0.265120  0.868309  0.019850  1
  P  P4  1  0.765120  0.868309  0.480150  1
  P  P5  1  0.734880  0.368309  0.980150  1
  P  P6  1  0.265120  0.631691  0.019850  1
  P  P7  1  0.734880  0.131691  0.980150  1
  W  W8  1  0.756399  0.598429  0.848430  1
  W  W9  1  0.756399  0.901571  0.848430  1
  W  W10  1  0.743601  0.401571  0.348430  1
  W  W11  1  0.743601  0.098429  0.348430  1
  W  W12  1  0.256399  0.598429  0.651570  1
  W  W13  1  0.243601  0.098429  0.151570  1
  W  W14  1  0.256399  0.901571  0.651570  1
  W  W15  1  0.243601  0.401571  0.151570  1
  O  O16  1  0.249659  0.559965  0.113061  1
  O  O17  1  0.749659  0.559965  0.386939  1
  O  O18  1  0.486083  0.923065  0.755940  1
  O  O19  1  0.250348  0.750000  0.668106  1
  O  O20  1  0.750348  0.750000  0.831894  1
  O  O21  1  0.514932  0.879555  0.968122  1
  O  O22  1  0.513917  0.423065  0.244060  1
  O  O23  1  0.747336  0.250000  0.932361  1
  O  O24  1  0.752664  0.750000  0.432361  1
  O  O25  1  0.485068  0.379555  0.031878  1
  O  O26  1  0.953873  0.382770  0.049431  1
  O  O27  1  0.250341  0.059965  0.613061  1
  O  O28  1  0.750341  0.059965  0.886939  1
  O  O29  1  0.486083  0.576935  0.755940  1
  O  O30  1  0.252664  0.750000  0.067639  1
  O  O31  1  0.014932  0.620445  0.531878  1
  O  O32  1  0.986083  0.923065  0.744060  1
  O  O33  1  0.546127  0.617230  0.549431  1
  O  O34  1  0.986083  0.576935  0.744060  1
  O  O35  1  0.985068  0.120445  0.468122  1
  O  O36  1  0.249652  0.250000  0.168106  1
  O  O37  1  0.953873  0.117230  0.049431  1
  O  O38  1  0.546127  0.882770  0.549431  1
  O  O39  1  0.985068  0.379555  0.468122  1
  O  O40  1  0.750341  0.440035  0.886939  1
  O  O41  1  0.485068  0.120445  0.031878  1
  O  O42  1  0.014932  0.879555  0.531878  1
  O  O43  1  0.046127  0.617230  0.950569  1
  O  O44  1  0.749659  0.940035  0.386939  1
  O  O45  1  0.453873  0.382770  0.450569  1
  O  O46  1  0.250341  0.440035  0.613061  1
  O  O47  1  0.013917  0.423065  0.255940  1
  O  O48  1  0.453873  0.117230  0.450569  1
  O  O49  1  0.013917  0.076935  0.255940  1
  O  O50  1  0.249659  0.940035  0.113061  1
  O  O51  1  0.247336  0.250000  0.567639  1
  O  O52  1  0.513917  0.076935  0.244060  1
  O  O53  1  0.514932  0.620445  0.968122  1
  O  O54  1  0.046127  0.882770  0.950569  1
  O  O55  1  0.749652  0.250000  0.331894  1
