# generated using pymatgen
data_Np(Al2Cu)4
_symmetry_space_group_name_H-M   'P 1'
_cell_length_a   5.08166086
_cell_length_b   6.73066436
_cell_length_c   6.73066437
_cell_angle_alpha   81.80707170
_cell_angle_beta   67.82104475
_cell_angle_gamma   67.82104477
_symmetry_Int_Tables_number   1
_chemical_formula_structural   Np(Al2Cu)4
_chemical_formula_sum   'Np1 Al8 Cu4'
_cell_volume   197.40231741
_cell_formula_units_Z   1
loop_
 _symmetry_equiv_pos_site_id
 _symmetry_equiv_pos_as_xyz
  1  'x, y, z'
loop_
 _atom_site_type_symbol
 _atom_site_label
 _atom_site_symmetry_multiplicity
 _atom_site_fract_x
 _atom_site_fract_y
 _atom_site_fract_z
 _atom_site_occupancy
  Al  Al0  1  0.345328  0.654672  0.654672  1
  Al  Al1  1  0.000000  0.345328  0.654672  1
  Al  Al2  1  0.000000  0.654672  0.345328  1
  Al  Al3  1  0.654672  0.345328  0.345328  1
  Al  Al4  1  0.283099  0.216901  0.216901  1
  Al  Al5  1  0.500000  0.783099  0.216901  1
  Al  Al6  1  0.500000  0.216901  0.783099  1
  Al  Al7  1  0.716901  0.783099  0.783099  1
  Cu  Cu8  1  0.500000  0.000000  0.500000  1
  Cu  Cu9  1  0.000000  0.500000  0.000000  1
  Cu  Cu10  1  0.500000  0.500000  0.000000  1
  Cu  Cu11  1  0.000000  0.000000  0.500000  1
  Np  Np12  1  0.000000  0.000000  0.000000  1
