# generated using pymatgen
data_Na3SrPCO7
_symmetry_space_group_name_H-M   'P 1'
_cell_length_a   5.38308612
_cell_length_b   7.08961512
_cell_length_c   9.28360967
_cell_angle_alpha   90.00000000
_cell_angle_beta   90.26496595
_cell_angle_gamma   90.00000000
_symmetry_Int_Tables_number   1
_chemical_formula_structural   Na3SrPCO7
_chemical_formula_sum   'Na6 Sr2 P2 C2 O14'
_cell_volume   354.29597234
_cell_formula_units_Z   2
loop_
 _symmetry_equiv_pos_site_id
 _symmetry_equiv_pos_as_xyz
  1  'x, y, z'
loop_
 _atom_site_type_symbol
 _atom_site_label
 _atom_site_symmetry_multiplicity
 _atom_site_fract_x
 _atom_site_fract_y
 _atom_site_fract_z
 _atom_site_occupancy
  Na  Na0  1  0.497265  0.297455  0.168184  1
  Na  Na1  1  0.011005  0.017920  0.016340  1
  Na  Na2  1  0.502735  0.797455  0.831816  1
  Na  Na3  1  0.476396  0.022909  0.480110  1
  Na  Na4  1  0.523604  0.522909  0.519890  1
  Na  Na5  1  0.988995  0.517920  0.983660  1
  Sr  Sr6  1  0.982222  0.236597  0.685056  1
  Sr  Sr7  1  0.017778  0.736597  0.314944  1
  P  P8  1  0.001475  0.766525  0.670084  1
  P  P9  1  0.998525  0.266525  0.329916  1
  C  C10  1  0.487824  0.254046  0.855606  1
  C  C11  1  0.512176  0.754046  0.144394  1
  O  O12  1  0.074351  0.075400  0.260152  1
  O  O13  1  0.221957  0.744259  0.563627  1
  O  O14  1  0.287265  0.275159  0.931562  1
  O  O15  1  0.226396  0.343428  0.414421  1
  O  O16  1  0.925649  0.575400  0.739848  1
  O  O17  1  0.082572  0.909373  0.788640  1
  O  O18  1  0.475646  0.254431  0.714832  1
  O  O19  1  0.298247  0.731499  0.080463  1
  O  O20  1  0.712735  0.775159  0.068438  1
  O  O21  1  0.701753  0.231499  0.919537  1
  O  O22  1  0.524354  0.754431  0.285168  1
  O  O23  1  0.773604  0.843428  0.585579  1
  O  O24  1  0.917428  0.409373  0.211360  1
  O  O25  1  0.778043  0.244259  0.436373  1
