# generated using pymatgen
data_Sn2PCO6
_symmetry_space_group_name_H-M   'P 1'
_cell_length_a   4.82773332
_cell_length_b   6.03335758
_cell_length_c   22.84682580
_cell_angle_alpha   90.00000000
_cell_angle_beta   97.27119363
_cell_angle_gamma   90.00000000
_symmetry_Int_Tables_number   1
_chemical_formula_structural   Sn2PCO6
_chemical_formula_sum   'Sn8 P4 C4 O24'
_cell_volume   660.11800767
_cell_formula_units_Z   4
loop_
 _symmetry_equiv_pos_site_id
 _symmetry_equiv_pos_as_xyz
  1  'x, y, z'
loop_
 _atom_site_type_symbol
 _atom_site_label
 _atom_site_symmetry_multiplicity
 _atom_site_fract_x
 _atom_site_fract_y
 _atom_site_fract_z
 _atom_site_occupancy
  Sn  Sn0  1  0.434854  0.150111  0.683989  1
  Sn  Sn1  1  0.168308  0.129264  0.930077  1
  Sn  Sn2  1  0.831692  0.870736  0.069923  1
  Sn  Sn3  1  0.065146  0.650111  0.816011  1
  Sn  Sn4  1  0.565146  0.849889  0.316011  1
  Sn  Sn5  1  0.934854  0.349889  0.183989  1
  Sn  Sn6  1  0.331692  0.629264  0.569923  1
  Sn  Sn7  1  0.668308  0.370736  0.430077  1
  P  P8  1  0.399084  0.735799  0.172528  1
  P  P9  1  0.100916  0.235799  0.327472  1
  P  P10  1  0.600916  0.264201  0.827472  1
  P  P11  1  0.899084  0.764201  0.672528  1
  C  C12  1  0.916799  0.915859  0.478957  1
  C  C13  1  0.083201  0.084141  0.521043  1
  C  C14  1  0.583201  0.415859  0.021043  1
  C  C15  1  0.416799  0.584141  0.978957  1
  O  O16  1  0.425958  0.192405  0.336821  1
  O  O17  1  0.976795  0.593059  0.722293  1
  O  O18  1  0.286341  0.011072  0.556626  1
  O  O19  1  0.786341  0.488928  0.056626  1
  O  O20  1  0.034347  -0.005839  0.686950  1
  O  O21  1  0.023205  0.406941  0.277707  1
  O  O22  1  -0.005989  0.715860  0.483175  1
  O  O23  1  0.523205  0.093059  0.777707  1
  O  O24  1  0.713659  0.988928  0.443374  1
  O  O25  1  0.970598  0.665277  0.613479  1
  O  O26  1  0.470598  0.834723  0.113479  1
  O  O27  1  1.005989  0.284140  0.516825  1
  O  O28  1  0.574042  0.807595  0.663179  1
  O  O29  1  0.925958  0.307595  0.836821  1
  O  O30  1  0.534347  0.505839  0.186950  1
  O  O31  1  0.465653  0.494161  0.813050  1
  O  O32  1  0.965653  1.005839  0.313050  1
  O  O33  1  0.476795  0.906941  0.222293  1
  O  O34  1  0.213659  0.511072  0.943374  1
  O  O35  1  0.074042  0.692405  0.163179  1
  O  O36  1  0.494011  0.784140  0.983175  1
  O  O37  1  0.529402  0.165277  0.886521  1
  O  O38  1  0.029402  0.334723  0.386521  1
  O  O39  1  0.505989  0.215860  0.016825  1
