# generated using pymatgen
data_H10C3S3N
_symmetry_space_group_name_H-M   'P 1'
_cell_length_a   5.90222725
_cell_length_b   10.57824863
_cell_length_c   13.57423867
_cell_angle_alpha   97.66944088
_cell_angle_beta   90.00000000
_cell_angle_gamma   90.00000000
_symmetry_Int_Tables_number   1
_chemical_formula_structural   H10C3S3N
_chemical_formula_sum   'H40 C12 S12 N4'
_cell_volume   839.92928839
_cell_formula_units_Z   4
loop_
 _symmetry_equiv_pos_site_id
 _symmetry_equiv_pos_as_xyz
  1  'x, y, z'
loop_
 _atom_site_type_symbol
 _atom_site_label
 _atom_site_symmetry_multiplicity
 _atom_site_fract_x
 _atom_site_fract_y
 _atom_site_fract_z
 _atom_site_occupancy
  H  H0  1  0.127006  0.239907  0.530869  1
  H  H1  1  0.470855  0.507829  0.371409  1
  H  H2  1  0.617942  0.854110  0.953680  1
  H  H3  1  0.470855  0.492171  0.128591  1
  H  H4  1  0.354836  0.705721  0.039805  1
  H  H5  1  0.872994  0.760093  0.469131  1
  H  H6  1  0.354836  0.294279  0.460195  1
  H  H7  1  0.629247  0.102010  0.112467  1
  H  H8  1  0.277542  0.615312  0.322065  1
  H  H9  1  0.617942  0.145890  0.546320  1
  H  H10  1  0.529145  0.492171  0.628591  1
  H  H11  1  0.370753  0.102010  0.612467  1
  H  H12  1  0.127006  0.760093  0.969131  1
  H  H13  1  0.385952  0.833675  0.320022  1
  H  H14  1  0.303903  0.618442  0.454170  1
  H  H15  1  0.382058  0.145890  0.046320  1
  H  H16  1  0.722458  0.384688  0.677935  1
  H  H17  1  0.614048  0.833675  0.820022  1
  H  H18  1  0.370753  0.897990  0.887533  1
  H  H19  1  0.645164  0.705721  0.539805  1
  H  H20  1  0.696097  0.618442  0.954170  1
  H  H21  1  0.811444  0.407325  0.040829  1
  H  H22  1  0.385952  0.166325  0.179978  1
  H  H23  1  0.629247  0.897990  0.387533  1
  H  H24  1  0.678284  0.321602  0.182531  1
  H  H25  1  0.188556  0.407325  0.540829  1
  H  H26  1  0.303903  0.381558  0.045830  1
  H  H27  1  0.321716  0.678398  0.817469  1
  H  H28  1  0.645164  0.294279  0.960195  1
  H  H29  1  0.678284  0.678398  0.317469  1
  H  H30  1  0.722458  0.615312  0.822065  1
  H  H31  1  0.614048  0.166325  0.679978  1
  H  H32  1  0.382058  0.854110  0.453680  1
  H  H33  1  0.811444  0.592675  0.459171  1
  H  H34  1  0.321716  0.321602  0.682531  1
  H  H35  1  0.872994  0.239907  0.030869  1
  H  H36  1  0.696097  0.381558  0.545830  1
  H  H37  1  0.529145  0.507829  0.871409  1
  H  H38  1  0.277542  0.384688  0.177935  1
  H  H39  1  0.188556  0.592675  0.959171  1
  C  C40  1  0.605444  0.396760  0.617089  1
  C  C41  1  0.512238  0.169134  0.612805  1
  C  C42  1  0.261601  0.311136  0.530605  1
  C  C43  1  0.512238  0.830866  0.887195  1
  C  C44  1  0.738398  0.688864  0.469395  1
  C  C45  1  0.487762  0.169134  0.112805  1
  C  C46  1  0.261601  0.688864  0.969395  1
  C  C47  1  0.605444  0.603240  0.882911  1
  C  C48  1  0.487762  0.830866  0.387195  1
  C  C49  1  0.394556  0.603240  0.382911  1
  C  C50  1  0.738398  0.311136  0.030605  1
  C  C51  1  0.394556  0.396760  0.117089  1
  S  S52  1  0.127588  0.651126  0.690066  1
  S  S53  1  0.051343  0.044714  0.325224  1
  S  S54  1  0.127588  0.348874  0.809934  1
  S  S55  1  0.948657  0.044714  0.825224  1
  S  S56  1  0.793549  0.824877  0.147924  1
  S  S57  1  0.206451  0.175123  0.852076  1
  S  S58  1  0.872412  0.651126  0.190066  1
  S  S59  1  0.872412  0.348874  0.309934  1
  S  S60  1  0.051343  0.955286  0.174776  1
  S  S61  1  0.206451  0.824877  0.647924  1
  S  S62  1  0.793549  0.175123  0.352076  1
  S  S63  1  0.948657  0.955286  0.674776  1
  N  N64  1  0.580040  0.699390  0.385364  1
  N  N65  1  0.419960  0.300610  0.614636  1
  N  N66  1  0.419960  0.699390  0.885364  1
  N  N67  1  0.580040  0.300610  0.114636  1
