# generated using pymatgen
data_K2Pr4Cl9O2
_symmetry_space_group_name_H-M   'P 1'
_cell_length_a   8.47948783
_cell_length_b   9.59411556
_cell_length_c   11.49678624
_cell_angle_alpha   90.00000000
_cell_angle_beta   90.00000000
_cell_angle_gamma   104.43862995
_symmetry_Int_Tables_number   1
_chemical_formula_structural   K2Pr4Cl9O2
_chemical_formula_sum   'K4 Pr8 Cl18 O4'
_cell_volume   905.75898670
_cell_formula_units_Z   2
loop_
 _symmetry_equiv_pos_site_id
 _symmetry_equiv_pos_as_xyz
  1  'x, y, z'
loop_
 _atom_site_type_symbol
 _atom_site_label
 _atom_site_symmetry_multiplicity
 _atom_site_fract_x
 _atom_site_fract_y
 _atom_site_fract_z
 _atom_site_occupancy
  K  K0  1  0.239277  0.446696  0.451692  1
  K  K1  1  0.760723  0.553304  0.951692  1
  K  K2  1  0.760723  0.553304  0.548308  1
  K  K3  1  0.239277  0.446696  0.048308  1
  Pr  Pr4  1  0.381553  0.160761  0.750000  1
  Pr  Pr5  1  0.618447  0.839239  0.250000  1
  Pr  Pr6  1  0.284394  0.955917  0.456634  1
  Pr  Pr7  1  0.715606  0.044083  0.956634  1
  Pr  Pr8  1  0.715606  0.044083  0.543366  1
  Pr  Pr9  1  0.612707  0.214072  0.250000  1
  Pr  Pr10  1  0.387293  0.785928  0.750000  1
  Pr  Pr11  1  0.284394  0.955917  0.043366  1
  Cl  Cl12  1  0.877981  0.300288  0.414706  1
  Cl  Cl13  1  0.893507  0.876118  0.092575  1
  Cl  Cl14  1  0.251552  0.134420  0.250000  1
  Cl  Cl15  1  0.748448  0.865580  0.750000  1
  Cl  Cl16  1  0.489863  0.276921  0.500184  1
  Cl  Cl17  1  0.122019  0.699712  0.585294  1
  Cl  Cl18  1  0.600217  0.522226  0.250000  1
  Cl  Cl19  1  0.399783  0.477774  0.750000  1
  Cl  Cl20  1  0.877981  0.300288  0.085294  1
  Cl  Cl21  1  0.106493  0.123882  0.907425  1
  Cl  Cl22  1  0.510137  0.723079  0.000184  1
  Cl  Cl23  1  0.893507  0.876118  0.407425  1
  Cl  Cl24  1  0.510137  0.723079  0.499816  1
  Cl  Cl25  1  0.106493  0.123882  0.592575  1
  Cl  Cl26  1  0.122019  0.699712  0.914706  1
  Cl  Cl27  1  0.489863  0.276921  0.999816  1
  Cl  Cl28  1  0.252635  0.757088  0.250000  1
  Cl  Cl29  1  0.747365  0.242912  0.750000  1
  O  O30  1  0.548209  0.011138  0.121509  1
  O  O31  1  0.451791  0.988862  0.878491  1
  O  O32  1  0.548209  0.011138  0.378491  1
  O  O33  1  0.451791  0.988862  0.621509  1
