# generated using pymatgen
data_Nd3MnBi5
_symmetry_space_group_name_H-M   'P 1'
_cell_length_a   9.67075681
_cell_length_b   9.66542272
_cell_length_c   6.48782490
_cell_angle_alpha   90.00000000
_cell_angle_beta   90.00000000
_cell_angle_gamma   119.98175435
_symmetry_Int_Tables_number   1
_chemical_formula_structural   Nd3MnBi5
_chemical_formula_sum   'Nd6 Mn2 Bi10'
_cell_volume   525.28002365
_cell_formula_units_Z   2
loop_
 _symmetry_equiv_pos_site_id
 _symmetry_equiv_pos_as_xyz
  1  'x, y, z'
loop_
 _atom_site_type_symbol
 _atom_site_label
 _atom_site_symmetry_multiplicity
 _atom_site_fract_x
 _atom_site_fract_y
 _atom_site_fract_z
 _atom_site_occupancy
  Nd  Nd0  1  0.000000  0.378767  0.750000  1
  Nd  Nd1  1  0.621086  0.999869  0.250000  1
  Nd  Nd2  1  0.621086  0.621217  0.750000  1
  Nd  Nd3  1  1.000000  0.621233  0.250000  1
  Nd  Nd4  1  0.378914  0.378783  0.250000  1
  Nd  Nd5  1  0.378914  0.000131  0.750000  1
  Mn  Mn6  1  -0.000000  0.000000  0.000000  1
  Mn  Mn7  1  0.000000  0.000000  0.500000  1
  Bi  Bi8  1  0.666901  0.333450  -0.000000  1
  Bi  Bi9  1  0.253705  0.000181  0.250000  1
  Bi  Bi10  1  0.333099  0.666550  0.500000  1
  Bi  Bi11  1  0.253705  0.253524  0.750000  1
  Bi  Bi12  1  0.746295  0.999819  0.750000  1
  Bi  Bi13  1  0.000000  0.746441  0.750000  1
  Bi  Bi14  1  0.746295  0.746476  0.250000  1
  Bi  Bi15  1  1.000000  0.253559  0.250000  1
  Bi  Bi16  1  0.333099  0.666550  0.000000  1
  Bi  Bi17  1  0.666901  0.333450  0.500000  1
