# generated using pymatgen
data_Sm2Mo2O7
_symmetry_space_group_name_H-M   'P 1'
_cell_length_a   7.45423440
_cell_length_b   7.45423483
_cell_length_c   7.45423533
_cell_angle_alpha   60.00000246
_cell_angle_beta   60.00000050
_cell_angle_gamma   60.00000227
_symmetry_Int_Tables_number   1
_chemical_formula_structural   Sm2Mo2O7
_chemical_formula_sum   'Sm4 Mo4 O14'
_cell_volume   292.88304679
_cell_formula_units_Z   2
loop_
 _symmetry_equiv_pos_site_id
 _symmetry_equiv_pos_as_xyz
  1  'x, y, z'
loop_
 _atom_site_type_symbol
 _atom_site_label
 _atom_site_symmetry_multiplicity
 _atom_site_fract_x
 _atom_site_fract_y
 _atom_site_fract_z
 _atom_site_occupancy
  Sm  Sm0  1  0.500000  0.000000  0.500000  1
  Sm  Sm1  1  0.500000  0.500000  0.500000  1
  Sm  Sm2  1  0.500000  0.500000  0.000000  1
  Sm  Sm3  1  0.000000  0.500000  0.500000  1
  Mo  Mo4  1  0.000000  0.000000  0.000000  1
  Mo  Mo5  1  0.000000  0.000000  0.500000  1
  Mo  Mo6  1  0.500000  0.000000  0.000000  1
  Mo  Mo7  1  0.000000  0.500000  0.000000  1
  O  O8  1  0.664837  0.085163  0.664837  1
  O  O9  1  0.085163  0.664837  0.664837  1
  O  O10  1  0.914837  0.335163  0.335163  1
  O  O11  1  0.664837  0.664837  0.085163  1
  O  O12  1  0.375000  0.375000  0.375000  1
  O  O13  1  0.914837  0.335163  0.914837  1
  O  O14  1  0.085163  0.085163  0.664837  1
  O  O15  1  0.335163  0.914837  0.914837  1
  O  O16  1  0.335163  0.335163  0.914837  1
  O  O17  1  0.085163  0.664837  0.085163  1
  O  O18  1  0.625000  0.625000  0.625000  1
  O  O19  1  0.335163  0.914837  0.335163  1
  O  O20  1  0.914837  0.914837  0.335163  1
  O  O21  1  0.664837  0.085163  0.085163  1
