# generated using pymatgen
data_Cs2HgI4
_symmetry_space_group_name_H-M   'P 1'
_cell_length_a   8.12100459
_cell_length_b   8.65715718
_cell_length_c   11.39409445
_cell_angle_alpha   90.00000000
_cell_angle_beta   111.53177298
_cell_angle_gamma   90.00000000
_symmetry_Int_Tables_number   1
_chemical_formula_structural   Cs2HgI4
_chemical_formula_sum   'Cs4 Hg2 I8'
_cell_volume   745.15707902
_cell_formula_units_Z   2
loop_
 _symmetry_equiv_pos_site_id
 _symmetry_equiv_pos_as_xyz
  1  'x, y, z'
loop_
 _atom_site_type_symbol
 _atom_site_label
 _atom_site_symmetry_multiplicity
 _atom_site_fract_x
 _atom_site_fract_y
 _atom_site_fract_z
 _atom_site_occupancy
  Cs  Cs0  1  0.214059  0.255546  0.907336  1
  Cs  Cs1  1  0.339193  0.761446  0.533688  1
  Cs  Cs2  1  0.785941  0.755546  0.092664  1
  Cs  Cs3  1  0.660807  0.261446  0.466312  1
  Hg  Hg4  1  0.092841  0.260274  0.273282  1
  Hg  Hg5  1  0.907159  0.760274  0.726718  1
  I  I6  1  0.750400  0.494334  0.789825  1
  I  I7  1  0.720886  0.256250  0.145996  1
  I  I8  1  0.812610  0.751386  0.455801  1
  I  I9  1  0.741039  0.022765  0.783394  1
  I  I10  1  0.279114  0.756250  0.854004  1
  I  I11  1  0.249600  0.994334  0.210175  1
  I  I12  1  0.187390  0.251386  0.544199  1
  I  I13  1  0.258961  0.522765  0.216606  1
