# generated using pymatgen
data_Na(CO)3
_symmetry_space_group_name_H-M   'P 1'
_cell_length_a   7.12390676
_cell_length_b   7.12390614
_cell_length_c   8.28394252
_cell_angle_alpha   105.81559369
_cell_angle_beta   105.81559227
_cell_angle_gamma   111.47873787
_symmetry_Int_Tables_number   1
_chemical_formula_structural   Na(CO)3
_chemical_formula_sum   'Na4 C12 O12'
_cell_volume   342.31218889
_cell_formula_units_Z   4
loop_
 _symmetry_equiv_pos_site_id
 _symmetry_equiv_pos_as_xyz
  1  'x, y, z'
loop_
 _atom_site_type_symbol
 _atom_site_label
 _atom_site_symmetry_multiplicity
 _atom_site_fract_x
 _atom_site_fract_y
 _atom_site_fract_z
 _atom_site_occupancy
  Na  Na0  1  0.226595  0.773405  0.250000  1
  Na  Na1  1  0.476595  0.523405  0.750000  1
  Na  Na2  1  0.773405  0.226595  0.750000  1
  Na  Na3  1  0.523405  0.476595  0.250000  1
  C  C4  1  0.227076  0.977076  0.954152  1
  C  C5  1  0.907980  0.672966  0.648616  1
  C  C6  1  0.759364  0.024350  0.351384  1
  C  C7  1  0.327034  0.092020  0.851384  1
  C  C8  1  0.240636  0.975650  0.648616  1
  C  C9  1  0.977076  0.227076  0.454152  1
  C  C10  1  0.672966  0.907980  0.148616  1
  C  C11  1  0.975650  0.240636  0.148616  1
  C  C12  1  0.092020  0.327034  0.351384  1
  C  C13  1  0.772924  0.022924  0.045848  1
  C  C14  1  0.024350  0.759364  0.851384  1
  C  C15  1  0.022924  0.772924  0.545848  1
  O  O16  1  0.346735  0.056816  0.564651  1
  O  O17  1  0.063816  0.313816  0.627632  1
  O  O18  1  0.717916  0.507835  0.564651  1
  O  O19  1  0.282084  0.492165  0.435349  1
  O  O20  1  0.936184  0.686184  0.372368  1
  O  O21  1  0.653265  0.943184  0.435349  1
  O  O22  1  0.492165  0.282084  0.935349  1
  O  O23  1  0.686184  0.936184  0.872368  1
  O  O24  1  0.943184  0.653265  0.935349  1
  O  O25  1  0.507835  0.717916  0.064651  1
  O  O26  1  0.056816  0.346735  0.064651  1
  O  O27  1  0.313816  0.063816  0.127632  1
