# generated using pymatgen
data_Ba2NdBiO6
_symmetry_space_group_name_H-M   'P 1'
_cell_length_a   6.22746215
_cell_length_b   6.22747521
_cell_length_c   6.26608902
_cell_angle_alpha   90.29896368
_cell_angle_beta   119.60833663
_cell_angle_gamma   119.84234253
_symmetry_Int_Tables_number   1
_chemical_formula_structural   Ba2NdBiO6
_chemical_formula_sum   'Ba2 Nd1 Bi1 O6'
_cell_volume   172.80596128
_cell_formula_units_Z   1
loop_
 _symmetry_equiv_pos_site_id
 _symmetry_equiv_pos_as_xyz
  1  'x, y, z'
loop_
 _atom_site_type_symbol
 _atom_site_label
 _atom_site_symmetry_multiplicity
 _atom_site_fract_x
 _atom_site_fract_y
 _atom_site_fract_z
 _atom_site_occupancy
  O  O0  1  0.427663  0.261786  0.689448  1
  Ba  Ba1  1  0.008532  0.751703  0.760237  1
  O  O2  1  0.572338  0.738216  0.310554  1
  O  O3  1  0.021052  0.299279  0.802491  1
  O  O4  1  0.978948  0.700720  0.197508  1
  Ba  Ba5  1  0.991469  0.248297  0.239763  1
  O  O6  1  0.496788  0.218561  0.197509  1
  Nd  Nd7  1  0.499999  0.000000  0.500000  1
  O  O8  1  0.503212  0.781438  0.802491  1
  Bi  Bi9  1  0.500000  0.499999  0.999999  1
