# generated using pymatgen
data_K12In2Se9
_symmetry_space_group_name_H-M   'P 1'
_cell_length_a   12.88381655
_cell_length_b   14.72802079
_cell_length_c   17.26749958
_cell_angle_alpha   90.00000000
_cell_angle_beta   90.00000000
_cell_angle_gamma   103.31734849
_symmetry_Int_Tables_number   1
_chemical_formula_structural   K12In2Se9
_chemical_formula_sum   'K48 In8 Se36'
_cell_volume   3188.45242223
_cell_formula_units_Z   4
loop_
 _symmetry_equiv_pos_site_id
 _symmetry_equiv_pos_as_xyz
  1  'x, y, z'
loop_
 _atom_site_type_symbol
 _atom_site_label
 _atom_site_symmetry_multiplicity
 _atom_site_fract_x
 _atom_site_fract_y
 _atom_site_fract_z
 _atom_site_occupancy
  K  K0  1  0.411696  0.053038  0.053141  1
  K  K1  1  0.907259  0.037257  0.072244  1
  K  K2  1  0.907259  0.537257  0.427756  1
  K  K3  1  0.687142  0.816627  0.104706  1
  K  K4  1  0.312858  0.183373  0.895294  1
  K  K5  1  0.586870  0.293531  0.961680  1
  K  K6  1  0.956455  0.966912  0.728704  1
  K  K7  1  0.413130  0.706469  0.038320  1
  K  K8  1  0.588304  0.946962  0.946859  1
  K  K9  1  0.673777  0.553913  0.814596  1
  K  K10  1  0.092741  0.962743  0.927756  1
  K  K11  1  0.319646  0.185768  0.253456  1
  K  K12  1  0.832566  0.690770  0.603064  1
  K  K13  1  0.846155  0.215735  0.254944  1
  K  K14  1  0.276319  0.437709  0.946690  1
  K  K15  1  0.411696  0.553038  0.446859  1
  K  K16  1  0.680354  0.314232  0.753456  1
  K  K17  1  0.092741  0.462743  0.572244  1
  K  K18  1  0.326223  0.946087  0.314596  1
  K  K19  1  0.846155  0.715735  0.245056  1
  K  K20  1  0.832566  0.190770  0.896936  1
  K  K21  1  0.153845  0.284265  0.754944  1
  K  K22  1  0.588304  0.446962  0.553141  1
  K  K23  1  0.312858  0.683373  0.604706  1
  K  K24  1  0.021610  0.624892  0.947232  1
  K  K25  1  0.326223  0.446087  0.185404  1
  K  K26  1  0.043545  0.033088  0.271296  1
  K  K27  1  0.319646  0.685768  0.246544  1
  K  K28  1  0.410777  0.704241  0.814777  1
  K  K29  1  0.043545  0.533088  0.228704  1
  K  K30  1  0.410777  0.204241  0.685223  1
  K  K31  1  0.673777  0.053913  0.685404  1
  K  K32  1  0.589223  0.295759  0.185223  1
  K  K33  1  0.956455  0.466912  0.771296  1
  K  K34  1  0.167434  0.809230  0.103064  1
  K  K35  1  0.978390  0.875108  0.447232  1
  K  K36  1  0.167434  0.309230  0.396936  1
  K  K37  1  0.153845  0.784265  0.745056  1
  K  K38  1  0.723681  0.062291  0.446690  1
  K  K39  1  0.978390  0.375108  0.052768  1
  K  K40  1  0.687142  0.316627  0.395294  1
  K  K41  1  0.276319  0.937709  0.553310  1
  K  K42  1  0.680354  0.814232  0.746544  1
  K  K43  1  0.723681  0.562291  0.053310  1
  K  K44  1  0.021610  0.124892  0.552768  1
  K  K45  1  0.589223  0.795759  0.314777  1
  K  K46  1  0.413130  0.206469  0.461680  1
  K  K47  1  0.586870  0.793531  0.538320  1
  In  In48  1  0.824219  0.290655  0.582537  1
  In  In49  1  0.377559  0.972948  0.797955  1
  In  In50  1  0.377559  0.472948  0.702045  1
  In  In51  1  0.622441  0.027052  0.202045  1
  In  In52  1  0.175781  0.709345  0.417463  1
  In  In53  1  0.622441  0.527052  0.297955  1
  In  In54  1  0.824219  0.790655  0.917463  1
  In  In55  1  0.175781  0.209345  0.082537  1
  Se  Se56  1  0.094863  0.275037  0.204334  1
  Se  Se57  1  0.832120  0.467075  0.610568  1
  Se  Se58  1  0.786683  0.963336  0.255009  1
  Se  Se59  1  0.382421  0.786203  0.429533  1
  Se  Se60  1  0.914395  0.769853  0.049985  1
  Se  Se61  1  0.307670  0.861373  0.916007  1
  Se  Se62  1  0.190026  0.075508  0.422015  1
  Se  Se63  1  0.555882  0.122185  0.311796  1
  Se  Se64  1  0.692330  0.638627  0.416007  1
  Se  Se65  1  0.617579  0.713797  0.929533  1
  Se  Se66  1  0.617579  0.213797  0.570467  1
  Se  Se67  1  0.532927  0.614625  0.658546  1
  Se  Se68  1  0.809974  0.424492  0.922015  1
  Se  Se69  1  0.085605  0.730147  0.549985  1
  Se  Se70  1  0.167880  0.032925  0.110568  1
  Se  Se71  1  0.905137  0.224964  0.704334  1
  Se  Se72  1  0.085605  0.230147  0.950015  1
  Se  Se73  1  0.307670  0.361373  0.583993  1
  Se  Se74  1  0.213317  0.536664  0.755009  1
  Se  Se75  1  0.786683  0.463336  0.244991  1
  Se  Se76  1  0.444118  0.377815  0.811796  1
  Se  Se77  1  0.167880  0.532925  0.389432  1
  Se  Se78  1  0.190026  0.575508  0.077985  1
  Se  Se79  1  0.905137  0.724963  0.795666  1
  Se  Se80  1  0.094863  0.775037  0.295666  1
  Se  Se81  1  0.382421  0.286203  0.070467  1
  Se  Se82  1  0.467073  0.885375  0.158546  1
  Se  Se83  1  0.444118  0.877815  0.688204  1
  Se  Se84  1  0.832120  0.967075  0.889432  1
  Se  Se85  1  0.809974  0.924492  0.577985  1
  Se  Se86  1  0.555882  0.622185  0.188204  1
  Se  Se87  1  0.532927  0.114625  0.841454  1
  Se  Se88  1  0.213317  0.036664  0.744991  1
  Se  Se89  1  0.692330  0.138627  0.083993  1
  Se  Se90  1  0.914395  0.269853  0.450015  1
  Se  Se91  1  0.467073  0.385375  0.341454  1
