# generated using pymatgen
data_Tl8Sb21As19(PbS17)4
_symmetry_space_group_name_H-M   'P 1'
_cell_length_a   8.60075117
_cell_length_b   16.94865320
_cell_length_c   22.76839180
_cell_angle_alpha   94.66204366
_cell_angle_beta   106.66080179
_cell_angle_gamma   90.78209181
_symmetry_Int_Tables_number   1
_chemical_formula_structural   Tl8Sb21As19(PbS17)4
_chemical_formula_sum   'Tl8 Sb21 As19 Pb4 S68'
_cell_volume   3166.74625191
_cell_formula_units_Z   1
loop_
 _symmetry_equiv_pos_site_id
 _symmetry_equiv_pos_as_xyz
  1  'x, y, z'
loop_
 _atom_site_type_symbol
 _atom_site_label
 _atom_site_symmetry_multiplicity
 _atom_site_fract_x
 _atom_site_fract_y
 _atom_site_fract_z
 _atom_site_occupancy
  Tl  Tl0  1  0.256636  0.244402  0.689894  1
  Tl  Tl1  1  0.777894  0.242067  0.682579  1
  Tl  Tl2  1  0.252283  0.772651  0.308000  1
  Tl  Tl3  1  0.237209  0.268805  0.312068  1
  Tl  Tl4  1  0.760141  0.271856  0.308692  1
  Tl  Tl5  1  0.741877  0.775260  0.313992  1
  Tl  Tl6  1  0.266488  0.740190  0.676789  1
  Tl  Tl7  1  0.762393  0.740243  0.689290  1
  Sb  Sb8  1  0.004003  0.161728  0.946142  1
  Sb  Sb9  1  0.142473  0.843769  0.513506  1
  Sb  Sb10  1  0.862296  0.671469  0.478750  1
  Sb  Sb11  1  0.552775  0.004228  0.380733  1
  Sb  Sb12  1  0.649526  0.021149  0.228997  1
  Sb  Sb13  1  0.350007  0.185273  0.112767  1
  Sb  Sb14  1  0.368265  0.169969  0.480436  1
  Sb  Sb15  1  0.191217  0.526263  0.229916  1
  Sb  Sb16  1  0.454871  0.510324  0.611116  1
  Sb  Sb17  1  0.879302  0.677363  0.127855  1
  Sb  Sb18  1  0.352480  0.681094  0.111211  1
  Sb  Sb19  1  0.817985  0.984294  0.767090  1
  Sb  Sb20  1  0.644238  0.342596  0.514572  1
  Sb  Sb21  1  0.662900  0.832389  0.880918  1
  Sb  Sb22  1  0.999453  0.661724  0.942120  1
  Sb  Sb23  1  0.585741  0.841784  0.064701  1
  Sb  Sb24  1  0.659212  0.334500  0.876189  1
  Sb  Sb25  1  0.963989  0.014364  0.616029  1
  Sb  Sb26  1  0.295039  0.493023  0.016468  1
  Sb  Sb27  1  0.353631  0.494604  0.764568  1
  Sb  Sb28  1  0.051994  0.498423  0.381600  1
  As  As29  1  0.396783  0.677664  0.923948  1
  As  As30  1  0.595030  0.348728  0.066654  1
  As  As31  1  0.305134  0.999538  0.034149  1
  As  As32  1  0.118559  0.829119  0.861815  1
  As  As33  1  0.708766  0.015410  0.966011  1
  As  As34  1  0.031079  0.995332  0.362252  1
  As  As35  1  0.695355  0.523808  0.951249  1
  As  As36  1  0.544531  0.492920  0.363404  1
  As  As37  1  0.634663  0.861774  0.485056  1
  As  As38  1  0.993582  0.350965  0.056795  1
  As  As39  1  0.980337  0.517783  0.632387  1
  As  As40  1  0.138637  0.356656  0.486511  1
  As  As41  1  0.374201  0.654815  0.508894  1
  As  As42  1  0.418949  0.164713  0.932794  1
  As  As43  1  0.874439  0.154724  0.510195  1
  As  As44  1  0.471836  0.019584  0.634675  1
  As  As45  1  0.149215  0.324203  0.868651  1
  As  As46  1  0.865382  0.189044  0.126517  1
  As  As47  1  0.002791  0.850808  0.062834  1
  Pb  Pb48  1  0.330169  0.005605  0.777616  1
  Pb  Pb49  1  0.682398  0.508728  0.221567  1
  Pb  Pb50  1  0.848719  0.496586  0.774390  1
  Pb  Pb51  1  0.158952  0.015287  0.218859  1
  S  S52  1  0.895940  0.403253  0.429054  1
  S  S53  1  0.404853  0.779232  0.561836  1
  S  S54  1  0.542501  0.094945  0.725357  1
  S  S55  1  0.210293  0.075268  0.903791  1
  S  S56  1  0.714788  0.093393  0.558762  1
  S  S57  1  0.989032  0.424325  0.279473  1
  S  S58  1  0.228583  0.074897  0.343598  1
  S  S59  1  0.903915  0.738723  0.842031  1
  S  S60  1  0.601048  0.096933  0.884932  1
  S  S61  1  0.223845  0.256034  0.001652  1
  S  S62  1  0.485924  0.928284  0.276546  1
  S  S63  1  0.079786  0.281445  0.145582  1
  S  S64  1  0.816899  0.756353  0.010107  1
  S  S65  1  0.447025  0.127234  0.226784  1
  S  S66  1  0.970712  0.911198  0.277751  1
  S  S67  1  0.079904  0.371522  0.775196  1
  S  S68  1  0.813436  0.435703  0.092411  1
  S  S69  1  0.588679  0.603469  0.872164  1
  S  S70  1  0.478701  0.415904  0.273837  1
  S  S71  1  0.023498  0.086590  0.718901  1
  S  S72  1  0.458435  0.279115  0.566701  1
  S  S73  1  0.614898  0.609784  0.568095  1
  S  S74  1  0.696800  0.936768  0.656587  1
  S  S75  1  0.876039  0.449627  0.914064  1
  S  S76  1  0.883286  0.941802  0.925505  1
  S  S77  1  0.517668  0.594919  0.053011  1
  S  S78  1  0.795715  0.924087  0.436889  1
  S  S79  1  0.274771  0.938188  0.648486  1
  S  S80  1  0.344970  0.240622  0.845845  1
  S  S81  1  0.492532  0.427456  0.926387  1
  S  S82  1  0.937486  0.143564  0.219817  1
  S  S83  1  0.393856  0.906745  0.425827  1
  S  S84  1  0.049130  0.599013  0.719204  1
  S  S85  1  0.956708  0.781921  0.565719  1
  S  S86  1  0.217559  0.761615  0.983635  1
  S  S87  1  0.423316  0.416869  0.113219  1
  S  S88  1  0.118239  0.110658  0.568863  1
  S  S89  1  0.738641  0.575980  0.348660  1
  S  S90  1  0.803999  0.263816  0.997610  1
  S  S91  1  0.128514  0.073900  0.073054  1
  S  S92  1  0.102013  0.783074  0.152153  1
  S  S93  1  0.406886  0.922372  0.117679  1
  S  S94  1  0.827118  0.934718  0.097593  1
  S  S95  1  0.038576  0.877289  0.763437  1
  S  S96  1  0.516101  0.091520  0.062726  1
  S  S97  1  0.780242  0.438103  0.649133  1
  S  S98  1  0.806018  0.078084  0.337756  1
  S  S99  1  0.417412  0.628090  0.215011  1
  S  S100  1  0.213502  0.592549  0.557517  1
  S  S101  1  0.499539  0.923991  0.940078  1
  S  S102  1  0.980518  0.632452  0.236283  1
  S  S103  1  0.050603  0.733204  0.427190  1
  S  S104  1  0.677835  0.763533  0.160817  1
  S  S105  1  0.200476  0.579810  0.896638  1
  S  S106  1  0.554811  0.232735  0.428536  1
  S  S107  1  0.522264  0.583806  0.716099  1
  S  S108  1  0.105399  0.233688  0.430931  1
  S  S109  1  0.602437  0.737848  0.431052  1
  S  S110  1  0.299737  0.419606  0.439163  1
  S  S111  1  0.906845  0.278764  0.563990  1
  S  S112  1  0.318151  0.574420  0.339579  1
  S  S113  1  0.584616  0.882183  0.777006  1
  S  S114  1  0.558078  0.383677  0.765762  1
  S  S115  1  0.672787  0.271998  0.151018  1
  S  S116  1  0.203761  0.434621  0.655531  1
  S  S117  1  0.929100  0.236397  0.848004  1
  S  S118  1  0.314810  0.750786  0.836323  1
  S  S119  1  0.114211  0.578432  0.061935  1
