# generated using pymatgen
data_RbGa2P5O16
_symmetry_space_group_name_H-M   'P 1'
_cell_length_a   7.49835000
_cell_length_b   9.33757591
_cell_length_c   10.24272772
_cell_angle_alpha   90.00000000
_cell_angle_beta   110.77962964
_cell_angle_gamma   90.00000000
_symmetry_Int_Tables_number   1
_chemical_formula_structural   RbGa2P5O16
_chemical_formula_sum   'Rb2 Ga4 P10 O32'
_cell_volume   670.50919161
_cell_formula_units_Z   2
loop_
 _symmetry_equiv_pos_site_id
 _symmetry_equiv_pos_as_xyz
  1  'x, y, z'
loop_
 _atom_site_type_symbol
 _atom_site_label
 _atom_site_symmetry_multiplicity
 _atom_site_fract_x
 _atom_site_fract_y
 _atom_site_fract_z
 _atom_site_occupancy
  Rb  Rb0  1  0.251245  0.798266  0.227691  1
  Rb  Rb1  1  0.751245  0.201734  0.727691  1
  Ga  Ga2  1  0.212147  0.368490  0.127129  1
  Ga  Ga3  1  0.163159  0.138615  0.518807  1
  Ga  Ga4  1  0.712147  0.631510  0.627129  1
  Ga  Ga5  1  0.663159  0.861385  0.018807  1
  P  P6  1  0.859611  0.584915  0.960547  1
  P  P7  1  0.359611  0.415085  0.460547  1
  P  P8  1  0.015543  0.863113  0.616802  1
  P  P9  1  0.424837  0.874018  0.688198  1
  P  P10  1  0.924837  0.125982  0.188198  1
  P  P11  1  0.306625  0.294498  0.861073  1
  P  P12  1  0.515543  0.136887  0.116802  1
  P  P13  1  0.000013  0.456715  0.500236  1
  P  P14  1  0.806625  0.705502  0.361073  1
  P  P15  1  0.500013  0.543285  1.000236  1
  O  O16  1  0.387763  0.454709  0.857814  1
  O  O17  1  0.718784  0.505789  0.030127  1
  O  O18  1  0.266232  0.229929  0.721005  1
  O  O19  1  0.350056  0.253764  0.480409  1
  O  O20  1  0.467580  0.701573  0.971074  1
  O  O21  1  0.551942  0.936836  0.828027  1
  O  O22  1  0.444672  0.479651  0.115302  1
  O  O23  1  0.492020  0.215228  0.970594  1
  O  O24  1  0.362716  0.988235  0.573457  1
  O  O25  1  0.381248  0.196867  0.182732  1
  O  O26  1  0.766232  0.770071  0.221005  1
  O  O27  1  0.058851  0.534217  0.046311  1
  O  O28  1  0.967580  0.298427  0.471074  1
  O  O29  1  0.498904  0.739661  0.641648  1
  O  O30  1  0.651344  0.704358  0.423392  1
  O  O31  1  0.993751  0.023647  0.589690  1
  O  O32  1  0.785014  0.537872  0.808288  1
  O  O33  1  0.051942  0.063164  0.328027  1
  O  O34  1  0.881248  0.803133  0.682732  1
  O  O35  1  0.850056  0.746236  0.980409  1
  O  O36  1  0.862716  0.011765  0.073457  1
  O  O37  1  0.887763  0.545291  0.357814  1
  O  O38  1  0.226742  0.822897  0.710766  1
  O  O39  1  0.558851  0.465783  0.546311  1
  O  O40  1  0.944672  0.520349  0.615302  1
  O  O41  1  0.151344  0.295642  0.923392  1
  O  O42  1  0.998904  0.260339  0.141648  1
  O  O43  1  0.285014  0.462128  0.308288  1
  O  O44  1  0.493751  0.976353  0.089690  1
  O  O45  1  0.218784  0.494211  0.530127  1
  O  O46  1  0.726742  0.177103  0.210766  1
  O  O47  1  0.992020  0.784772  0.470594  1
