# generated using pymatgen
data_Rb2Ag2GeS4
_symmetry_space_group_name_H-M   'P 1'
_cell_length_a   6.40020644
_cell_length_b   7.55484482
_cell_length_c   11.91783735
_cell_angle_alpha   101.96889832
_cell_angle_beta   97.99987724
_cell_angle_gamma   114.08419658
_symmetry_Int_Tables_number   1
_chemical_formula_structural   Rb2Ag2GeS4
_chemical_formula_sum   'Rb4 Ag4 Ge2 S8'
_cell_volume   498.23532122
_cell_formula_units_Z   2
loop_
 _symmetry_equiv_pos_site_id
 _symmetry_equiv_pos_as_xyz
  1  'x, y, z'
loop_
 _atom_site_type_symbol
 _atom_site_label
 _atom_site_symmetry_multiplicity
 _atom_site_fract_x
 _atom_site_fract_y
 _atom_site_fract_z
 _atom_site_occupancy
  Rb  Rb0  1  0.558195  0.808195  0.616390  1
  Rb  Rb1  1  0.811731  0.061731  0.123462  1
  Rb  Rb2  1  0.441805  0.191805  0.383610  1
  Rb  Rb3  1  0.188269  0.938269  0.876538  1
  Ag  Ag4  1  0.934536  0.684536  0.369073  1
  Ag  Ag5  1  0.782440  0.532440  0.064881  1
  Ag  Ag6  1  0.217560  0.467560  0.935119  1
  Ag  Ag7  1  0.065464  0.315464  0.630927  1
  Ge  Ge8  1  0.626812  0.376812  0.753624  1
  Ge  Ge9  1  0.373188  0.623188  0.246376  1
  S  S10  1  0.857768  0.516394  0.638373  1
  S  S11  1  0.219004  0.766644  0.132366  1
  S  S12  1  0.780996  0.233356  0.867634  1
  S  S13  1  0.142232  0.483606  0.361627  1
  S  S14  1  0.413363  0.365723  0.132366  1
  S  S15  1  0.280604  0.121978  0.638373  1
  S  S16  1  0.719396  0.878022  0.361627  1
  S  S17  1  0.586637  0.634277  0.867634  1
