# generated using pymatgen
data_KBC4NF9
_symmetry_space_group_name_H-M   'P 1'
_cell_length_a   9.47843649
_cell_length_b   9.89086610
_cell_length_c   10.67891246
_cell_angle_alpha   90.00000000
_cell_angle_beta   90.00000000
_cell_angle_gamma   90.00000000
_symmetry_Int_Tables_number   1
_chemical_formula_structural   KBC4NF9
_chemical_formula_sum   'K4 B4 C16 N4 F36'
_cell_volume   1001.14746817
_cell_formula_units_Z   4
loop_
 _symmetry_equiv_pos_site_id
 _symmetry_equiv_pos_as_xyz
  1  'x, y, z'
loop_
 _atom_site_type_symbol
 _atom_site_label
 _atom_site_symmetry_multiplicity
 _atom_site_fract_x
 _atom_site_fract_y
 _atom_site_fract_z
 _atom_site_occupancy
  K  K0  1  0.508563  0.222601  0.250000  1
  K  K1  1  0.008563  0.277399  0.750000  1
  K  K2  1  0.491437  0.777399  0.750000  1
  K  K3  1  0.991437  0.722601  0.250000  1
  B  B4  1  0.978827  0.287172  0.250000  1
  B  B5  1  0.478827  0.212828  0.750000  1
  B  B6  1  0.521173  0.787172  0.250000  1
  B  B7  1  0.021173  0.712828  0.750000  1
  C  C8  1  0.858634  0.653592  0.750000  1
  C  C9  1  0.106104  0.662341  0.876281  1
  C  C10  1  0.393896  0.162341  0.623719  1
  C  C11  1  0.511612  0.516657  0.250000  1
  C  C12  1  0.141366  0.346408  0.250000  1
  C  C13  1  0.893896  0.337659  0.123719  1
  C  C14  1  0.488388  0.483343  0.750000  1
  C  C15  1  0.606104  0.837659  0.376281  1
  C  C16  1  0.988388  0.016657  0.250000  1
  C  C17  1  0.641366  0.153592  0.750000  1
  C  C18  1  0.358634  0.846408  0.250000  1
  C  C19  1  0.011612  0.983343  0.750000  1
  C  C20  1  0.393896  0.162341  0.876281  1
  C  C21  1  0.106104  0.662341  0.623719  1
  C  C22  1  0.606104  0.837659  0.123719  1
  C  C23  1  0.893896  0.337659  0.376281  1
  N  N24  1  0.484423  0.364617  0.750000  1
  N  N25  1  0.515577  0.635383  0.250000  1
  N  N26  1  0.984423  0.135383  0.250000  1
  N  N27  1  0.015577  0.864617  0.750000  1
  F  F28  1  0.780961  0.694085  0.852235  1
  F  F29  1  0.379342  0.024011  0.885692  1
  F  F30  1  0.148666  0.486568  0.250000  1
  F  F31  1  0.719039  0.194085  0.647765  1
  F  F32  1  0.620658  0.975989  0.114308  1
  F  F33  1  0.041444  0.702622  0.514122  1
  F  F34  1  0.851334  0.513432  0.750000  1
  F  F35  1  0.780961  0.694085  0.647765  1
  F  F36  1  0.741491  0.786648  0.383815  1
  F  F37  1  0.120658  0.524011  0.885692  1
  F  F38  1  0.258509  0.213352  0.616185  1
  F  F39  1  0.458556  0.202622  0.514122  1
  F  F40  1  0.351334  0.986568  0.250000  1
  F  F41  1  0.241491  0.713352  0.883815  1
  F  F42  1  0.541444  0.797378  0.485878  1
  F  F43  1  0.758509  0.286648  0.383815  1
  F  F44  1  0.879342  0.475989  0.114308  1
  F  F45  1  0.648666  0.013432  0.750000  1
  F  F46  1  0.541444  0.797378  0.014122  1
  F  F47  1  0.758509  0.286648  0.116185  1
  F  F48  1  0.741491  0.786648  0.116185  1
  F  F49  1  0.280961  0.805915  0.147765  1
  F  F50  1  0.620658  0.975989  0.385692  1
  F  F51  1  0.241491  0.713352  0.616185  1
  F  F52  1  0.379342  0.024011  0.614308  1
  F  F53  1  0.458556  0.202622  0.985878  1
  F  F54  1  0.258509  0.213352  0.883815  1
  F  F55  1  0.280961  0.805915  0.352235  1
  F  F56  1  0.120658  0.524011  0.614308  1
  F  F57  1  0.879342  0.475989  0.385692  1
  F  F58  1  0.041444  0.702622  0.985878  1
  F  F59  1  0.958556  0.297378  0.485878  1
  F  F60  1  0.958556  0.297378  0.014122  1
  F  F61  1  0.719039  0.194085  0.852235  1
  F  F62  1  0.219039  0.305915  0.352235  1
  F  F63  1  0.219039  0.305915  0.147765  1
