# generated using pymatgen
data_MnBiPO5
_symmetry_space_group_name_H-M   'P 1'
_cell_length_a   5.45820537
_cell_length_b   7.60082617
_cell_length_c   11.44178312
_cell_angle_alpha   90.00000000
_cell_angle_beta   90.00000000
_cell_angle_gamma   109.48710468
_symmetry_Int_Tables_number   1
_chemical_formula_structural   MnBiPO5
_chemical_formula_sum   'Mn4 Bi4 P4 O20'
_cell_volume   447.49226917
_cell_formula_units_Z   4
loop_
 _symmetry_equiv_pos_site_id
 _symmetry_equiv_pos_as_xyz
  1  'x, y, z'
loop_
 _atom_site_type_symbol
 _atom_site_label
 _atom_site_symmetry_multiplicity
 _atom_site_fract_x
 _atom_site_fract_y
 _atom_site_fract_z
 _atom_site_occupancy
  Mn  Mn0  1  0.133163  0.689338  0.588352  1
  Mn  Mn1  1  0.633163  0.189338  0.911648  1
  Mn  Mn2  1  0.866837  0.310662  0.411648  1
  Mn  Mn3  1  0.366837  0.810662  0.088352  1
  Bi  Bi4  1  0.625474  0.683806  0.402217  1
  Bi  Bi5  1  0.374526  0.316194  0.597783  1
  Bi  Bi6  1  0.125474  0.183806  0.097783  1
  Bi  Bi7  1  0.874526  0.816194  0.902217  1
  P  P8  1  0.292388  0.477758  0.849732  1
  P  P9  1  0.792388  0.977758  0.650268  1
  P  P10  1  0.707612  0.522242  0.150268  1
  P  P11  1  0.207612  0.022242  0.349732  1
  O  O12  1  0.900350  0.164764  0.582231  1
  O  O13  1  0.400350  0.664764  0.917769  1
  O  O14  1  0.599650  0.335236  0.082231  1
  O  O15  1  0.190406  0.508108  0.726714  1
  O  O16  1  0.690406  0.008108  0.773286  1
  O  O17  1  0.749222  0.987165  0.024339  1
  O  O18  1  0.249222  0.487165  0.475661  1
  O  O19  1  0.099650  0.835236  0.417769  1
  O  O20  1  0.567579  0.839035  0.577942  1
  O  O21  1  0.809594  0.491892  0.273286  1
  O  O22  1  0.514908  0.396691  0.825861  1
  O  O23  1  0.432421  0.160965  0.422058  1
  O  O24  1  0.932421  0.660965  0.077942  1
  O  O25  1  0.985092  0.103309  0.325861  1
  O  O26  1  0.014908  0.896691  0.674139  1
  O  O27  1  0.309594  0.991892  0.226714  1
  O  O28  1  0.067579  0.339035  0.922058  1
  O  O29  1  0.750778  0.512835  0.524339  1
  O  O30  1  0.485092  0.603309  0.174139  1
  O  O31  1  0.250778  0.012835  0.975661  1
