# generated using pymatgen
data_BaCd(PO3)4
_symmetry_space_group_name_H-M   'P 1'
_cell_length_a   7.35086068
_cell_length_b   9.41192453
_cell_length_c   15.18876649
_cell_angle_alpha   90.00000000
_cell_angle_beta   90.69098656
_cell_angle_gamma   90.00000000
_symmetry_Int_Tables_number   1
_chemical_formula_structural   BaCd(PO3)4
_chemical_formula_sum   'Ba4 Cd4 P16 O48'
_cell_volume   1050.76972166
_cell_formula_units_Z   4
loop_
 _symmetry_equiv_pos_site_id
 _symmetry_equiv_pos_as_xyz
  1  'x, y, z'
loop_
 _atom_site_type_symbol
 _atom_site_label
 _atom_site_symmetry_multiplicity
 _atom_site_fract_x
 _atom_site_fract_y
 _atom_site_fract_z
 _atom_site_occupancy
  Ba  Ba0  1  0.985081  0.892250  0.632883  1
  Ba  Ba1  1  0.514919  0.392250  0.867117  1
  Ba  Ba2  1  0.014919  0.107750  0.367117  1
  Ba  Ba3  1  0.485081  0.607750  0.132883  1
  Cd  Cd4  1  0.996626  0.229215  0.842561  1
  Cd  Cd5  1  0.503374  0.729215  0.657439  1
  Cd  Cd6  1  0.003374  0.770785  0.157439  1
  Cd  Cd7  1  0.496626  0.270785  0.342561  1
  P  P8  1  0.630009  0.832609  0.441790  1
  P  P9  1  0.869991  0.332609  0.058210  1
  P  P10  1  0.369991  0.167391  0.558210  1
  P  P11  1  0.130009  0.667391  0.941790  1
  P  P12  1  0.738944  0.750132  0.959197  1
  P  P13  1  0.761056  0.250132  0.540803  1
  P  P14  1  0.261056  0.249868  0.040803  1
  P  P15  1  0.238944  0.749868  0.459197  1
  P  P16  1  0.136278  0.520582  0.326423  1
  P  P17  1  0.363722  0.020582  0.173577  1
  P  P18  1  0.863722  0.479418  0.673577  1
  P  P19  1  0.636278  0.979418  0.826423  1
  P  P20  1  0.741806  0.600207  0.322576  1
  P  P21  1  0.758194  0.100207  0.177424  1
  P  P22  1  0.258194  0.399793  0.677424  1
  P  P23  1  0.241806  0.899793  0.822576  1
  O  O24  1  0.717326  0.680050  0.415211  1
  O  O25  1  0.782674  0.180050  0.084789  1
  O  O26  1  0.282674  0.319950  0.584789  1
  O  O27  1  0.217326  0.819950  0.915211  1
  O  O28  1  0.418792  0.809817  0.412817  1
  O  O29  1  0.081208  0.309817  0.087183  1
  O  O30  1  0.581208  0.190183  0.587183  1
  O  O31  1  0.918792  0.690183  0.912817  1
  O  O32  1  0.714787  0.904514  0.914303  1
  O  O33  1  0.785213  0.404514  0.585697  1
  O  O34  1  0.285213  0.095486  0.085697  1
  O  O35  1  0.214787  0.595486  0.414303  1
  O  O36  1  0.920879  0.509191  0.344693  1
  O  O37  1  0.579121  0.009191  0.155307  1
  O  O38  1  0.079121  0.490809  0.655307  1
  O  O39  1  0.420879  0.990809  0.844693  1
  O  O40  1  0.650762  0.839833  0.540927  1
  O  O41  1  0.849238  0.339833  0.959073  1
  O  O42  1  0.349238  0.160167  0.459073  1
  O  O43  1  0.150762  0.660167  0.040927  1
  O  O44  1  0.702141  0.951782  0.388381  1
  O  O45  1  0.797859  0.451782  0.111619  1
  O  O46  1  0.297859  0.048218  0.611619  1
  O  O47  1  0.202141  0.548218  0.888381  1
  O  O48  1  0.769313  0.777566  0.055998  1
  O  O49  1  0.730687  0.277566  0.444002  1
  O  O50  1  0.230687  0.222434  0.944002  1
  O  O51  1  0.269313  0.722434  0.555998  1
  O  O52  1  0.083367  0.846763  0.436524  1
  O  O53  1  0.416633  0.346763  0.063476  1
  O  O54  1  0.916632  0.153237  0.563476  1
  O  O55  1  0.583368  0.653237  0.936524  1
  O  O56  1  0.202871  0.369521  0.329639  1
  O  O57  1  0.297129  0.869521  0.170361  1
  O  O58  1  0.797129  0.630479  0.670361  1
  O  O59  1  0.702871  0.130479  0.829639  1
  O  O60  1  0.672291  0.891451  0.745764  1
  O  O61  1  0.827709  0.391451  0.754236  1
  O  O62  1  0.327709  0.108549  0.254236  1
  O  O63  1  0.172291  0.608549  0.245764  1
  O  O64  1  0.771012  0.704708  0.248903  1
  O  O65  1  0.728988  0.204708  0.251097  1
  O  O66  1  0.228988  0.295292  0.751097  1
  O  O67  1  0.271012  0.795292  0.748903  1
  O  O68  1  0.583509  0.501093  0.306680  1
  O  O69  1  0.916491  0.001093  0.193320  1
  O  O70  1  0.416491  0.498907  0.693320  1
  O  O71  1  0.083509  0.998907  0.806680  1
