# generated using pymatgen
data_PS2N(Cl3O2)2
_symmetry_space_group_name_H-M   'P 1'
_cell_length_a   10.71301562
_cell_length_b   10.91503654
_cell_length_c   11.11004709
_cell_angle_alpha   90.00000000
_cell_angle_beta   90.00000000
_cell_angle_gamma   90.00000000
_symmetry_Int_Tables_number   1
_chemical_formula_structural   PS2N(Cl3O2)2
_chemical_formula_sum   'P4 S8 N4 Cl24 O16'
_cell_volume   1299.13065804
_cell_formula_units_Z   4
loop_
 _symmetry_equiv_pos_site_id
 _symmetry_equiv_pos_as_xyz
  1  'x, y, z'
loop_
 _atom_site_type_symbol
 _atom_site_label
 _atom_site_symmetry_multiplicity
 _atom_site_fract_x
 _atom_site_fract_y
 _atom_site_fract_z
 _atom_site_occupancy
  P  P0  1  0.640106  0.945708  0.750000  1
  P  P1  1  0.140106  0.554292  0.250000  1
  P  P2  1  0.859894  0.445708  0.750000  1
  P  P3  1  0.359894  0.054292  0.250000  1
  S  S4  1  0.702091  0.601783  0.377086  1
  S  S5  1  0.702091  0.601783  0.122914  1
  S  S6  1  0.297909  0.398217  0.622914  1
  S  S7  1  0.202091  0.898217  0.877086  1
  S  S8  1  0.202091  0.898217  0.622914  1
  S  S9  1  0.797909  0.101783  0.122914  1
  S  S10  1  0.297909  0.398217  0.877086  1
  S  S11  1  0.797909  0.101783  0.377086  1
  N  N12  1  0.271200  0.905955  0.750000  1
  N  N13  1  0.728800  0.094045  0.250000  1
  N  N14  1  0.228800  0.405955  0.750000  1
  N  N15  1  0.771200  0.594045  0.250000  1
  Cl  Cl16  1  0.820249  0.978403  0.750000  1
  Cl  Cl17  1  0.401595  0.150457  0.392950  1
  Cl  Cl18  1  0.320249  0.521597  0.250000  1
  Cl  Cl19  1  0.548419  0.100477  0.750000  1
  Cl  Cl20  1  0.048419  0.399523  0.250000  1
  Cl  Cl21  1  0.869031  0.924502  0.405786  1
  Cl  Cl22  1  0.901595  0.349543  0.607050  1
  Cl  Cl23  1  0.130969  0.075498  0.594214  1
  Cl  Cl24  1  0.598405  0.849543  0.607050  1
  Cl  Cl25  1  0.369031  0.575498  0.594214  1
  Cl  Cl26  1  0.451581  0.899523  0.250000  1
  Cl  Cl27  1  0.098405  0.650457  0.392950  1
  Cl  Cl28  1  0.951581  0.600477  0.750000  1
  Cl  Cl29  1  0.630969  0.424502  0.094214  1
  Cl  Cl30  1  0.630969  0.424502  0.405786  1
  Cl  Cl31  1  0.679751  0.478403  0.750000  1
  Cl  Cl32  1  0.369031  0.575498  0.905786  1
  Cl  Cl33  1  0.869031  0.924502  0.094214  1
  Cl  Cl34  1  0.098405  0.650457  0.107050  1
  Cl  Cl35  1  0.598405  0.849543  0.892950  1
  Cl  Cl36  1  0.130969  0.075498  0.905786  1
  Cl  Cl37  1  0.901595  0.349543  0.892950  1
  Cl  Cl38  1  0.401595  0.150457  0.107050  1
  Cl  Cl39  1  0.179751  0.021597  0.250000  1
  O  O40  1  0.093824  0.819313  0.883236  1
  O  O41  1  0.702445  0.114278  0.032090  1
  O  O42  1  0.406176  0.319313  0.616764  1
  O  O43  1  0.593824  0.680687  0.383236  1
  O  O44  1  0.297555  0.885722  0.967910  1
  O  O45  1  0.202445  0.385722  0.967910  1
  O  O46  1  0.202445  0.385722  0.532090  1
  O  O47  1  0.702445  0.114278  0.467910  1
  O  O48  1  0.906176  0.180687  0.383236  1
  O  O49  1  0.906176  0.180687  0.116764  1
  O  O50  1  0.797555  0.614278  0.032090  1
  O  O51  1  0.797555  0.614278  0.467910  1
  O  O52  1  0.297555  0.885722  0.532090  1
  O  O53  1  0.406176  0.319313  0.883236  1
  O  O54  1  0.593824  0.680687  0.116764  1
  O  O55  1  0.093824  0.819313  0.616764  1
