# generated using pymatgen
data_Ba4NaMn2O9
_symmetry_space_group_name_H-M   'P 1'
_cell_length_a   10.17527518
_cell_length_b   10.17527501
_cell_length_c   8.40623213
_cell_angle_alpha   90.00000000
_cell_angle_beta   90.00000000
_cell_angle_gamma   120.00000055
_symmetry_Int_Tables_number   1
_chemical_formula_structural   Ba4NaMn2O9
_chemical_formula_sum   'Ba12 Na3 Mn6 O27'
_cell_volume   753.74479598
_cell_formula_units_Z   3
loop_
 _symmetry_equiv_pos_site_id
 _symmetry_equiv_pos_as_xyz
  1  'x, y, z'
loop_
 _atom_site_type_symbol
 _atom_site_label
 _atom_site_symmetry_multiplicity
 _atom_site_fract_x
 _atom_site_fract_y
 _atom_site_fract_z
 _atom_site_occupancy
  Ba  Ba0  1  1.000000  0.353268  0.500000  1
  Ba  Ba1  1  0.673525  0.673525  0.000000  1
  Ba  Ba2  1  0.664357  0.977567  0.245568  1
  Ba  Ba3  1  0.000000  0.326475  0.000000  1
  Ba  Ba4  1  0.335643  0.313210  0.754432  1
  Ba  Ba5  1  0.353268  0.000000  0.500000  1
  Ba  Ba6  1  0.977567  0.664357  0.754432  1
  Ba  Ba7  1  0.022433  0.686790  0.245568  1
  Ba  Ba8  1  0.686790  0.022433  0.754432  1
  Ba  Ba9  1  0.313210  0.335643  0.245568  1
  Ba  Ba10  1  0.326475  0.000000  0.000000  1
  Ba  Ba11  1  0.646732  0.646732  0.500000  1
  Na  Na12  1  0.666667  0.333333  0.256067  1
  Na  Na13  1  0.000000  0.000000  0.500000  1
  Na  Na14  1  0.333333  0.666667  0.743933  1
  Mn  Mn15  1  0.666667  0.333333  0.595610  1
  Mn  Mn16  1  0.000000  0.000000  0.840262  1
  Mn  Mn17  1  0.000000  0.000000  0.159738  1
  Mn  Mn18  1  0.333333  0.666667  0.404390  1
  Mn  Mn19  1  0.333333  0.666667  0.085199  1
  Mn  Mn20  1  0.666667  0.333333  0.914801  1
  O  O21  1  0.655641  0.475909  0.755673  1
  O  O22  1  0.854839  0.000000  0.000000  1
  O  O23  1  0.008598  0.164043  0.719127  1
  O  O24  1  0.182020  0.678665  0.527681  1
  O  O25  1  0.508498  0.327351  0.038490  1
  O  O26  1  0.327351  0.508498  0.961510  1
  O  O27  1  0.818853  0.491502  0.038490  1
  O  O28  1  0.524091  0.179732  0.755673  1
  O  O29  1  0.672649  0.181147  0.038490  1
  O  O30  1  0.181147  0.672649  0.961510  1
  O  O31  1  0.503355  0.321335  0.472319  1
  O  O32  1  0.491502  0.818853  0.961510  1
  O  O33  1  0.145161  0.145161  0.000000  1
  O  O34  1  0.344359  0.820268  0.244327  1
  O  O35  1  0.321335  0.503355  0.527681  1
  O  O36  1  0.475909  0.655641  0.244327  1
  O  O37  1  0.817980  0.496645  0.472319  1
  O  O38  1  0.496645  0.817980  0.527681  1
  O  O39  1  0.179732  0.524091  0.244327  1
  O  O40  1  0.991402  0.155444  0.280873  1
  O  O41  1  1.000000  0.854839  0.000000  1
  O  O42  1  0.844556  0.835957  0.280873  1
  O  O43  1  0.164043  0.008598  0.280873  1
  O  O44  1  0.820268  0.344359  0.755673  1
  O  O45  1  0.678665  0.182020  0.472319  1
  O  O46  1  0.155444  0.991402  0.719127  1
  O  O47  1  0.835957  0.844556  0.719127  1
