# generated using pymatgen
data_Sb2ClO2F11
_symmetry_space_group_name_H-M   'P 1'
_cell_length_a   7.77626771
_cell_length_b   10.53498017
_cell_length_c   13.46017229
_cell_angle_alpha   90.00000000
_cell_angle_beta   93.93177197
_cell_angle_gamma   90.00000000
_symmetry_Int_Tables_number   1
_chemical_formula_structural   Sb2ClO2F11
_chemical_formula_sum   'Sb8 Cl4 O8 F44'
_cell_volume   1100.10006125
_cell_formula_units_Z   4
loop_
 _symmetry_equiv_pos_site_id
 _symmetry_equiv_pos_as_xyz
  1  'x, y, z'
loop_
 _atom_site_type_symbol
 _atom_site_label
 _atom_site_symmetry_multiplicity
 _atom_site_fract_x
 _atom_site_fract_y
 _atom_site_fract_z
 _atom_site_occupancy
  Sb  Sb0  1  0.663538  0.537576  0.773819  1
  Sb  Sb1  1  0.822437  0.162978  0.105698  1
  Sb  Sb2  1  0.322437  0.337022  0.605698  1
  Sb  Sb3  1  0.677563  0.662978  0.394302  1
  Sb  Sb4  1  0.177563  0.837022  0.894302  1
  Sb  Sb5  1  0.163538  0.962424  0.273819  1
  Sb  Sb6  1  0.336462  0.462424  0.226181  1
  Sb  Sb7  1  0.836462  0.037576  0.726181  1
  Cl  Cl8  1  0.666642  0.167448  0.389795  1
  Cl  Cl9  1  0.833358  0.667448  0.110205  1
  Cl  Cl10  1  0.166642  0.332552  0.889795  1
  Cl  Cl11  1  0.333358  0.832552  0.610205  1
  O  O12  1  0.191695  0.748664  0.590765  1
  O  O13  1  0.171663  0.454295  0.936064  1
  O  O14  1  0.328337  0.954295  0.563936  1
  O  O15  1  0.828337  0.545705  0.063936  1
  O  O16  1  0.308305  0.248664  0.909235  1
  O  O17  1  0.808305  0.251336  0.409235  1
  O  O18  1  0.671663  0.045705  0.436064  1
  O  O19  1  0.691695  0.751336  0.090765  1
  F  F20  1  0.946859  0.907898  0.830795  1
  F  F21  1  0.517211  0.459171  0.863273  1
  F  F22  1  0.667911  0.909643  0.694481  1
  F  F23  1  0.886810  0.728372  0.452141  1
  F  F24  1  0.698118  0.504035  0.458944  1
  F  F25  1  0.482789  0.540829  0.136727  1
  F  F26  1  0.705216  0.096793  0.829729  1
  F  F27  1  0.744467  0.153688  0.628829  1
  F  F28  1  0.244467  0.346312  0.128829  1
  F  F29  1  0.284654  0.908759  0.780822  1
  F  F30  1  0.801882  0.004035  0.041056  1
  F  F31  1  0.374565  0.190849  0.683990  1
  F  F32  1  0.521907  0.353122  0.270818  1
  F  F33  1  0.125435  0.690849  0.816010  1
  F  F34  1  0.167911  0.590357  0.194481  1
  F  F35  1  0.832089  0.409643  0.805519  1
  F  F36  1  0.456959  0.271130  0.502817  1
  F  F37  1  0.794784  0.596793  0.670271  1
  F  F38  1  0.613190  0.228372  0.047859  1
  F  F39  1  0.301882  0.495965  0.541056  1
  F  F40  1  0.543041  0.728870  0.497183  1
  F  F41  1  0.017211  0.040829  0.363273  1
  F  F42  1  0.478093  0.646878  0.729182  1
  F  F43  1  0.198118  0.995965  0.958944  1
  F  F44  1  0.982789  0.959171  0.636727  1
  F  F45  1  0.978093  0.853122  0.229182  1
  F  F46  1  0.255533  0.846312  0.371171  1
  F  F47  1  0.043041  0.771130  0.997183  1
  F  F48  1  0.053141  0.092102  0.169205  1
  F  F49  1  0.874565  0.309151  0.183990  1
  F  F50  1  0.294784  0.903207  0.170271  1
  F  F51  1  0.332089  0.090357  0.305519  1
  F  F52  1  0.755533  0.653688  0.871171  1
  F  F53  1  0.113190  0.271628  0.547859  1
  F  F54  1  0.446859  0.592102  0.330795  1
  F  F55  1  0.625435  0.809151  0.316010  1
  F  F56  1  0.715346  0.091241  0.219178  1
  F  F57  1  0.021907  0.146878  0.770818  1
  F  F58  1  0.553141  0.407898  0.669205  1
  F  F59  1  0.386810  0.771628  0.952141  1
  F  F60  1  0.205216  0.403207  0.329729  1
  F  F61  1  0.215346  0.408759  0.719178  1
  F  F62  1  0.956959  0.228870  0.002817  1
  F  F63  1  0.784654  0.591241  0.280822  1
