# generated using pymatgen
data_Mn5(NiBi2)2
_symmetry_space_group_name_H-M   'P 1'
_cell_length_a   8.50716881
_cell_length_b   8.50716935
_cell_length_c   8.50716929
_cell_angle_alpha   60.00000025
_cell_angle_beta   59.99999818
_cell_angle_gamma   59.99999875
_symmetry_Int_Tables_number   1
_chemical_formula_structural   Mn5(NiBi2)2
_chemical_formula_sum   'Mn10 Ni4 Bi8'
_cell_volume   435.35165218
_cell_formula_units_Z   2
loop_
 _symmetry_equiv_pos_site_id
 _symmetry_equiv_pos_as_xyz
  1  'x, y, z'
loop_
 _atom_site_type_symbol
 _atom_site_label
 _atom_site_symmetry_multiplicity
 _atom_site_fract_x
 _atom_site_fract_y
 _atom_site_fract_z
 _atom_site_occupancy
  Bi  Bi0  1  0.250000  0.250000  0.250000  1
  Bi  Bi1  1  0.750000  0.750000  0.750000  1
  Bi  Bi2  1  0.710730  0.289270  0.289270  1
  Bi  Bi3  1  0.289270  0.289270  0.710730  1
  Bi  Bi4  1  0.710730  0.710730  0.289270  1
  Bi  Bi5  1  0.289270  0.710730  0.710730  1
  Bi  Bi6  1  0.289270  0.710730  0.289270  1
  Bi  Bi7  1  0.710730  0.289270  0.710730  1
  Mn  Mn8  1  0.083375  0.083375  0.083375  1
  Mn  Mn9  1  0.083375  0.083375  0.749876  1
  Mn  Mn10  1  0.749876  0.083375  0.083375  1
  Mn  Mn11  1  0.083375  0.749876  0.083375  1
  Mn  Mn12  1  0.494437  0.005563  0.005563  1
  Mn  Mn13  1  0.005563  0.005563  0.494437  1
  Mn  Mn14  1  0.494437  0.494437  0.005563  1
  Mn  Mn15  1  0.005563  0.494437  0.494437  1
  Mn  Mn16  1  0.005563  0.494437  0.005563  1
  Mn  Mn17  1  0.494437  0.005563  0.494437  1
  Ni  Ni18  1  0.877668  0.877668  0.877668  1
  Ni  Ni19  1  0.877668  0.877668  0.366996  1
  Ni  Ni20  1  0.366996  0.877668  0.877668  1
  Ni  Ni21  1  0.877668  0.366996  0.877668  1
