# generated using pymatgen
data_Rb2Cr5F17
_symmetry_space_group_name_H-M   'P 1'
_cell_length_a   7.56645011
_cell_length_b   13.63594107
_cell_length_c   14.93540069
_cell_angle_alpha   90.00000000
_cell_angle_beta   90.00000000
_cell_angle_gamma   106.10777941
_symmetry_Int_Tables_number   1
_chemical_formula_structural   Rb2Cr5F17
_chemical_formula_sum   'Rb8 Cr20 F68'
_cell_volume   1480.47376077
_cell_formula_units_Z   4
loop_
 _symmetry_equiv_pos_site_id
 _symmetry_equiv_pos_as_xyz
  1  'x, y, z'
loop_
 _atom_site_type_symbol
 _atom_site_label
 _atom_site_symmetry_multiplicity
 _atom_site_fract_x
 _atom_site_fract_y
 _atom_site_fract_z
 _atom_site_occupancy
  Rb  Rb0  1  0.000000  0.000000  0.000000  1
  Rb  Rb1  1  0.249738  0.499475  0.032183  1
  Rb  Rb2  1  0.249738  0.499475  0.467817  1
  Rb  Rb3  1  0.750262  0.500525  0.532183  1
  Rb  Rb4  1  0.750262  0.500525  0.967817  1
  Rb  Rb5  1  0.252492  0.504983  0.750000  1
  Rb  Rb6  1  0.000000  0.000000  0.500000  1
  Rb  Rb7  1  0.747508  0.495017  0.250000  1
  Cr  Cr8  1  0.625006  0.755987  0.875804  1
  Cr  Cr9  1  0.374994  0.244013  0.375804  1
  Cr  Cr10  1  0.874737  0.247727  0.874670  1
  Cr  Cr11  1  0.372990  0.247727  0.625330  1
  Cr  Cr12  1  0.749356  0.001362  0.750000  1
  Cr  Cr13  1  0.874737  0.247727  0.625330  1
  Cr  Cr14  1  0.625006  0.755987  0.624196  1
  Cr  Cr15  1  0.125263  0.752273  0.374670  1
  Cr  Cr16  1  0.252006  0.001362  0.750000  1
  Cr  Cr17  1  0.130982  0.755987  0.624196  1
  Cr  Cr18  1  0.869018  0.244013  0.124196  1
  Cr  Cr19  1  0.627010  0.752273  0.374670  1
  Cr  Cr20  1  0.374994  0.244013  0.124196  1
  Cr  Cr21  1  0.372990  0.247727  0.874670  1
  Cr  Cr22  1  0.869018  0.244013  0.375804  1
  Cr  Cr23  1  0.747994  0.998638  0.250000  1
  Cr  Cr24  1  0.250644  0.998638  0.250000  1
  Cr  Cr25  1  0.130982  0.755987  0.875804  1
  Cr  Cr26  1  0.125263  0.752273  0.125330  1
  Cr  Cr27  1  0.627010  0.752273  0.125330  1
  F  F28  1  0.562265  0.716885  0.250000  1
  F  F29  1  0.438424  0.275199  0.250000  1
  F  F30  1  0.748851  0.902050  0.655453  1
  F  F31  1  0.897728  0.203796  0.500810  1
  F  F32  1  0.894965  0.380916  0.097471  1
  F  F33  1  0.981884  0.963769  0.250000  1
  F  F34  1  0.110645  0.221291  0.651499  1
  F  F35  1  0.481310  0.962619  0.750000  1
  F  F36  1  0.153199  0.902050  0.844547  1
  F  F37  1  0.561576  0.724801  0.750000  1
  F  F38  1  0.602265  0.614460  0.102527  1
  F  F39  1  0.251149  0.097950  0.155453  1
  F  F40  1  0.897728  0.203796  0.999190  1
  F  F41  1  0.102272  0.796204  0.000810  1
  F  F42  1  0.845381  0.283115  0.750000  1
  F  F43  1  0.137601  0.275201  0.358935  1
  F  F44  1  0.658155  0.899789  0.154572  1
  F  F45  1  0.602559  0.205119  0.392981  1
  F  F46  1  0.602265  0.614460  0.397473  1
  F  F47  1  0.102272  0.796204  0.499190  1
  F  F48  1  0.137601  0.275201  0.141065  1
  F  F49  1  0.153199  0.902050  0.655453  1
  F  F50  1  0.241634  0.899789  0.154572  1
  F  F51  1  0.306068  0.203796  0.500810  1
  F  F52  1  0.602559  0.205119  0.107019  1
  F  F53  1  0.241634  0.899789  0.345428  1
  F  F54  1  0.894965  0.380916  0.402529  1
  F  F55  1  0.846801  0.097950  0.344547  1
  F  F56  1  0.397735  0.385540  0.602527  1
  F  F57  1  0.748851  0.902050  0.844547  1
  F  F58  1  0.012195  0.614460  0.102527  1
  F  F59  1  0.306068  0.203796  0.999190  1
  F  F60  1  0.397441  0.794881  0.892981  1
  F  F61  1  0.105035  0.619084  0.597471  1
  F  F62  1  0.693932  0.796204  0.499190  1
  F  F63  1  0.154619  0.716885  0.250000  1
  F  F64  1  0.658155  0.899789  0.345428  1
  F  F65  1  0.397735  0.385540  0.897473  1
  F  F66  1  0.889355  0.778709  0.151499  1
  F  F67  1  0.889355  0.778709  0.348501  1
  F  F68  1  0.366591  0.733182  0.403987  1
  F  F69  1  0.437735  0.283115  0.750000  1
  F  F70  1  0.518690  0.037381  0.250000  1
  F  F71  1  0.987805  0.385540  0.897473  1
  F  F72  1  0.485951  0.380916  0.402529  1
  F  F73  1  0.862399  0.724799  0.641065  1
  F  F74  1  0.366591  0.733182  0.096013  1
  F  F75  1  0.018116  0.036231  0.750000  1
  F  F76  1  0.758366  0.100211  0.845428  1
  F  F77  1  0.514049  0.619084  0.902529  1
  F  F78  1  0.633409  0.266818  0.596013  1
  F  F79  1  0.341845  0.100211  0.845428  1
  F  F80  1  0.846801  0.097950  0.155453  1
  F  F81  1  0.341845  0.100211  0.654572  1
  F  F82  1  0.633409  0.266818  0.903987  1
  F  F83  1  0.514049  0.619084  0.597471  1
  F  F84  1  0.012195  0.614460  0.397473  1
  F  F85  1  0.758366  0.100211  0.654572  1
  F  F86  1  0.862399  0.724799  0.858935  1
  F  F87  1  0.836775  0.275199  0.250000  1
  F  F88  1  0.987805  0.385540  0.602527  1
  F  F89  1  0.485951  0.380916  0.097471  1
  F  F90  1  0.163225  0.724801  0.750000  1
  F  F91  1  0.110645  0.221291  0.848501  1
  F  F92  1  0.693932  0.796204  0.000810  1
  F  F93  1  0.105035  0.619084  0.902529  1
  F  F94  1  0.251149  0.097950  0.344547  1
  F  F95  1  0.397441  0.794881  0.607019  1
