# generated using pymatgen
data_KMgV3Cu4O13
_symmetry_space_group_name_H-M   'P 1'
_cell_length_a   6.08401019
_cell_length_b   8.37606701
_cell_length_c   10.97292191
_cell_angle_alpha   98.29212723
_cell_angle_beta   90.00000000
_cell_angle_gamma   90.00000000
_symmetry_Int_Tables_number   1
_chemical_formula_structural   KMgV3Cu4O13
_chemical_formula_sum   'K2 Mg2 V6 Cu8 O26'
_cell_volume   553.33505309
_cell_formula_units_Z   2
loop_
 _symmetry_equiv_pos_site_id
 _symmetry_equiv_pos_as_xyz
  1  'x, y, z'
loop_
 _atom_site_type_symbol
 _atom_site_label
 _atom_site_symmetry_multiplicity
 _atom_site_fract_x
 _atom_site_fract_y
 _atom_site_fract_z
 _atom_site_occupancy
  O  O0  1  0.250000  0.115409  0.425445  1
  O  O1  1  0.750000  0.884591  0.574555  1
  O  O2  1  0.250000  0.341160  0.621530  1
  O  O3  1  0.750000  0.658840  0.378470  1
  O  O4  1  0.250000  0.590616  0.476478  1
  O  O5  1  0.750000  0.409384  0.523522  1
  O  O6  1  0.750000  0.928570  0.831963  1
  O  O7  1  0.250000  0.071430  0.168038  1
  O  O8  1  0.483559  0.841516  0.278934  1
  O  O9  1  0.983559  0.158484  0.721066  1
  O  O10  1  0.516441  0.158484  0.721066  1
  O  O11  1  0.016442  0.841516  0.278934  1
  O  O12  1  0.750000  0.120372  0.366248  1
  O  O13  1  0.250000  0.879628  0.633752  1
  O  O14  1  0.750000  0.436372  0.842282  1
  O  O15  1  0.250000  0.563628  0.157718  1
  O  O16  1  0.480343  0.743307  0.971093  1
  O  O17  1  0.980343  0.256693  0.028907  1
  O  O18  1  0.250000  0.465627  0.890163  1
  O  O19  1  0.750000  0.534373  0.109837  1
  O  O20  1  0.996824  0.621413  0.701560  1
  O  O21  1  0.496824  0.378587  0.298440  1
  O  O22  1  0.003176  0.378587  0.298440  1
  O  O23  1  0.503176  0.621413  0.701560  1
  O  O24  1  0.019657  0.743307  0.971093  1
  O  O25  1  0.519657  0.256693  0.028907  1
  Mg  Mg26  1  0.250000  0.308184  0.144679  1
  Mg  Mg27  1  0.750000  0.691816  0.855321  1
  K  K28  1  0.750000  0.981542  0.099850  1
  K  K29  1  0.250000  0.018458  0.900150  1
  V  V30  1  0.750000  0.366565  0.003235  1
  V  V31  1  0.250000  0.676413  0.629792  1
  V  V32  1  0.250000  0.633435  0.996765  1
  V  V33  1  0.750000  0.031047  0.709357  1
  V  V34  1  0.750000  0.323587  0.370208  1
  V  V35  1  0.250000  0.968953  0.290643  1
  Cu  Cu36  1  0.501302  0.607435  0.268964  1
  Cu  Cu37  1  0.001302  0.392565  0.731036  1
  Cu  Cu38  1  0.250000  0.098509  0.604683  1
  Cu  Cu39  1  0.750000  0.901491  0.395317  1
  Cu  Cu40  1  0.498698  0.392565  0.731036  1
  Cu  Cu41  1  0.750000  0.644318  0.557219  1
  Cu  Cu42  1  0.250000  0.355682  0.442781  1
  Cu  Cu43  1  0.998698  0.607435  0.268964  1
