# generated using pymatgen
data_RbNaSi2O5
_symmetry_space_group_name_H-M   'P 1'
_cell_length_a   4.94364283
_cell_length_b   7.91030928
_cell_length_c   13.78370686
_cell_angle_alpha   90.00000000
_cell_angle_beta   90.00000000
_cell_angle_gamma   91.00043792
_symmetry_Int_Tables_number   1
_chemical_formula_structural   RbNaSi2O5
_chemical_formula_sum   'Rb4 Na4 Si8 O20'
_cell_volume   538.93994088
_cell_formula_units_Z   4
loop_
 _symmetry_equiv_pos_site_id
 _symmetry_equiv_pos_as_xyz
  1  'x, y, z'
loop_
 _atom_site_type_symbol
 _atom_site_label
 _atom_site_symmetry_multiplicity
 _atom_site_fract_x
 _atom_site_fract_y
 _atom_site_fract_z
 _atom_site_occupancy
  Rb  Rb0  1  0.720170  0.784375  0.802854  1
  Rb  Rb1  1  0.720170  0.284375  0.697146  1
  Rb  Rb2  1  0.279830  0.715625  0.302854  1
  Rb  Rb3  1  0.279830  0.215625  0.197146  1
  Na  Na4  1  0.770172  0.961338  0.092301  1
  Na  Na5  1  0.770172  0.461338  0.407699  1
  Na  Na6  1  0.229828  0.038662  0.907699  1
  Na  Na7  1  0.229828  0.538662  0.592301  1
  Si  Si8  1  0.702643  0.789728  0.545413  1
  Si  Si9  1  0.207542  0.979393  0.630571  1
  Si  Si10  1  0.792458  0.520607  0.130571  1
  Si  Si11  1  0.297357  0.710272  0.045413  1
  Si  Si12  1  0.792458  0.020607  0.369429  1
  Si  Si13  1  0.297357  0.210272  0.454587  1
  Si  Si14  1  0.702643  0.289728  0.954587  1
  Si  Si15  1  0.207542  0.479393  0.869429  1
  O  O16  1  0.382424  0.332914  0.927935  1
  O  O17  1  0.241714  0.904806  0.065348  1
  O  O18  1  0.382424  0.832914  0.572065  1
  O  O19  1  0.115019  0.574865  0.111310  1
  O  O20  1  0.758286  0.595194  0.565348  1
  O  O21  1  0.617576  0.667086  0.072065  1
  O  O22  1  0.254392  0.162738  0.571427  1
  O  O23  1  0.254392  0.662738  0.928573  1
  O  O24  1  0.271646  -0.000200  0.742436  1
  O  O25  1  0.884981  0.425135  0.888690  1
  O  O26  1  0.745608  0.337262  0.071427  1
  O  O27  1  0.617576  0.167086  0.427935  1
  O  O28  1  0.745608  0.837262  0.428573  1
  O  O29  1  0.884981  0.925135  0.611310  1
  O  O30  1  0.728354  1.000200  0.257564  1
  O  O31  1  0.241714  0.404806  0.434652  1
  O  O32  1  0.271646  0.499800  0.757564  1
  O  O33  1  0.758286  0.095194  0.934652  1
  O  O34  1  0.115019  0.074865  0.388690  1
  O  O35  1  0.728354  0.500200  0.242436  1
