# generated using pymatgen
data_KCN3O2
_symmetry_space_group_name_H-M   'P 1'
_cell_length_a   6.97126458
_cell_length_b   7.78881538
_cell_length_c   8.72187542
_cell_angle_alpha   90.00000000
_cell_angle_beta   109.00348087
_cell_angle_gamma   90.00000000
_symmetry_Int_Tables_number   1
_chemical_formula_structural   KCN3O2
_chemical_formula_sum   'K4 C4 N12 O8'
_cell_volume   447.76880526
_cell_formula_units_Z   4
loop_
 _symmetry_equiv_pos_site_id
 _symmetry_equiv_pos_as_xyz
  1  'x, y, z'
loop_
 _atom_site_type_symbol
 _atom_site_label
 _atom_site_symmetry_multiplicity
 _atom_site_fract_x
 _atom_site_fract_y
 _atom_site_fract_z
 _atom_site_occupancy
  K  K0  1  0.852458  0.904712  0.650649  1
  K  K1  1  0.852458  0.595288  0.150649  1
  K  K2  1  0.147542  0.095288  0.349351  1
  K  K3  1  0.147542  0.404712  0.849351  1
  C  C4  1  0.430243  0.432874  0.291828  1
  C  C5  1  0.569757  0.932874  0.208172  1
  C  C6  1  0.430243  0.067126  0.791828  1
  C  C7  1  0.569757  0.567126  0.708172  1
  N  N8  1  0.746205  0.948266  0.271798  1
  N  N9  1  0.700550  0.298532  0.456690  1
  N  N10  1  0.700550  0.201468  0.956690  1
  N  N11  1  0.253795  0.051734  0.728202  1
  N  N12  1  0.746205  0.551734  0.771798  1
  N  N13  1  0.629866  0.069985  0.852660  1
  N  N14  1  0.370134  0.930015  0.147340  1
  N  N15  1  0.253795  0.448266  0.228202  1
  N  N16  1  0.299450  0.701468  0.543310  1
  N  N17  1  0.629866  0.430015  0.352660  1
  N  N18  1  0.299450  0.798532  0.043310  1
  N  N19  1  0.370134  0.569985  0.647340  1
  O  O20  1  0.581354  0.303276  0.993231  1
  O  O21  1  0.581354  0.196724  0.493231  1
  O  O22  1  0.418646  0.696724  0.006769  1
  O  O23  1  0.110085  0.717403  0.485300  1
  O  O24  1  0.110085  0.782597  0.985300  1
  O  O25  1  0.418646  0.803276  0.506769  1
  O  O26  1  0.889915  0.217403  0.014700  1
  O  O27  1  0.889915  0.282597  0.514700  1
