# generated using pymatgen
data_UTl2(TeO4)2
_symmetry_space_group_name_H-M   'P 1'
_cell_length_a   5.53682167
_cell_length_b   8.50609036
_cell_length_c   21.42325671
_cell_angle_alpha   90.00000000
_cell_angle_beta   91.87895152
_cell_angle_gamma   90.00000000
_symmetry_Int_Tables_number   1
_chemical_formula_structural   UTl2(TeO4)2
_chemical_formula_sum   'U4 Tl8 Te8 O32'
_cell_volume   1008.42231838
_cell_formula_units_Z   4
loop_
 _symmetry_equiv_pos_site_id
 _symmetry_equiv_pos_as_xyz
  1  'x, y, z'
loop_
 _atom_site_type_symbol
 _atom_site_label
 _atom_site_symmetry_multiplicity
 _atom_site_fract_x
 _atom_site_fract_y
 _atom_site_fract_z
 _atom_site_occupancy
  U  U0  1  0.739444  0.174763  0.142555  1
  U  U1  1  0.260556  0.825237  0.857445  1
  U  U2  1  0.239444  0.325237  0.642555  1
  U  U3  1  0.760556  0.674763  0.357445  1
  Tl  Tl4  1  0.743058  0.113489  0.950337  1
  Tl  Tl5  1  0.769458  0.165159  0.352752  1
  Tl  Tl6  1  0.730542  0.665159  0.147248  1
  Tl  Tl7  1  0.756942  0.613490  0.549663  1
  Tl  Tl8  1  0.243058  0.386510  0.450337  1
  Tl  Tl9  1  0.230542  0.834841  0.647248  1
  Tl  Tl10  1  0.269458  0.334841  0.852752  1
  Tl  Tl11  1  0.256942  0.886510  0.049663  1
  Te  Te12  1  0.757670  0.077271  0.769557  1
  Te  Te13  1  0.727748  0.082959  0.552656  1
  Te  Te14  1  0.242330  0.922729  0.230443  1
  Te  Te15  1  0.227748  0.417041  0.052656  1
  Te  Te16  1  0.257670  0.422729  0.269557  1
  Te  Te17  1  0.272252  0.917041  0.447344  1
  Te  Te18  1  0.742330  0.577271  0.730443  1
  Te  Te19  1  0.772252  0.582959  0.947344  1
  O  O20  1  0.854699  0.036186  0.082313  1
  O  O21  1  0.970051  0.904464  0.789192  1
  O  O22  1  0.029949  0.095536  0.210808  1
  O  O23  1  0.994201  0.488304  0.321270  1
  O  O24  1  0.415148  0.841422  0.521963  1
  O  O25  1  0.513323  0.868642  0.388744  1
  O  O26  1  0.529949  0.404464  0.710808  1
  O  O27  1  0.376923  0.680627  0.799790  1
  O  O28  1  0.005799  0.511696  0.678730  1
  O  O29  1  0.123077  0.180627  0.700210  1
  O  O30  1  0.948964  0.253565  0.570323  1
  O  O31  1  0.354699  0.463814  0.582313  1
  O  O32  1  0.623077  0.319373  0.200210  1
  O  O33  1  0.861919  0.230314  0.826960  1
  O  O34  1  0.584852  0.158578  0.478037  1
  O  O35  1  0.551036  0.753565  0.929677  1
  O  O36  1  0.915148  0.658578  0.021963  1
  O  O37  1  0.645301  0.536186  0.417687  1
  O  O38  1  0.470051  0.595536  0.289192  1
  O  O39  1  0.486677  0.131358  0.611256  1
  O  O40  1  0.051036  0.746435  0.429677  1
  O  O41  1  0.505799  0.988304  0.178730  1
  O  O42  1  0.876923  0.819373  0.299790  1
  O  O43  1  0.084852  0.341422  0.978037  1
  O  O44  1  0.361919  0.269686  0.326960  1
  O  O45  1  0.494201  0.011696  0.821270  1
  O  O46  1  0.638081  0.730314  0.673040  1
  O  O47  1  0.986677  0.368642  0.111256  1
  O  O48  1  0.448964  0.246435  0.070323  1
  O  O49  1  0.138081  0.769686  0.173040  1
  O  O50  1  0.145301  0.963814  0.917687  1
  O  O51  1  0.013323  0.631358  0.888744  1
