# generated using pymatgen
data_Bi14Rh3
_symmetry_space_group_name_H-M   'P 1'
_cell_length_a   6.93186812
_cell_length_b   9.52465508
_cell_length_c   16.43771249
_cell_angle_alpha   85.60644177
_cell_angle_beta   77.83590636
_cell_angle_gamma   68.71268365
_symmetry_Int_Tables_number   1
_chemical_formula_structural   Bi14Rh3
_chemical_formula_sum   'Bi28 Rh6'
_cell_volume   988.52704568
_cell_formula_units_Z   2
loop_
 _symmetry_equiv_pos_site_id
 _symmetry_equiv_pos_as_xyz
  1  'x, y, z'
loop_
 _atom_site_type_symbol
 _atom_site_label
 _atom_site_symmetry_multiplicity
 _atom_site_fract_x
 _atom_site_fract_y
 _atom_site_fract_z
 _atom_site_occupancy
  Bi  Bi0  1  0.542793  0.629254  0.645062  1
  Bi  Bi1  1  0.452457  0.811068  0.466512  1
  Bi  Bi2  1  0.402337  0.196349  0.749985  1
  Bi  Bi3  1  0.682888  0.129563  0.144825  1
  Bi  Bi4  1  0.804561  0.014564  0.356107  1
  Bi  Bi5  1  0.324435  0.514566  0.855898  1
  Bi  Bi6  1  0.827710  0.629513  0.855110  1
  Bi  Bi7  1  0.080770  0.688963  0.466551  1
  Bi  Bi8  1  0.230263  0.688998  0.033425  1
  Bi  Bi9  1  0.675565  0.485434  0.144102  1
  Bi  Bi10  1  0.195439  0.985436  0.643893  1
  Bi  Bi11  1  0.263685  0.189003  0.966600  1
  Bi  Bi12  1  0.457207  0.370746  0.354938  1
  Bi  Bi13  1  0.736315  0.810997  0.033400  1
  Bi  Bi14  1  0.547543  0.188932  0.533488  1
  Bi  Bi15  1  0.819654  0.985327  0.855913  1
  Bi  Bi16  1  0.152391  0.696285  0.250037  1
  Bi  Bi17  1  0.317112  0.870437  0.855175  1
  Bi  Bi18  1  0.160776  0.514641  0.643877  1
  Bi  Bi19  1  0.172290  0.370487  0.144890  1
  Bi  Bi20  1  0.847609  0.303715  0.749963  1
  Bi  Bi21  1  0.187638  0.129274  0.355000  1
  Bi  Bi22  1  0.597663  0.803651  0.250015  1
  Bi  Bi23  1  0.180346  0.014673  0.144087  1
  Bi  Bi24  1  0.839224  0.485359  0.356123  1
  Bi  Bi25  1  0.769737  0.311002  0.966575  1
  Bi  Bi26  1  0.812362  0.870726  0.645000  1
  Bi  Bi27  1  0.919230  0.311037  0.533449  1
  Rh  Rh28  1  0.000000  0.500000  0.000000  1
  Rh  Rh29  1  0.874852  0.250017  0.250144  1
  Rh  Rh30  1  0.000000  0.000000  0.500000  1
  Rh  Rh31  1  0.000000  0.000000  0.000000  1
  Rh  Rh32  1  0.500000  0.500000  0.500000  1
  Rh  Rh33  1  0.125148  0.749983  0.749856  1
