# generated using pymatgen
data_Na2Si4NiO10
_symmetry_space_group_name_H-M   'P 1'
_cell_length_a   7.01700016
_cell_length_b   7.72261975
_cell_length_c   9.85296665
_cell_angle_alpha   101.71290040
_cell_angle_beta   103.01302793
_cell_angle_gamma   115.02621694
_symmetry_Int_Tables_number   1
_chemical_formula_structural   Na2Si4NiO10
_chemical_formula_sum   'Na4 Si8 Ni2 O20'
_cell_volume   443.65997167
_cell_formula_units_Z   2
loop_
 _symmetry_equiv_pos_site_id
 _symmetry_equiv_pos_as_xyz
  1  'x, y, z'
loop_
 _atom_site_type_symbol
 _atom_site_label
 _atom_site_symmetry_multiplicity
 _atom_site_fract_x
 _atom_site_fract_y
 _atom_site_fract_z
 _atom_site_occupancy
  Ni  Ni0  1  0.250410  0.300803  0.425100  1
  Ni  Ni1  1  0.749590  0.699197  0.574900  1
  Na  Na2  1  0.341643  0.243497  0.023793  1
  Na  Na3  1  0.658357  0.756503  0.976207  1
  Na  Na4  1  0.739573  0.277718  0.419622  1
  Na  Na5  1  0.260427  0.722282  0.580378  1
  Si  Si6  1  0.762643  0.061710  0.806102  1
  Si  Si7  1  0.237357  0.938290  0.193898  1
  Si  Si8  1  0.921803  0.292297  0.144566  1
  Si  Si9  1  0.078197  0.707703  0.855434  1
  Si  Si10  1  0.596429  0.353200  0.737771  1
  Si  Si11  1  0.403571  0.646800  0.262229  1
  Si  Si12  1  0.185703  0.380095  0.749507  1
  Si  Si13  1  0.814297  0.619905  0.250493  1
  O  O14  1  0.801708  0.103527  0.985200  1
  O  O15  1  0.198292  0.896473  0.014800  1
  O  O16  1  0.584528  0.134464  0.734366  1
  O  O17  1  0.415472  0.865536  0.265634  1
  O  O18  1  0.340503  0.177023  0.269246  1
  O  O19  1  0.659497  0.822977  0.730754  1
  O  O20  1  0.953485  0.217363  0.282520  1
  O  O21  1  0.046515  0.782637  0.717480  1
  O  O22  1  0.549663  0.374993  0.576284  1
  O  O23  1  0.450337  0.625007  0.423716  1
  O  O24  1  0.117760  0.359351  0.579111  1
  O  O25  1  0.882240  0.640649  0.420889  1
  O  O26  1  0.755362  0.394994  0.142026  1
  O  O27  1  0.244638  0.605006  0.857974  1
  O  O28  1  0.419046  0.371723  0.818140  1
  O  O29  1  0.580954  0.628277  0.181860  1
  O  O30  1  0.160271  0.462744  0.140180  1
  O  O31  1  0.839729  0.537256  0.859820  1
  O  O32  1  0.006248  0.203957  0.794996  1
  O  O33  1  0.993752  0.796043  0.205004  1
