# generated using pymatgen
data_NaFe(SiO3)2
_symmetry_space_group_name_H-M   'P 1'
_cell_length_a   5.30423684
_cell_length_b   6.49759332
_cell_length_c   6.49759332
_cell_angle_alpha   84.21434145
_cell_angle_beta   76.92890747
_cell_angle_gamma   76.92890743
_symmetry_Int_Tables_number   1
_chemical_formula_structural   NaFe(SiO3)2
_chemical_formula_sum   'Na2 Fe2 Si4 O12'
_cell_volume   212.19283286
_cell_formula_units_Z   2
loop_
 _symmetry_equiv_pos_site_id
 _symmetry_equiv_pos_as_xyz
  1  'x, y, z'
loop_
 _atom_site_type_symbol
 _atom_site_label
 _atom_site_symmetry_multiplicity
 _atom_site_fract_x
 _atom_site_fract_y
 _atom_site_fract_z
 _atom_site_occupancy
  O  O0  1  0.499069  0.340273  0.363596  1
  O  O1  1  0.000931  0.636405  0.659727  1
  O  O2  1  0.500931  0.659727  0.636405  1
  O  O3  1  0.999069  0.363596  0.340273  1
  O  O4  1  0.193468  0.099944  0.621803  1
  O  O5  1  0.306532  0.378197  0.900056  1
  O  O6  1  0.806532  0.900056  0.378197  1
  O  O7  1  0.693468  0.621803  0.099944  1
  O  O8  1  0.867738  0.192427  0.029368  1
  O  O9  1  0.632262  0.970632  0.807573  1
  O  O10  1  0.132262  0.807573  0.970632  1
  O  O11  1  0.367738  0.029368  0.192427  1
  Na  Na12  1  0.750000  0.300319  0.699681  1
  Na  Na13  1  0.250000  0.699681  0.300319  1
  Si  Si14  1  0.227375  0.615951  0.801868  1
  Si  Si15  1  0.772625  0.384049  0.198132  1
  Si  Si16  1  0.272625  0.198132  0.384049  1
  Si  Si17  1  0.727375  0.801868  0.615951  1
  Fe  Fe18  1  0.750000  0.908688  0.091312  1
  Fe  Fe19  1  0.250000  0.091312  0.908688  1
