# generated using pymatgen
data_Dy(PPt4)2
_symmetry_space_group_name_H-M   'P 1'
_cell_length_a   4.05994590
_cell_length_b   6.34117275
_cell_length_c   7.74755036
_cell_angle_alpha   83.16177659
_cell_angle_beta   74.80185569
_cell_angle_gamma   71.30654504
_symmetry_Int_Tables_number   1
_chemical_formula_structural   Dy(PPt4)2
_chemical_formula_sum   'Dy1 P2 Pt8'
_cell_volume   182.19507134
_cell_formula_units_Z   1
loop_
 _symmetry_equiv_pos_site_id
 _symmetry_equiv_pos_as_xyz
  1  'x, y, z'
loop_
 _atom_site_type_symbol
 _atom_site_label
 _atom_site_symmetry_multiplicity
 _atom_site_fract_x
 _atom_site_fract_y
 _atom_site_fract_z
 _atom_site_occupancy
  Dy  Dy0  1  0.500000  0.500000  0.500000  1
  P  P1  1  0.058499  0.173831  0.709440  1
  P  P2  1  0.941501  0.826169  0.290560  1
  Pt  Pt3  1  0.223591  0.139033  0.413707  1
  Pt  Pt4  1  0.823262  0.509846  0.844133  1
  Pt  Pt5  1  0.176738  0.490154  0.155867  1
  Pt  Pt6  1  0.166085  0.819437  0.847901  1
  Pt  Pt7  1  0.475079  0.181175  0.868903  1
  Pt  Pt8  1  0.524921  0.818825  0.131097  1
  Pt  Pt9  1  0.776409  0.860967  0.586293  1
  Pt  Pt10  1  0.833915  0.180563  0.152099  1
