# generated using pymatgen
data_Sr2GeO4
_symmetry_space_group_name_H-M   'P 1'
_cell_length_a   5.91828062
_cell_length_b   7.29468940
_cell_length_c   10.05339300
_cell_angle_alpha   90.00000000
_cell_angle_beta   94.49213554
_cell_angle_gamma   90.00000000
_symmetry_Int_Tables_number   1
_chemical_formula_structural   Sr2GeO4
_chemical_formula_sum   'Sr8 Ge4 O16'
_cell_volume   432.69198799
_cell_formula_units_Z   4
loop_
 _symmetry_equiv_pos_site_id
 _symmetry_equiv_pos_as_xyz
  1  'x, y, z'
loop_
 _atom_site_type_symbol
 _atom_site_label
 _atom_site_symmetry_multiplicity
 _atom_site_fract_x
 _atom_site_fract_y
 _atom_site_fract_z
 _atom_site_occupancy
  Sr  Sr0  1  0.270716  0.345252  0.569016  1
  Sr  Sr1  1  0.229284  0.845252  0.930984  1
  Sr  Sr2  1  0.729284  0.654748  0.430984  1
  Sr  Sr3  1  0.770716  0.154748  0.069016  1
  Sr  Sr4  1  0.279349  0.994891  0.299660  1
  Sr  Sr5  1  0.220651  0.494891  0.200340  1
  Sr  Sr6  1  0.720651  0.005109  0.700340  1
  Sr  Sr7  1  0.779349  0.505109  0.799660  1
  Ge  Ge8  1  0.235277  0.783869  0.584016  1
  Ge  Ge9  1  0.264723  0.283869  0.915984  1
  Ge  Ge10  1  0.764723  0.216131  0.415984  1
  Ge  Ge11  1  0.735277  0.716131  0.084016  1
  O  O12  1  0.282595  0.017808  0.556991  1
  O  O13  1  0.217405  0.517808  0.943009  1
  O  O14  1  0.717405  0.982192  0.443009  1
  O  O15  1  0.782595  0.482192  0.056991  1
  O  O16  1  0.158903  0.665964  0.429513  1
  O  O17  1  0.341097  0.165964  0.070487  1
  O  O18  1  0.841097  0.334036  0.570487  1
  O  O19  1  0.658903  0.834036  0.929513  1
  O  O20  1  0.496509  0.674106  0.639947  1
  O  O21  1  0.003491  0.174106  0.860053  1
  O  O22  1  0.503491  0.325894  0.360053  1
  O  O23  1  0.996509  0.825894  0.139947  1
  O  O24  1  0.021465  0.752100  0.696814  1
  O  O25  1  0.478535  0.252100  0.803186  1
  O  O26  1  0.978535  0.247900  0.303186  1
  O  O27  1  0.521465  0.747900  0.196814  1
