# generated using pymatgen
data_Li5V5Cl16
_symmetry_space_group_name_H-M   'P 1'
_cell_length_a   7.36286150
_cell_length_b   14.72276582
_cell_length_c   14.72276618
_cell_angle_alpha   59.93639135
_cell_angle_beta   59.99335554
_cell_angle_gamma   59.99335181
_symmetry_Int_Tables_number   1
_chemical_formula_structural   Li5V5Cl16
_chemical_formula_sum   'Li10 V10 Cl32'
_cell_volume   1127.86637331
_cell_formula_units_Z   2
loop_
 _symmetry_equiv_pos_site_id
 _symmetry_equiv_pos_as_xyz
  1  'x, y, z'
loop_
 _atom_site_type_symbol
 _atom_site_label
 _atom_site_symmetry_multiplicity
 _atom_site_fract_x
 _atom_site_fract_y
 _atom_site_fract_z
 _atom_site_occupancy
  Cl  Cl0  1  0.400580  0.188354  0.188354  1
  Cl  Cl1  1  0.399345  0.188735  0.423248  1
  Cl  Cl2  1  0.399345  0.423248  0.188735  1
  Cl  Cl3  1  0.847338  0.192413  0.192413  1
  Cl  Cl4  1  0.401319  0.432691  0.432691  1
  Cl  Cl5  1  0.402716  0.686210  0.185927  1
  Cl  Cl6  1  0.402716  0.185927  0.686210  1
  Cl  Cl7  1  0.856417  0.434066  0.202496  1
  Cl  Cl8  1  0.856417  0.202496  0.434066  1
  Cl  Cl9  1  0.393341  0.183645  0.924102  1
  Cl  Cl10  1  0.391164  0.683645  0.424102  1
  Cl  Cl11  1  0.393341  0.924102  0.183645  1
  Cl  Cl12  1  0.391164  0.424102  0.683645  1
  Cl  Cl13  1  0.853009  0.186210  0.685927  1
  Cl  Cl14  1  0.853009  0.685927  0.186210  1
  Cl  Cl15  1  0.855119  0.435423  0.435423  1
  Cl  Cl16  1  0.397134  0.437279  0.938026  1
  Cl  Cl17  1  0.397134  0.938026  0.437279  1
  Cl  Cl18  1  0.383011  0.692413  0.692413  1
  Cl  Cl19  1  0.857536  0.438170  0.702804  1
  Cl  Cl20  1  0.860517  0.938170  0.202804  1
  Cl  Cl21  1  0.860517  0.202804  0.938170  1
  Cl  Cl22  1  0.857536  0.702804  0.438170  1
  Cl  Cl23  1  0.376690  0.688735  0.923248  1
  Cl  Cl24  1  0.376690  0.923248  0.688735  1
  Cl  Cl25  1  0.846005  0.688354  0.688354  1
  Cl  Cl26  1  0.852257  0.438026  0.937279  1
  Cl  Cl27  1  0.852257  0.937279  0.438026  1
  Cl  Cl28  1  0.403190  0.935423  0.935423  1
  Cl  Cl29  1  0.870459  0.934066  0.702496  1
  Cl  Cl30  1  0.870459  0.702496  0.934066  1
  Cl  Cl31  1  0.867919  0.932691  0.932691  1
  Li  Li32  1  0.992226  0.008398  0.008398  1
  Li  Li33  1  0.142938  0.309835  0.309835  1
  Li  Li34  1  0.144844  0.309405  0.809472  1
  Li  Li35  1  0.144844  0.809472  0.309405  1
  Li  Li36  1  0.995627  0.502186  0.002186  1
  Li  Li37  1  0.617402  0.309472  0.809405  1
  Li  Li38  1  0.617402  0.809405  0.309472  1
  Li  Li39  1  0.974182  0.508398  0.508398  1
  Li  Li40  1  0.617722  0.809835  0.809835  1
  Li  Li41  1  0.995627  0.002186  0.502186  1
  V  V42  1  0.622420  0.064713  0.311546  1
  V  V43  1  0.622420  0.311546  0.064713  1
  V  V44  1  0.621373  0.311557  0.311557  1
  V  V45  1  0.619815  0.068433  0.810864  1
  V  V46  1  0.621590  0.310864  0.568433  1
  V  V47  1  0.621590  0.568433  0.310864  1
  V  V48  1  0.619815  0.810864  0.068433  1
  V  V49  1  0.132397  0.811557  0.811557  1
  V  V50  1  0.625061  0.811546  0.564713  1
  V  V51  1  0.625061  0.564713  0.811546  1
