# generated using pymatgen
data_SiO2
_symmetry_space_group_name_H-M   'P 1'
_cell_length_a   5.18401312
_cell_length_b   11.32424582
_cell_length_c   11.32424635
_cell_angle_alpha   102.74904922
_cell_angle_beta   90.00000000
_cell_angle_gamma   90.00000000
_symmetry_Int_Tables_number   1
_chemical_formula_structural   SiO2
_chemical_formula_sum   'Si12 O24'
_cell_volume   648.40057028
_cell_formula_units_Z   12
loop_
 _symmetry_equiv_pos_site_id
 _symmetry_equiv_pos_as_xyz
  1  'x, y, z'
loop_
 _atom_site_type_symbol
 _atom_site_label
 _atom_site_symmetry_multiplicity
 _atom_site_fract_x
 _atom_site_fract_y
 _atom_site_fract_z
 _atom_site_occupancy
  Si  Si0  1  0.215140  0.994807  0.416849  1
  Si  Si1  1  0.171958  0.725344  0.274656  1
  Si  Si2  1  0.715140  0.005193  0.583151  1
  Si  Si3  1  0.721021  0.343279  0.246593  1
  Si  Si4  1  0.721021  0.753407  0.656721  1
  Si  Si5  1  0.221021  0.656721  0.753407  1
  Si  Si6  1  0.671958  0.274656  0.725344  1
  Si  Si7  1  0.672039  0.621243  0.378757  1
  Si  Si8  1  0.221021  0.246593  0.343279  1
  Si  Si9  1  0.215140  0.583151  0.005193  1
  Si  Si10  1  0.172039  0.378757  0.621243  1
  Si  Si11  1  0.715140  0.416849  0.994807  1
  O  O12  1  0.707156  0.129073  0.687025  1
  O  O13  1  0.994901  0.482293  0.008309  1
  O  O14  1  0.707156  0.312975  0.870927  1
  O  O15  1  0.207533  0.524264  0.661540  1
  O  O16  1  0.383972  0.311054  0.688946  1
  O  O17  1  0.707533  0.475736  0.338460  1
  O  O18  1  0.168762  0.647061  0.892232  1
  O  O19  1  0.668762  0.352939  0.107768  1
  O  O20  1  0.707533  0.661540  0.524264  1
  O  O21  1  0.383448  0.657334  0.342666  1
  O  O22  1  0.494901  0.517707  0.991691  1
  O  O23  1  0.883448  0.342666  0.657334  1
  O  O24  1  0.004779  0.284983  0.254946  1
  O  O25  1  0.207533  0.338460  0.475736  1
  O  O26  1  0.883972  0.688946  0.311054  1
  O  O27  1  0.668762  0.892232  0.647061  1
  O  O28  1  0.494901  0.008309  0.482293  1
  O  O29  1  0.504779  0.715017  0.745054  1
  O  O30  1  0.168762  0.107768  0.352939  1
  O  O31  1  0.207156  0.870927  0.312975  1
  O  O32  1  0.004779  0.745054  0.715017  1
  O  O33  1  0.994901  0.991691  0.517707  1
  O  O34  1  0.504779  0.254946  0.284983  1
  O  O35  1  0.207156  0.687025  0.129073  1
