# generated using pymatgen
data_SiP2O7
_symmetry_space_group_name_H-M   'P 1'
_cell_length_a   4.80639601
_cell_length_b   4.80639638
_cell_length_c   12.10629701
_cell_angle_alpha   90.00000000
_cell_angle_beta   90.00000000
_cell_angle_gamma   119.99999751
_symmetry_Int_Tables_number   1
_chemical_formula_structural   SiP2O7
_chemical_formula_sum   'Si2 P4 O14'
_cell_volume   242.20388298
_cell_formula_units_Z   2
loop_
 _symmetry_equiv_pos_site_id
 _symmetry_equiv_pos_as_xyz
  1  'x, y, z'
loop_
 _atom_site_type_symbol
 _atom_site_label
 _atom_site_symmetry_multiplicity
 _atom_site_fract_x
 _atom_site_fract_y
 _atom_site_fract_z
 _atom_site_occupancy
  Si  Si0  1  0.000000  0.000000  0.010410  1
  Si  Si1  1  0.000000  0.000000  0.510410  1
  P  P2  1  0.333333  0.666667  0.890462  1
  P  P3  1  0.666667  0.333333  0.130302  1
  P  P4  1  0.666667  0.333333  0.390462  1
  P  P5  1  0.333333  0.666667  0.630302  1
  O  O6  1  0.925754  0.255572  0.096763  1
  O  O7  1  0.744428  0.670182  0.096763  1
  O  O8  1  0.074246  0.744428  0.596763  1
  O  O9  1  0.255604  0.329847  0.924041  1
  O  O10  1  0.333333  0.666667  0.760414  1
  O  O11  1  0.670182  0.925754  0.596763  1
  O  O12  1  0.744396  0.670153  0.424041  1
  O  O13  1  0.670153  0.925758  0.924041  1
  O  O14  1  0.329818  0.074246  0.096763  1
  O  O15  1  0.255572  0.329818  0.596763  1
  O  O16  1  0.925758  0.255604  0.424041  1
  O  O17  1  0.329847  0.074242  0.424041  1
  O  O18  1  0.074242  0.744396  0.924041  1
  O  O19  1  0.666667  0.333333  0.260414  1
