# generated using pymatgen
data_Li3V(PO4)2
_symmetry_space_group_name_H-M   'P 1'
_cell_length_a   4.93236167
_cell_length_b   8.86573069
_cell_length_c   6.50284392
_cell_angle_alpha   90.00000000
_cell_angle_beta   94.29181761
_cell_angle_gamma   90.00000000
_symmetry_Int_Tables_number   1
_chemical_formula_structural   Li3V(PO4)2
_chemical_formula_sum   'Li6 V2 P4 O16'
_cell_volume   283.56539718
_cell_formula_units_Z   2
loop_
 _symmetry_equiv_pos_site_id
 _symmetry_equiv_pos_as_xyz
  1  'x, y, z'
loop_
 _atom_site_type_symbol
 _atom_site_label
 _atom_site_symmetry_multiplicity
 _atom_site_fract_x
 _atom_site_fract_y
 _atom_site_fract_z
 _atom_site_occupancy
  Li  Li0  1  0.013888  0.138771  0.690133  1
  Li  Li1  1  0.000000  0.500000  0.000000  1
  Li  Li2  1  0.486111  0.638771  0.809867  1
  Li  Li3  1  0.500001  0.000000  0.500000  1
  Li  Li4  1  0.513889  0.361229  0.190134  1
  Li  Li5  1  0.986112  0.861229  0.309866  1
  O  O6  1  0.282782  0.856419  0.808332  1
  O  O7  1  0.153280  0.097972  0.408370  1
  O  O8  1  0.217219  0.356419  0.691668  1
  O  O9  1  0.168593  0.133575  0.021966  1
  O  O10  1  0.071384  0.355838  0.245299  1
  O  O11  1  0.331408  0.633576  0.478034  1
  O  O12  1  0.346719  0.597972  0.091630  1
  O  O13  1  0.428617  0.855838  0.254701  1
  O  O14  1  0.928616  0.644163  0.754701  1
  O  O15  1  0.653281  0.402029  0.908371  1
  O  O16  1  0.668592  0.366425  0.521966  1
  O  O17  1  0.717217  0.143581  0.191669  1
  O  O18  1  0.831407  0.866425  0.978033  1
  O  O19  1  0.782781  0.643581  0.308331  1
  O  O20  1  0.846720  0.902029  0.591630  1
  O  O21  1  0.571383  0.144162  0.745298  1
  P  P22  1  0.028490  0.181463  0.220279  1
  P  P23  1  0.471509  0.681463  0.279719  1
  P  P24  1  0.528491  0.318537  0.720280  1
  P  P25  1  0.971510  0.818536  0.779720  1
  V  V26  1  0.000000  0.500000  0.500000  1
  V  V27  1  0.500001  0.000000  0.000001  1
