# generated using pymatgen
data_HgC2(SeN)2
_symmetry_space_group_name_H-M   'P 1'
_cell_length_a   4.52351833
_cell_length_b   6.16058261
_cell_length_c   12.47138099
_cell_angle_alpha   92.59810712
_cell_angle_beta   90.00020225
_cell_angle_gamma   90.00425718
_symmetry_Int_Tables_number   1
_chemical_formula_structural   HgC2(SeN)2
_chemical_formula_sum   'Hg2 C4 Se4 N4'
_cell_volume   347.18905897
_cell_formula_units_Z   2
loop_
 _symmetry_equiv_pos_site_id
 _symmetry_equiv_pos_as_xyz
  1  'x, y, z'
loop_
 _atom_site_type_symbol
 _atom_site_label
 _atom_site_symmetry_multiplicity
 _atom_site_fract_x
 _atom_site_fract_y
 _atom_site_fract_z
 _atom_site_occupancy
  Hg  Hg0  1  0.500000  0.000000  0.500000  1
  Hg  Hg1  1  0.000000  0.000000  0.000000  1
  C  C2  1  0.231404  0.445951  0.624119  1
  C  C3  1  0.768596  0.554049  0.375881  1
  Se  Se4  1  0.666489  0.842779  0.852897  1
  Se  Se5  1  0.833500  0.842808  0.352898  1
  Se  Se6  1  0.333511  0.157221  0.147103  1
  Se  Se7  1  0.166500  0.157192  0.647102  1
  C  C8  1  0.268615  0.445942  0.124113  1
  C  C9  1  0.731385  0.554058  0.875887  1
  N  N10  1  0.766734  0.367127  0.885624  1
  N  N11  1  0.233266  0.632873  0.114376  1
  N  N12  1  0.733240  0.367173  0.385614  1
  N  N13  1  0.266760  0.632827  0.614386  1
