# generated using pymatgen
data_Hf(SeCl6)2
_symmetry_space_group_name_H-M   'P 1'
_cell_length_a   9.00547740
_cell_length_b   9.00547775
_cell_length_c   12.86770191
_cell_angle_alpha   109.12612237
_cell_angle_beta   109.12612306
_cell_angle_gamma   93.65003604
_symmetry_Int_Tables_number   1
_chemical_formula_structural   Hf(SeCl6)2
_chemical_formula_sum   'Hf2 Se4 Cl24'
_cell_volume   914.26858323
_cell_formula_units_Z   2
loop_
 _symmetry_equiv_pos_site_id
 _symmetry_equiv_pos_as_xyz
  1  'x, y, z'
loop_
 _atom_site_type_symbol
 _atom_site_label
 _atom_site_symmetry_multiplicity
 _atom_site_fract_x
 _atom_site_fract_y
 _atom_site_fract_z
 _atom_site_occupancy
  Hf  Hf0  1  0.626280  0.126280  0.252560  1
  Hf  Hf1  1  0.376280  0.376280  0.752560  1
  Se  Se2  1  0.562613  0.013753  0.588913  1
  Se  Se3  1  0.263753  0.312613  0.088913  1
  Se  Se4  1  0.026300  0.575160  0.588913  1
  Se  Se5  1  0.825160  0.776300  0.088913  1
  Cl  Cl6  1  0.830160  0.535613  0.096032  1
  Cl  Cl7  1  0.104764  0.415812  0.746494  1
  Cl  Cl8  1  0.996848  0.670593  0.446810  1
  Cl  Cl9  1  0.502192  0.644159  0.901554  1
  Cl  Cl10  1  0.269774  0.104016  0.595536  1
  Cl  Cl11  1  0.354016  0.019774  0.095536  1
  Cl  Cl12  1  0.741519  0.075762  0.095536  1
  Cl  Cl13  1  0.399363  0.257395  0.901554  1
  Cl  Cl14  1  0.325762  0.491519  0.595536  1
  Cl  Cl15  1  0.449962  0.776217  0.446810  1
  Cl  Cl16  1  0.052893  0.896932  0.236581  1
  Cl  Cl17  1  0.026217  0.199962  0.946810  1
  Cl  Cl18  1  0.507395  0.149363  0.401554  1
  Cl  Cl19  1  0.894159  0.252192  0.401554  1
  Cl  Cl20  1  0.580682  0.391730  0.246494  1
  Cl  Cl21  1  0.920593  0.746848  0.946810  1
  Cl  Cl22  1  0.146932  0.802893  0.736581  1
  Cl  Cl23  1  0.183688  0.339649  0.236581  1
  Cl  Cl24  1  0.810419  0.015871  0.596032  1
  Cl  Cl25  1  0.785613  0.580160  0.596032  1
  Cl  Cl26  1  0.641730  0.330682  0.746494  1
  Cl  Cl27  1  0.265871  0.560419  0.096032  1
  Cl  Cl28  1  0.665812  0.854764  0.246494  1
  Cl  Cl29  1  0.589649  0.933688  0.736581  1
