# generated using pymatgen
data_CaMg(SiO)2
_symmetry_space_group_name_H-M   'P 1'
_cell_length_a   4.94174888
_cell_length_b   6.43695020
_cell_length_c   6.43695027
_cell_angle_alpha   86.94220075
_cell_angle_beta   80.79010820
_cell_angle_gamma   80.79010672
_symmetry_Int_Tables_number   1
_chemical_formula_structural   CaMg(SiO)2
_chemical_formula_sum   'Ca2 Mg2 Si4 O4'
_cell_volume   199.43206421
_cell_formula_units_Z   2
loop_
 _symmetry_equiv_pos_site_id
 _symmetry_equiv_pos_as_xyz
  1  'x, y, z'
loop_
 _atom_site_type_symbol
 _atom_site_label
 _atom_site_symmetry_multiplicity
 _atom_site_fract_x
 _atom_site_fract_y
 _atom_site_fract_z
 _atom_site_occupancy
  Ca  Ca0  1  0.750000  0.307769  0.692231  1
  Ca  Ca1  1  0.250000  0.692231  0.307769  1
  Mg  Mg2  1  0.250000  0.084218  0.915782  1
  Mg  Mg3  1  0.750000  0.915782  0.084218  1
  Si  Si4  1  0.789752  0.395417  0.215933  1
  Si  Si5  1  0.210248  0.604583  0.784067  1
  Si  Si6  1  0.289752  0.215933  0.395417  1
  Si  Si7  1  0.710248  0.784067  0.604583  1
  O  O8  1  0.362142  0.030411  0.208553  1
  O  O9  1  0.137858  0.791447  0.969589  1
  O  O10  1  0.862142  0.208553  0.030411  1
  O  O11  1  0.637858  0.969589  0.791447  1
