# generated using pymatgen
data_Cr11Ge19
_symmetry_space_group_name_H-M   'P 1'
_cell_length_a   5.80288777
_cell_length_b   5.80288777
_cell_length_c   52.37109513
_cell_angle_alpha   90.00000000
_cell_angle_beta   90.00000000
_cell_angle_gamma   90.00000000
_symmetry_Int_Tables_number   1
_chemical_formula_structural   Cr11Ge19
_chemical_formula_sum   'Cr44 Ge76'
_cell_volume   1763.51841076
_cell_formula_units_Z   4
loop_
 _symmetry_equiv_pos_site_id
 _symmetry_equiv_pos_as_xyz
  1  'x, y, z'
loop_
 _atom_site_type_symbol
 _atom_site_label
 _atom_site_symmetry_multiplicity
 _atom_site_fract_x
 _atom_site_fract_y
 _atom_site_fract_z
 _atom_site_occupancy
  Cr  Cr0  1  0.000000  0.500000  0.523771  1
  Cr  Cr1  1  0.500000  0.000000  0.387668  1
  Cr  Cr2  1  0.500000  0.500000  0.864912  1
  Cr  Cr3  1  0.000000  0.000000  0.546854  1
  Cr  Cr4  1  0.500000  0.500000  0.409460  1
  Cr  Cr5  1  0.000000  0.500000  0.068908  1
  Cr  Cr6  1  0.500000  0.000000  0.931092  1
  Cr  Cr7  1  0.000000  0.500000  0.887668  1
  Cr  Cr8  1  0.500000  0.000000  0.476229  1
  Cr  Cr9  1  0.000000  0.500000  0.158709  1
  Cr  Cr10  1  0.500000  0.500000  0.590540  1
  Cr  Cr11  1  0.500000  0.500000  0.046854  1
  Cr  Cr12  1  0.000000  0.000000  0.909460  1
  Cr  Cr13  1  0.000000  0.000000  0.453146  1
  Cr  Cr14  1  0.000000  0.000000  0.364912  1
  Cr  Cr15  1  0.000000  0.500000  0.612332  1
  Cr  Cr16  1  0.500000  0.000000  0.568908  1
  Cr  Cr17  1  0.500000  0.500000  0.953146  1
  Cr  Cr18  1  0.000000  0.000000  0.635088  1
  Cr  Cr19  1  0.000000  0.500000  0.976229  1
  Cr  Cr20  1  0.500000  0.500000  0.771732  1
  Cr  Cr21  1  0.500000  0.000000  0.750000  1
  Cr  Cr22  1  0.000000  0.500000  0.794042  1
  Cr  Cr23  1  0.500000  0.500000  0.228268  1
  Cr  Cr24  1  0.000000  0.500000  0.341291  1
  Cr  Cr25  1  0.500000  0.000000  0.023771  1
  Cr  Cr26  1  0.500000  0.000000  0.112332  1
  Cr  Cr27  1  0.000000  0.000000  0.817487  1
  Cr  Cr28  1  0.000000  0.500000  0.431092  1
  Cr  Cr29  1  0.500000  0.000000  0.841291  1
  Cr  Cr30  1  0.000000  0.000000  0.000000  1
  Cr  Cr31  1  0.500000  0.500000  0.500000  1
  Cr  Cr32  1  0.500000  0.000000  0.205958  1
  Cr  Cr33  1  0.500000  0.500000  0.135088  1
  Cr  Cr34  1  0.500000  0.000000  0.658709  1
  Cr  Cr35  1  0.500000  0.000000  0.294042  1
  Cr  Cr36  1  0.500000  0.500000  0.682513  1
  Cr  Cr37  1  0.000000  0.500000  0.250000  1
  Cr  Cr38  1  0.000000  0.000000  0.271732  1
  Cr  Cr39  1  0.000000  0.500000  0.705958  1
  Cr  Cr40  1  0.500000  0.500000  0.317487  1
  Cr  Cr41  1  0.000000  0.000000  0.182513  1
  Cr  Cr42  1  0.000000  0.000000  0.728268  1
  Cr  Cr43  1  0.000000  0.000000  0.090540  1
  Ge  Ge44  1  0.838093  0.810063  0.223957  1
  Ge  Ge45  1  0.829002  0.670998  0.750000  1
  Ge  Ge46  1  0.836039  0.317388  0.934000  1
  Ge  Ge47  1  0.724796  0.658402  0.644392  1
  Ge  Ge48  1  0.657703  0.744549  0.171163  1
  Ge  Ge49  1  0.661907  0.310063  0.723957  1
  Ge  Ge50  1  0.682612  0.836039  0.066000  1
  Ge  Ge51  1  0.341764  0.765105  0.986645  1
  Ge  Ge52  1  0.744549  0.342297  0.828837  1
  Ge  Ge53  1  0.793629  0.840408  0.960153  1
  Ge  Ge54  1  0.160608  0.302110  0.118089  1
  Ge  Ge55  1  0.660608  0.197890  0.618089  1
  Ge  Ge56  1  0.659329  0.784642  0.802291  1
  Ge  Ge57  1  0.161907  0.189937  0.223957  1
  Ge  Ge58  1  0.340408  0.293629  0.539847  1
  Ge  Ge59  1  0.158236  0.265105  0.486645  1
  Ge  Ge60  1  0.833213  0.176268  0.408016  1
  Ge  Ge61  1  0.810063  0.161907  0.776043  1
  Ge  Ge62  1  0.802110  0.660608  0.381911  1
  Ge  Ge63  1  0.159592  0.793629  0.039847  1
  Ge  Ge64  1  0.255451  0.657703  0.828837  1
  Ge  Ge65  1  0.659592  0.706371  0.539847  1
  Ge  Ge66  1  0.765105  0.658236  0.013355  1
  Ge  Ge67  1  0.841598  0.775204  0.855608  1
  Ge  Ge68  1  0.157703  0.755451  0.671163  1
  Ge  Ge69  1  0.333213  0.323732  0.908016  1
  Ge  Ge70  1  0.293629  0.659592  0.460153  1
  Ge  Ge71  1  0.336039  0.182612  0.434000  1
  Ge  Ge72  1  0.189937  0.838093  0.776043  1
  Ge  Ge73  1  0.182612  0.663961  0.566000  1
  Ge  Ge74  1  0.839392  0.697890  0.118089  1
  Ge  Ge75  1  0.658402  0.275204  0.355608  1
  Ge  Ge76  1  0.706371  0.340408  0.460153  1
  Ge  Ge77  1  0.666787  0.676268  0.908016  1
  Ge  Ge78  1  0.658236  0.234895  0.986645  1
  Ge  Ge79  1  0.340671  0.215358  0.802291  1
  Ge  Ge80  1  0.775204  0.158402  0.144392  1
  Ge  Ge81  1  0.158402  0.224796  0.855608  1
  Ge  Ge82  1  0.842297  0.244549  0.671163  1
  Ge  Ge83  1  0.342297  0.255451  0.171163  1
  Ge  Ge84  1  0.697890  0.160608  0.881911  1
  Ge  Ge85  1  0.317388  0.163961  0.066000  1
  Ge  Ge86  1  0.840671  0.284642  0.302291  1
  Ge  Ge87  1  0.275204  0.341598  0.644392  1
  Ge  Ge88  1  0.341598  0.724796  0.355608  1
  Ge  Ge89  1  0.323732  0.666787  0.091984  1
  Ge  Ge90  1  0.159329  0.715358  0.302291  1
  Ge  Ge91  1  0.166787  0.823732  0.408016  1
  Ge  Ge92  1  0.755451  0.842297  0.328837  1
  Ge  Ge93  1  0.310063  0.338093  0.276043  1
  Ge  Ge94  1  0.284642  0.159329  0.697709  1
  Ge  Ge95  1  0.206371  0.159592  0.960153  1
  Ge  Ge96  1  0.734895  0.158236  0.513355  1
  Ge  Ge97  1  0.329002  0.829002  0.250000  1
  Ge  Ge98  1  0.163961  0.682612  0.934000  1
  Ge  Ge99  1  0.689937  0.661907  0.276043  1
  Ge  Ge100  1  0.676268  0.333213  0.091984  1
  Ge  Ge101  1  0.234895  0.341764  0.013355  1
  Ge  Ge102  1  0.302110  0.839392  0.881911  1
  Ge  Ge103  1  0.823732  0.833213  0.591984  1
  Ge  Ge104  1  0.817388  0.336039  0.566000  1
  Ge  Ge105  1  0.670998  0.170998  0.250000  1
  Ge  Ge106  1  0.338093  0.689937  0.723957  1
  Ge  Ge107  1  0.265105  0.841764  0.513355  1
  Ge  Ge108  1  0.841764  0.734895  0.486645  1
  Ge  Ge109  1  0.215358  0.659329  0.197709  1
  Ge  Ge110  1  0.339392  0.802110  0.618089  1
  Ge  Ge111  1  0.244549  0.157703  0.328837  1
  Ge  Ge112  1  0.840408  0.206371  0.039847  1
  Ge  Ge113  1  0.224796  0.841598  0.144392  1
  Ge  Ge114  1  0.784642  0.340671  0.197709  1
  Ge  Ge115  1  0.176268  0.166787  0.591984  1
  Ge  Ge116  1  0.715358  0.840671  0.697709  1
  Ge  Ge117  1  0.197890  0.339392  0.381911  1
  Ge  Ge118  1  0.663961  0.817388  0.434000  1
  Ge  Ge119  1  0.170998  0.329002  0.750000  1
