# generated using pymatgen
data_LiYF4
_symmetry_space_group_name_H-M   'P 1'
_cell_length_a   5.22970200
_cell_length_b   5.26989865
_cell_length_c   6.56481142
_cell_angle_alpha   113.30915724
_cell_angle_beta   113.11556931
_cell_angle_gamma   90.81742487
_symmetry_Int_Tables_number   1
_chemical_formula_structural   LiYF4
_chemical_formula_sum   'Li2 Y2 F8'
_cell_volume   149.70668897
_cell_formula_units_Z   2
loop_
 _symmetry_equiv_pos_site_id
 _symmetry_equiv_pos_as_xyz
  1  'x, y, z'
loop_
 _atom_site_type_symbol
 _atom_site_label
 _atom_site_symmetry_multiplicity
 _atom_site_fract_x
 _atom_site_fract_y
 _atom_site_fract_z
 _atom_site_occupancy
  Li  Li0  1  0.370433  0.120433  0.740867  1
  Li  Li1  1  0.629567  0.879567  0.259133  1
  Y  Y2  1  0.124214  0.374214  0.248428  1
  Y  Y3  1  0.875786  0.625786  0.751572  1
  F  F4  1  0.463400  0.761020  0.585125  1
  F  F5  1  0.262604  0.629753  0.087377  1
  F  F6  1  0.878275  0.675895  0.414875  1
  F  F7  1  0.824773  0.957624  0.087377  1
  F  F8  1  0.536600  0.238980  0.414875  1
  F  F9  1  0.121725  0.324105  0.585125  1
  F  F10  1  0.175227  0.042376  0.912623  1
  F  F11  1  0.737396  0.370247  0.912623  1
