# generated using pymatgen
data_Fe3(P2O7)2
_symmetry_space_group_name_H-M   'P 1'
_cell_length_a   9.08172234
_cell_length_b   10.32635131
_cell_length_c   12.39696272
_cell_angle_alpha   90.00000000
_cell_angle_beta   90.00000000
_cell_angle_gamma   90.00000000
_symmetry_Int_Tables_number   1
_chemical_formula_structural   Fe3(P2O7)2
_chemical_formula_sum   'Fe12 P16 O56'
_cell_volume   1162.60024742
_cell_formula_units_Z   4
loop_
 _symmetry_equiv_pos_site_id
 _symmetry_equiv_pos_as_xyz
  1  'x, y, z'
loop_
 _atom_site_type_symbol
 _atom_site_label
 _atom_site_symmetry_multiplicity
 _atom_site_fract_x
 _atom_site_fract_y
 _atom_site_fract_z
 _atom_site_occupancy
  Fe  Fe0  1  0.749439  0.379033  0.488538  1
  Fe  Fe1  1  0.246753  0.618683  0.750000  1
  Fe  Fe2  1  0.250561  0.620967  0.988538  1
  Fe  Fe3  1  0.746753  0.881317  0.750000  1
  Fe  Fe4  1  0.750561  0.879033  0.988538  1
  Fe  Fe5  1  0.750561  0.879033  0.511462  1
  Fe  Fe6  1  0.753247  0.381317  0.250000  1
  Fe  Fe7  1  0.749439  0.379033  0.011462  1
  Fe  Fe8  1  0.250561  0.620967  0.511462  1
  Fe  Fe9  1  0.253247  0.118683  0.250000  1
  Fe  Fe10  1  0.249439  0.120967  0.488538  1
  Fe  Fe11  1  0.249439  0.120967  0.011462  1
  P  P12  1  0.427369  0.865086  0.372934  1
  P  P13  1  0.086782  0.880401  0.867319  1
  P  P14  1  0.572631  0.134914  0.872934  1
  P  P15  1  0.586782  0.619599  0.632681  1
  P  P16  1  0.927369  0.634914  0.372934  1
  P  P17  1  0.072631  0.365086  0.627066  1
  P  P18  1  0.427369  0.865086  0.127066  1
  P  P19  1  0.413218  0.380401  0.132681  1
  P  P20  1  0.913218  0.119599  0.132681  1
  P  P21  1  0.072631  0.365086  0.872934  1
  P  P22  1  0.586782  0.619599  0.867319  1
  P  P23  1  0.572631  0.134914  0.627066  1
  P  P24  1  0.913218  0.119599  0.367319  1
  P  P25  1  0.086782  0.880401  0.632681  1
  P  P26  1  0.413218  0.380401  0.367319  1
  P  P27  1  0.927369  0.634914  0.127066  1
  O  O28  1  0.341920  0.245113  0.373659  1
  O  O29  1  0.082368  0.128692  0.368402  1
  O  O30  1  0.369619  0.437120  0.250000  1
  O  O31  1  0.921042  0.390861  0.920034  1
  O  O32  1  0.347487  0.754466  0.427830  1
  O  O33  1  0.421042  0.109139  0.920034  1
  O  O34  1  0.421042  0.109139  0.579966  1
  O  O35  1  0.578958  0.890861  0.420034  1
  O  O36  1  0.334920  0.990381  0.368460  1
  O  O37  1  0.847487  0.745534  0.427830  1
  O  O38  1  0.652513  0.245534  0.927830  1
  O  O39  1  0.917632  0.871308  0.631598  1
  O  O40  1  0.648124  0.527236  0.949089  1
  O  O41  1  0.341920  0.245113  0.126341  1
  O  O42  1  0.082368  0.128692  0.131598  1
  O  O43  1  0.351876  0.472764  0.050911  1
  O  O44  1  0.158080  0.745113  0.626341  1
  O  O45  1  0.648124  0.527236  0.550911  1
  O  O46  1  0.047272  0.319517  0.750000  1
  O  O47  1  0.158080  0.745113  0.873659  1
  O  O48  1  0.078958  0.609139  0.420034  1
  O  O49  1  0.547272  0.180483  0.750000  1
  O  O50  1  0.658080  0.754887  0.626341  1
  O  O51  1  0.952728  0.680483  0.250000  1
  O  O52  1  0.841920  0.254887  0.126341  1
  O  O53  1  0.834920  0.509619  0.131540  1
  O  O54  1  0.869619  0.062880  0.250000  1
  O  O55  1  0.165080  0.490381  0.868460  1
  O  O56  1  0.658080  0.754887  0.873659  1
  O  O57  1  0.665080  0.009619  0.631540  1
  O  O58  1  0.148124  0.972764  0.550911  1
  O  O59  1  0.582368  0.371308  0.131598  1
  O  O60  1  0.847487  0.745534  0.072170  1
  O  O61  1  0.152513  0.254466  0.572170  1
  O  O62  1  0.417632  0.628692  0.868402  1
  O  O63  1  0.452728  0.819517  0.250000  1
  O  O64  1  0.630381  0.562880  0.750000  1
  O  O65  1  0.578958  0.890861  0.079966  1
  O  O66  1  0.334920  0.990381  0.131540  1
  O  O67  1  0.665080  0.009619  0.868460  1
  O  O68  1  0.841920  0.254887  0.373659  1
  O  O69  1  0.582368  0.371308  0.368402  1
  O  O70  1  0.917632  0.871308  0.868402  1
  O  O71  1  0.148124  0.972764  0.949089  1
  O  O72  1  0.652513  0.245534  0.572170  1
  O  O73  1  0.152513  0.254466  0.927830  1
  O  O74  1  0.130381  0.937120  0.750000  1
  O  O75  1  0.851876  0.027236  0.050911  1
  O  O76  1  0.851876  0.027236  0.449089  1
  O  O77  1  0.165080  0.490381  0.631540  1
  O  O78  1  0.921042  0.390861  0.579966  1
  O  O79  1  0.347487  0.754466  0.072170  1
  O  O80  1  0.834920  0.509619  0.368460  1
  O  O81  1  0.351876  0.472764  0.449089  1
  O  O82  1  0.417632  0.628692  0.631598  1
  O  O83  1  0.078958  0.609139  0.079966  1
