# generated using pymatgen
data_KPuP2S7
_symmetry_space_group_name_H-M   'P 1'
_cell_length_a   9.07799646
_cell_length_b   9.78982889
_cell_length_c   12.44692732
_cell_angle_alpha   90.00000000
_cell_angle_beta   90.00000000
_cell_angle_gamma   90.13963039
_symmetry_Int_Tables_number   1
_chemical_formula_structural   KPuP2S7
_chemical_formula_sum   'K4 Pu4 P8 S28'
_cell_volume   1106.18043833
_cell_formula_units_Z   4
loop_
 _symmetry_equiv_pos_site_id
 _symmetry_equiv_pos_as_xyz
  1  'x, y, z'
loop_
 _atom_site_type_symbol
 _atom_site_label
 _atom_site_symmetry_multiplicity
 _atom_site_fract_x
 _atom_site_fract_y
 _atom_site_fract_z
 _atom_site_occupancy
  Pu  Pu0  1  0.107278  0.859121  0.639929  1
  Pu  Pu1  1  0.392722  0.140879  0.139929  1
  Pu  Pu2  1  0.892722  0.140879  0.360071  1
  Pu  Pu3  1  0.607278  0.859121  0.860071  1
  K  K4  1  0.867571  0.394756  0.693082  1
  K  K5  1  0.632429  0.605244  0.193082  1
  K  K6  1  0.132429  0.605244  0.306918  1
  K  K7  1  0.367571  0.394756  0.806918  1
  S  S8  1  0.173494  0.015461  0.443552  1
  S  S9  1  0.326506  0.984539  0.943552  1
  S  S10  1  0.826506  0.984539  0.556448  1
  S  S11  1  0.673494  0.015461  0.056448  1
  S  S12  1  0.934691  0.666851  0.524908  1
  S  S13  1  0.565309  0.333149  0.024908  1
  S  S14  1  0.065309  0.333149  0.475092  1
  S  S15  1  0.434691  0.666851  0.975092  1
  S  S16  1  0.145918  0.146040  0.693594  1
  S  S17  1  0.354082  0.853960  0.193594  1
  S  S18  1  0.854082  0.853960  0.306406  1
  S  S19  1  0.645918  0.146040  0.806406  1
  S  S20  1  0.286869  0.636826  0.556882  1
  S  S21  1  0.213131  0.363174  0.056882  1
  S  S22  1  0.713131  0.363174  0.443118  1
  S  S23  1  0.786869  0.636826  0.943118  1
  S  S24  1  0.923474  0.910201  0.826940  1
  S  S25  1  0.576526  0.089799  0.326940  1
  S  S26  1  0.076526  0.089799  0.173060  1
  S  S27  1  0.423474  0.910201  0.673060  1
  S  S28  1  0.109988  0.633498  0.788252  1
  S  S29  1  0.390012  0.366501  0.288252  1
  S  S30  1  0.890012  0.366501  0.211748  1
  S  S31  1  0.609988  0.633498  0.711748  1
  S  S32  1  0.078241  0.752085  0.051170  1
  S  S33  1  0.421759  0.247915  0.551170  1
  S  S34  1  0.921759  0.247915  0.948830  1
  S  S35  1  0.578241  0.752085  0.448830  1
  P  P36  1  0.195942  0.185238  0.537088  1
  P  P37  1  0.304058  0.814762  0.037088  1
  P  P38  1  0.804058  0.814762  0.462912  1
  P  P39  1  0.695942  0.185238  0.962912  1
  P  P40  1  0.976560  0.727725  0.895898  1
  P  P41  1  0.523440  0.272275  0.395898  1
  P  P42  1  0.023440  0.272275  0.104102  1
  P  P43  1  0.476560  0.727725  0.604102  1
