# generated using pymatgen
data_Gd2Zn17
_symmetry_space_group_name_H-M   'P 1'
_cell_length_a   6.71527891
_cell_length_b   6.71527820
_cell_length_c   6.71527896
_cell_angle_alpha   82.86496830
_cell_angle_beta   82.86496905
_cell_angle_gamma   82.86497112
_symmetry_Int_Tables_number   1
_chemical_formula_structural   Gd2Zn17
_chemical_formula_sum   'Gd2 Zn17'
_cell_volume   296.32803159
_cell_formula_units_Z   1
loop_
 _symmetry_equiv_pos_site_id
 _symmetry_equiv_pos_as_xyz
  1  'x, y, z'
loop_
 _atom_site_type_symbol
 _atom_site_label
 _atom_site_symmetry_multiplicity
 _atom_site_fract_x
 _atom_site_fract_y
 _atom_site_fract_z
 _atom_site_occupancy
  Gd  Gd0  1  0.335433  0.335433  0.335433  1
  Gd  Gd1  1  0.664567  0.664567  0.664567  1
  Zn  Zn2  1  0.100936  0.100936  0.100936  1
  Zn  Zn3  1  0.899064  0.899064  0.899064  1
  Zn  Zn4  1  0.000000  0.000000  0.500000  1
  Zn  Zn5  1  0.500000  0.000000  0.000000  1
  Zn  Zn6  1  0.000000  0.500000  0.000000  1
  Zn  Zn7  1  0.700204  0.299796  1.000000  1
  Zn  Zn8  1  1.000000  0.700204  0.299796  1
  Zn  Zn9  1  0.299796  0.000000  0.700204  1
  Zn  Zn10  1  0.299796  0.700204  0.000000  1
  Zn  Zn11  1  0.000000  0.299796  0.700204  1
  Zn  Zn12  1  0.700204  1.000000  0.299796  1
  Zn  Zn13  1  0.646757  0.161695  0.646757  1
  Zn  Zn14  1  0.646757  0.646757  0.161695  1
  Zn  Zn15  1  0.161695  0.646757  0.646757  1
  Zn  Zn16  1  0.838305  0.353243  0.353243  1
  Zn  Zn17  1  0.353243  0.838305  0.353243  1
  Zn  Zn18  1  0.353243  0.353243  0.838305  1
