# generated using pymatgen
data_ZnS
_symmetry_space_group_name_H-M   'P 1'
_cell_length_a   3.85370395
_cell_length_b   3.85370384
_cell_length_c   62.98747769
_cell_angle_alpha   90.00000000
_cell_angle_beta   90.00000000
_cell_angle_gamma   120.00000082
_symmetry_Int_Tables_number   1
_chemical_formula_structural   ZnS
_chemical_formula_sum   'Zn20 S20'
_cell_volume   810.10540539
_cell_formula_units_Z   20
loop_
 _symmetry_equiv_pos_site_id
 _symmetry_equiv_pos_as_xyz
  1  'x, y, z'
loop_
 _atom_site_type_symbol
 _atom_site_label
 _atom_site_symmetry_multiplicity
 _atom_site_fract_x
 _atom_site_fract_y
 _atom_site_fract_z
 _atom_site_occupancy
  Zn  Zn0  1  0.000000  0.000000  0.400014  1
  Zn  Zn1  1  0.666667  0.333333  0.449998  1
  Zn  Zn2  1  0.333333  0.666667  0.650000  1
  Zn  Zn3  1  0.333333  0.666667  0.949998  1
  Zn  Zn4  1  0.333333  0.666667  0.200003  1
  Zn  Zn5  1  0.000000  0.000000  0.599997  1
  Zn  Zn6  1  0.666667  0.333333  0.550014  1
  Zn  Zn7  1  0.666667  0.333333  0.900003  1
  Zn  Zn8  1  0.000000  0.000000  0.299998  1
  Zn  Zn9  1  0.333333  0.666667  0.350000  1
  Zn  Zn10  1  0.666667  0.333333  0.750003  1
  Zn  Zn11  1  0.666667  0.333333  0.100003  1
  Zn  Zn12  1  0.333333  0.666667  0.800003  1
  Zn  Zn13  1  0.000000  0.000000  0.999999  1
  Zn  Zn14  1  0.333333  0.666667  0.050014  1
  Zn  Zn15  1  0.000000  0.000000  0.850003  1
  Zn  Zn16  1  0.000000  0.000000  0.150003  1
  Zn  Zn17  1  0.000000  0.000000  0.700014  1
  Zn  Zn18  1  0.666667  0.333333  0.250003  1
  Zn  Zn19  1  0.333333  0.666667  0.500000  1
  S  S20  1  0.666667  0.333333  0.587495  1
  S  S21  1  0.000000  0.000000  0.887497  1
  S  S22  1  0.000000  0.000000  0.037528  1
  S  S23  1  0.333333  0.666667  0.987466  1
  S  S24  1  0.333333  0.666667  0.087495  1
  S  S25  1  0.666667  0.333333  0.287496  1
  S  S26  1  0.000000  0.000000  0.337467  1
  S  S27  1  0.000000  0.000000  0.637466  1
  S  S28  1  0.000000  0.000000  0.737495  1
  S  S29  1  0.333333  0.666667  0.237498  1
  S  S30  1  0.666667  0.333333  0.487466  1
  S  S31  1  0.666667  0.333333  0.937497  1
  S  S32  1  0.666667  0.333333  0.787497  1
  S  S33  1  0.333333  0.666667  0.537528  1
  S  S34  1  0.333333  0.666667  0.687528  1
  S  S35  1  0.333333  0.666667  0.837496  1
  S  S36  1  0.000000  0.000000  0.187496  1
  S  S37  1  0.333333  0.666667  0.387528  1
  S  S38  1  0.666667  0.333333  0.137496  1
  S  S39  1  0.000000  0.000000  0.437495  1
