# generated using pymatgen
data_V2Co3O8
_symmetry_space_group_name_H-M   'P 1'
_cell_length_a   6.10455960
_cell_length_b   6.61083553
_cell_length_c   8.33983176
_cell_angle_alpha   90.00000000
_cell_angle_beta   90.00000000
_cell_angle_gamma   117.49741719
_symmetry_Int_Tables_number   1
_chemical_formula_structural   V2Co3O8
_chemical_formula_sum   'V4 Co6 O16'
_cell_volume   298.54313921
_cell_formula_units_Z   2
loop_
 _symmetry_equiv_pos_site_id
 _symmetry_equiv_pos_as_xyz
  1  'x, y, z'
loop_
 _atom_site_type_symbol
 _atom_site_label
 _atom_site_symmetry_multiplicity
 _atom_site_fract_x
 _atom_site_fract_y
 _atom_site_fract_z
 _atom_site_occupancy
  O  O0  1  0.651178  0.765732  0.497601  1
  O  O1  1  0.885446  0.234268  0.502399  1
  O  O2  1  0.848822  0.234268  0.997601  1
  O  O3  1  0.614554  0.765732  0.002399  1
  O  O4  1  0.348822  0.234268  0.502399  1
  O  O5  1  0.114554  0.765732  0.497601  1
  O  O6  1  0.151178  0.765732  0.002399  1
  O  O7  1  0.385446  0.234268  0.997601  1
  O  O8  1  0.499258  0.998516  0.745252  1
  O  O9  1  0.500742  0.001484  0.254748  1
  O  O10  1  0.249753  0.499506  0.773399  1
  O  O11  1  0.750247  0.500494  0.226601  1
  O  O12  1  0.250247  0.500494  0.273399  1
  O  O13  1  0.749753  0.499506  0.726601  1
  O  O14  1  0.999258  0.998516  0.754748  1
  O  O15  1  0.000742  0.001484  0.245252  1
  V  V16  1  0.877769  0.755537  0.618653  1
  V  V17  1  0.122231  0.244463  0.381347  1
  V  V18  1  0.622231  0.244463  0.118653  1
  V  V19  1  0.377769  0.755537  0.881347  1
  Co  Co20  1  0.885005  0.270010  0.750000  1
  Co  Co21  1  0.614995  0.729990  0.250000  1
  Co  Co22  1  0.114995  0.729990  0.250000  1
  Co  Co23  1  0.385005  0.270010  0.750000  1
  Co  Co24  1  0.500000  0.000000  0.500000  1
  Co  Co25  1  0.000000  0.000000  0.000000  1
