# generated using pymatgen
data_K6Mo10O33
_symmetry_space_group_name_H-M   'P 1'
_cell_length_a   7.85203626
_cell_length_b   12.40591544
_cell_length_c   17.55036030
_cell_angle_alpha   86.52266523
_cell_angle_beta   77.42913612
_cell_angle_gamma   74.38284397
_symmetry_Int_Tables_number   1
_chemical_formula_structural   K6Mo10O33
_chemical_formula_sum   'K12 Mo20 O66'
_cell_volume   1607.02064382
_cell_formula_units_Z   2
loop_
 _symmetry_equiv_pos_site_id
 _symmetry_equiv_pos_as_xyz
  1  'x, y, z'
loop_
 _atom_site_type_symbol
 _atom_site_label
 _atom_site_symmetry_multiplicity
 _atom_site_fract_x
 _atom_site_fract_y
 _atom_site_fract_z
 _atom_site_occupancy
  K  K0  1  0.493561  0.737084  0.268028  1
  K  K1  1  0.498134  0.271484  0.728791  1
  K  K2  1  0.228268  0.772673  0.761833  1
  K  K3  1  0.772973  0.236010  0.240275  1
  K  K4  1  0.655559  0.760152  0.988860  1
  K  K5  1  0.973867  0.274083  0.752168  1
  K  K6  1  0.729506  0.771857  0.755207  1
  K  K7  1  0.885174  0.738882  0.475036  1
  K  K8  1  0.128364  0.255153  0.519795  1
  K  K9  1  0.352305  0.243150  0.017108  1
  K  K10  1  0.020674  0.732774  0.246186  1
  K  K11  1  0.261467  0.236855  0.248085  1
  Mo  Mo12  1  0.672259  0.481071  0.577560  1
  Mo  Mo13  1  0.439642  0.009795  0.607291  1
  Mo  Mo14  1  0.823888  0.332833  0.993577  1
  Mo  Mo15  1  0.775607  0.472988  0.389999  1
  Mo  Mo16  1  0.346093  0.515910  0.412340  1
  Mo  Mo17  1  0.560999  0.989704  0.392741  1
  Mo  Mo18  1  0.679701  0.170034  0.490806  1
  Mo  Mo19  1  0.059087  0.993776  0.394104  1
  Mo  Mo20  1  0.448953  0.495998  0.106988  1
  Mo  Mo21  1  0.177677  0.673029  0.005472  1
  Mo  Mo22  1  0.247459  0.982730  0.921108  1
  Mo  Mo23  1  0.941536  0.006857  0.605874  1
  Mo  Mo24  1  0.944703  0.499814  0.106562  1
  Mo  Mo25  1  0.764580  0.024316  0.087873  1
  Mo  Mo26  1  0.194741  0.526478  0.617311  1
  Mo  Mo27  1  0.320372  0.830133  0.509072  1
  Mo  Mo28  1  0.175294  0.975525  0.109139  1
  Mo  Mo29  1  0.055929  0.506203  0.892799  1
  Mo  Mo30  1  0.551661  0.509094  0.892202  1
  Mo  Mo31  1  0.806681  0.032671  0.883137  1
  O  O32  1  0.541180  0.494132  0.481610  1
  O  O33  1  0.299901  0.974206  0.414473  1
  O  O34  1  0.030744  0.620560  0.681673  1
  O  O35  1  0.034861  0.391159  0.988462  1
  O  O36  1  0.980868  0.634531  0.847656  1
  O  O37  1  0.025910  0.998572  0.017178  1
  O  O38  1  0.548559  0.621196  0.827037  1
  O  O39  1  0.573441  0.495731  0.337037  1
  O  O40  1  0.087172  0.867047  0.348283  1
  O  O41  1  0.276278  0.525081  0.916482  1
  O  O42  1  0.469180  0.111423  0.499360  1
  O  O43  1  0.836814  0.236341  0.070689  1
  O  O44  1  0.916155  0.134346  0.650053  1
  O  O45  1  0.312112  0.748845  0.593626  1
  O  O46  1  0.177649  0.571793  0.515465  1
  O  O47  1  0.114052  0.759721  0.087245  1
  O  O48  1  0.939647  0.110537  0.488773  1
  O  O49  1  0.449407  0.383748  0.171771  1
  O  O50  1  0.589034  0.392981  0.833526  1
  O  O51  1  0.921112  0.002375  0.162472  1
  O  O52  1  0.221046  0.989007  0.582556  1
  O  O53  1  0.610395  0.269548  0.566126  1
  O  O54  1  0.708010  0.897743  0.093944  1
  O  O55  1  0.213514  0.103923  0.124149  1
  O  O56  1  0.938295  0.909898  0.682089  1
  O  O57  1  0.532734  0.886761  0.500738  1
  O  O58  1  0.706647  0.122571  0.815905  1
  O  O59  1  0.712892  0.609980  0.586807  1
  O  O60  1  0.161449  0.769226  0.928365  1
  O  O61  1  0.420310  0.508129  0.641342  1
  O  O62  1  0.725295  0.479763  0.082756  1
  O  O63  1  0.276164  0.880507  0.174189  1
  O  O64  1  0.769012  0.394867  0.647698  1
  O  O65  1  0.065158  0.092253  0.319302  1
  O  O66  1  0.862145  0.423878  0.486831  1
  O  O67  1  0.335861  0.125307  0.668716  1
  O  O68  1  0.681660  0.252384  0.406853  1
  O  O69  1  0.153301  0.409378  0.817064  1
  O  O70  1  0.386462  0.732008  0.433055  1
  O  O71  1  0.213858  0.608305  0.355608  1
  O  O72  1  0.828048  0.601437  0.371976  1
  O  O73  1  0.663857  0.874136  0.331273  1
  O  O74  1  0.780110  0.011270  0.416777  1
  O  O75  1  0.302858  0.110067  0.908492  1
  O  O76  1  0.579773  0.119299  0.143571  1
  O  O77  1  0.508844  0.103217  0.330444  1
  O  O78  1  0.488869  0.896075  0.669809  1
  O  O79  1  0.700355  0.025852  0.586704  1
  O  O80  1  0.967643  0.613203  0.010566  1
  O  O81  1  0.775095  0.900641  0.872782  1
  O  O82  1  0.208674  0.517740  0.086160  1
  O  O83  1  0.056512  0.012282  0.857657  1
  O  O84  1  0.351581  0.925373  0.011733  1
  O  O85  1  0.938245  0.374184  0.327463  1
  O  O86  1  0.438254  0.614757  0.997134  1
  O  O87  1  0.411708  0.611828  0.165827  1
  O  O88  1  0.562625  0.391989  0.001763  1
  O  O89  1  0.408686  0.891482  0.853052  1
  O  O90  1  0.152304  0.394483  0.631360  1
  O  O91  1  0.792530  0.488460  0.912679  1
  O  O92  1  0.020723  0.372981  0.153477  1
  O  O93  1  0.692381  0.079179  0.985009  1
  O  O94  1  0.295358  0.388856  0.408944  1
  O  O95  1  0.883481  0.248363  0.910871  1
  O  O96  1  0.058886  0.890919  0.511220  1
  O  O97  1  0.847232  0.599329  0.180276  1
