# generated using pymatgen
data_CsTi2Cl7
_symmetry_space_group_name_H-M   'P 1'
_cell_length_a   6.81124730
_cell_length_b   7.58204545
_cell_length_c   11.41582631
_cell_angle_alpha   90.00000000
_cell_angle_beta   90.00000000
_cell_angle_gamma   94.83466543
_symmetry_Int_Tables_number   1
_chemical_formula_structural   CsTi2Cl7
_chemical_formula_sum   'Cs2 Ti4 Cl14'
_cell_volume   587.45205992
_cell_formula_units_Z   2
loop_
 _symmetry_equiv_pos_site_id
 _symmetry_equiv_pos_as_xyz
  1  'x, y, z'
loop_
 _atom_site_type_symbol
 _atom_site_label
 _atom_site_symmetry_multiplicity
 _atom_site_fract_x
 _atom_site_fract_y
 _atom_site_fract_z
 _atom_site_occupancy
  Cs  Cs0  1  0.941008  0.629216  0.750000  1
  Cs  Cs1  1  0.058992  0.370784  0.250000  1
  Cl  Cl2  1  0.439849  0.895299  0.750000  1
  Cl  Cl3  1  0.560151  0.104701  0.250000  1
  Cl  Cl4  1  0.452022  0.339434  0.750000  1
  Cl  Cl5  1  0.547978  0.660566  0.250000  1
  Cl  Cl6  1  0.867374  0.130185  0.750000  1
  Cl  Cl7  1  0.132626  0.869815  0.250000  1
  Ti  Ti8  1  0.582954  0.125884  0.885607  1
  Ti  Ti9  1  0.417046  0.874116  0.385607  1
  Ti  Ti10  1  0.417046  0.874116  0.114393  1
  Ti  Ti11  1  0.582954  0.125884  0.614393  1
  Cl  Cl12  1  0.720558  0.894255  0.001803  1
  Cl  Cl13  1  0.279442  0.105745  0.501803  1
  Cl  Cl14  1  0.279442  0.105745  0.998197  1
  Cl  Cl15  1  0.720558  0.894255  0.498197  1
  Cl  Cl16  1  0.739701  0.351548  0.995294  1
  Cl  Cl17  1  0.260299  0.648452  0.495294  1
  Cl  Cl18  1  0.260299  0.648452  0.004706  1
  Cl  Cl19  1  0.739701  0.351548  0.504706  1
