# generated using pymatgen
data_H10C3NClO
_symmetry_space_group_name_H-M   'P 1'
_cell_length_a   5.49362845
_cell_length_b   7.70712791
_cell_length_c   14.40948287
_cell_angle_alpha   90.00000000
_cell_angle_beta   90.00000000
_cell_angle_gamma   90.00000000
_symmetry_Int_Tables_number   1
_chemical_formula_structural   H10C3NClO
_chemical_formula_sum   'H40 C12 N4 Cl4 O4'
_cell_volume   610.09890466
_cell_formula_units_Z   4
loop_
 _symmetry_equiv_pos_site_id
 _symmetry_equiv_pos_as_xyz
  1  'x, y, z'
loop_
 _atom_site_type_symbol
 _atom_site_label
 _atom_site_symmetry_multiplicity
 _atom_site_fract_x
 _atom_site_fract_y
 _atom_site_fract_z
 _atom_site_occupancy
  H  H0  1  0.781917  0.867469  0.564715  1
  H  H1  1  0.737469  0.090419  0.919065  1
  H  H2  1  0.048762  0.250000  0.720286  1
  H  H3  1  0.237469  0.590419  0.580935  1
  H  H4  1  0.472911  0.477476  0.644329  1
  H  H5  1  0.527089  0.522524  0.355671  1
  H  H6  1  0.762531  0.090419  0.419065  1
  H  H7  1  0.444013  0.250000  0.501245  1
  H  H8  1  0.763611  0.092376  0.293884  1
  H  H9  1  0.527089  0.977476  0.355671  1
  H  H10  1  0.548762  0.750000  0.779714  1
  H  H11  1  0.236389  0.592376  0.706116  1
  H  H12  1  0.736389  0.092376  0.793884  1
  H  H13  1  0.718083  0.632531  0.064715  1
  H  H14  1  0.472911  0.022524  0.644329  1
  H  H15  1  0.262531  0.590419  0.080935  1
  H  H16  1  0.263611  0.592376  0.206116  1
  H  H17  1  0.736389  0.407624  0.793884  1
  H  H18  1  0.027089  0.022524  0.144329  1
  H  H19  1  0.281917  0.367469  0.935285  1
  H  H20  1  0.781917  0.632531  0.564715  1
  H  H21  1  0.281917  0.132531  0.935285  1
  H  H22  1  0.262531  0.909581  0.080935  1
  H  H23  1  0.762531  0.409581  0.419065  1
  H  H24  1  0.737469  0.409581  0.919065  1
  H  H25  1  0.027089  0.477476  0.144329  1
  H  H26  1  0.237469  0.909581  0.580935  1
  H  H27  1  0.972911  0.522524  0.855671  1
  H  H28  1  0.972911  0.977476  0.855671  1
  H  H29  1  0.944013  0.750000  0.998755  1
  H  H30  1  0.218084  0.132531  0.435285  1
  H  H31  1  0.218084  0.367469  0.435285  1
  H  H32  1  0.555987  0.750000  0.498755  1
  H  H33  1  0.236389  0.907624  0.706116  1
  H  H34  1  0.055987  0.250000  0.001245  1
  H  H35  1  0.763611  0.407624  0.293884  1
  H  H36  1  0.451238  0.250000  0.220286  1
  H  H37  1  0.718083  0.867469  0.064715  1
  H  H38  1  0.951238  0.750000  0.279714  1
  H  H39  1  0.263611  0.907624  0.206116  1
  C  C40  1  0.349982  0.589563  0.643783  1
  C  C41  1  0.670324  0.750000  0.561182  1
  C  C42  1  0.829676  0.750000  0.061182  1
  C  C43  1  0.650018  0.089563  0.356217  1
  C  C44  1  0.849982  0.089563  0.856217  1
  C  C45  1  0.349982  0.910437  0.643783  1
  C  C46  1  0.170324  0.250000  0.938818  1
  C  C47  1  0.329676  0.250000  0.438818  1
  C  C48  1  0.650018  0.410437  0.356217  1
  C  C49  1  0.150018  0.589563  0.143783  1
  C  C50  1  0.849982  0.410437  0.856217  1
  C  C51  1  0.150018  0.910437  0.143783  1
  N  N52  1  0.003746  0.250000  0.856951  1
  N  N53  1  0.496254  0.250000  0.356951  1
  N  N54  1  0.503746  0.750000  0.643049  1
  N  N55  1  0.996254  0.750000  0.143049  1
  Cl  Cl56  1  0.858537  0.250000  0.607282  1
  Cl  Cl57  1  0.358537  0.750000  0.892718  1
  Cl  Cl58  1  0.641463  0.250000  0.107282  1
  Cl  Cl59  1  0.141463  0.750000  0.392718  1
  O  O60  1  0.838790  0.750000  0.222358  1
  O  O61  1  0.661210  0.750000  0.722358  1
  O  O62  1  0.338790  0.250000  0.277642  1
  O  O63  1  0.161210  0.250000  0.777642  1
