# generated using pymatgen
data_ZnS
_symmetry_space_group_name_H-M   'P 1'
_cell_length_a   3.85433752
_cell_length_b   3.85433742
_cell_length_c   75.58139463
_cell_angle_alpha   90.00000000
_cell_angle_beta   90.00000000
_cell_angle_gamma   120.00000087
_symmetry_Int_Tables_number   1
_chemical_formula_structural   ZnS
_chemical_formula_sum   'Zn24 S24'
_cell_volume   972.40011842
_cell_formula_units_Z   24
loop_
 _symmetry_equiv_pos_site_id
 _symmetry_equiv_pos_as_xyz
  1  'x, y, z'
loop_
 _atom_site_type_symbol
 _atom_site_label
 _atom_site_symmetry_multiplicity
 _atom_site_fract_x
 _atom_site_fract_y
 _atom_site_fract_z
 _atom_site_occupancy
  Zn  Zn0  1  0.000000  0.000000  0.166691  1
  Zn  Zn1  1  0.333333  0.666667  0.791630  1
  Zn  Zn2  1  0.666667  0.333333  0.458328  1
  Zn  Zn3  1  0.000000  0.000000  0.416658  1
  Zn  Zn4  1  0.666667  0.333333  0.083329  1
  Zn  Zn5  1  0.333333  0.666667  0.333317  1
  Zn  Zn6  1  0.333333  0.666667  0.208375  1
  Zn  Zn7  1  0.000000  0.000000  0.583345  1
  Zn  Zn8  1  0.000000  0.000000  0.708330  1
  Zn  Zn9  1  0.666667  0.333333  0.749981  1
  Zn  Zn10  1  0.666667  0.333333  0.916668  1
  Zn  Zn11  1  0.666667  0.333333  0.625039  1
  Zn  Zn12  1  0.000000  0.000000  0.833309  1
  Zn  Zn13  1  0.333333  0.666667  0.666688  1
  Zn  Zn14  1  0.333333  0.666667  0.125005  1
  Zn  Zn15  1  0.333333  0.666667  0.041676  1
  Zn  Zn16  1  0.000000  0.000000  0.999996  1
  Zn  Zn17  1  0.000000  0.000000  0.291674  1
  Zn  Zn18  1  0.333333  0.666667  0.874991  1
  Zn  Zn19  1  0.333333  0.666667  0.958331  1
  Zn  Zn20  1  0.666667  0.333333  0.541683  1
  Zn  Zn21  1  0.666667  0.333333  0.250011  1
  Zn  Zn22  1  0.666667  0.333333  0.374960  1
  Zn  Zn23  1  0.333333  0.666667  0.499996  1
  S  S24  1  0.000000  0.000000  0.197980  1
  S  S25  1  0.333333  0.666667  0.531285  1
  S  S26  1  0.333333  0.666667  0.906211  1
  S  S27  1  0.666667  0.333333  0.947950  1
  S  S28  1  0.333333  0.666667  0.156229  1
  S  S29  1  0.666667  0.333333  0.281259  1
  S  S30  1  0.666667  0.333333  0.114607  1
  S  S31  1  0.000000  0.000000  0.614631  1
  S  S32  1  0.666667  0.333333  0.406196  1
  S  S33  1  0.000000  0.000000  0.739570  1
  S  S34  1  0.666667  0.333333  0.781225  1
  S  S35  1  0.666667  0.333333  0.489543  1
  S  S36  1  0.333333  0.666667  0.822862  1
  S  S37  1  0.000000  0.000000  0.322919  1
  S  S38  1  0.666667  0.333333  0.656276  1
  S  S39  1  0.000000  0.000000  0.864592  1
  S  S40  1  0.333333  0.666667  0.072892  1
  S  S41  1  0.333333  0.666667  0.364556  1
  S  S42  1  0.333333  0.666667  0.697932  1
  S  S43  1  0.333333  0.666667  0.239603  1
  S  S44  1  0.333333  0.666667  0.989544  1
  S  S45  1  0.000000  0.000000  0.447942  1
  S  S46  1  0.666667  0.333333  0.572903  1
  S  S47  1  0.000000  0.000000  0.031281  1
