# generated using pymatgen
data_NaCe(PSe3)2
_symmetry_space_group_name_H-M   'P 1'
_cell_length_a   7.79007883
_cell_length_b   11.81840368
_cell_length_c   12.28925636
_cell_angle_alpha   111.55991345
_cell_angle_beta   90.00000000
_cell_angle_gamma   90.00000000
_symmetry_Int_Tables_number   1
_chemical_formula_structural   NaCe(PSe3)2
_chemical_formula_sum   'Na4 Ce4 P8 Se24'
_cell_volume   1052.26473320
_cell_formula_units_Z   4
loop_
 _symmetry_equiv_pos_site_id
 _symmetry_equiv_pos_as_xyz
  1  'x, y, z'
loop_
 _atom_site_type_symbol
 _atom_site_label
 _atom_site_symmetry_multiplicity
 _atom_site_fract_x
 _atom_site_fract_y
 _atom_site_fract_z
 _atom_site_occupancy
  Na  Na0  1  0.392493  0.623317  0.858924  1
  Na  Na1  1  0.107507  0.123317  0.858924  1
  Na  Na2  1  0.892493  0.876683  0.141076  1
  Na  Na3  1  0.607507  0.376683  0.141076  1
  Ce  Ce4  1  0.893015  0.411215  0.656507  1
  Ce  Ce5  1  0.106985  0.588785  0.343493  1
  Ce  Ce6  1  0.393015  0.088785  0.343493  1
  Ce  Ce7  1  0.606985  0.911215  0.656507  1
  P  P8  1  0.387128  0.749043  0.195044  1
  P  P9  1  0.401246  0.252167  0.680135  1
  P  P10  1  0.112872  0.249043  0.195044  1
  P  P11  1  0.901246  0.247833  0.319865  1
  P  P12  1  0.612872  0.250957  0.804956  1
  P  P13  1  0.598754  0.747833  0.319865  1
  P  P14  1  0.098754  0.752167  0.680135  1
  P  P15  1  0.887128  0.750957  0.804956  1
  Se  Se16  1  0.295780  0.559102  0.115923  1
  Se  Se17  1  0.180499  0.854840  0.311057  1
  Se  Se18  1  0.704220  0.440898  0.884077  1
  Se  Se19  1  0.319501  0.354840  0.311057  1
  Se  Se20  1  0.995572  0.654819  0.911020  1
  Se  Se21  1  0.471589  0.683192  0.449345  1
  Se  Se22  1  0.819501  0.145160  0.688943  1
  Se  Se23  1  0.004428  0.345181  0.088980  1
  Se  Se24  1  0.793818  0.626495  0.206566  1
  Se  Se25  1  0.806535  0.436625  0.407941  1
  Se  Se26  1  0.028411  0.183192  0.449345  1
  Se  Se27  1  0.204220  0.059102  0.115923  1
  Se  Se28  1  0.680499  0.645160  0.688943  1
  Se  Se29  1  0.504428  0.154819  0.911020  1
  Se  Se30  1  0.795780  0.940898  0.884077  1
  Se  Se31  1  0.706182  0.126495  0.206566  1
  Se  Se32  1  0.193465  0.563375  0.592059  1
  Se  Se33  1  0.306535  0.063375  0.592059  1
  Se  Se34  1  0.293818  0.873505  0.793434  1
  Se  Se35  1  0.495572  0.845181  0.088980  1
  Se  Se36  1  0.971589  0.816808  0.550655  1
  Se  Se37  1  0.206182  0.373505  0.793434  1
  Se  Se38  1  0.528411  0.316808  0.550655  1
  Se  Se39  1  0.693465  0.936625  0.407941  1
