# generated using pymatgen
data_ZnS
_symmetry_space_group_name_H-M   'P 1'
_cell_length_a   3.85294473
_cell_length_b   3.85294463
_cell_length_c   69.26189309
_cell_angle_alpha   90.00000000
_cell_angle_beta   90.00000000
_cell_angle_gamma   120.00000092
_symmetry_Int_Tables_number   1
_chemical_formula_structural   ZnS
_chemical_formula_sum   'Zn22 S22'
_cell_volume   890.45203883
_cell_formula_units_Z   22
loop_
 _symmetry_equiv_pos_site_id
 _symmetry_equiv_pos_as_xyz
  1  'x, y, z'
loop_
 _atom_site_type_symbol
 _atom_site_label
 _atom_site_symmetry_multiplicity
 _atom_site_fract_x
 _atom_site_fract_y
 _atom_site_fract_z
 _atom_site_occupancy
  Zn  Zn0  1  0.666667  0.333333  0.409094  1
  Zn  Zn1  1  0.333333  0.666667  0.681817  1
  Zn  Zn2  1  0.000000  0.000000  0.863619  1
  Zn  Zn3  1  0.333333  0.666667  0.318166  1
  Zn  Zn4  1  0.333333  0.666667  0.954516  1
  Zn  Zn5  1  0.333333  0.666667  0.045478  1
  Zn  Zn6  1  0.000000  0.000000  0.272715  1
  Zn  Zn7  1  0.000000  0.000000  0.136396  1
  Zn  Zn8  1  0.666667  0.333333  0.909096  1
  Zn  Zn9  1  0.333333  0.666667  0.181821  1
  Zn  Zn10  1  0.666667  0.333333  0.090904  1
  Zn  Zn11  1  0.666667  0.333333  0.772720  1
  Zn  Zn12  1  0.333333  0.666667  0.454516  1
  Zn  Zn13  1  0.666667  0.333333  0.590904  1
  Zn  Zn14  1  0.000000  0.000000  0.999996  1
  Zn  Zn15  1  0.666667  0.333333  0.227296  1
  Zn  Zn16  1  0.333333  0.666667  0.545478  1
  Zn  Zn17  1  0.000000  0.000000  0.636392  1
  Zn  Zn18  1  0.333333  0.666667  0.818196  1
  Zn  Zn19  1  0.000000  0.000000  0.499996  1
  Zn  Zn20  1  0.000000  0.000000  0.727305  1
  Zn  Zn21  1  0.000000  0.000000  0.363611  1
  S  S22  1  0.000000  0.000000  0.761375  1
  S  S23  1  0.000000  0.000000  0.534117  1
  S  S24  1  0.000000  0.000000  0.306774  1
  S  S25  1  0.333333  0.666667  0.079536  1
  S  S26  1  0.333333  0.666667  0.352263  1
  S  S27  1  0.333333  0.666667  0.488581  1
  S  S28  1  0.666667  0.333333  0.943177  1
  S  S29  1  0.000000  0.000000  0.670450  1
  S  S30  1  0.333333  0.666667  0.852278  1
  S  S31  1  0.000000  0.000000  0.897707  1
  S  S32  1  0.333333  0.666667  0.715932  1
  S  S33  1  0.333333  0.666667  0.579536  1
  S  S34  1  0.666667  0.333333  0.261378  1
  S  S35  1  0.666667  0.333333  0.625000  1
  S  S36  1  0.000000  0.000000  0.170474  1
  S  S37  1  0.666667  0.333333  0.443177  1
  S  S38  1  0.333333  0.666667  0.215907  1
  S  S39  1  0.333333  0.666667  0.988581  1
  S  S40  1  0.000000  0.000000  0.397699  1
  S  S41  1  0.666667  0.333333  0.125000  1
  S  S42  1  0.000000  0.000000  0.034117  1
  S  S43  1  0.666667  0.333333  0.806805  1
