# generated using pymatgen
data_PuGa4
_symmetry_space_group_name_H-M   'P 1'
_cell_length_a   4.31427703
_cell_length_b   6.12009932
_cell_length_c   7.91497505
_cell_angle_alpha   112.73735637
_cell_angle_beta   105.71027596
_cell_angle_gamma   89.98059192
_symmetry_Int_Tables_number   1
_chemical_formula_structural   PuGa4
_chemical_formula_sum   'Pu2 Ga8'
_cell_volume   184.25889392
_cell_formula_units_Z   2
loop_
 _symmetry_equiv_pos_site_id
 _symmetry_equiv_pos_as_xyz
  1  'x, y, z'
loop_
 _atom_site_type_symbol
 _atom_site_label
 _atom_site_symmetry_multiplicity
 _atom_site_fract_x
 _atom_site_fract_y
 _atom_site_fract_z
 _atom_site_occupancy
  Ga  Ga0  1  0.500000  0.500000  0.000000  1
  Ga  Ga1  1  0.500000  0.000000  0.000000  1
  Ga  Ga2  1  0.104478  0.854178  0.208371  1
  Ga  Ga3  1  0.895522  0.145822  0.791629  1
  Pu  Pu4  1  0.891231  0.640566  0.781191  1
  Pu  Pu5  1  0.108769  0.359434  0.218809  1
  Ga  Ga6  1  0.698003  0.712403  0.397070  1
  Ga  Ga7  1  0.301997  0.287598  0.602930  1
  Ga  Ga8  1  0.301526  0.815261  0.602989  1
  Ga  Ga9  1  0.698474  0.184739  0.397011  1
