# generated using pymatgen
data_La4Mn5(Si2O11)2
_symmetry_space_group_name_H-M   'P 1'
_cell_length_a   5.67865548
_cell_length_b   7.62772969
_cell_length_c   11.35657380
_cell_angle_alpha   74.08453445
_cell_angle_beta   75.51830419
_cell_angle_gamma   68.14354703
_symmetry_Int_Tables_number   1
_chemical_formula_structural   La4Mn5(Si2O11)2
_chemical_formula_sum   'La4 Mn5 Si4 O22'
_cell_volume   432.97615189
_cell_formula_units_Z   1
loop_
 _symmetry_equiv_pos_site_id
 _symmetry_equiv_pos_as_xyz
  1  'x, y, z'
loop_
 _atom_site_type_symbol
 _atom_site_label
 _atom_site_symmetry_multiplicity
 _atom_site_fract_x
 _atom_site_fract_y
 _atom_site_fract_z
 _atom_site_occupancy
  La  La0  1  0.761883  0.214837  0.261370  1
  La  La1  1  0.238117  0.785163  0.738630  1
  La  La2  1  0.948482  0.355245  0.747890  1
  La  La3  1  0.051518  0.644755  0.252110  1
  Mn  Mn4  1  0.748861  1.000016  0.000011  1
  Mn  Mn5  1  0.251139  -0.000016  0.999989  1
  Mn  Mn6  1  0.732373  0.534297  0.000962  1
  Mn  Mn7  1  0.267627  0.465703  0.999038  1
  Mn  Mn8  1  0.500000  0.500000  0.500000  1
  Si  Si9  1  0.834860  0.779881  0.550485  1
  Si  Si10  1  0.165140  0.220119  0.449515  1
  Si  Si11  1  0.587138  0.089323  0.736467  1
  Si  Si12  1  0.412862  0.910677  0.263533  1
  O  O13  1  0.671467  0.966949  0.181560  1
  O  O14  1  0.819998  0.033114  0.818431  1
  O  O15  1  0.328533  0.033051  0.818440  1
  O  O16  1  0.180002  0.966886  0.181569  1
  O  O17  1  0.458672  0.455721  0.124484  1
  O  O18  1  0.038912  0.544285  0.875516  1
  O  O19  1  0.541328  0.544279  0.875516  1
  O  O20  1  0.961088  0.455715  0.124484  1
  O  O21  1  0.352502  0.355483  0.399836  1
  O  O22  1  0.107942  0.644565  0.600134  1
  O  O23  1  0.647498  0.644517  0.600164  1
  O  O24  1  0.892058  0.355435  0.399866  1
  O  O25  1  0.912096  0.188713  0.987060  1
  O  O26  1  0.087904  0.811287  0.012940  1
  O  O27  1  0.584533  0.818734  0.012241  1
  O  O28  1  0.415467  0.181266  0.987759  1
  O  O29  1  0.503231  0.315242  0.678112  1
  O  O30  1  0.496769  0.684758  0.321888  1
  O  O31  1  0.708001  0.949882  0.634235  1
  O  O32  1  0.291999  0.050118  0.365765  1
  O  O33  1  0.864911  0.867081  0.403038  1
  O  O34  1  0.135089  0.132919  0.596962  1
