# generated using pymatgen
data_SbSe3N2Cl7
_symmetry_space_group_name_H-M   'P 1'
_cell_length_a   7.33547583
_cell_length_b   7.37064390
_cell_length_c   15.76967772
_cell_angle_alpha   89.84069046
_cell_angle_beta   85.72488470
_cell_angle_gamma   67.94889155
_symmetry_Int_Tables_number   1
_chemical_formula_structural   SbSe3N2Cl7
_chemical_formula_sum   'Sb2 Se6 N4 Cl14'
_cell_volume   787.76023300
_cell_formula_units_Z   2
loop_
 _symmetry_equiv_pos_site_id
 _symmetry_equiv_pos_as_xyz
  1  'x, y, z'
loop_
 _atom_site_type_symbol
 _atom_site_label
 _atom_site_symmetry_multiplicity
 _atom_site_fract_x
 _atom_site_fract_y
 _atom_site_fract_z
 _atom_site_occupancy
  Sb  Sb0  1  0.011241  0.123356  0.499339  1
  Sb  Sb1  1  0.999373  0.003285  0.999936  1
  Se  Se2  1  0.670709  0.805297  0.334814  1
  Se  Se3  1  0.608483  0.354967  0.740247  1
  Se  Se4  1  0.901415  0.501891  0.193555  1
  Se  Se5  1  0.180708  0.436681  0.808876  1
  Se  Se6  1  0.357566  0.522574  0.637705  1
  Se  Se7  1  0.541077  0.673109  0.172305  1
  N  N8  1  0.441727  0.309867  0.813258  1
  N  N9  1  0.497364  0.840944  0.255946  1
  N  N10  1  0.885756  0.622089  0.290427  1
  N  N11  1  0.156721  0.539516  0.708470  1
  Cl  Cl12  1  0.736634  0.324341  0.006070  1
  Cl  Cl13  1  0.821704  0.455840  0.555057  1
  Cl  Cl14  1  0.968585  0.989455  0.153474  1
  Cl  Cl15  1  0.262100  0.683878  0.992930  1
  Cl  Cl16  1  0.249212  0.234612  0.427863  1
  Cl  Cl17  1  0.191209  0.793659  0.445839  1
  Cl  Cl18  1  0.032853  0.019857  0.846180  1
  Cl  Cl19  1  0.651634  0.629171  0.788002  1
  Cl  Cl20  1  0.196173  0.057045  0.623701  1
  Cl  Cl21  1  0.769671  0.014947  0.572403  1
  Cl  Cl22  1  0.232695  0.158180  0.011387  1
  Cl  Cl23  1  0.818401  0.195913  0.377374  1
  Cl  Cl24  1  0.430072  0.436805  0.220864  1
  Cl  Cl25  1  0.765578  0.849433  0.987875  1
