# generated using pymatgen
data_K4Mn3F12
_symmetry_space_group_name_H-M   'P 1'
_cell_length_a   8.50583834
_cell_length_b   8.50583834
_cell_length_c   10.31070214
_cell_angle_alpha   114.36048058
_cell_angle_beta   114.36048059
_cell_angle_gamma   89.99999999
_symmetry_Int_Tables_number   1
_chemical_formula_structural   K4Mn3F12
_chemical_formula_sum   'K8 Mn6 F24'
_cell_volume   605.90501423
_cell_formula_units_Z   2
loop_
 _symmetry_equiv_pos_site_id
 _symmetry_equiv_pos_as_xyz
  1  'x, y, z'
loop_
 _atom_site_type_symbol
 _atom_site_label
 _atom_site_symmetry_multiplicity
 _atom_site_fract_x
 _atom_site_fract_y
 _atom_site_fract_z
 _atom_site_occupancy
  F  F0  1  0.518467  0.768467  0.036935  1
  F  F1  1  0.768467  0.518467  0.536935  1
  F  F2  1  0.481533  0.231533  0.963065  1
  F  F3  1  0.231533  0.481533  0.463065  1
  F  F4  1  0.747600  0.997600  0.495200  1
  F  F5  1  0.997600  0.747600  0.995200  1
  F  F6  1  0.252400  0.002400  0.504800  1
  F  F7  1  0.002400  0.252400  0.004800  1
  F  F8  1  0.632450  0.662375  0.264900  1
  F  F9  1  0.897475  0.367550  0.235100  1
  F  F10  1  0.337625  0.367550  0.235100  1
  F  F11  1  0.367550  0.337625  0.735100  1
  F  F12  1  0.367550  0.897475  0.735100  1
  F  F13  1  0.102525  0.632450  0.764900  1
  F  F14  1  0.120241  0.117801  0.240482  1
  F  F15  1  0.622681  0.120241  0.740482  1
  F  F16  1  0.117801  0.120241  0.740482  1
  F  F17  1  0.879759  0.882199  0.759518  1
  F  F18  1  0.879759  0.377319  0.759518  1
  F  F19  1  0.377319  0.879759  0.259518  1
  F  F20  1  0.882199  0.879759  0.259518  1
  F  F21  1  0.120241  0.622681  0.240482  1
  F  F22  1  0.632450  0.102525  0.264900  1
  F  F23  1  0.662375  0.632450  0.764900  1
  K  K24  1  0.277864  0.000000  0.000000  1
  K  K25  1  0.500000  0.277864  0.500000  1
  K  K26  1  0.000000  0.722136  0.500000  1
  K  K27  1  0.722136  0.500000  0.000000  1
  K  K28  1  0.722136  0.000000  0.000000  1
  K  K29  1  0.500000  0.722136  0.500000  1
  K  K30  1  0.277864  0.500000  0.000000  1
  K  K31  1  0.000000  0.277864  0.500000  1
  Mn  Mn32  1  0.125000  0.875000  0.250000  1
  Mn  Mn33  1  0.875000  0.125000  0.750000  1
  Mn  Mn34  1  0.118279  0.368279  0.236557  1
  Mn  Mn35  1  0.368279  0.118279  0.736557  1
  Mn  Mn36  1  0.881721  0.631721  0.763443  1
  Mn  Mn37  1  0.631721  0.881721  0.263443  1
