# generated using pymatgen
data_CeTl5Ni2(NO2)12
_symmetry_space_group_name_H-M   'P 1'
_cell_length_a   10.93336163
_cell_length_b   10.93336163
_cell_length_c   10.93336163
_cell_angle_alpha   90.00000000
_cell_angle_beta   90.00000000
_cell_angle_gamma   90.00000000
_symmetry_Int_Tables_number   1
_chemical_formula_structural   CeTl5Ni2(NO2)12
_chemical_formula_sum   'Ce2 Tl10 Ni4 N24 O48'
_cell_volume   1306.95651796
_cell_formula_units_Z   2
loop_
 _symmetry_equiv_pos_site_id
 _symmetry_equiv_pos_as_xyz
  1  'x, y, z'
loop_
 _atom_site_type_symbol
 _atom_site_label
 _atom_site_symmetry_multiplicity
 _atom_site_fract_x
 _atom_site_fract_y
 _atom_site_fract_z
 _atom_site_occupancy
  Ce  Ce0  1  0.250000  0.250000  0.250000  1
  Ce  Ce1  1  0.750000  0.750000  0.750000  1
  Tl  Tl2  1  0.500000  0.500000  0.000000  1
  Tl  Tl3  1  0.500000  0.000000  0.500000  1
  Tl  Tl4  1  0.250000  0.750000  0.750000  1
  Tl  Tl5  1  0.750000  0.250000  0.250000  1
  Tl  Tl6  1  0.750000  0.250000  0.750000  1
  Tl  Tl7  1  0.000000  0.000000  0.000000  1
  Tl  Tl8  1  0.750000  0.750000  0.250000  1
  Tl  Tl9  1  0.250000  0.750000  0.250000  1
  Tl  Tl10  1  0.000000  0.500000  0.500000  1
  Tl  Tl11  1  0.250000  0.250000  0.750000  1
  Ni  Ni12  1  0.000000  0.000000  0.500000  1
  Ni  Ni13  1  0.500000  0.000000  0.000000  1
  Ni  Ni14  1  0.000000  0.500000  0.000000  1
  Ni  Ni15  1  0.500000  0.500000  0.500000  1
  N  N16  1  0.505001  0.509397  0.691919  1
  N  N17  1  0.808081  0.994999  0.509397  1
  N  N18  1  0.691919  0.994999  0.990603  1
  N  N19  1  0.509397  0.808081  0.994999  1
  N  N20  1  0.994999  0.990603  0.691919  1
  N  N21  1  0.009397  0.308081  0.005001  1
  N  N22  1  0.308081  0.005001  0.009397  1
  N  N23  1  0.808081  0.505001  0.990603  1
  N  N24  1  0.509397  0.691919  0.505001  1
  N  N25  1  0.005001  0.490603  0.191919  1
  N  N26  1  0.990603  0.808081  0.505001  1
  N  N27  1  0.494999  0.490603  0.308081  1
  N  N28  1  0.505001  0.990603  0.808081  1
  N  N29  1  0.009397  0.191919  0.494999  1
  N  N30  1  0.691919  0.505001  0.509397  1
  N  N31  1  0.490603  0.191919  0.005001  1
  N  N32  1  0.490603  0.308081  0.494999  1
  N  N33  1  0.191919  0.005001  0.490603  1
  N  N34  1  0.990603  0.691919  0.994999  1
  N  N35  1  0.994999  0.509397  0.808081  1
  N  N36  1  0.494999  0.009397  0.191919  1
  N  N37  1  0.005001  0.009397  0.308081  1
  N  N38  1  0.191919  0.494999  0.009397  1
  N  N39  1  0.308081  0.494999  0.490603  1
  O  O40  1  0.505042  0.249903  0.907109  1
  O  O41  1  0.005042  0.749903  0.092891  1
  O  O42  1  0.407109  0.005042  0.750097  1
  O  O43  1  0.250097  0.592891  0.505042  1
  O  O44  1  0.907109  0.505042  0.249903  1
  O  O45  1  0.252104  0.099666  0.459827  1
  O  O46  1  0.400334  0.459827  0.247896  1
  O  O47  1  0.959827  0.747896  0.599666  1
  O  O48  1  0.592891  0.994958  0.249903  1
  O  O49  1  0.040173  0.252104  0.400334  1
  O  O50  1  0.092891  0.005042  0.749903  1
  O  O51  1  0.400334  0.040173  0.252104  1
  O  O52  1  0.750097  0.407109  0.005042  1
  O  O53  1  0.900334  0.959827  0.752104  1
  O  O54  1  0.040173  0.247896  0.099666  1
  O  O55  1  0.907109  0.994958  0.250097  1
  O  O56  1  0.900334  0.540173  0.747896  1
  O  O57  1  0.249903  0.907109  0.505042  1
  O  O58  1  0.092891  0.494958  0.750097  1
  O  O59  1  0.099666  0.040173  0.247896  1
  O  O60  1  0.540173  0.747896  0.900334  1
  O  O61  1  0.249903  0.592891  0.994958  1
  O  O62  1  0.252104  0.400334  0.040173  1
  O  O63  1  0.750097  0.092891  0.494958  1
  O  O64  1  0.005042  0.750097  0.407109  1
  O  O65  1  0.247896  0.400334  0.459827  1
  O  O66  1  0.407109  0.494958  0.749903  1
  O  O67  1  0.994958  0.249903  0.592891  1
  O  O68  1  0.592891  0.505042  0.250097  1
  O  O69  1  0.540173  0.752104  0.599666  1
  O  O70  1  0.747896  0.599666  0.959827  1
  O  O71  1  0.599666  0.959827  0.747896  1
  O  O72  1  0.250097  0.907109  0.994958  1
  O  O73  1  0.752104  0.900334  0.959827  1
  O  O74  1  0.749903  0.092891  0.005042  1
  O  O75  1  0.505042  0.250097  0.592891  1
  O  O76  1  0.747896  0.900334  0.540173  1
  O  O77  1  0.749903  0.407109  0.494958  1
  O  O78  1  0.994958  0.250097  0.907109  1
  O  O79  1  0.494958  0.750097  0.092891  1
  O  O80  1  0.099666  0.459827  0.252104  1
  O  O81  1  0.247896  0.099666  0.040173  1
  O  O82  1  0.459827  0.247896  0.400334  1
  O  O83  1  0.599666  0.540173  0.752104  1
  O  O84  1  0.494958  0.749903  0.407109  1
  O  O85  1  0.959827  0.752104  0.900334  1
  O  O86  1  0.752104  0.599666  0.540173  1
  O  O87  1  0.459827  0.252104  0.099666  1
