# generated using pymatgen
data_UH12C4N4O11
_symmetry_space_group_name_H-M   'P 1'
_cell_length_a   7.94588249
_cell_length_b   11.70738218
_cell_length_c   17.31185958
_cell_angle_alpha   90.00000000
_cell_angle_beta   90.00000000
_cell_angle_gamma   105.17675845
_symmetry_Int_Tables_number   1
_chemical_formula_structural   UH12C4N4O11
_chemical_formula_sum   'U4 H48 C16 N16 O44'
_cell_volume   1554.27627109
_cell_formula_units_Z   4
loop_
 _symmetry_equiv_pos_site_id
 _symmetry_equiv_pos_as_xyz
  1  'x, y, z'
loop_
 _atom_site_type_symbol
 _atom_site_label
 _atom_site_symmetry_multiplicity
 _atom_site_fract_x
 _atom_site_fract_y
 _atom_site_fract_z
 _atom_site_occupancy
  U  U0  1  0.997066  0.506637  0.773827  1
  U  U1  1  0.997066  0.006637  0.726173  1
  U  U2  1  0.002934  0.993363  0.273827  1
  U  U3  1  0.002934  0.493363  0.226173  1
  H  H4  1  0.320593  0.887416  0.540884  1
  H  H5  1  0.318952  0.574490  0.542144  1
  H  H6  1  0.105412  0.143016  0.086347  1
  H  H7  1  0.909908  0.221021  0.542871  1
  H  H8  1  0.440405  0.179378  0.578549  1
  H  H9  1  0.642854  0.932961  0.939670  1
  H  H10  1  0.374632  0.878748  0.403279  1
  H  H11  1  0.625368  0.621252  0.903279  1
  H  H12  1  0.318952  0.074490  0.957856  1
  H  H13  1  0.357146  0.067039  0.060330  1
  H  H14  1  0.527376  0.147759  0.998088  1
  H  H15  1  0.681048  0.425510  0.457856  1
  H  H16  1  0.681048  0.925510  0.042144  1
  H  H17  1  0.894588  0.356984  0.586347  1
  H  H18  1  0.679407  0.112584  0.459116  1
  H  H19  1  0.090092  0.778979  0.457129  1
  H  H20  1  0.299591  0.259025  0.900145  1
  H  H21  1  0.374632  0.378748  0.096721  1
  H  H22  1  0.700409  0.240975  0.400145  1
  H  H23  1  0.894588  0.856984  0.913653  1
  H  H24  1  0.559595  0.320622  0.078549  1
  H  H25  1  0.932106  0.849361  0.016320  1
  H  H26  1  0.559595  0.820622  0.421451  1
  H  H27  1  0.932106  0.349361  0.483680  1
  H  H28  1  0.440405  0.679378  0.921451  1
  H  H29  1  0.357146  0.567039  0.439670  1
  H  H30  1  0.067894  0.150639  0.983680  1
  H  H31  1  0.613977  0.757619  0.859369  1
  H  H32  1  0.613977  0.257619  0.640631  1
  H  H33  1  0.067894  0.650639  0.516320  1
  H  H34  1  0.472624  0.352241  0.498088  1
  H  H35  1  0.299591  0.759025  0.599855  1
  H  H36  1  0.642854  0.432961  0.560330  1
  H  H37  1  0.508273  0.332585  0.940395  1
  H  H38  1  0.472624  0.852241  0.001912  1
  H  H39  1  0.105412  0.643016  0.413653  1
  H  H40  1  0.700409  0.740975  0.099855  1
  H  H41  1  0.386023  0.742381  0.359369  1
  H  H42  1  0.909908  0.721021  0.957129  1
  H  H43  1  0.625368  0.121252  0.596721  1
  H  H44  1  0.527376  0.647759  0.501912  1
  H  H45  1  0.491727  0.667415  0.059605  1
  H  H46  1  0.508273  0.832585  0.559605  1
  H  H47  1  0.090092  0.278979  0.042871  1
  H  H48  1  0.679407  0.612584  0.040884  1
  H  H49  1  0.320593  0.387416  0.959116  1
  H  H50  1  0.386023  0.242381  0.140631  1
  H  H51  1  0.491727  0.167415  0.440395  1
  C  C52  1  0.418930  0.798419  0.410691  1
  C  C53  1  0.386461  0.621720  0.491702  1
  C  C54  1  0.581070  0.201581  0.589309  1
  C  C55  1  0.418930  0.298419  0.089309  1
  C  C56  1  0.867045  0.301721  0.534482  1
  C  C57  1  0.613539  0.378280  0.508298  1
  C  C58  1  0.132955  0.198279  0.034482  1
  C  C59  1  0.632820  0.691570  0.050240  1
  C  C60  1  0.867045  0.801721  0.965518  1
  C  C61  1  0.632820  0.191570  0.449760  1
  C  C62  1  0.367180  0.308430  0.949760  1
  C  C63  1  0.581070  0.701581  0.910691  1
  C  C64  1  0.386461  0.121720  0.008298  1
  C  C65  1  0.132955  0.698279  0.465518  1
  C  C66  1  0.613539  0.878280  0.991702  1
  C  C67  1  0.367180  0.808430  0.550240  1
  N  N68  1  0.326417  0.731759  0.479461  1
  N  N69  1  0.885064  0.415695  0.929436  1
  N  N70  1  0.301758  0.947744  0.794712  1
  N  N71  1  0.220421  0.376532  0.317954  1
  N  N72  1  0.673583  0.768241  0.979461  1
  N  N73  1  0.301758  0.447744  0.705288  1
  N  N74  1  0.114936  0.584305  0.070564  1
  N  N75  1  0.885064  0.915695  0.570564  1
  N  N76  1  0.673583  0.268241  0.520539  1
  N  N77  1  0.220421  0.876532  0.182046  1
  N  N78  1  0.698242  0.552256  0.294712  1
  N  N79  1  0.779579  0.623468  0.682046  1
  N  N80  1  0.698242  0.052256  0.205288  1
  N  N81  1  0.326417  0.231759  0.020539  1
  N  N82  1  0.779579  0.123468  0.817954  1
  N  N83  1  0.114936  0.084305  0.429436  1
  O  O84  1  0.257699  0.926262  0.723444  1
  O  O85  1  0.742301  0.073738  0.276556  1
  O  O86  1  0.744185  0.090783  0.747510  1
  O  O87  1  0.208355  0.005905  0.831877  1
  O  O88  1  0.077727  0.896352  0.155399  1
  O  O89  1  0.130235  0.131751  0.234637  1
  O  O90  1  0.744185  0.590783  0.752490  1
  O  O91  1  0.742301  0.573738  0.223444  1
  O  O92  1  0.077727  0.396352  0.344601  1
  O  O93  1  0.800178  0.975894  0.610255  1
  O  O94  1  0.255815  0.409217  0.247510  1
  O  O95  1  0.420184  0.415897  0.674685  1
  O  O96  1  0.163058  0.624607  0.006404  1
  O  O97  1  0.130235  0.631751  0.265363  1
  O  O98  1  0.023452  0.401220  0.896746  1
  O  O99  1  0.255815  0.909217  0.252490  1
  O  O100  1  0.163058  0.124607  0.493596  1
  O  O101  1  0.836942  0.375393  0.993596  1
  O  O102  1  0.313847  0.331569  0.357284  1
  O  O103  1  0.976548  0.598780  0.103254  1
  O  O104  1  0.579816  0.584103  0.325315  1
  O  O105  1  0.686153  0.668431  0.642716  1
  O  O106  1  0.199822  0.024106  0.389745  1
  O  O107  1  0.876295  0.354652  0.187556  1
  O  O108  1  0.686153  0.168431  0.857284  1
  O  O109  1  0.313847  0.831569  0.142716  1
  O  O110  1  0.123705  0.145348  0.687556  1
  O  O111  1  0.976548  0.098780  0.396746  1
  O  O112  1  0.420184  0.915897  0.825315  1
  O  O113  1  0.869765  0.868249  0.765363  1
  O  O114  1  0.208355  0.505905  0.668123  1
  O  O115  1  0.023452  0.901220  0.603254  1
  O  O116  1  0.791645  0.994095  0.168123  1
  O  O117  1  0.922273  0.603648  0.655399  1
  O  O118  1  0.123705  0.645348  0.812444  1
  O  O119  1  0.800178  0.475894  0.889745  1
  O  O120  1  0.257699  0.426262  0.776556  1
  O  O121  1  0.791645  0.494095  0.331877  1
  O  O122  1  0.579816  0.084103  0.174685  1
  O  O123  1  0.869765  0.368249  0.734637  1
  O  O124  1  0.199822  0.524106  0.110255  1
  O  O125  1  0.876295  0.854652  0.312444  1
  O  O126  1  0.922273  0.103648  0.844601  1
  O  O127  1  0.836942  0.875393  0.506404  1
