# generated using pymatgen
data_NaNd(Si3O7)2
_symmetry_space_group_name_H-M   'P 1'
_cell_length_a   7.74791380
_cell_length_b   13.22856473
_cell_length_c   13.22856480
_cell_angle_alpha   72.22559238
_cell_angle_beta   72.97146693
_cell_angle_gamma   72.97146830
_symmetry_Int_Tables_number   1
_chemical_formula_structural   NaNd(Si3O7)2
_chemical_formula_sum   'Na4 Nd4 Si24 O56'
_cell_volume   1203.30842495
_cell_formula_units_Z   4
loop_
 _symmetry_equiv_pos_site_id
 _symmetry_equiv_pos_as_xyz
  1  'x, y, z'
loop_
 _atom_site_type_symbol
 _atom_site_label
 _atom_site_symmetry_multiplicity
 _atom_site_fract_x
 _atom_site_fract_y
 _atom_site_fract_z
 _atom_site_occupancy
  Na  Na0  1  0.250000  0.750000  0.750000  1
  Na  Na1  1  0.000000  0.500000  0.500000  1
  Na  Na2  1  0.750000  0.250000  0.250000  1
  Na  Na3  1  0.500000  0.000000  0.000000  1
  Nd  Nd4  1  0.250000  0.978549  0.521451  1
  Nd  Nd5  1  0.750000  0.021451  0.478549  1
  Nd  Nd6  1  0.750000  0.478549  0.021451  1
  Nd  Nd7  1  0.250000  0.521451  0.978549  1
  Si  Si8  1  0.298966  0.472070  0.232883  1
  Si  Si9  1  0.885482  0.931636  0.775062  1
  Si  Si10  1  0.701034  0.527930  0.767117  1
  Si  Si11  1  0.614518  0.724938  0.568364  1
  Si  Si12  1  0.731989  0.333906  0.666094  1
  Si  Si13  1  0.503920  0.027930  0.267117  1
  Si  Si14  1  0.907819  0.431636  0.275062  1
  Si  Si15  1  0.092181  0.568364  0.724938  1
  Si  Si16  1  0.201034  0.267117  0.027930  1
  Si  Si17  1  0.407819  0.775062  0.931636  1
  Si  Si18  1  0.768011  0.833906  0.166094  1
  Si  Si19  1  0.114518  0.068364  0.224938  1
  Si  Si20  1  0.678188  0.633577  0.366423  1
  Si  Si21  1  0.592181  0.224938  0.068364  1
  Si  Si22  1  0.268011  0.666094  0.333906  1
  Si  Si23  1  0.496080  0.972070  0.732883  1
  Si  Si24  1  0.821812  0.133577  0.866423  1
  Si  Si25  1  0.321812  0.366423  0.633577  1
  Si  Si26  1  0.003920  0.767117  0.527930  1
  Si  Si27  1  0.231989  0.166094  0.833906  1
  Si  Si28  1  0.385482  0.275062  0.431636  1
  Si  Si29  1  0.798966  0.732883  0.972070  1
  Si  Si30  1  0.178188  0.866423  0.133577  1
  Si  Si31  1  0.996080  0.232883  0.472070  1
  O  O32  1  0.731842  0.810233  0.060766  1
  O  O33  1  0.413838  0.798751  0.564966  1
  O  O34  1  0.691190  0.642527  0.484051  1
  O  O35  1  0.427353  0.507594  0.115177  1
  O  O36  1  0.953539  0.309103  0.355319  1
  O  O37  1  0.182233  0.484051  0.642527  1
  O  O38  1  0.949877  0.115177  0.507594  1
  O  O39  1  0.109072  0.463103  0.204303  1
  O  O40  1  0.117961  0.190897  0.144681  1
  O  O41  1  0.530911  0.363235  0.636765  1
  O  O42  1  0.768158  0.439234  0.689767  1
  O  O43  1  0.072647  0.384823  0.992406  1
  O  O44  1  0.449877  0.007594  0.615177  1
  O  O45  1  0.030911  0.136765  0.863235  1
  O  O46  1  0.469089  0.636765  0.363235  1
  O  O47  1  0.268158  0.189767  0.939234  1
  O  O48  1  0.586162  0.201249  0.435034  1
  O  O49  1  0.602841  0.939234  0.189767  1
  O  O50  1  0.969089  0.863235  0.136765  1
  O  O51  1  0.086162  0.935034  0.701249  1
  O  O52  1  0.757992  0.730090  0.269910  1
  O  O53  1  0.617961  0.644681  0.690897  1
  O  O54  1  0.882039  0.809103  0.855319  1
  O  O55  1  0.308810  0.357473  0.515949  1
  O  O56  1  0.682233  0.142527  0.984051  1
  O  O57  1  0.222445  0.564966  0.798751  1
  O  O58  1  0.776479  0.795697  0.536897  1
  O  O59  1  0.572647  0.492406  0.884823  1
  O  O60  1  0.257992  0.769910  0.230090  1
  O  O61  1  0.817767  0.515949  0.357473  1
  O  O62  1  0.546461  0.144681  0.190897  1
  O  O63  1  0.808810  0.015949  0.857473  1
  O  O64  1  0.242008  0.269910  0.730090  1
  O  O65  1  0.723521  0.963103  0.704303  1
  O  O66  1  0.191190  0.984051  0.142527  1
  O  O67  1  0.550123  0.992406  0.384823  1
  O  O68  1  0.277555  0.701249  0.935034  1
  O  O69  1  0.609072  0.704303  0.963103  1
  O  O70  1  0.927353  0.615177  0.007594  1
  O  O71  1  0.722445  0.298751  0.064966  1
  O  O72  1  0.897159  0.310233  0.560766  1
  O  O73  1  0.102841  0.689767  0.439234  1
  O  O74  1  0.890928  0.536897  0.795697  1
  O  O75  1  0.050123  0.884823  0.492406  1
  O  O76  1  0.223521  0.204303  0.463103  1
  O  O77  1  0.231842  0.560766  0.310233  1
  O  O78  1  0.397159  0.060766  0.810233  1
  O  O79  1  0.777555  0.435034  0.201249  1
  O  O80  1  0.913838  0.064966  0.298751  1
  O  O81  1  0.317767  0.857473  0.015949  1
  O  O82  1  0.742008  0.230090  0.769910  1
  O  O83  1  0.382039  0.355319  0.309103  1
  O  O84  1  0.390928  0.295697  0.036897  1
  O  O85  1  0.276479  0.036897  0.295697  1
  O  O86  1  0.046461  0.690897  0.644681  1
  O  O87  1  0.453539  0.855319  0.809103  1
