# generated using pymatgen
data_Mo9O26
_symmetry_space_group_name_H-M   'P 1'
_cell_length_a   4.10916849
_cell_length_b   14.90017191
_cell_length_c   17.26104100
_cell_angle_alpha   95.06836824
_cell_angle_beta   90.00000000
_cell_angle_gamma   90.00000000
_symmetry_Int_Tables_number   1
_chemical_formula_structural   Mo9O26
_chemical_formula_sum   'Mo18 O52'
_cell_volume   1052.71494492
_cell_formula_units_Z   2
loop_
 _symmetry_equiv_pos_site_id
 _symmetry_equiv_pos_as_xyz
  1  'x, y, z'
loop_
 _atom_site_type_symbol
 _atom_site_label
 _atom_site_symmetry_multiplicity
 _atom_site_fract_x
 _atom_site_fract_y
 _atom_site_fract_z
 _atom_site_occupancy
  Mo  Mo0  1  0.586154  0.224034  0.662297  1
  Mo  Mo1  1  0.428246  0.887450  0.042439  1
  Mo  Mo2  1  0.590014  0.453543  0.581655  1
  Mo  Mo3  1  0.413846  0.775966  0.337703  1
  Mo  Mo4  1  0.418059  0.335447  0.867231  1
  Mo  Mo5  1  0.427130  0.000000  0.750000  1
  Mo  Mo6  1  0.409986  0.546457  0.418345  1
  Mo  Mo7  1  0.418059  0.664553  0.632769  1
  Mo  Mo8  1  0.586154  0.775966  0.837703  1
  Mo  Mo9  1  0.572870  0.000000  0.250000  1
  Mo  Mo10  1  0.581941  0.664553  0.132769  1
  Mo  Mo11  1  0.590014  0.546457  0.918345  1
  Mo  Mo12  1  0.409986  0.453543  0.081655  1
  Mo  Mo13  1  0.581941  0.335447  0.367231  1
  Mo  Mo14  1  0.571754  0.887450  0.542439  1
  Mo  Mo15  1  0.428246  0.112550  0.457561  1
  Mo  Mo16  1  0.413846  0.224034  0.162298  1
  Mo  Mo17  1  0.571754  0.112550  0.957561  1
  O  O18  1  0.488763  0.286784  0.768567  1
  O  O19  1  0.513055  0.346659  0.620834  1
  O  O20  1  0.496833  0.829253  0.441809  1
  O  O21  1  0.504303  0.937543  0.145441  1
  O  O22  1  0.991033  0.228292  0.164365  1
  O  O23  1  0.991033  0.771708  0.335635  1
  O  O24  1  0.497489  0.421851  0.969498  1
  O  O25  1  0.513055  0.653341  0.879166  1
  O  O26  1  0.486945  0.346659  0.120834  1
  O  O27  1  0.506907  0.109943  0.706079  1
  O  O28  1  0.504303  0.062457  0.354559  1
  O  O29  1  0.005043  0.885372  0.043173  1
  O  O30  1  0.502511  0.421851  0.469498  1
  O  O31  1  0.512162  0.460922  0.834815  1
  O  O32  1  0.506907  0.890057  0.793921  1
  O  O33  1  0.511237  0.713216  0.231433  1
  O  O34  1  0.994421  0.340208  0.870349  1
  O  O35  1  0.503167  0.170747  0.558191  1
  O  O36  1  0.496833  0.170747  0.058191  1
  O  O37  1  0.995945  0.000000  0.250000  1
  O  O38  1  0.986375  0.546102  0.422117  1
  O  O39  1  0.005579  0.340208  0.370349  1
  O  O40  1  0.497489  0.578149  0.530502  1
  O  O41  1  0.495697  0.937543  0.645441  1
  O  O42  1  0.495697  0.062457  0.854559  1
  O  O43  1  0.008967  0.228292  0.664365  1
  O  O44  1  0.994421  0.659792  0.629651  1
  O  O45  1  0.511237  0.286784  0.268567  1
  O  O46  1  0.495807  0.764647  0.580335  1
  O  O47  1  0.994957  0.885372  0.543173  1
  O  O48  1  0.008967  0.771708  0.835635  1
  O  O49  1  0.986375  0.453898  0.077883  1
  O  O50  1  0.493093  0.109943  0.206079  1
  O  O51  1  0.487838  0.539078  0.165185  1
  O  O52  1  0.500000  0.000000  0.000000  1
  O  O53  1  0.013625  0.546102  0.922117  1
  O  O54  1  0.512162  0.539078  0.665185  1
  O  O55  1  0.504193  0.235353  0.419665  1
  O  O56  1  0.004055  0.000000  0.750000  1
  O  O57  1  0.488763  0.713216  0.731433  1
  O  O58  1  0.013625  0.453898  0.577883  1
  O  O59  1  0.504193  0.764647  0.080335  1
  O  O60  1  0.493093  0.890057  0.293921  1
  O  O61  1  0.005043  0.114628  0.456827  1
  O  O62  1  0.486945  0.653341  0.379166  1
  O  O63  1  0.487838  0.460922  0.334815  1
  O  O64  1  0.503167  0.829253  0.941809  1
  O  O65  1  0.502511  0.578149  0.030502  1
  O  O66  1  0.994957  0.114628  0.956827  1
  O  O67  1  0.005579  0.659792  0.129651  1
  O  O68  1  0.495807  0.235353  0.919665  1
  O  O69  1  0.500000  0.000000  0.500000  1
