# generated using pymatgen
data_YbZr3F15
_symmetry_space_group_name_H-M   'P 1'
_cell_length_a   8.20667110
_cell_length_b   8.25543401
_cell_length_c   16.41002100
_cell_angle_alpha   99.50742668
_cell_angle_beta   99.44859058
_cell_angle_gamma   99.49237325
_symmetry_Int_Tables_number   1
_chemical_formula_structural   YbZr3F15
_chemical_formula_sum   'Yb4 Zr12 F60'
_cell_volume   1060.34618185
_cell_formula_units_Z   4
loop_
 _symmetry_equiv_pos_site_id
 _symmetry_equiv_pos_as_xyz
  1  'x, y, z'
loop_
 _atom_site_type_symbol
 _atom_site_label
 _atom_site_symmetry_multiplicity
 _atom_site_fract_x
 _atom_site_fract_y
 _atom_site_fract_z
 _atom_site_occupancy
  F  F0  1  0.005459  0.770588  0.885135  1
  F  F1  1  0.038909  0.466141  0.878918  1
  F  F2  1  0.033126  0.156093  0.840075  1
  F  F3  1  0.002272  0.780501  0.389592  1
  F  F4  1  0.188847  0.654367  0.777503  1
  F  F5  1  0.245127  0.950782  0.762721  1
  F  F6  1  0.311891  0.934312  0.922739  1
  F  F7  1  0.025250  0.452370  0.368149  1
  F  F8  1  0.218518  0.223121  0.999156  1
  F  F9  1  0.226043  0.991924  0.614391  1
  F  F10  1  0.157004  0.690563  0.533498  1
  F  F11  1  0.050906  0.155999  0.343572  1
  F  F12  1  0.342400  0.465224  0.910048  1
  F  F13  1  0.274141  0.280187  0.751363  1
  F  F14  1  0.276234  0.508965  0.639566  1
  F  F15  1  0.178509  0.656690  0.265901  1
  F  F16  1  0.250957  0.967860  0.270370  1
  F  F17  1  0.319940  0.965928  0.420025  1
  F  F18  1  0.224319  0.225295  0.495504  1
  F  F19  1  0.225261  0.995703  0.112457  1
  F  F20  1  0.149884  0.686659  0.025097  1
  F  F21  1  0.493241  0.723557  0.858910  1
  F  F22  1  0.450132  0.809908  0.672805  1
  F  F23  1  0.345710  0.436621  0.405734  1
  F  F24  1  0.272239  0.270839  0.253123  1
  F  F25  1  0.272404  0.503925  0.134590  1
  F  F26  1  0.545841  0.254849  0.987503  1
  F  F27  1  0.471794  0.754015  0.522745  1
  F  F28  1  0.566974  0.184878  0.826821  1
  F  F29  1  0.498954  0.727207  0.362548  1
  F  F30  1  0.501046  0.272793  0.637452  1
  F  F31  1  0.433026  0.815122  0.173179  1
  F  F32  1  0.528206  0.245985  0.477255  1
  F  F33  1  0.454159  0.745151  0.012497  1
  F  F34  1  0.727596  0.496075  0.865410  1
  F  F35  1  0.727761  0.729161  0.746877  1
  F  F36  1  0.654290  0.563379  0.594266  1
  F  F37  1  0.549868  0.190092  0.327195  1
  F  F38  1  0.506759  0.276443  0.141090  1
  F  F39  1  0.850116  0.313341  0.974903  1
  F  F40  1  0.774739  0.004297  0.887543  1
  F  F41  1  0.775681  0.774705  0.504496  1
  F  F42  1  0.680060  0.034072  0.579975  1
  F  F43  1  0.749043  0.032140  0.729630  1
  F  F44  1  0.821491  0.343310  0.734099  1
  F  F45  1  0.723766  0.491035  0.360434  1
  F  F46  1  0.725859  0.719813  0.248637  1
  F  F47  1  0.657600  0.534776  0.089952  1
  F  F48  1  0.949094  0.844001  0.656428  1
  F  F49  1  0.842996  0.309437  0.466502  1
  F  F50  1  0.773957  0.008076  0.385609  1
  F  F51  1  0.781482  0.776879  0.000844  1
  F  F52  1  0.974750  0.547630  0.631851  1
  F  F53  1  0.688109  0.065688  0.077261  1
  F  F54  1  0.754873  0.049218  0.237279  1
  F  F55  1  0.811153  0.345633  0.222497  1
  F  F56  1  0.997728  0.219499  0.610408  1
  F  F57  1  0.966874  0.843907  0.159925  1
  F  F58  1  0.961091  0.533859  0.121082  1
  F  F59  1  0.994541  0.229412  0.114865  1
  Yb  Yb60  1  0.319662  0.179751  0.874076  1
  Yb  Yb61  1  0.248176  0.680760  0.408317  1
  Yb  Yb62  1  0.751824  0.319240  0.591683  1
  Yb  Yb63  1  0.680338  0.820249  0.125924  1
  Zr  Zr64  1  0.248865  0.680954  0.911786  1
  Zr  Zr65  1  0.179226  0.747936  0.660314  1
  Zr  Zr66  1  0.249812  0.250267  0.626615  1
  Zr  Zr67  1  0.180369  0.749569  0.160240  1
  Zr  Zr68  1  0.320252  0.184135  0.375059  1
  Zr  Zr69  1  0.251533  0.249532  0.123244  1
  Zr  Zr70  1  0.748467  0.750468  0.876756  1
  Zr  Zr71  1  0.679748  0.815865  0.624941  1
  Zr  Zr72  1  0.819631  0.250431  0.839760  1
  Zr  Zr73  1  0.750188  0.749733  0.373385  1
  Zr  Zr74  1  0.820774  0.252064  0.339686  1
  Zr  Zr75  1  0.751135  0.319046  0.088214  1
