# generated using pymatgen
data_Na3H5(CO2)4
_symmetry_space_group_name_H-M   'P 1'
_cell_length_a   3.57252176
_cell_length_b   8.55516836
_cell_length_c   8.68436026
_cell_angle_alpha   66.34342951
_cell_angle_beta   86.83744298
_cell_angle_gamma   79.68787218
_symmetry_Int_Tables_number   1
_chemical_formula_structural   Na3H5(CO2)4
_chemical_formula_sum   'Na3 H5 C4 O8'
_cell_volume   239.15227673
_cell_formula_units_Z   1
loop_
 _symmetry_equiv_pos_site_id
 _symmetry_equiv_pos_as_xyz
  1  'x, y, z'
loop_
 _atom_site_type_symbol
 _atom_site_label
 _atom_site_symmetry_multiplicity
 _atom_site_fract_x
 _atom_site_fract_y
 _atom_site_fract_z
 _atom_site_occupancy
  Na  Na0  1  0.715693  0.536886  0.167237  1
  Na  Na1  1  0.000000  0.000000  0.000000  1
  Na  Na2  1  0.284307  0.463114  0.832763  1
  H  H3  1  0.082398  0.161003  0.616445  1
  H  H4  1  0.562931  0.862358  0.656214  1
  H  H5  1  0.917602  0.838997  0.383555  1
  H  H6  1  0.437069  0.137642  0.343786  1
  H  H7  1  0.500000  0.500000  0.500000  1
  C  C8  1  0.111138  0.725998  0.375717  1
  C  C9  1  0.388886  0.193966  0.204320  1
  C  C10  1  0.888862  0.274002  0.624283  1
  C  C11  1  0.611114  0.806034  0.795680  1
  O  O12  1  0.862492  0.293927  0.759806  1
  O  O13  1  0.137508  0.706073  0.240195  1
  O  O14  1  0.289019  0.357348  0.134361  1
  O  O15  1  0.559747  0.910196  0.867655  1
  O  O16  1  0.710981  0.642652  0.865639  1
  O  O17  1  0.294911  0.623749  0.513933  1
  O  O18  1  0.440253  0.089804  0.132345  1
  O  O19  1  0.705089  0.376251  0.486067  1
