# generated using pymatgen
data_Cs2Mn3Te4
_symmetry_space_group_name_H-M   'P 1'
_cell_length_a   6.66508997
_cell_length_b   10.71570150
_cell_length_c   10.71570150
_cell_angle_alpha   75.33804145
_cell_angle_beta   71.88070936
_cell_angle_gamma   71.88070937
_symmetry_Int_Tables_number   1
_chemical_formula_structural   Cs2Mn3Te4
_chemical_formula_sum   'Cs4 Mn6 Te8'
_cell_volume   680.86480404
_cell_formula_units_Z   2
loop_
 _symmetry_equiv_pos_site_id
 _symmetry_equiv_pos_as_xyz
  1  'x, y, z'
loop_
 _atom_site_type_symbol
 _atom_site_label
 _atom_site_symmetry_multiplicity
 _atom_site_fract_x
 _atom_site_fract_y
 _atom_site_fract_z
 _atom_site_occupancy
  Mn  Mn0  1  0.250000  0.513673  0.986327  1
  Mn  Mn1  1  0.250000  0.986327  0.513673  1
  Mn  Mn2  1  0.750000  0.486327  0.013673  1
  Mn  Mn3  1  0.750000  0.750000  0.750000  1
  Mn  Mn4  1  0.250000  0.250000  0.250000  1
  Mn  Mn5  1  0.750000  0.013673  0.486327  1
  Te  Te6  1  0.377973  0.219695  0.481022  1
  Te  Te7  1  0.578691  0.280305  0.018978  1
  Te  Te8  1  0.122027  0.018978  0.280305  1
  Te  Te9  1  0.921309  0.481022  0.219695  1
  Te  Te10  1  0.622027  0.780304  0.518978  1
  Te  Te11  1  0.421309  0.719696  0.981022  1
  Te  Te12  1  0.877973  0.981022  0.719696  1
  Te  Te13  1  0.078691  0.518978  0.780304  1
  Cs  Cs14  1  0.235866  0.123183  0.876817  1
  Cs  Cs15  1  0.735866  0.376817  0.623183  1
  Cs  Cs16  1  0.264134  0.623183  0.376817  1
  Cs  Cs17  1  0.764134  0.876817  0.123183  1
