# generated using pymatgen
data_KGa(PO3)4
_symmetry_space_group_name_H-M   'P 1'
_cell_length_a   5.22101792
_cell_length_b   10.52658030
_cell_length_c   10.52658084
_cell_angle_alpha   72.35620894
_cell_angle_beta   81.25249432
_cell_angle_gamma   81.25249095
_symmetry_Int_Tables_number   1
_chemical_formula_structural   KGa(PO3)4
_chemical_formula_sum   'K2 Ga2 P8 O24'
_cell_volume   541.44683673
_cell_formula_units_Z   2
loop_
 _symmetry_equiv_pos_site_id
 _symmetry_equiv_pos_as_xyz
  1  'x, y, z'
loop_
 _atom_site_type_symbol
 _atom_site_label
 _atom_site_symmetry_multiplicity
 _atom_site_fract_x
 _atom_site_fract_y
 _atom_site_fract_z
 _atom_site_occupancy
  K  K0  1  0.739738  0.407052  0.407052  1
  K  K1  1  0.260262  0.592948  0.592948  1
  Ga  Ga2  1  0.000000  0.000000  0.500000  1
  Ga  Ga3  1  0.000000  0.500000  0.000000  1
  P  P4  1  0.836150  0.354992  0.799345  1
  P  P5  1  0.533534  0.308842  0.068600  1
  P  P6  1  0.533534  0.068600  0.308842  1
  P  P7  1  0.163850  0.200655  0.645008  1
  P  P8  1  0.836150  0.799345  0.354992  1
  P  P9  1  0.466466  0.931400  0.691158  1
  P  P10  1  0.466466  0.691158  0.931400  1
  P  P11  1  0.163850  0.645008  0.200655  1
  O  O12  1  0.014198  0.849401  0.426797  1
  O  O13  1  0.698601  0.100390  0.399297  1
  O  O14  1  0.711069  0.677293  0.430327  1
  O  O15  1  0.985802  0.573203  0.150599  1
  O  O16  1  0.985802  0.150599  0.573203  1
  O  O17  1  0.757143  0.656724  0.912394  1
  O  O18  1  0.000000  0.784570  0.215430  1
  O  O19  1  0.288931  0.322707  0.569673  1
  O  O20  1  0.301399  0.899610  0.600703  1
  O  O21  1  0.378060  0.077358  0.708422  1
  O  O22  1  0.288931  0.569673  0.322707  1
  O  O23  1  0.301399  0.600703  0.899610  1
  O  O24  1  0.014198  0.426797  0.849401  1
  O  O25  1  0.378060  0.708422  0.077358  1
  O  O26  1  0.602456  0.157188  0.157188  1
  O  O27  1  0.698601  0.399297  0.100390  1
  O  O28  1  0.711069  0.430327  0.677293  1
  O  O29  1  0.621940  0.922642  0.291578  1
  O  O30  1  1.000000  0.215430  0.784570  1
  O  O31  1  0.242857  0.087606  0.343276  1
  O  O32  1  0.757143  0.912394  0.656724  1
  O  O33  1  0.397544  0.842812  0.842812  1
  O  O34  1  0.621940  0.291578  0.922642  1
  O  O35  1  0.242857  0.343276  0.087606  1
