# generated using pymatgen
data_Zr11Sb18
_symmetry_space_group_name_H-M   'P 1'
_cell_length_a   6.83833557
_cell_length_b   6.83833544
_cell_length_c   30.66115680
_cell_angle_alpha   96.40263224
_cell_angle_beta   96.40263212
_cell_angle_gamma   90.00000034
_symmetry_Int_Tables_number   1
_chemical_formula_structural   Zr11Sb18
_chemical_formula_sum   'Zr22 Sb36'
_cell_volume   1415.86022075
_cell_formula_units_Z   2
loop_
 _symmetry_equiv_pos_site_id
 _symmetry_equiv_pos_as_xyz
  1  'x, y, z'
loop_
 _atom_site_type_symbol
 _atom_site_label
 _atom_site_symmetry_multiplicity
 _atom_site_fract_x
 _atom_site_fract_y
 _atom_site_fract_z
 _atom_site_occupancy
  Sb  Sb0  1  0.115134  0.776393  0.915393  1
  Sb  Sb1  1  0.861000  0.884866  0.084607  1
  Sb  Sb2  1  0.223607  0.199742  0.084607  1
  Sb  Sb3  1  0.949742  0.473607  0.584607  1
  Sb  Sb4  1  0.634866  0.111000  0.584607  1
  Sb  Sb5  1  0.800258  0.139000  0.915393  1
  Sb  Sb6  1  0.889000  0.050258  0.415393  1
  Sb  Sb7  1  0.526393  0.365134  0.415393  1
  Sb  Sb8  1  0.900368  0.408335  0.138684  1
  Sb  Sb9  1  0.269651  0.099632  0.861316  1
  Sb  Sb10  1  0.591665  0.761684  0.861316  1
  Sb  Sb11  1  0.511684  0.841665  0.361316  1
  Sb  Sb12  1  0.849632  0.519651  0.361316  1
  Sb  Sb13  1  0.238316  0.730349  0.138684  1
  Sb  Sb14  1  0.480349  0.488316  0.638684  1
  Sb  Sb15  1  0.158335  0.150368  0.638684  1
  Sb  Sb16  1  0.198911  0.557191  0.807342  1
  Sb  Sb17  1  0.749849  0.801089  0.192658  1
  Sb  Sb18  1  0.442809  0.391569  0.192658  1
  Sb  Sb19  1  0.141569  0.692809  0.692658  1
  Sb  Sb20  1  0.551089  -0.000151  0.692658  1
  Sb  Sb21  1  0.608431  0.250151  0.807342  1
  Sb  Sb22  1  1.000151  0.858431  0.307342  1
  Sb  Sb23  1  0.307191  0.448911  0.307342  1
  Sb  Sb24  1  0.669577  0.239468  0.030018  1
  Sb  Sb25  1  0.209450  0.330423  0.969982  1
  Sb  Sb26  1  0.760532  0.639559  0.969982  1
  Sb  Sb27  1  0.389559  0.010532  0.469982  1
  Sb  Sb28  1  0.080423  0.459450  0.469982  1
  Sb  Sb29  1  0.360441  0.790550  0.030018  1
  Sb  Sb30  1  0.540550  0.610441  0.530018  1
  Sb  Sb31  1  0.989468  0.919577  0.530018  1
  Sb  Sb32  1  0.875000  0.282381  0.250000  1
  Sb  Sb33  1  0.032381  0.125000  0.750000  1
  Sb  Sb34  1  0.717619  0.625000  0.750000  1
  Sb  Sb35  1  0.375000  0.967619  0.250000  1
  Zr  Zr36  1  0.362913  0.362913  0.725825  1
  Zr  Zr37  1  0.637087  0.637087  0.274175  1
  Zr  Zr38  1  0.387087  0.887087  0.774175  1
  Zr  Zr39  1  0.112913  0.612913  0.225825  1
  Zr  Zr40  1  0.088939  0.088939  0.177878  1
  Zr  Zr41  1  0.911061  0.911061  0.822122  1
  Zr  Zr42  1  0.661061  0.161061  0.322122  1
  Zr  Zr43  1  0.838939  0.338939  0.677878  1
  Zr  Zr44  1  0.000000  0.000000  0.000000  1
  Zr  Zr45  1  0.750000  0.250000  0.500000  1
  Zr  Zr46  1  0.452173  0.452173  0.904345  1
  Zr  Zr47  1  0.547827  0.547827  0.095655  1
  Zr  Zr48  1  0.297827  0.797827  0.595655  1
  Zr  Zr49  1  0.202173  0.702173  0.404345  1
  Zr  Zr50  1  0.566751  0.066751  0.133503  1
  Zr  Zr51  1  0.933249  0.433249  0.866497  1
  Zr  Zr52  1  0.183249  0.183249  0.366497  1
  Zr  Zr53  1  0.816751  0.816751  0.633503  1
  Zr  Zr54  1  0.273981  0.273981  0.547961  1
  Zr  Zr55  1  0.726019  0.726019  0.452039  1
  Zr  Zr56  1  0.476019  0.976019  0.952039  1
  Zr  Zr57  1  0.023981  0.523981  0.047961  1
