# generated using pymatgen
data_Zr(SeCl6)2
_symmetry_space_group_name_H-M   'P 1'
_cell_length_a   9.10645012
_cell_length_b   9.10644930
_cell_length_c   12.98667777
_cell_angle_alpha   109.37554955
_cell_angle_beta   109.37554799
_cell_angle_gamma   93.08172530
_symmetry_Int_Tables_number   1
_chemical_formula_structural   Zr(SeCl6)2
_chemical_formula_sum   'Zr2 Se4 Cl24'
_cell_volume   942.03932203
_cell_formula_units_Z   2
loop_
 _symmetry_equiv_pos_site_id
 _symmetry_equiv_pos_as_xyz
  1  'x, y, z'
loop_
 _atom_site_type_symbol
 _atom_site_label
 _atom_site_symmetry_multiplicity
 _atom_site_fract_x
 _atom_site_fract_y
 _atom_site_fract_z
 _atom_site_occupancy
  Zr  Zr0  1  0.123324  0.623324  0.246648  1
  Zr  Zr1  1  0.873324  0.873324  0.746648  1
  Se  Se2  1  0.675688  0.223210  0.910926  1
  Se  Se3  1  0.937716  0.985238  0.410926  1
  Se  Se4  1  0.473210  0.425688  0.410926  1
  Se  Se5  1  0.235238  0.687716  0.910926  1
  Cl  Cl6  1  0.103381  0.741452  0.097683  1
  Cl  Cl7  1  0.314426  0.659792  0.764593  1
  Cl  Cl8  1  0.711715  0.418850  0.404224  1
  Cl  Cl9  1  0.146706  0.976472  0.904688  1
  Cl  Cl10  1  0.922656  0.608367  0.754812  1
  Cl  Cl11  1  0.450167  0.104801  0.764593  1
  Cl  Cl12  1  0.470232  0.799220  0.052200  1
  Cl  Cl13  1  0.858367  0.672656  0.254812  1
  Cl  Cl14  1  0.692509  0.985374  0.404224  1
  Cl  Cl15  1  0.606231  0.744302  0.597683  1
  Cl  Cl16  1  0.396446  0.582156  0.254812  1
  Cl  Cl17  1  0.994302  0.356231  0.097683  1
  Cl  Cl18  1  0.757982  0.928216  0.904688  1
  Cl  Cl19  1  0.502980  0.331967  0.552200  1
  Cl  Cl20  1  0.581967  0.252980  0.052200  1
  Cl  Cl21  1  0.832156  0.146446  0.754812  1
  Cl  Cl22  1  0.991452  0.853381  0.597683  1
  Cl  Cl23  1  0.226472  0.896706  0.404688  1
  Cl  Cl24  1  0.354801  0.200167  0.264593  1
  Cl  Cl25  1  0.668850  0.461715  0.904224  1
  Cl  Cl26  1  0.049220  0.220232  0.552200  1
  Cl  Cl27  1  0.178216  0.507982  0.404688  1
  Cl  Cl28  1  0.235374  0.442509  0.904224  1
  Cl  Cl29  1  0.909792  0.064426  0.264593  1
