# generated using pymatgen
data_Na3Si3SnO9F
_symmetry_space_group_name_H-M   'P 1'
_cell_length_a   6.60520764
_cell_length_b   8.87128094
_cell_length_c   8.87128138
_cell_angle_alpha   105.93828700
_cell_angle_beta   102.83980875
_cell_angle_gamma   102.83981655
_symmetry_Int_Tables_number   1
_chemical_formula_structural   Na3Si3SnO9F
_chemical_formula_sum   'Na6 Si6 Sn2 O18 F2'
_cell_volume   464.57067929
_cell_formula_units_Z   2
loop_
 _symmetry_equiv_pos_site_id
 _symmetry_equiv_pos_as_xyz
  1  'x, y, z'
loop_
 _atom_site_type_symbol
 _atom_site_label
 _atom_site_symmetry_multiplicity
 _atom_site_fract_x
 _atom_site_fract_y
 _atom_site_fract_z
 _atom_site_occupancy
  Na  Na0  1  0.737296  0.489511  0.489511  1
  Na  Na1  1  0.081816  0.606213  0.877198  1
  Na  Na2  1  0.081816  0.877198  0.606213  1
  Na  Na3  1  0.262704  0.510489  0.510489  1
  Na  Na4  1  0.918184  0.393787  0.122802  1
  Na  Na5  1  0.918184  0.122802  0.393787  1
  Si  Si6  1  0.396530  0.091738  0.312741  1
  Si  Si7  1  0.603470  0.687259  0.908262  1
  Si  Si8  1  0.603470  0.908262  0.687259  1
  Si  Si9  1  0.000000  0.786236  0.213764  1
  Si  Si10  1  1.000000  0.213764  0.786236  1
  Si  Si11  1  0.396530  0.312741  0.091738  1
  Sn  Sn12  1  0.500000  0.724546  0.275454  1
  Sn  Sn13  1  0.500000  0.275454  0.724546  1
  O  O14  1  0.160955  0.226481  0.672582  1
  O  O15  1  0.860991  0.017017  0.725452  1
  O  O16  1  0.860991  0.725452  0.017017  1
  O  O17  1  0.139009  0.982983  0.274548  1
  O  O18  1  0.553712  0.975016  0.323952  1
  O  O19  1  0.839045  0.327418  0.773519  1
  O  O20  1  0.538259  0.749164  0.520718  1
  O  O21  1  0.538259  0.520718  0.749164  1
  O  O22  1  0.461741  0.479282  0.250836  1
  O  O23  1  0.160955  0.672582  0.226481  1
  O  O24  1  0.446288  0.024984  0.676048  1
  O  O25  1  0.593511  0.840806  0.840806  1
  O  O26  1  0.446288  0.676048  0.024984  1
  O  O27  1  0.461741  0.250836  0.479282  1
  O  O28  1  0.553712  0.323952  0.975016  1
  O  O29  1  0.839045  0.773519  0.327418  1
  O  O30  1  0.139009  0.274548  0.982983  1
  O  O31  1  0.406490  0.159194  0.159194  1
  F  F32  1  0.068844  0.649074  0.649074  1
  F  F33  1  0.931156  0.350926  0.350926  1
