# generated using pymatgen
data_K2Ag2SnSe4
_symmetry_space_group_name_H-M   'P 1'
_cell_length_a   6.01734900
_cell_length_b   7.69126712
_cell_length_c   11.71738359
_cell_angle_alpha   103.06797721
_cell_angle_beta   90.00000000
_cell_angle_gamma   90.00000000
_symmetry_Int_Tables_number   1
_chemical_formula_structural   K2Ag2SnSe4
_chemical_formula_sum   'K4 Ag4 Sn2 Se8'
_cell_volume   528.24865185
_cell_formula_units_Z   2
loop_
 _symmetry_equiv_pos_site_id
 _symmetry_equiv_pos_as_xyz
  1  'x, y, z'
loop_
 _atom_site_type_symbol
 _atom_site_label
 _atom_site_symmetry_multiplicity
 _atom_site_fract_x
 _atom_site_fract_y
 _atom_site_fract_z
 _atom_site_occupancy
  K  K0  1  0.478423  0.750000  0.750000  1
  K  K1  1  0.000000  0.000000  0.000000  1
  K  K2  1  0.521577  0.250000  0.250000  1
  K  K3  1  0.000000  0.500000  0.500000  1
  Ag  Ag4  1  0.249973  0.467189  0.968138  1
  Ag  Ag5  1  0.750027  0.967189  0.468138  1
  Ag  Ag6  1  0.750027  0.532811  0.031862  1
  Ag  Ag7  1  0.249973  0.032811  0.531862  1
  Sn  Sn8  1  0.750797  0.250000  0.750000  1
  Sn  Sn9  1  0.249203  0.750000  0.250000  1
  Se  Se10  1  0.969125  0.955402  0.688606  1
  Se  Se11  1  0.470187  0.806911  0.073581  1
  Se  Se12  1  0.529813  0.193089  0.926419  1
  Se  Se13  1  0.470187  0.693089  0.426419  1
  Se  Se14  1  0.969125  0.544598  0.811394  1
  Se  Se15  1  0.529813  0.306911  0.573581  1
  Se  Se16  1  0.030875  0.455402  0.188606  1
  Se  Se17  1  0.030875  0.044598  0.311394  1
