# generated using pymatgen
data_Nb2Cr4Si5
_symmetry_space_group_name_H-M   'P 1'
_cell_length_a   5.13569217
_cell_length_b   7.46912370
_cell_length_c   9.33283461
_cell_angle_alpha   113.58752646
_cell_angle_beta   105.98715205
_cell_angle_gamma   89.99742229
_symmetry_Int_Tables_number   1
_chemical_formula_structural   Nb2Cr4Si5
_chemical_formula_sum   'Nb4 Cr8 Si10'
_cell_volume   312.92358335
_cell_formula_units_Z   2
loop_
 _symmetry_equiv_pos_site_id
 _symmetry_equiv_pos_as_xyz
  1  'x, y, z'
loop_
 _atom_site_type_symbol
 _atom_site_label
 _atom_site_symmetry_multiplicity
 _atom_site_fract_x
 _atom_site_fract_y
 _atom_site_fract_z
 _atom_site_occupancy
  Nb  Nb0  1  0.059381  0.309261  0.618832  1
  Nb  Nb1  1  0.940619  0.690739  0.381168  1
  Nb  Nb2  1  0.440404  0.690699  0.381233  1
  Nb  Nb3  1  0.559596  0.309301  0.618767  1
  Cr  Cr4  1  0.439959  0.690762  0.880880  1
  Cr  Cr5  1  0.560041  0.309238  0.119120  1
  Cr  Cr6  1  0.359754  0.980081  0.719363  1
  Cr  Cr7  1  0.059788  0.810018  0.119428  1
  Cr  Cr8  1  0.640246  0.019919  0.280637  1
  Cr  Cr9  1  0.859241  0.739127  0.719008  1
  Cr  Cr10  1  0.140759  0.260873  0.280992  1
  Cr  Cr11  1  0.940212  0.189982  0.880572  1
  Si  Si12  1  0.060097  0.470169  0.120020  1
  Si  Si13  1  0.298052  0.607202  0.595991  1
  Si  Si14  1  0.202264  0.011140  0.404207  1
  Si  Si15  1  0.797736  0.988860  0.595793  1
  Si  Si16  1  0.939903  0.529831  0.879980  1
  Si  Si17  1  0.250480  0.000005  0.999921  1
  Si  Si18  1  0.560028  0.649559  0.119864  1
  Si  Si19  1  0.439972  0.350441  0.880136  1
  Si  Si20  1  0.749520  0.999995  0.000079  1
  Si  Si21  1  0.701948  0.392798  0.404009  1
