# generated using pymatgen
data_C(SN)2
_symmetry_space_group_name_H-M   'P 1'
_cell_length_a   7.11877563
_cell_length_b   8.61725967
_cell_length_c   12.12269827
_cell_angle_alpha   90.00000000
_cell_angle_beta   90.00000000
_cell_angle_gamma   106.46925226
_symmetry_Int_Tables_number   1
_chemical_formula_structural   C(SN)2
_chemical_formula_sum   'C8 S16 N16'
_cell_volume   713.14807458
_cell_formula_units_Z   8
loop_
 _symmetry_equiv_pos_site_id
 _symmetry_equiv_pos_as_xyz
  1  'x, y, z'
loop_
 _atom_site_type_symbol
 _atom_site_label
 _atom_site_symmetry_multiplicity
 _atom_site_fract_x
 _atom_site_fract_y
 _atom_site_fract_z
 _atom_site_occupancy
  C  C0  1  0.766879  0.076991  0.029161  1
  C  C1  1  0.233121  0.923009  0.970839  1
  C  C2  1  0.733121  0.423009  0.529161  1
  C  C3  1  0.289880  0.055663  0.051485  1
  C  C4  1  0.789880  0.555663  0.448515  1
  C  C5  1  0.710120  0.944337  0.948515  1
  C  C6  1  0.266879  0.576991  0.470839  1
  C  C7  1  0.210120  0.444337  0.551485  1
  S  S8  1  0.789203  0.174391  0.225610  1
  S  S9  1  0.210797  0.825609  0.774390  1
  S  S10  1  0.857704  0.361073  0.099875  1
  S  S11  1  0.642296  0.138927  0.599875  1
  S  S12  1  0.124694  0.246233  0.499824  1
  S  S13  1  0.375306  0.253767  -0.000176  1
  S  S14  1  0.115729  0.285351  0.721643  1
  S  S15  1  0.884271  0.714649  0.278357  1
  S  S16  1  0.615729  0.785351  0.778357  1
  S  S17  1  0.289203  0.674391  0.274390  1
  S  S18  1  0.710797  0.325609  0.725610  1
  S  S19  1  0.624694  0.746233  1.000176  1
  S  S20  1  0.875306  0.753767  0.500176  1
  S  S21  1  0.384271  0.214649  0.221643  1
  S  S22  1  0.357704  0.861073  0.400125  1
  S  S23  1  0.142296  0.638927  0.900125  1
  N  N24  1  0.925230  0.845315  0.379299  1
  N  N25  1  0.310570  0.731660  0.502588  1
  N  N26  1  0.740603  0.470090  0.635096  1
  N  N27  1  0.574770  0.654685  0.879299  1
  N  N28  1  0.759397  0.029910  0.135096  1
  N  N29  1  0.240603  0.970090  0.864904  1
  N  N30  1  0.259397  0.529910  0.364904  1
  N  N31  1  0.689430  0.268340  0.497412  1
  N  N32  1  0.189430  0.768340  0.002588  1
  N  N33  1  0.204865  0.460877  0.658309  1
  N  N34  1  0.704865  0.960877  0.841691  1
  N  N35  1  0.295135  0.039123  0.158309  1
  N  N36  1  0.795135  0.539123  0.341691  1
  N  N37  1  0.074770  0.154685  0.620701  1
  N  N38  1  0.425230  0.345315  0.120701  1
  N  N39  1  0.810570  0.231660  0.997412  1
