# generated using pymatgen
data_KCr2FeO8
_symmetry_space_group_name_H-M   'P 1'
_cell_length_a   5.12206674
_cell_length_b   5.12206709
_cell_length_c   7.82138873
_cell_angle_alpha   86.26540740
_cell_angle_beta   86.26540714
_cell_angle_gamma   64.52868351
_symmetry_Int_Tables_number   1
_chemical_formula_structural   KCr2FeO8
_chemical_formula_sum   'K1 Cr2 Fe1 O8'
_cell_volume   184.70302024
_cell_formula_units_Z   1
loop_
 _symmetry_equiv_pos_site_id
 _symmetry_equiv_pos_as_xyz
  1  'x, y, z'
loop_
 _atom_site_type_symbol
 _atom_site_label
 _atom_site_symmetry_multiplicity
 _atom_site_fract_x
 _atom_site_fract_y
 _atom_site_fract_z
 _atom_site_occupancy
  K  K0  1  0.000000  0.000000  0.000000  1
  Cr  Cr1  1  0.371422  0.371422  0.300553  1
  Cr  Cr2  1  0.628578  0.628578  0.699447  1
  Fe  Fe3  1  0.000000  0.000000  0.500000  1
  O  O4  1  0.315936  0.315936  0.106978  1
  O  O5  1  0.734811  0.226493  0.323048  1
  O  O6  1  0.265189  0.773507  0.676952  1
  O  O7  1  0.226493  0.734811  0.323048  1
  O  O8  1  0.221550  0.221550  0.445571  1
  O  O9  1  0.778450  0.778450  0.554429  1
  O  O10  1  0.773507  0.265189  0.676952  1
  O  O11  1  0.684064  0.684064  0.893022  1
