# generated using pymatgen
data_Y8Co5
_symmetry_space_group_name_H-M   'P 1'
_cell_length_a   7.05375675
_cell_length_b   7.18653677
_cell_length_c   23.71279199
_cell_angle_alpha   90.00000000
_cell_angle_beta   94.83043169
_cell_angle_gamma   90.00000000
_symmetry_Int_Tables_number   1
_chemical_formula_structural   Y8Co5
_chemical_formula_sum   'Y32 Co20'
_cell_volume   1197.78144758
_cell_formula_units_Z   4
loop_
 _symmetry_equiv_pos_site_id
 _symmetry_equiv_pos_as_xyz
  1  'x, y, z'
loop_
 _atom_site_type_symbol
 _atom_site_label
 _atom_site_symmetry_multiplicity
 _atom_site_fract_x
 _atom_site_fract_y
 _atom_site_fract_z
 _atom_site_occupancy
  Y  Y0  1  0.728358  0.957109  0.415409  1
  Y  Y1  1  0.983139  0.813983  0.297952  1
  Y  Y2  1  0.606546  0.184784  0.962435  1
  Y  Y3  1  0.165675  0.684910  0.165559  1
  Y  Y4  1  0.106546  0.315216  0.462435  1
  Y  Y5  1  0.075604  0.025098  0.935573  1
  Y  Y6  1  0.851691  0.330003  0.322896  1
  Y  Y7  1  0.516141  0.315440  0.696138  1
  Y  Y8  1  0.983859  0.815440  0.803862  1
  Y  Y9  1  0.227436  0.833878  0.441308  1
  Y  Y10  1  0.772564  0.166122  0.558692  1
  Y  Y11  1  0.016141  0.184560  0.196138  1
  Y  Y12  1  0.516861  0.313983  0.202048  1
  Y  Y13  1  0.834325  0.315090  0.834441  1
  Y  Y14  1  0.771642  0.457109  0.084591  1
  Y  Y15  1  0.148309  0.669997  0.677104  1
  Y  Y16  1  0.393454  0.815216  0.037565  1
  Y  Y17  1  0.575604  0.474902  0.435573  1
  Y  Y18  1  0.351691  0.169997  0.822896  1
  Y  Y19  1  0.727436  0.666122  0.941308  1
  Y  Y20  1  0.665675  0.815090  0.665559  1
  Y  Y21  1  0.483859  0.684560  0.303862  1
  Y  Y22  1  0.272564  0.333878  0.058692  1
  Y  Y23  1  0.483139  0.686017  0.797952  1
  Y  Y24  1  0.334325  0.184910  0.334441  1
  Y  Y25  1  0.228358  0.542891  0.915409  1
  Y  Y26  1  0.016861  0.186017  0.702048  1
  Y  Y27  1  0.648309  0.830003  0.177104  1
  Y  Y28  1  0.271642  0.042891  0.584591  1
  Y  Y29  1  0.893454  0.684784  0.537565  1
  Y  Y30  1  0.424396  0.525098  0.564427  1
  Y  Y31  1  0.924396  0.974902  0.064427  1
  Co  Co32  1  0.301185  0.031141  0.132323  1
  Co  Co33  1  0.140949  0.471232  0.782727  1
  Co  Co34  1  0.801185  0.468859  0.632323  1
  Co  Co35  1  0.830920  0.527125  0.734765  1
  Co  Co36  1  0.457467  0.147182  0.483600  1
  Co  Co37  1  0.911520  0.614139  0.404132  1
  Co  Co38  1  0.957467  0.352818  0.983600  1
  Co  Co39  1  0.359051  0.971232  0.717273  1
  Co  Co40  1  0.542533  0.852818  0.516400  1
  Co  Co41  1  0.169080  0.472875  0.265235  1
  Co  Co42  1  0.088480  0.385861  0.595868  1
  Co  Co43  1  0.198815  0.531141  0.367677  1
  Co  Co44  1  0.042533  0.647182  0.016400  1
  Co  Co45  1  0.640949  0.028768  0.282727  1
  Co  Co46  1  0.698815  0.968859  0.867677  1
  Co  Co47  1  0.669080  0.027125  0.765235  1
  Co  Co48  1  0.411520  0.885861  0.904132  1
  Co  Co49  1  0.588480  0.114139  0.095868  1
  Co  Co50  1  0.859051  0.528768  0.217273  1
  Co  Co51  1  0.330920  0.972875  0.234765  1
