# generated using pymatgen
data_Ca5V3O12F
_symmetry_space_group_name_H-M   'P 1'
_cell_length_a   7.02957799
_cell_length_b   9.85744681
_cell_length_c   9.87573684
_cell_angle_alpha   119.86777277
_cell_angle_beta   90.68521091
_cell_angle_gamma   90.20299771
_symmetry_Int_Tables_number   1
_chemical_formula_structural   Ca5V3O12F
_chemical_formula_sum   'Ca10 V6 O24 F2'
_cell_volume   593.35395083
_cell_formula_units_Z   2
loop_
 _symmetry_equiv_pos_site_id
 _symmetry_equiv_pos_as_xyz
  1  'x, y, z'
loop_
 _atom_site_type_symbol
 _atom_site_label
 _atom_site_symmetry_multiplicity
 _atom_site_fract_x
 _atom_site_fract_y
 _atom_site_fract_z
 _atom_site_occupancy
  Ca  Ca0  1  0.756062  0.765833  0.004211  1
  Ca  Ca1  1  0.997309  0.335471  0.684955  1
  Ca  Ca2  1  0.248744  0.755800  0.761285  1
  Ca  Ca3  1  0.502553  0.335352  0.653883  1
  Ca  Ca4  1  0.751256  0.244200  0.238715  1
  Ca  Ca5  1  0.243938  0.234167  0.995789  1
  Ca  Ca6  1  0.256950  0.004176  0.244637  1
  Ca  Ca7  1  0.497447  0.664648  0.346117  1
  Ca  Ca8  1  0.002691  0.664529  0.315045  1
  Ca  Ca9  1  0.743050  0.995824  0.755363  1
  V  V10  1  0.758015  0.974218  0.369461  1
  V  V11  1  0.263608  0.601154  0.972732  1
  V  V12  1  0.754988  0.629159  0.602128  1
  V  V13  1  0.736392  0.398846  0.027268  1
  V  V14  1  0.245012  0.370841  0.397872  1
  V  V15  1  0.241985  0.025782  0.630539  1
  O  O16  1  0.733851  0.870673  0.470758  1
  O  O17  1  0.956584  0.900385  0.252173  1
  O  O18  1  0.223021  0.470061  0.602229  1
  O  O19  1  0.552195  0.331461  0.094418  1
  O  O20  1  0.264904  0.395452  0.870845  1
  O  O21  1  0.230391  0.824929  0.508161  1
  O  O22  1  0.453560  0.264955  0.358866  1
  O  O23  1  0.426714  0.070771  0.763764  1
  O  O24  1  0.270207  0.684692  0.174519  1
  O  O25  1  0.546440  0.735045  0.641134  1
  O  O26  1  0.266149  0.129327  0.529242  1
  O  O27  1  0.247536  0.492906  0.318629  1
  O  O28  1  0.729793  0.315308  0.825481  1
  O  O29  1  0.735096  0.604548  0.129155  1
  O  O30  1  0.931720  0.770093  0.692352  1
  O  O31  1  0.776979  0.529939  0.397771  1
  O  O32  1  0.059637  0.657584  0.915098  1
  O  O33  1  0.068280  0.229907  0.307648  1
  O  O34  1  0.573286  0.929229  0.236236  1
  O  O35  1  0.752464  0.507094  0.681371  1
  O  O36  1  0.043416  0.099615  0.747827  1
  O  O37  1  0.940363  0.342416  0.084902  1
  O  O38  1  0.769609  0.175071  0.491839  1
  O  O39  1  0.447805  0.668539  0.905582  1
  F  F40  1  0.249204  0.995438  0.000706  1
  F  F41  1  0.750796  0.004562  0.999294  1
