# generated using pymatgen
data_K2LaNb5O15
_symmetry_space_group_name_H-M   'P 1'
_cell_length_a   3.97715728
_cell_length_b   12.80774979
_cell_length_c   12.80774979
_cell_angle_alpha   90.00000000
_cell_angle_beta   90.00000000
_cell_angle_gamma   90.00000000
_symmetry_Int_Tables_number   1
_chemical_formula_structural   K2LaNb5O15
_chemical_formula_sum   'K4 La2 Nb10 O30'
_cell_volume   652.40673424
_cell_formula_units_Z   2
loop_
 _symmetry_equiv_pos_site_id
 _symmetry_equiv_pos_as_xyz
  1  'x, y, z'
loop_
 _atom_site_type_symbol
 _atom_site_label
 _atom_site_symmetry_multiplicity
 _atom_site_fract_x
 _atom_site_fract_y
 _atom_site_fract_z
 _atom_site_occupancy
  K  K0  1  0.500000  0.171118  0.671118  1
  K  K1  1  0.500000  0.828882  0.328882  1
  K  K2  1  0.500000  0.671118  0.828882  1
  K  K3  1  0.500000  0.328882  0.171118  1
  La  La4  1  0.500000  0.500000  0.500000  1
  La  La5  1  0.500000  0.000000  0.000000  1
  Nb  Nb6  1  0.000000  0.424328  0.714043  1
  Nb  Nb7  1  0.000000  0.285957  0.424328  1
  Nb  Nb8  1  0.000000  0.500000  0.000000  1
  Nb  Nb9  1  0.000000  0.714043  0.575672  1
  Nb  Nb10  1  0.000000  0.924328  0.785957  1
  Nb  Nb11  1  0.000000  0.075672  0.214043  1
  Nb  Nb12  1  0.000000  0.214043  0.924328  1
  Nb  Nb13  1  0.000000  0.575672  0.285957  1
  Nb  Nb14  1  0.000000  0.785957  0.075672  1
  Nb  Nb15  1  0.000000  0.000000  0.500000  1
  O  O16  1  0.000000  0.561042  0.632775  1
  O  O17  1  0.000000  0.061042  0.867225  1
  O  O18  1  0.500000  0.307131  0.423171  1
  O  O19  1  0.000000  0.367225  0.561042  1
  O  O20  1  0.000000  0.715081  0.215081  1
  O  O21  1  0.000000  0.157112  0.501602  1
  O  O22  1  0.000000  0.498398  0.157112  1
  O  O23  1  0.000000  0.001602  0.657112  1
  O  O24  1  0.000000  0.215081  0.284919  1
  O  O25  1  0.000000  0.501602  0.842888  1
  O  O26  1  0.000000  0.998398  0.342888  1
  O  O27  1  0.000000  0.938958  0.132775  1
  O  O28  1  0.000000  0.438958  0.367225  1
  O  O29  1  0.500000  0.076829  0.192869  1
  O  O30  1  0.000000  0.784919  0.715081  1
  O  O31  1  0.000000  0.657112  0.998398  1
  O  O32  1  0.500000  0.692869  0.576829  1
  O  O33  1  0.500000  0.423171  0.692869  1
  O  O34  1  0.500000  0.500000  0.000000  1
  O  O35  1  0.000000  0.132775  0.061042  1
  O  O36  1  0.500000  0.807131  0.076829  1
  O  O37  1  0.500000  0.192869  0.923171  1
  O  O38  1  0.500000  0.576829  0.307131  1
  O  O39  1  0.000000  0.632775  0.438958  1
  O  O40  1  0.000000  0.342888  0.001602  1
  O  O41  1  0.000000  0.284919  0.784919  1
  O  O42  1  0.500000  0.923171  0.807131  1
  O  O43  1  0.000000  0.867225  0.938958  1
  O  O44  1  0.500000  0.000000  0.500000  1
  O  O45  1  0.000000  0.842888  0.498398  1
