# generated using pymatgen
data_Na3Ce(PO4)2
_symmetry_space_group_name_H-M   'P 1'
_cell_length_a   5.40932524
_cell_length_b   14.18686302
_cell_length_c   18.85947930
_cell_angle_alpha   90.00000000
_cell_angle_beta   90.00000000
_cell_angle_gamma   90.00000000
_symmetry_Int_Tables_number   1
_chemical_formula_structural   Na3Ce(PO4)2
_chemical_formula_sum   'Na24 Ce8 P16 O64'
_cell_volume   1447.30201891
_cell_formula_units_Z   8
loop_
 _symmetry_equiv_pos_site_id
 _symmetry_equiv_pos_as_xyz
  1  'x, y, z'
loop_
 _atom_site_type_symbol
 _atom_site_label
 _atom_site_symmetry_multiplicity
 _atom_site_fract_x
 _atom_site_fract_y
 _atom_site_fract_z
 _atom_site_occupancy
  Na  Na0  1  -0.001664  0.953260  0.426620  1
  Na  Na1  1  0.498729  0.615518  0.026297  1
  Na  Na2  1  0.008713  0.720093  0.083571  1
  Na  Na3  1  0.501271  0.384482  0.526297  1
  Na  Na4  1  0.471206  0.470953  0.187462  1
  Na  Na5  1  0.008713  0.779907  0.583571  1
  Na  Na6  1  0.991287  0.220093  0.083571  1
  Na  Na7  1  0.991287  0.279907  0.583571  1
  Na  Na8  1  0.481865  0.796356  0.345928  1
  Na  Na9  1  1.001664  0.453260  0.426620  1
  Na  Na10  1  0.987941  0.635438  0.747742  1
  Na  Na11  1  0.501271  0.115518  0.026297  1
  Na  Na12  1  0.012059  0.135438  0.747742  1
  Na  Na13  1  -0.001664  0.546740  0.926620  1
  Na  Na14  1  0.471206  0.029047  0.687462  1
  Na  Na15  1  0.528794  0.529047  0.687462  1
  Na  Na16  1  0.518135  0.203644  0.845928  1
  Na  Na17  1  0.518135  0.296356  0.345928  1
  Na  Na18  1  0.012059  0.364562  0.247743  1
  Na  Na19  1  0.987941  0.864562  0.247743  1
  Na  Na20  1  0.528794  0.970953  0.187462  1
  Na  Na21  1  0.498729  0.884482  0.526297  1
  Na  Na22  1  0.481865  0.703644  0.845928  1
  Na  Na23  1  1.001664  0.046740  0.926620  1
  Ce  Ce24  1  0.939631  0.885561  0.773585  1
  Ce  Ce25  1  0.460702  0.365004  1.000309  1
  Ce  Ce26  1  0.539298  0.865004  1.000309  1
  Ce  Ce27  1  0.539298  0.634996  0.500309  1
  Ce  Ce28  1  0.060369  0.114439  0.273585  1
  Ce  Ce29  1  0.939631  0.614439  0.273585  1
  Ce  Ce30  1  0.060369  0.385561  0.773585  1
  Ce  Ce31  1  0.460702  0.134996  0.500309  1
  P  P32  1  0.020961  0.979130  0.094708  1
  P  P33  1  0.462065  0.730165  0.178988  1
  P  P34  1  0.537935  0.269835  0.678988  1
  P  P35  1  0.979039  0.020870  0.594708  1
  P  P36  1  1.004184  0.770638  0.922367  1
  P  P37  1  -0.004184  0.229362  0.422367  1
  P  P38  1  0.476954  0.980098  0.851111  1
  P  P39  1  0.537935  0.230165  0.178988  1
  P  P40  1  0.979039  0.479130  0.094708  1
  P  P41  1  0.462065  0.769835  0.678988  1
  P  P42  1  -0.004184  0.270638  0.922367  1
  P  P43  1  0.523046  0.019902  0.351111  1
  P  P44  1  0.523046  0.480098  0.851111  1
  P  P45  1  1.004184  0.729362  0.422367  1
  P  P46  1  0.476954  0.519902  0.351111  1
  P  P47  1  0.020961  0.520870  0.594708  1
  O  O48  1  0.532379  0.248090  0.597854  1
  O  O49  1  0.604938  0.864161  0.691079  1
  O  O50  1  0.969769  0.879303  0.922790  1
  O  O51  1  0.998904  0.764096  0.344116  1
  O  O52  1  0.010252  0.000100  0.675525  1
  O  O53  1  0.525468  0.986546  0.429854  1
  O  O54  1  0.116736  0.384470  0.079347  1
  O  O55  1  0.697459  0.472388  0.311646  1
  O  O56  1  0.747979  0.241297  0.957451  1
  O  O57  1  0.989748  0.999900  0.175525  1
  O  O58  1  0.696879  0.032451  0.577395  1
  O  O59  1  0.474532  0.486546  0.429854  1
  O  O60  1  0.001096  0.235904  0.844116  1
  O  O61  1  0.883264  0.615530  0.579347  1
  O  O62  1  0.030231  0.379303  0.922790  1
  O  O63  1  0.817016  0.217508  0.200195  1
  O  O64  1  0.091073  0.558892  0.049135  1
  O  O65  1  0.786817  0.724319  0.964135  1
  O  O66  1  0.231619  0.491051  0.314471  1
  O  O67  1  0.252021  0.741297  0.957451  1
  O  O68  1  0.213183  0.224319  0.964135  1
  O  O69  1  0.182984  0.782492  0.700195  1
  O  O70  1  0.467621  0.748090  0.597854  1
  O  O71  1  0.786817  0.775681  0.464135  1
  O  O72  1  0.182984  0.717508  0.200195  1
  O  O73  1  0.486969  0.371474  0.849529  1
  O  O74  1  0.747979  0.258703  0.457451  1
  O  O75  1  0.231619  0.008949  0.814471  1
  O  O76  1  0.604938  0.635839  0.191079  1
  O  O77  1  0.421916  0.190499  0.723791  1
  O  O78  1  0.303121  0.532451  0.577395  1
  O  O79  1  0.697459  0.027612  0.811646  1
  O  O80  1  0.696879  0.467549  0.077395  1
  O  O81  1  0.998904  0.735904  0.844116  1
  O  O82  1  0.010252  0.499900  0.175525  1
  O  O83  1  0.883264  0.884470  0.079347  1
  O  O84  1  0.252021  0.758703  0.457451  1
  O  O85  1  0.513031  0.871474  0.849529  1
  O  O86  1  0.578084  0.690500  0.723791  1
  O  O87  1  0.213183  0.275681  0.464135  1
  O  O88  1  0.421916  0.309501  0.223791  1
  O  O89  1  0.001096  0.264096  0.344116  1
  O  O90  1  0.969769  0.620697  0.422790  1
  O  O91  1  0.303121  0.967549  0.077395  1
  O  O92  1  0.474532  0.013454  0.929854  1
  O  O93  1  0.486969  0.128526  0.349529  1
  O  O94  1  0.908927  0.058892  0.049135  1
  O  O95  1  0.513031  0.628526  0.349529  1
  O  O96  1  0.467621  0.751910  0.097854  1
  O  O97  1  0.525468  0.513454  0.929854  1
  O  O98  1  0.091073  0.941108  0.549135  1
  O  O99  1  0.302541  0.527612  0.811646  1
  O  O100  1  0.532379  0.251910  0.097854  1
  O  O101  1  0.395062  0.135839  0.191079  1
  O  O102  1  0.030231  0.120697  0.422790  1
  O  O103  1  0.395062  0.364161  0.691079  1
  O  O104  1  0.817016  0.282492  0.700195  1
  O  O105  1  0.908927  0.441108  0.549135  1
  O  O106  1  0.578084  0.809500  0.223791  1
  O  O107  1  0.768381  0.508949  0.814471  1
  O  O108  1  0.302541  0.972388  0.311646  1
  O  O109  1  0.989748  0.500100  0.675525  1
  O  O110  1  0.768381  0.991051  0.314471  1
  O  O111  1  0.116736  0.115530  0.579347  1
