# generated using pymatgen
data_TiS2
_symmetry_space_group_name_H-M   'P 1'
_cell_length_a   7.45331713
_cell_length_b   7.45331727
_cell_length_c   7.45331703
_cell_angle_alpha   26.58255188
_cell_angle_beta   26.58255760
_cell_angle_gamma   26.58255825
_symmetry_Int_Tables_number   1
_chemical_formula_structural   TiS2
_chemical_formula_sum   'Ti1 S2'
_cell_volume   73.08939719
_cell_formula_units_Z   1
loop_
 _symmetry_equiv_pos_site_id
 _symmetry_equiv_pos_as_xyz
  1  'x, y, z'
loop_
 _atom_site_type_symbol
 _atom_site_label
 _atom_site_symmetry_multiplicity
 _atom_site_fract_x
 _atom_site_fract_y
 _atom_site_fract_z
 _atom_site_occupancy
  Ti  Ti0  1  0.000000  0.000000  0.000000  1
  S  S1  1  0.600960  0.600960  0.600960  1
  S  S2  1  0.399040  0.399040  0.399040  1
