# generated using pymatgen
data_Hf3P
_symmetry_space_group_name_H-M   'P 1'
_cell_length_a   5.30764925
_cell_length_b   10.71046356
_cell_length_c   10.71046356
_cell_angle_alpha   90.00000000
_cell_angle_beta   90.00000000
_cell_angle_gamma   90.00000000
_symmetry_Int_Tables_number   1
_chemical_formula_structural   Hf3P
_chemical_formula_sum   'Hf24 P8'
_cell_volume   608.86183354
_cell_formula_units_Z   8
loop_
 _symmetry_equiv_pos_site_id
 _symmetry_equiv_pos_as_xyz
  1  'x, y, z'
loop_
 _atom_site_type_symbol
 _atom_site_label
 _atom_site_symmetry_multiplicity
 _atom_site_fract_x
 _atom_site_fract_y
 _atom_site_fract_z
 _atom_site_occupancy
  Hf  Hf0  1  0.719358  0.165077  0.643276  1
  Hf  Hf1  1  0.219358  0.356724  0.665077  1
  Hf  Hf2  1  0.219358  0.143276  0.834923  1
  Hf  Hf3  1  0.719358  0.334923  0.856724  1
  Hf  Hf4  1  0.280642  0.834923  0.356724  1
  Hf  Hf5  1  0.780642  0.643276  0.334923  1
  Hf  Hf6  1  0.780642  0.856724  0.165077  1
  Hf  Hf7  1  0.280642  0.665077  0.143276  1
  Hf  Hf8  1  0.527994  0.112042  0.276935  1
  Hf  Hf9  1  0.027994  0.723065  0.612042  1
  Hf  Hf10  1  0.027994  0.776935  0.887958  1
  Hf  Hf11  1  0.527994  0.387958  0.223065  1
  Hf  Hf12  1  0.472006  0.887958  0.723065  1
  Hf  Hf13  1  0.972006  0.276935  0.387958  1
  Hf  Hf14  1  0.972006  0.223065  0.112042  1
  Hf  Hf15  1  0.472006  0.612042  0.776935  1
  Hf  Hf16  1  0.239192  0.068853  0.534417  1
  Hf  Hf17  1  0.739192  0.465583  0.568853  1
  Hf  Hf18  1  0.739192  0.034417  0.931147  1
  Hf  Hf19  1  0.239192  0.431147  0.965583  1
  Hf  Hf20  1  0.760808  0.931147  0.465583  1
  Hf  Hf21  1  0.260808  0.534417  0.431147  1
  Hf  Hf22  1  0.260808  0.965583  0.068853  1
  Hf  Hf23  1  0.760808  0.568853  0.034417  1
  P  P24  1  0.034463  0.044302  0.289786  1
  P  P25  1  0.534463  0.710214  0.544302  1
  P  P26  1  0.534463  0.789786  0.955698  1
  P  P27  1  0.034463  0.455698  0.210214  1
  P  P28  1  0.965537  0.955698  0.710214  1
  P  P29  1  0.465537  0.289786  0.455698  1
  P  P30  1  0.465537  0.210214  0.044302  1
  P  P31  1  0.965537  0.544302  0.789786  1
