# generated using pymatgen
data_Ca2NbInO6
_symmetry_space_group_name_H-M   'P 1'
_cell_length_a   5.57716993
_cell_length_b   5.79387720
_cell_length_c   8.02661982
_cell_angle_alpha   90.00000000
_cell_angle_beta   89.88845670
_cell_angle_gamma   90.00000000
_symmetry_Int_Tables_number   1
_chemical_formula_structural   Ca2NbInO6
_chemical_formula_sum   'Ca4 Nb2 In2 O12'
_cell_volume   259.36718791
_cell_formula_units_Z   2
loop_
 _symmetry_equiv_pos_site_id
 _symmetry_equiv_pos_as_xyz
  1  'x, y, z'
loop_
 _atom_site_type_symbol
 _atom_site_label
 _atom_site_symmetry_multiplicity
 _atom_site_fract_x
 _atom_site_fract_y
 _atom_site_fract_z
 _atom_site_occupancy
  Ca  Ca0  1  0.985865  0.444795  0.247509  1
  Ca  Ca1  1  0.014135  0.555205  0.752491  1
  Ca  Ca2  1  0.485865  0.055205  0.747509  1
  Ca  Ca3  1  0.514135  0.944795  0.252491  1
  Nb  Nb4  1  0.000000  0.000000  0.500000  1
  Nb  Nb5  1  0.500000  0.500000  0.000000  1
  In  In6  1  0.500000  0.500000  0.500000  1
  In  In7  1  0.000000  0.000000  0.000000  1
  O  O8  1  0.891925  0.957661  0.739204  1
  O  O9  1  0.184564  0.289089  0.560898  1
  O  O10  1  0.206275  0.311163  0.947278  1
  O  O11  1  0.684564  0.210911  0.060898  1
  O  O12  1  0.108075  0.042339  0.260796  1
  O  O13  1  0.391925  0.542339  0.239204  1
  O  O14  1  0.706275  0.188837  0.447278  1
  O  O15  1  0.293725  0.811163  0.552722  1
  O  O16  1  0.315436  0.789089  0.939102  1
  O  O17  1  0.815436  0.710911  0.439102  1
  O  O18  1  0.793725  0.688837  0.052722  1
  O  O19  1  0.608075  0.457661  0.760796  1
