# generated using pymatgen
data_CdI2
_symmetry_space_group_name_H-M   'P 1'
_cell_length_a   4.33369159
_cell_length_b   4.33369186
_cell_length_c   90.42980915
_cell_angle_alpha   90.00000000
_cell_angle_beta   90.00000000
_cell_angle_gamma   119.99999800
_symmetry_Int_Tables_number   1
_chemical_formula_structural   CdI2
_chemical_formula_sum   'Cd12 I24'
_cell_volume   1470.81579272
_cell_formula_units_Z   12
loop_
 _symmetry_equiv_pos_site_id
 _symmetry_equiv_pos_as_xyz
  1  'x, y, z'
loop_
 _atom_site_type_symbol
 _atom_site_label
 _atom_site_symmetry_multiplicity
 _atom_site_fract_x
 _atom_site_fract_y
 _atom_site_fract_z
 _atom_site_occupancy
  Cd  Cd0  1  0.000000  0.000000  0.270813  1
  Cd  Cd1  1  0.000000  0.000000  0.937467  1
  Cd  Cd2  1  0.666667  0.333333  0.020858  1
  Cd  Cd3  1  0.666667  0.333333  0.770827  1
  Cd  Cd4  1  0.000000  0.000000  0.104147  1
  Cd  Cd5  1  0.000000  0.000000  0.854163  1
  Cd  Cd6  1  0.666667  0.333333  0.437495  1
  Cd  Cd7  1  0.666667  0.333333  0.187527  1
  Cd  Cd8  1  0.666667  0.333333  0.520866  1
  Cd  Cd9  1  0.666667  0.333333  0.604158  1
  Cd  Cd10  1  0.666667  0.333333  0.354199  1
  Cd  Cd11  1  0.000000  0.000000  0.687494  1
  I  I12  1  0.000000  0.000000  0.168455  1
  I  I13  1  0.666667  0.333333  0.835096  1
  I  I14  1  0.333333  0.666667  0.789896  1
  I  I15  1  0.000000  0.000000  0.418419  1
  I  I16  1  0.666667  0.333333  0.085075  1
  I  I17  1  0.333333  0.666667  0.456564  1
  I  I18  1  0.333333  0.666667  0.206596  1
  I  I19  1  0.333333  0.666667  0.956537  1
  I  I20  1  0.666667  0.333333  0.918398  1
  I  I21  1  0.000000  0.000000  0.585082  1
  I  I22  1  0.333333  0.666667  0.539937  1
  I  I23  1  0.333333  0.666667  0.123219  1
  I  I24  1  0.333333  0.666667  0.039926  1
  I  I25  1  0.000000  0.000000  0.751750  1
  I  I26  1  0.333333  0.666667  0.289885  1
  I  I27  1  0.333333  0.666667  0.373271  1
  I  I28  1  0.000000  0.000000  0.335122  1
  I  I29  1  0.333333  0.666667  0.623226  1
  I  I30  1  0.333333  0.666667  0.706558  1
  I  I31  1  0.000000  0.000000  0.001784  1
  I  I32  1  0.666667  0.333333  0.668431  1
  I  I33  1  0.666667  0.333333  0.251740  1
  I  I34  1  0.333333  0.666667  0.873232  1
  I  I35  1  0.000000  0.000000  0.501786  1
