# generated using pymatgen
data_S2N2O
_symmetry_space_group_name_H-M   'P 1'
_cell_length_a   8.35301709
_cell_length_b   9.26182137
_cell_length_c   10.83576047
_cell_angle_alpha   114.31221952
_cell_angle_beta   90.00000000
_cell_angle_gamma   90.00000000
_symmetry_Int_Tables_number   1
_chemical_formula_structural   S2N2O
_chemical_formula_sum   'S16 N16 O8'
_cell_volume   763.95525021
_cell_formula_units_Z   8
loop_
 _symmetry_equiv_pos_site_id
 _symmetry_equiv_pos_as_xyz
  1  'x, y, z'
loop_
 _atom_site_type_symbol
 _atom_site_label
 _atom_site_symmetry_multiplicity
 _atom_site_fract_x
 _atom_site_fract_y
 _atom_site_fract_z
 _atom_site_occupancy
  S  S0  1  0.449198  0.172656  0.240320  1
  S  S1  1  0.949198  0.327344  0.759680  1
  S  S2  1  0.550802  0.827344  0.759680  1
  S  S3  1  0.050802  0.672656  0.240320  1
  S  S4  1  0.273400  0.399447  0.461508  1
  S  S5  1  0.773400  0.100553  0.538492  1
  S  S6  1  0.726600  0.600553  0.538492  1
  S  S7  1  0.226600  0.899447  0.461508  1
  S  S8  1  0.005088  0.214875  0.277893  1
  S  S9  1  0.505088  0.285125  0.722107  1
  S  S10  1  0.994912  0.785125  0.722107  1
  S  S11  1  0.494912  0.714875  0.277893  1
  S  S12  1  0.223195  0.186298  0.046983  1
  S  S13  1  0.723195  0.313702  0.953017  1
  S  S14  1  0.776805  0.813702  0.953017  1
  S  S15  1  0.276805  0.686298  0.046983  1
  N  N16  1  0.425923  0.344701  0.367618  1
  N  N17  1  0.925923  0.155299  0.632382  1
  N  N18  1  0.574077  0.655299  0.632382  1
  N  N19  1  0.074077  0.844701  0.367618  1
  N  N20  1  0.108097  0.316774  0.408570  1
  N  N21  1  0.608097  0.183226  0.591430  1
  N  N22  1  0.891903  0.683226  0.591430  1
  N  N23  1  0.391903  0.816774  0.408570  1
  N  N24  1  0.074542  0.175418  0.130885  1
  N  N25  1  0.574542  0.324582  0.869115  1
  N  N26  1  0.925458  0.824582  0.869115  1
  N  N27  1  0.425458  0.675418  0.130885  1
  N  N28  1  0.395313  0.210613  0.111722  1
  N  N29  1  0.895313  0.289387  0.888278  1
  N  N30  1  0.604687  0.789387  0.888278  1
  N  N31  1  0.104687  0.710613  0.111722  1
  O  O32  1  0.618568  0.142184  0.226667  1
  O  O33  1  0.118568  0.357816  0.773333  1
  O  O34  1  0.381432  0.857816  0.773333  1
  O  O35  1  0.881432  0.642184  0.226667  1
  O  O36  1  0.344948  0.054432  0.253776  1
  O  O37  1  0.844948  0.445568  0.746224  1
  O  O38  1  0.655052  0.945568  0.746224  1
  O  O39  1  0.155052  0.554432  0.253776  1
