# generated using pymatgen
data_SiO2
_symmetry_space_group_name_H-M   'P 1'
_cell_length_a   5.02950429
_cell_length_b   6.92691085
_cell_length_c   6.92691033
_cell_angle_alpha   72.50784581
_cell_angle_beta   71.56063940
_cell_angle_gamma   71.56064549
_symmetry_Int_Tables_number   1
_chemical_formula_structural   SiO2
_chemical_formula_sum   'Si4 O8'
_cell_volume   211.72225027
_cell_formula_units_Z   4
loop_
 _symmetry_equiv_pos_site_id
 _symmetry_equiv_pos_as_xyz
  1  'x, y, z'
loop_
 _atom_site_type_symbol
 _atom_site_label
 _atom_site_symmetry_multiplicity
 _atom_site_fract_x
 _atom_site_fract_y
 _atom_site_fract_z
 _atom_site_occupancy
  Si  Si0  1  0.341101  0.961197  0.744707  1
  Si  Si1  1  0.658899  0.038803  0.255293  1
  Si  Si2  1  0.841101  0.744707  0.961197  1
  Si  Si3  1  0.158899  0.255293  0.038803  1
  O  O4  1  0.946813  0.118743  0.218080  1
  O  O5  1  0.750000  0.819027  0.180973  1
  O  O6  1  0.250000  0.180973  0.819027  1
  O  O7  1  0.000000  0.500000  0.000000  1
  O  O8  1  0.553187  0.781920  0.881257  1
  O  O9  1  0.053187  0.881257  0.781920  1
  O  O10  1  0.500000  0.000000  0.500000  1
  O  O11  1  0.446813  0.218080  0.118743  1
