# generated using pymatgen
data_Na2CaPO4F
_symmetry_space_group_name_H-M   'P 1'
_cell_length_a   7.16915124
_cell_length_b   10.77983182
_cell_length_c   13.45994986
_cell_angle_alpha   113.65325992
_cell_angle_beta   90.00000000
_cell_angle_gamma   90.00000000
_symmetry_Int_Tables_number   1
_chemical_formula_structural   Na2CaPO4F
_chemical_formula_sum   'Na16 Ca8 P8 O32 F8'
_cell_volume   952.82685695
_cell_formula_units_Z   8
loop_
 _symmetry_equiv_pos_site_id
 _symmetry_equiv_pos_as_xyz
  1  'x, y, z'
loop_
 _atom_site_type_symbol
 _atom_site_label
 _atom_site_symmetry_multiplicity
 _atom_site_fract_x
 _atom_site_fract_y
 _atom_site_fract_z
 _atom_site_occupancy
  Na  Na0  1  0.746112  0.176866  0.089965  1
  Na  Na1  1  0.727256  0.588868  0.412396  1
  Na  Na2  1  0.018847  0.237270  0.669452  1
  Na  Na3  1  0.772744  0.088868  0.412396  1
  Na  Na4  1  0.518847  0.262730  0.330548  1
  Na  Na5  1  0.753888  0.676866  0.089965  1
  Na  Na6  1  0.246112  0.323134  0.910035  1
  Na  Na7  1  0.476584  0.045695  0.835969  1
  Na  Na8  1  0.523416  0.954305  0.164031  1
  Na  Na9  1  0.272744  0.411132  0.587604  1
  Na  Na10  1  0.481153  0.737270  0.669452  1
  Na  Na11  1  0.981153  0.762730  0.330548  1
  Na  Na12  1  0.227256  0.911132  0.587604  1
  Na  Na13  1  0.023416  0.545695  0.835969  1
  Na  Na14  1  0.976584  0.454305  0.164031  1
  Na  Na15  1  0.253888  0.823134  0.910035  1
  Ca  Ca16  1  0.987718  0.302082  0.330973  1
  Ca  Ca17  1  0.506044  0.449863  0.172750  1
  Ca  Ca18  1  0.993956  0.949863  0.172750  1
  Ca  Ca19  1  0.512282  0.802082  0.330973  1
  Ca  Ca20  1  0.006044  0.050137  0.827250  1
  Ca  Ca21  1  0.493956  0.550137  0.827250  1
  Ca  Ca22  1  0.012282  0.697918  0.669027  1
  Ca  Ca23  1  0.487718  0.197918  0.669027  1
  P  P24  1  0.740587  0.941391  0.586689  1
  P  P25  1  0.240587  0.558609  0.413311  1
  P  P26  1  0.256189  0.644884  0.084206  1
  P  P27  1  0.243811  0.144884  0.084206  1
  P  P28  1  0.759413  0.441391  0.586689  1
  P  P29  1  0.756189  0.855116  0.915794  1
  P  P30  1  0.743811  0.355116  0.915794  1
  P  P31  1  0.259413  0.058609  0.413311  1
  O  O32  1  0.731815  0.832337  0.468578  1
  O  O33  1  0.550102  0.950959  0.645410  1
  O  O34  1  0.449898  0.049041  0.354590  1
  O  O35  1  0.077613  0.724022  0.140419  1
  O  O36  1  0.050102  0.549041  0.354590  1
  O  O37  1  0.231815  0.667663  0.531422  1
  O  O38  1  0.577613  0.775978  0.859581  1
  O  O39  1  0.932522  0.779802  0.852106  1
  O  O40  1  0.949898  0.450959  0.645410  1
  O  O41  1  0.400122  0.595310  0.350400  1
  O  O42  1  0.067478  0.220198  0.147894  1
  O  O43  1  0.768185  0.332337  0.468578  1
  O  O44  1  0.224749  0.915362  0.413827  1
  O  O45  1  0.567478  0.279802  0.852106  1
  O  O46  1  0.767600  0.868438  0.035122  1
  O  O47  1  0.775251  0.084638  0.586173  1
  O  O48  1  0.599878  0.404690  0.649600  1
  O  O49  1  0.422387  0.224022  0.140419  1
  O  O50  1  0.724749  0.584638  0.586173  1
  O  O51  1  0.922387  0.275978  0.859581  1
  O  O52  1  0.900122  0.904690  0.649600  1
  O  O53  1  0.232400  0.131562  0.964878  1
  O  O54  1  0.099878  0.095310  0.350400  1
  O  O55  1  0.248841  0.999683  0.084763  1
  O  O56  1  0.432522  0.720198  0.147894  1
  O  O57  1  0.268185  0.167663  0.531422  1
  O  O58  1  0.267600  0.631562  0.964878  1
  O  O59  1  0.275251  0.415362  0.413827  1
  O  O60  1  0.732400  0.368438  0.035122  1
  O  O61  1  0.748841  0.500317  0.915237  1
  O  O62  1  0.251159  0.499683  0.084763  1
  O  O63  1  0.751159  0.000317  0.915237  1
  F  F64  1  0.769679  0.879313  0.263552  1
  F  F65  1  0.273807  0.380147  0.758618  1
  F  F66  1  0.726193  0.619853  0.241382  1
  F  F67  1  0.230322  0.120687  0.736448  1
  F  F68  1  0.730321  0.379313  0.263552  1
  F  F69  1  0.773807  0.119853  0.241382  1
  F  F70  1  0.269678  0.620687  0.736448  1
  F  F71  1  0.226193  0.880147  0.758618  1
