# generated using pymatgen
data_YbNdS3
_symmetry_space_group_name_H-M   'P 1'
_cell_length_a   3.97126604
_cell_length_b   7.21131732
_cell_length_c   8.86575858
_cell_angle_alpha   90.00000000
_cell_angle_beta   90.00000000
_cell_angle_gamma   105.98284647
_symmetry_Int_Tables_number   1
_chemical_formula_structural   YbNdS3
_chemical_formula_sum   'Yb2 Nd2 S6'
_cell_volume   244.08348103
_cell_formula_units_Z   2
loop_
 _symmetry_equiv_pos_site_id
 _symmetry_equiv_pos_as_xyz
  1  'x, y, z'
loop_
 _atom_site_type_symbol
 _atom_site_label
 _atom_site_symmetry_multiplicity
 _atom_site_fract_x
 _atom_site_fract_y
 _atom_site_fract_z
 _atom_site_occupancy
  Yb  Yb0  1  0.001215  0.000000  0.250000  1
  Yb  Yb1  1  0.998785  0.000000  0.750000  1
  Nd  Nd2  1  0.250430  0.500859  0.000000  1
  Nd  Nd3  1  0.749570  0.499141  0.500000  1
  S  S4  1  0.890500  0.781000  0.000000  1
  S  S5  1  0.359416  0.720439  0.669773  1
  S  S6  1  0.638977  0.279561  0.830227  1
  S  S7  1  0.361023  0.720439  0.330227  1
  S  S8  1  0.109500  0.219000  0.500000  1
  S  S9  1  0.640584  0.279561  0.169773  1
