# generated using pymatgen
data_As3Pb5ClO12
_symmetry_space_group_name_H-M   'P 1'
_cell_length_a   7.58696822
_cell_length_b   10.45477027
_cell_length_c   18.16332751
_cell_angle_alpha   90.02762908
_cell_angle_beta   90.00000000
_cell_angle_gamma   90.00000000
_symmetry_Int_Tables_number   1
_chemical_formula_structural   As3Pb5ClO12
_chemical_formula_sum   'As12 Pb20 Cl4 O48'
_cell_volume   1440.71514783
_cell_formula_units_Z   4
loop_
 _symmetry_equiv_pos_site_id
 _symmetry_equiv_pos_as_xyz
  1  'x, y, z'
loop_
 _atom_site_type_symbol
 _atom_site_label
 _atom_site_symmetry_multiplicity
 _atom_site_fract_x
 _atom_site_fract_y
 _atom_site_fract_z
 _atom_site_occupancy
  As  As0  1  0.756238  0.852407  0.264143  1
  As  As1  1  0.244299  0.533632  0.557708  1
  As  As2  1  0.755701  0.466368  0.442292  1
  As  As3  1  0.256238  0.647593  0.235857  1
  As  As4  1  0.244613  0.571834  0.954708  1
  As  As5  1  0.755387  0.428166  0.045292  1
  As  As6  1  0.743762  0.352407  0.764143  1
  As  As7  1  0.243762  0.147593  0.735857  1
  As  As8  1  0.255701  0.033632  0.057708  1
  As  As9  1  0.744299  0.966368  0.942292  1
  As  As10  1  0.255387  0.071834  0.454708  1
  As  As11  1  0.744613  0.928166  0.545292  1
  Pb  Pb12  1  0.229291  0.384739  0.129312  1
  Pb  Pb13  1  0.506193  0.244378  0.576756  1
  Pb  Pb14  1  0.729157  0.132849  0.122238  1
  Pb  Pb15  1  0.721687  0.497272  0.254622  1
  Pb  Pb16  1  0.770709  0.615261  0.870688  1
  Pb  Pb17  1  0.229157  0.367151  0.377762  1
  Pb  Pb18  1  0.270843  0.867151  0.877762  1
  Pb  Pb19  1  0.008236  0.745438  0.411165  1
  Pb  Pb20  1  0.729291  0.115261  0.370688  1
  Pb  Pb21  1  0.508236  0.754562  0.088835  1
  Pb  Pb22  1  0.006193  0.255622  0.923244  1
  Pb  Pb23  1  0.491764  0.245438  0.911165  1
  Pb  Pb24  1  0.991764  0.254562  0.588835  1
  Pb  Pb25  1  0.770843  0.632849  0.622238  1
  Pb  Pb26  1  0.221687  0.002728  0.245378  1
  Pb  Pb27  1  0.270709  0.884739  0.629312  1
  Pb  Pb28  1  0.778313  0.997272  0.754622  1
  Pb  Pb29  1  0.278313  0.502728  0.745378  1
  Pb  Pb30  1  0.493807  0.755622  0.423244  1
  Pb  Pb31  1  0.993807  0.744378  0.076756  1
  Cl  Cl32  1  0.012655  0.746885  0.749641  1
  Cl  Cl33  1  0.487345  0.246885  0.249641  1
  Cl  Cl34  1  0.987345  0.253115  0.250359  1
  Cl  Cl35  1  0.512655  0.753115  0.750359  1
  O  O36  1  0.251595  0.922294  0.415353  1
  O  O37  1  0.269402  0.567530  0.049819  1
  O  O38  1  0.218671  0.893893  0.007911  1
  O  O39  1  0.751595  0.577706  0.084647  1
  O  O40  1  0.948210  0.922913  0.295859  1
  O  O41  1  0.251149  0.664584  0.330067  1
  O  O42  1  0.769402  0.932470  0.450181  1
  O  O43  1  0.543442  0.987513  0.898969  1
  O  O44  1  0.095623  0.041140  0.124939  1
  O  O45  1  0.730598  0.432470  0.950181  1
  O  O46  1  0.545805  0.849762  0.558894  1
  O  O47  1  0.907229  0.830021  0.580020  1
  O  O48  1  0.246955  0.793490  0.189999  1
  O  O49  1  0.753045  0.206510  0.810001  1
  O  O50  1  0.086728  0.553368  0.203108  1
  O  O51  1  0.413272  0.053368  0.703108  1
  O  O52  1  0.253045  0.293490  0.689999  1
  O  O53  1  0.251953  0.167485  0.002385  1
  O  O54  1  0.230598  0.067530  0.549819  1
  O  O55  1  0.248047  0.667485  0.502385  1
  O  O56  1  0.281329  0.393893  0.507911  1
  O  O57  1  0.781329  0.106107  0.992089  1
  O  O58  1  0.592771  0.330021  0.080020  1
  O  O59  1  0.248851  0.164584  0.830067  1
  O  O60  1  0.051790  0.077087  0.704141  1
  O  O61  1  0.456558  0.012487  0.101031  1
  O  O62  1  0.248405  0.422294  0.915353  1
  O  O63  1  0.043442  0.512487  0.601031  1
  O  O64  1  0.407229  0.669979  0.919980  1
  O  O65  1  0.718671  0.606107  0.492089  1
  O  O66  1  0.954195  0.349762  0.058894  1
  O  O67  1  0.746955  0.706510  0.310001  1
  O  O68  1  0.751149  0.835416  0.169933  1
  O  O69  1  0.454195  0.150238  0.441106  1
  O  O70  1  0.956558  0.487513  0.398969  1
  O  O71  1  0.904377  0.958860  0.875061  1
  O  O72  1  0.551790  0.422913  0.795859  1
  O  O73  1  0.748405  0.077706  0.584647  1
  O  O74  1  0.913272  0.446632  0.796892  1
  O  O75  1  0.751953  0.332515  0.497615  1
  O  O76  1  0.586728  0.946632  0.296892  1
  O  O77  1  0.748047  0.832515  0.997615  1
  O  O78  1  0.045805  0.650238  0.941106  1
  O  O79  1  0.595623  0.458860  0.375061  1
  O  O80  1  0.404377  0.541140  0.624939  1
  O  O81  1  0.448210  0.577087  0.204141  1
  O  O82  1  0.748851  0.335416  0.669933  1
  O  O83  1  0.092771  0.169979  0.419980  1
