# generated using pymatgen
data_Cs2Li3GaO4
_symmetry_space_group_name_H-M   'P 1'
_cell_length_a   5.09120619
_cell_length_b   8.26040714
_cell_length_c   8.26040672
_cell_angle_alpha   75.62309835
_cell_angle_beta   72.05106178
_cell_angle_gamma   72.05106659
_symmetry_Int_Tables_number   1
_chemical_formula_structural   Cs2Li3GaO4
_chemical_formula_sum   'Cs4 Li6 Ga2 O8'
_cell_volume   309.85842454
_cell_formula_units_Z   2
loop_
 _symmetry_equiv_pos_site_id
 _symmetry_equiv_pos_as_xyz
  1  'x, y, z'
loop_
 _atom_site_type_symbol
 _atom_site_label
 _atom_site_symmetry_multiplicity
 _atom_site_fract_x
 _atom_site_fract_y
 _atom_site_fract_z
 _atom_site_occupancy
  Cs  Cs0  1  0.238581  0.372456  0.627544  1
  Cs  Cs1  1  0.761419  0.627544  0.372456  1
  Cs  Cs2  1  0.261419  0.872456  0.127544  1
  Cs  Cs3  1  0.738581  0.127544  0.872456  1
  Li  Li4  1  0.250000  0.490268  0.009732  1
  Li  Li5  1  0.750000  0.990268  0.509732  1
  Li  Li6  1  0.250000  0.009732  0.490268  1
  Li  Li7  1  0.250000  0.250000  0.250000  1
  Li  Li8  1  0.750000  0.509732  0.990268  1
  Li  Li9  1  0.750000  0.750000  0.750000  1
  Ga  Ga10  1  0.250000  0.750000  0.750000  1
  Ga  Ga11  1  0.750000  0.250000  0.250000  1
  O  O12  1  0.592031  0.058317  0.293294  1
  O  O13  1  0.907969  0.206706  0.441683  1
  O  O14  1  0.092031  0.793294  0.558317  1
  O  O15  1  0.556358  0.558317  0.793294  1
  O  O16  1  0.407969  0.941683  0.706706  1
  O  O17  1  0.943642  0.706706  0.941683  1
  O  O18  1  0.443642  0.441683  0.206706  1
  O  O19  1  0.056358  0.293294  0.058317  1
