# generated using pymatgen
data_Sr3Ru2O7
_symmetry_space_group_name_H-M   'P 1'
_cell_length_a   3.99387972
_cell_length_b   3.99387972
_cell_length_c   10.61884503
_cell_angle_alpha   100.83936909
_cell_angle_beta   100.83936911
_cell_angle_gamma   89.99999995
_symmetry_Int_Tables_number   1
_chemical_formula_structural   Sr3Ru2O7
_chemical_formula_sum   'Sr3 Ru2 O7'
_cell_volume   163.28193479
_cell_formula_units_Z   1
loop_
 _symmetry_equiv_pos_site_id
 _symmetry_equiv_pos_as_xyz
  1  'x, y, z'
loop_
 _atom_site_type_symbol
 _atom_site_label
 _atom_site_symmetry_multiplicity
 _atom_site_fract_x
 _atom_site_fract_y
 _atom_site_fract_z
 _atom_site_occupancy
  O  O0  1  0.403317  0.903317  0.806633  1
  O  O1  1  0.903317  0.403317  0.806633  1
  O  O2  1  0.596683  0.096683  0.193367  1
  O  O3  1  0.096683  0.596683  0.193367  1
  O  O4  1  0.803640  0.803640  0.607281  1
  O  O5  1  0.000000  0.000000  0.000000  1
  O  O6  1  0.196360  0.196360  0.392719  1
  Sr  Sr7  1  0.500000  0.500000  0.000000  1
  Sr  Sr8  1  0.683725  0.683725  0.367450  1
  Sr  Sr9  1  0.316275  0.316275  0.632550  1
  Ru  Ru10  1  0.098082  0.098082  0.196163  1
  Ru  Ru11  1  0.901918  0.901918  0.803837  1
