# generated using pymatgen
data_P3RuO9
_symmetry_space_group_name_H-M   'P 1'
_cell_length_a   6.58675215
_cell_length_b   7.43394161
_cell_length_c   8.45017294
_cell_angle_alpha   73.99211129
_cell_angle_beta   67.06163806
_cell_angle_gamma   63.70334972
_symmetry_Int_Tables_number   1
_chemical_formula_structural   P3RuO9
_chemical_formula_sum   'P6 Ru2 O18'
_cell_volume   338.94020266
_cell_formula_units_Z   2
loop_
 _symmetry_equiv_pos_site_id
 _symmetry_equiv_pos_as_xyz
  1  'x, y, z'
loop_
 _atom_site_type_symbol
 _atom_site_label
 _atom_site_symmetry_multiplicity
 _atom_site_fract_x
 _atom_site_fract_y
 _atom_site_fract_z
 _atom_site_occupancy
  P  P0  1  0.978793  0.548697  0.178002  1
  P  P1  1  0.552905  0.750000  0.750000  1
  P  P2  1  0.794507  0.048697  0.678002  1
  P  P3  1  0.205493  0.951303  0.321998  1
  P  P4  1  0.021207  0.451303  0.821998  1
  P  P5  1  0.447095  0.250000  0.250000  1
  Ru  Ru6  1  0.000000  0.000000  0.000000  1
  Ru  Ru7  1  0.500000  0.500000  0.500000  1
  O  O8  1  0.663514  0.205146  0.092455  1
  O  O9  1  0.336486  0.794854  0.907545  1
  O  O10  1  0.833047  0.445722  0.326581  1
  O  O11  1  0.096540  0.227796  0.825371  1
  O  O12  1  0.248261  0.434824  0.178421  1
  O  O13  1  0.903460  0.772204  0.174629  1
  O  O14  1  0.350292  0.727796  0.325371  1
  O  O15  1  0.361506  0.065176  0.321579  1
  O  O16  1  0.166953  0.554278  0.673419  1
  O  O17  1  0.105350  0.054278  0.173419  1
  O  O18  1  0.538885  0.705146  0.592455  1
  O  O19  1  0.461115  0.294854  0.407545  1
  O  O20  1  0.000000  0.000000  0.500000  1
  O  O21  1  0.751739  0.565176  0.821579  1
  O  O22  1  0.638494  0.934824  0.678421  1
  O  O23  1  0.649708  0.272204  0.674629  1
  O  O24  1  0.894650  0.945722  0.826581  1
  O  O25  1  0.000000  0.500000  0.000000  1
