# generated using pymatgen
data_KLaGeS4
_symmetry_space_group_name_H-M   'P 1'
_cell_length_a   6.71891293
_cell_length_b   6.74221376
_cell_length_c   8.72688778
_cell_angle_alpha   90.00000000
_cell_angle_beta   107.58143351
_cell_angle_gamma   90.00000000
_symmetry_Int_Tables_number   1
_chemical_formula_structural   KLaGeS4
_chemical_formula_sum   'K2 La2 Ge2 S8'
_cell_volume   376.86457931
_cell_formula_units_Z   2
loop_
 _symmetry_equiv_pos_site_id
 _symmetry_equiv_pos_as_xyz
  1  'x, y, z'
loop_
 _atom_site_type_symbol
 _atom_site_label
 _atom_site_symmetry_multiplicity
 _atom_site_fract_x
 _atom_site_fract_y
 _atom_site_fract_z
 _atom_site_occupancy
  K  K0  1  0.728453  0.514874  0.934438  1
  K  K1  1  0.271547  0.014874  0.065562  1
  La  La2  1  0.232390  0.999858  0.554348  1
  La  La3  1  0.767610  0.499858  0.445652  1
  Ge  Ge4  1  0.216581  0.525840  0.312709  1
  Ge  Ge5  1  0.783419  0.025840  0.687291  1
  S  S6  1  0.019838  0.270019  0.732410  1
  S  S7  1  0.414449  0.528608  0.152097  1
  S  S8  1  0.986147  0.756817  0.720315  1
  S  S9  1  0.408998  0.564824  0.570724  1
  S  S10  1  0.585551  0.028608  0.847903  1
  S  S11  1  0.013853  0.256817  0.279685  1
  S  S12  1  0.980162  0.770019  0.267590  1
  S  S13  1  0.591002  0.064824  0.429276  1
