# generated using pymatgen
data_CdH8C2NCl3
_symmetry_space_group_name_H-M   'P 1'
_cell_length_a   6.82098079
_cell_length_b   8.89500594
_cell_length_c   13.50355231
_cell_angle_alpha   90.00000000
_cell_angle_beta   90.00000000
_cell_angle_gamma   98.94716136
_symmetry_Int_Tables_number   1
_chemical_formula_structural   CdH8C2NCl3
_chemical_formula_sum   'Cd4 H32 C8 N4 Cl12'
_cell_volume   809.32745295
_cell_formula_units_Z   4
loop_
 _symmetry_equiv_pos_site_id
 _symmetry_equiv_pos_as_xyz
  1  'x, y, z'
loop_
 _atom_site_type_symbol
 _atom_site_label
 _atom_site_symmetry_multiplicity
 _atom_site_fract_x
 _atom_site_fract_y
 _atom_site_fract_z
 _atom_site_occupancy
  Cd  Cd0  1  0.516631  0.700775  0.242950  1
  Cd  Cd1  1  0.016631  0.700775  0.257050  1
  Cd  Cd2  1  0.483369  0.299225  0.757050  1
  Cd  Cd3  1  0.983369  0.299225  0.742950  1
  H  H4  1  0.121802  0.845421  0.811720  1
  H  H5  1  0.516594  0.178614  0.061371  1
  H  H6  1  0.088592  0.626908  0.921007  1
  H  H7  1  0.065561  0.380212  0.459781  1
  H  H8  1  0.097269  0.307067  0.338293  1
  H  H9  1  0.588592  0.626908  0.578993  1
  H  H10  1  0.332434  0.262359  0.517529  1
  H  H11  1  0.565561  0.380212  0.040219  1
  H  H12  1  0.878198  0.154579  0.188280  1
  H  H13  1  0.667566  0.737641  0.482471  1
  H  H14  1  0.434439  0.619788  0.959781  1
  H  H15  1  0.047964  0.144089  0.087844  1
  H  H16  1  0.302070  0.036955  0.416542  1
  H  H17  1  0.902731  0.692933  0.661707  1
  H  H18  1  0.621802  0.845421  0.688280  1
  H  H19  1  0.832434  0.262359  0.982471  1
  H  H20  1  0.952036  0.855911  0.912156  1
  H  H21  1  0.802070  0.036955  0.083458  1
  H  H22  1  0.547964  0.144089  0.412156  1
  H  H23  1  0.167566  0.737641  0.017529  1
  H  H24  1  0.197930  0.963045  0.916542  1
  H  H25  1  0.452036  0.855911  0.587844  1
  H  H26  1  0.378198  0.154579  0.311720  1
  H  H27  1  0.483406  0.821386  0.938629  1
  H  H28  1  0.411408  0.373092  0.421007  1
  H  H29  1  0.697930  0.963045  0.583458  1
  H  H30  1  0.911408  0.373092  0.078993  1
  H  H31  1  0.597269  0.307067  0.161707  1
  H  H32  1  0.016594  0.178614  0.438629  1
  H  H33  1  0.934439  0.619788  0.540219  1
  H  H34  1  0.402731  0.692933  0.838293  1
  H  H35  1  0.983406  0.821386  0.561371  1
  C  C36  1  0.107583  0.857036  0.891956  1
  C  C37  1  0.890992  0.714289  0.582259  1
  C  C38  1  0.892417  0.142964  0.108044  1
  C  C39  1  0.609008  0.285711  0.082259  1
  C  C40  1  0.607583  0.857036  0.608044  1
  C  C41  1  0.109008  0.285711  0.417741  1
  C  C42  1  0.392417  0.142964  0.391956  1
  C  C43  1  0.390992  0.714289  0.917741  1
  N  N44  1  0.319644  0.273811  0.441448  1
  N  N45  1  0.819644  0.273811  0.058552  1
  N  N46  1  0.180356  0.726189  0.941448  1
  N  N47  1  0.680356  0.726189  0.558552  1
  Cl  Cl48  1  0.708633  0.494153  0.331286  1
  Cl  Cl49  1  0.208633  0.494153  0.168714  1
  Cl  Cl50  1  0.694991  0.105177  0.838000  1
  Cl  Cl51  1  0.221232  0.302199  0.899063  1
  Cl  Cl52  1  0.805009  0.894823  0.338000  1
  Cl  Cl53  1  0.778768  0.697801  0.100937  1
  Cl  Cl54  1  0.721232  0.302199  0.600937  1
  Cl  Cl55  1  0.291367  0.505847  0.668714  1
  Cl  Cl56  1  0.278768  0.697801  0.399063  1
  Cl  Cl57  1  0.305009  0.894823  0.162000  1
  Cl  Cl58  1  0.791367  0.505847  0.831286  1
  Cl  Cl59  1  0.194991  0.105177  0.662000  1
