# generated using pymatgen
data_NbI3O
_symmetry_space_group_name_H-M   'P 1'
_cell_length_a   4.00830838
_cell_length_b   8.05381892
_cell_length_c   11.42854140
_cell_angle_alpha   83.47488984
_cell_angle_beta   79.89382274
_cell_angle_gamma   75.59098985
_symmetry_Int_Tables_number   1
_chemical_formula_structural   NbI3O
_chemical_formula_sum   'Nb2 I6 O2'
_cell_volume   350.84022315
_cell_formula_units_Z   2
loop_
 _symmetry_equiv_pos_site_id
 _symmetry_equiv_pos_as_xyz
  1  'x, y, z'
loop_
 _atom_site_type_symbol
 _atom_site_label
 _atom_site_symmetry_multiplicity
 _atom_site_fract_x
 _atom_site_fract_y
 _atom_site_fract_z
 _atom_site_occupancy
  I  I0  1  0.679710  0.361072  0.286026  1
  I  I1  1  0.901571  0.234212  0.957386  1
  I  I2  1  0.112037  0.171129  0.612302  1
  I  I3  1  0.093283  0.765852  0.042528  1
  O  O4  1  0.629754  0.949767  0.811574  1
  O  O5  1  0.391081  0.050232  0.188320  1
  Nb  Nb6  1  0.930454  0.052533  0.195827  1
  Nb  Nb7  1  0.178859  0.947440  0.804113  1
  I  I8  1  0.327206  0.638722  0.714150  1
  I  I9  1  0.895247  0.829041  0.387774  1
