# generated using pymatgen
data_KZnB(PO4)2
_symmetry_space_group_name_H-M   'P 1'
_cell_length_a   8.52347172
_cell_length_b   9.11501120
_cell_length_c   9.11501108
_cell_angle_alpha   90.50768900
_cell_angle_beta   90.92962800
_cell_angle_gamma   90.92963199
_symmetry_Int_Tables_number   1
_chemical_formula_structural   KZnB(PO4)2
_chemical_formula_sum   'K4 Zn4 B4 P8 O32'
_cell_volume   707.94335602
_cell_formula_units_Z   4
loop_
 _symmetry_equiv_pos_site_id
 _symmetry_equiv_pos_as_xyz
  1  'x, y, z'
loop_
 _atom_site_type_symbol
 _atom_site_label
 _atom_site_symmetry_multiplicity
 _atom_site_fract_x
 _atom_site_fract_y
 _atom_site_fract_z
 _atom_site_occupancy
  K  K0  1  0.250000  0.030508  0.969492  1
  K  K1  1  0.750000  0.969492  0.030508  1
  K  K2  1  0.750000  0.597704  0.402296  1
  K  K3  1  0.250000  0.402296  0.597704  1
  Zn  Zn4  1  0.561218  0.313645  0.933915  1
  Zn  Zn5  1  0.938782  0.066085  0.686355  1
  Zn  Zn6  1  0.061218  0.933915  0.313645  1
  Zn  Zn7  1  0.438782  0.686355  0.066085  1
  B  B8  1  0.426295  0.795450  0.576049  1
  B  B9  1  0.073705  0.423951  0.204550  1
  B  B10  1  0.573705  0.204550  0.423951  1
  B  B11  1  0.926295  0.576049  0.795450  1
  P  P12  1  0.059356  0.689367  0.052786  1
  P  P13  1  0.592521  0.611330  0.774185  1
  P  P14  1  0.092521  0.774185  0.611330  1
  P  P15  1  0.907479  0.225815  0.388670  1
  P  P16  1  0.559356  0.052786  0.689367  1
  P  P17  1  0.407479  0.388670  0.225815  1
  P  P18  1  0.940644  0.310633  0.947214  1
  P  P19  1  0.440644  0.947214  0.310633  1
  O  O20  1  0.235207  0.428137  0.265530  1
  O  O21  1  0.915501  0.097454  0.280054  1
  O  O22  1  0.433386  0.926067  0.670553  1
  O  O23  1  0.996980  0.801317  0.469415  1
  O  O24  1  0.019336  0.575187  0.175310  1
  O  O25  1  0.980664  0.424813  0.824690  1
  O  O26  1  0.723259  0.992200  0.670272  1
  O  O27  1  0.223259  0.670272  0.992200  1
  O  O28  1  0.003020  0.198683  0.530585  1
  O  O29  1  0.029366  0.842230  0.117257  1
  O  O30  1  0.764793  0.571863  0.734470  1
  O  O31  1  0.264793  0.734470  0.571863  1
  O  O32  1  0.415501  0.280054  0.097454  1
  O  O33  1  0.566614  0.073933  0.329447  1
  O  O34  1  0.031094  0.625797  0.676654  1
  O  O35  1  0.480664  0.824690  0.424813  1
  O  O36  1  0.776741  0.329728  0.007800  1
  O  O37  1  0.468906  0.323346  0.374203  1
  O  O38  1  0.066614  0.329447  0.073933  1
  O  O39  1  0.470634  0.882743  0.157770  1
  O  O40  1  0.735207  0.265530  0.428137  1
  O  O41  1  0.496980  0.469415  0.801317  1
  O  O42  1  0.531094  0.676654  0.625797  1
  O  O43  1  0.276741  0.007800  0.329728  1
  O  O44  1  0.503020  0.530585  0.198683  1
  O  O45  1  0.529366  0.117257  0.842230  1
  O  O46  1  0.933386  0.670553  0.926067  1
  O  O47  1  0.968906  0.374203  0.323346  1
  O  O48  1  0.970634  0.157770  0.882743  1
  O  O49  1  0.084499  0.902546  0.719946  1
  O  O50  1  0.584499  0.719946  0.902546  1
  O  O51  1  0.519336  0.175310  0.575187  1
