# generated using pymatgen
data_S4N4O3
_symmetry_space_group_name_H-M   'P 1'
_cell_length_a   6.21524238
_cell_length_b   10.55465340
_cell_length_c   12.87112677
_cell_angle_alpha   90.00000000
_cell_angle_beta   100.59388427
_cell_angle_gamma   90.00000000
_symmetry_Int_Tables_number   1
_chemical_formula_structural   S4N4O3
_chemical_formula_sum   'S16 N16 O12'
_cell_volume   829.95059394
_cell_formula_units_Z   4
loop_
 _symmetry_equiv_pos_site_id
 _symmetry_equiv_pos_as_xyz
  1  'x, y, z'
loop_
 _atom_site_type_symbol
 _atom_site_label
 _atom_site_symmetry_multiplicity
 _atom_site_fract_x
 _atom_site_fract_y
 _atom_site_fract_z
 _atom_site_occupancy
  S  S0  1  0.808001  0.945183  0.879586  1
  S  S1  1  0.691999  0.445183  0.620414  1
  S  S2  1  0.191999  0.054817  0.120414  1
  S  S3  1  0.308001  0.554817  0.379586  1
  S  S4  1  0.957336  0.690176  0.974631  1
  S  S5  1  0.542664  0.190176  0.525369  1
  S  S6  1  0.042664  0.309823  0.025369  1
  S  S7  1  0.457336  0.809824  0.474631  1
  S  S8  1  0.516431  0.615161  0.870173  1
  S  S9  1  0.983569  0.115161  0.629827  1
  S  S10  1  0.483569  0.384839  0.129827  1
  S  S11  1  0.016431  0.884839  0.370173  1
  S  S12  1  0.488928  0.892847  0.807567  1
  S  S13  1  0.011072  0.392847  0.692433  1
  S  S14  1  0.511072  0.107153  0.192433  1
  S  S15  1  0.988928  0.607153  0.307567  1
  N  N16  1  0.938589  0.830034  0.937766  1
  N  N17  1  0.561411  0.330034  0.562234  1
  N  N18  1  0.061411  0.169966  0.062234  1
  N  N19  1  0.438589  0.669966  0.437766  1
  N  N20  1  0.753639  0.599652  0.939763  1
  N  N21  1  0.746361  0.099652  0.560237  1
  N  N22  1  0.246361  0.400348  0.060237  1
  N  N23  1  0.253639  0.900348  0.439763  1
  N  N24  1  0.448515  0.747464  0.822939  1
  N  N25  1  0.051485  0.247464  0.677061  1
  N  N26  1  0.551485  0.252536  0.177061  1
  N  N27  1  0.948515  0.752536  0.322939  1
  N  N28  1  0.516981  0.200539  0.850917  1
  N  N29  1  0.983019  0.700539  0.649083  1
  N  N30  1  0.483019  0.799461  0.149083  1
  N  N31  1  0.016981  0.299461  0.350917  1
  O  O32  1  0.433254  0.153824  0.923937  1
  O  O33  1  0.066746  0.653824  0.576063  1
  O  O34  1  0.566746  0.846176  0.076063  1
  O  O35  1  0.933254  0.346176  0.423937  1
  O  O36  1  0.592902  0.124518  0.785957  1
  O  O37  1  0.907098  0.624518  0.714043  1
  O  O38  1  0.407098  0.875482  0.214043  1
  O  O39  1  0.092902  0.375482  0.285957  1
  O  O40  1  0.531410  0.317541  0.837467  1
  O  O41  1  0.968590  0.817541  0.662533  1
  O  O42  1  0.468590  0.682459  0.162533  1
  O  O43  1  0.031410  0.182459  0.337467  1
