# generated using pymatgen
data_KBa4Sb3O
_symmetry_space_group_name_H-M   'P 1'
_cell_length_a   8.95406921
_cell_length_b   8.95406877
_cell_length_c   10.53640566
_cell_angle_alpha   115.14502695
_cell_angle_beta   115.14502562
_cell_angle_gamma   90.00000512
_symmetry_Int_Tables_number   1
_chemical_formula_structural   KBa4Sb3O
_chemical_formula_sum   'K2 Ba8 Sb6 O2'
_cell_volume   675.22771588
_cell_formula_units_Z   2
loop_
 _symmetry_equiv_pos_site_id
 _symmetry_equiv_pos_as_xyz
  1  'x, y, z'
loop_
 _atom_site_type_symbol
 _atom_site_label
 _atom_site_symmetry_multiplicity
 _atom_site_fract_x
 _atom_site_fract_y
 _atom_site_fract_z
 _atom_site_occupancy
  K  K0  1  0.000000  0.000000  0.000000  1
  K  K1  1  0.500000  0.500000  0.000000  1
  Ba  Ba2  1  0.495834  0.312246  0.308080  1
  Ba  Ba3  1  0.812246  0.995834  0.308080  1
  Ba  Ba4  1  0.995834  0.495834  0.308080  1
  Ba  Ba5  1  0.504166  0.687754  0.691920  1
  Ba  Ba6  1  0.687754  0.187754  0.691920  1
  Ba  Ba7  1  0.004166  0.504166  0.691920  1
  Ba  Ba8  1  0.312246  0.812246  0.308080  1
  Ba  Ba9  1  0.187754  0.004166  0.691920  1
  Sb  Sb10  1  0.115549  0.384451  0.000000  1
  Sb  Sb11  1  0.750000  0.750000  0.500000  1
  Sb  Sb12  1  0.384451  0.884451  1.000000  1
  Sb  Sb13  1  0.615549  0.115549  0.000000  1
  Sb  Sb14  1  0.884451  0.615549  1.000000  1
  Sb  Sb15  1  0.250000  0.250000  0.500000  1
  O  O16  1  0.250000  0.750000  0.500000  1
  O  O17  1  0.750000  0.250000  0.500000  1
