# generated using pymatgen
data_H2O
_symmetry_space_group_name_H-M   'P 1'
_cell_length_a   3.96558566
_cell_length_b   8.19203228
_cell_length_c   8.26164533
_cell_angle_alpha   89.06434785
_cell_angle_beta   89.96332456
_cell_angle_gamma   89.90847040
_symmetry_Int_Tables_number   1
_chemical_formula_structural   H2O
_chemical_formula_sum   'H24 O12'
_cell_volume   268.35333093
_cell_formula_units_Z   12
loop_
 _symmetry_equiv_pos_site_id
 _symmetry_equiv_pos_as_xyz
  1  'x, y, z'
loop_
 _atom_site_type_symbol
 _atom_site_label
 _atom_site_symmetry_multiplicity
 _atom_site_fract_x
 _atom_site_fract_y
 _atom_site_fract_z
 _atom_site_occupancy
  H  H0  1  0.392219  0.949344  0.589173  1
  H  H1  1  0.311139  0.719911  0.770963  1
  H  H2  1  0.944127  0.280293  0.272637  1
  H  H3  1  0.037129  0.723199  0.281787  1
  H  H4  1  0.016933  0.426436  0.153905  1
  H  H5  1  0.983505  0.154037  0.580236  1
  H  H6  1  0.890457  0.551075  0.908014  1
  H  H7  1  0.233453  0.577592  0.652588  1
  H  H8  1  0.481500  0.347901  0.916035  1
  H  H9  1  0.733505  0.923396  0.843407  1
  H  H10  1  0.141898  0.094932  0.957282  1
  H  H11  1  0.359151  0.450521  0.407805  1
  H  H12  1  0.811424  0.780423  0.725553  1
  H  H13  1  0.537201  0.778670  0.213640  1
  H  H14  1  0.642970  0.407342  0.538193  1
  H  H15  1  0.760655  0.657008  0.411782  1
  H  H16  1  0.444547  0.220848  0.225148  1
  H  H17  1  0.561702  0.227476  0.776928  1
  H  H18  1  0.858675  0.051584  0.087981  1
  H  H19  1  0.104249  0.906103  0.462104  1
  H  H20  1  0.519481  0.074469  0.343448  1
  H  H21  1  0.260523  0.844658  0.083511  1
  H  H22  1  0.602107  0.595055  0.034873  1
  H  H23  1  0.062089  0.275025  0.718864  1
  O  O24  1  0.622728  0.138707  0.252533  1
  O  O25  1  0.382143  0.253832  0.857666  1
  O  O26  1  0.883309  0.248524  0.637948  1
  O  O27  1  0.121330  0.362651  0.244878  1
  O  O28  1  0.356778  0.744868  0.136815  1
  O  O29  1  0.631155  0.860715  0.753352  1
  O  O30  1  0.999184  0.004345  0.000441  1
  O  O31  1  0.131163  0.639840  0.743114  1
  O  O32  1  0.499813  0.497902  0.495033  1
  O  O33  1  0.249958  0.996434  0.500903  1
  O  O34  1  0.747760  0.504354  0.996313  1
  O  O35  1  0.856441  0.756930  0.358648  1
