# generated using pymatgen
data_SeN
_symmetry_space_group_name_H-M   'P 1'
_cell_length_a   7.90360587
_cell_length_b   9.24748349
_cell_length_c   9.65904197
_cell_angle_alpha   93.55856397
_cell_angle_beta   90.00000000
_cell_angle_gamma   90.00000000
_symmetry_Int_Tables_number   1
_chemical_formula_structural   SeN
_chemical_formula_sum   'Se16 N16'
_cell_volume   704.60336256
_cell_formula_units_Z   16
loop_
 _symmetry_equiv_pos_site_id
 _symmetry_equiv_pos_as_xyz
  1  'x, y, z'
loop_
 _atom_site_type_symbol
 _atom_site_label
 _atom_site_symmetry_multiplicity
 _atom_site_fract_x
 _atom_site_fract_y
 _atom_site_fract_z
 _atom_site_occupancy
  N  N0  1  0.239086  0.539999  0.988016  1
  N  N1  1  0.739086  0.960001  0.511984  1
  N  N2  1  0.760914  0.460001  0.011984  1
  N  N3  1  0.260914  0.039999  0.488016  1
  N  N4  1  0.405112  0.363959  0.176101  1
  N  N5  1  0.905112  0.136041  0.323899  1
  N  N6  1  0.594888  0.636041  0.823899  1
  N  N7  1  0.094888  0.863959  0.676101  1
  N  N8  1  0.275355  0.113030  0.029988  1
  N  N9  1  0.775355  0.386970  0.470012  1
  N  N10  1  0.724645  0.886970  0.970012  1
  N  N11  1  0.224645  0.613030  0.529988  1
  N  N12  1  0.109855  0.289349  0.842731  1
  N  N13  1  0.609855  0.210651  0.657269  1
  N  N14  1  0.890145  0.710651  0.157269  1
  N  N15  1  0.390145  0.789349  0.342731  1
  Se  Se16  1  0.289707  0.409507  0.846646  1
  Se  Se17  1  0.789707  0.090493  0.653354  1
  Se  Se18  1  0.710293  0.590493  0.153354  1
  Se  Se19  1  0.210293  0.909507  0.346646  1
  Se  Se20  1  0.208109  0.456882  0.150385  1
  Se  Se21  1  0.708109  0.043118  0.349615  1
  Se  Se22  1  0.791891  0.543118  0.849615  1
  Se  Se23  1  0.291891  0.956882  0.650385  1
  Se  Se24  1  0.454872  0.233619  0.034153  1
  Se  Se25  1  0.954872  0.266381  0.465847  1
  Se  Se26  1  0.545128  0.766381  0.965847  1
  Se  Se27  1  0.045128  0.733619  0.534153  1
  Se  Se28  1  0.077679  0.206035  0.005421  1
  Se  Se29  1  0.577679  0.293965  0.494579  1
  Se  Se30  1  0.922321  0.793965  0.994579  1
  Se  Se31  1  0.422321  0.706035  0.505421  1
