# generated using pymatgen
data_Cu3(AsO4)2
_symmetry_space_group_name_H-M   'P 1'
_cell_length_a   6.37168534
_cell_length_b   8.82922538
_cell_length_c   11.53406712
_cell_angle_alpha   90.00000000
_cell_angle_beta   92.34943101
_cell_angle_gamma   90.00000000
_symmetry_Int_Tables_number   1
_chemical_formula_structural   Cu3(AsO4)2
_chemical_formula_sum   'Cu12 As8 O32'
_cell_volume   648.32710217
_cell_formula_units_Z   4
loop_
 _symmetry_equiv_pos_site_id
 _symmetry_equiv_pos_as_xyz
  1  'x, y, z'
loop_
 _atom_site_type_symbol
 _atom_site_label
 _atom_site_symmetry_multiplicity
 _atom_site_fract_x
 _atom_site_fract_y
 _atom_site_fract_z
 _atom_site_occupancy
  Cu  Cu0  1  0.243810  0.162992  0.633354  1
  Cu  Cu1  1  0.756190  0.662992  0.866646  1
  Cu  Cu2  1  0.756190  0.837008  0.366646  1
  Cu  Cu3  1  0.243810  0.337008  0.133354  1
  Cu  Cu4  1  0.616021  0.030200  0.875614  1
  Cu  Cu5  1  0.383979  0.530200  0.624386  1
  Cu  Cu6  1  0.383979  0.969800  0.124386  1
  Cu  Cu7  1  0.616021  0.469800  0.375614  1
  Cu  Cu8  1  0.908436  0.189841  0.431113  1
  Cu  Cu9  1  0.091564  0.689841  0.068887  1
  Cu  Cu10  1  0.091564  0.810159  0.568887  1
  Cu  Cu11  1  0.908436  0.310159  0.931113  1
  As  As12  1  0.416278  0.114584  0.368031  1
  As  As13  1  0.583722  0.614584  0.131969  1
  As  As14  1  0.583722  0.885416  0.631969  1
  As  As15  1  0.416278  0.385416  0.868031  1
  As  As16  1  0.897836  0.062378  0.151711  1
  As  As17  1  0.102164  0.562378  0.348289  1
  As  As18  1  0.102164  0.937622  0.848289  1
  As  As19  1  0.897836  0.437622  0.651711  1
  O  O20  1  0.606172  0.242790  0.418812  1
  O  O21  1  0.393828  0.742790  0.081188  1
  O  O22  1  0.393828  0.757210  0.581188  1
  O  O23  1  0.606172  0.257210  0.918812  1
  O  O24  1  0.962555  0.244050  0.102721  1
  O  O25  1  0.037445  0.744050  0.397279  1
  O  O26  1  0.037445  0.755950  0.897279  1
  O  O27  1  0.962555  0.255950  0.602721  1
  O  O28  1  0.202377  0.130583  0.457129  1
  O  O29  1  0.797623  0.630583  0.042871  1
  O  O30  1  0.797623  0.869417  0.542871  1
  O  O31  1  0.202377  0.369417  0.957129  1
  O  O32  1  0.087355  0.929865  0.120436  1
  O  O33  1  0.912645  0.429865  0.379564  1
  O  O34  1  0.912645  0.070135  0.879564  1
  O  O35  1  0.087355  0.570135  0.620436  1
  O  O36  1  0.340891  0.154466  0.223196  1
  O  O37  1  0.659109  0.654466  0.276804  1
  O  O38  1  0.659109  0.845534  0.776804  1
  O  O39  1  0.340891  0.345534  0.723196  1
  O  O40  1  0.670895  0.997134  0.083288  1
  O  O41  1  0.329105  0.497134  0.416712  1
  O  O42  1  0.329105  0.002866  0.916712  1
  O  O43  1  0.670895  0.502866  0.583288  1
  O  O44  1  0.482095  0.926708  0.366170  1
  O  O45  1  0.517905  0.426708  0.133830  1
  O  O46  1  0.517905  0.073292  0.633830  1
  O  O47  1  0.482095  0.573292  0.866170  1
  O  O48  1  0.868011  0.052549  0.300441  1
  O  O49  1  0.131989  0.552549  0.199559  1
  O  O50  1  0.131989  0.947451  0.699559  1
  O  O51  1  0.868011  0.447451  0.800441  1
