# generated using pymatgen
data_H12C5N2O
_symmetry_space_group_name_H-M   'P 1'
_cell_length_a   5.57273117
_cell_length_b   7.13106643
_cell_length_c   8.83261262
_cell_angle_alpha   90.00000000
_cell_angle_beta   90.00000000
_cell_angle_gamma   90.00000000
_symmetry_Int_Tables_number   1
_chemical_formula_structural   H12C5N2O
_chemical_formula_sum   'H24 C10 N4 O2'
_cell_volume   351.00375203
_cell_formula_units_Z   2
loop_
 _symmetry_equiv_pos_site_id
 _symmetry_equiv_pos_as_xyz
  1  'x, y, z'
loop_
 _atom_site_type_symbol
 _atom_site_label
 _atom_site_symmetry_multiplicity
 _atom_site_fract_x
 _atom_site_fract_y
 _atom_site_fract_z
 _atom_site_occupancy
  H  H0  1  0.772540  0.330863  0.042525  1
  H  H1  1  0.211985  0.167940  0.337991  1
  H  H2  1  0.772540  0.669137  0.042525  1
  H  H3  1  0.479177  0.500000  0.172223  1
  H  H4  1  0.211985  0.832060  0.337991  1
  H  H5  1  0.475187  0.500000  0.696516  1
  H  H6  1  0.246082  0.373258  0.797142  1
  H  H7  1  0.246082  0.626742  0.797142  1
  H  H8  1  0.520823  0.000000  0.672223  1
  H  H9  1  0.754109  0.873995  0.573707  1
  H  H10  1  0.524813  0.000000  0.196516  1
  H  H11  1  0.754109  0.126005  0.573707  1
  H  H12  1  0.553218  0.204969  0.931573  1
  H  H13  1  0.788015  0.667940  0.837991  1
  H  H14  1  0.788015  0.332060  0.837991  1
  H  H15  1  0.245891  0.373995  0.073707  1
  H  H16  1  0.753918  0.126742  0.297142  1
  H  H17  1  0.753918  0.873258  0.297142  1
  H  H18  1  0.553218  0.795031  0.931573  1
  H  H19  1  0.446782  0.295031  0.431573  1
  H  H20  1  0.227460  0.830863  0.542525  1
  H  H21  1  0.245891  0.626005  0.073707  1
  H  H22  1  0.227460  0.169137  0.542525  1
  H  H23  1  0.446782  0.704969  0.431573  1
  C  C24  1  0.330579  0.828700  0.436822  1
  C  C25  1  0.669421  0.671300  0.936822  1
  C  C26  1  0.869431  0.500000  0.428823  1
  C  C27  1  0.641844  0.000000  0.574181  1
  C  C28  1  0.130569  0.000000  0.928823  1
  C  C29  1  0.358156  0.500000  0.074181  1
  C  C30  1  0.330579  0.171300  0.436822  1
  C  C31  1  0.669421  0.328700  0.936822  1
  C  C32  1  0.642457  0.000000  0.295975  1
  C  C33  1  0.357543  0.500000  0.795975  1
  N  N34  1  0.487255  0.000000  0.434863  1
  N  N35  1  0.133304  0.000000  0.792791  1
  N  N36  1  0.866696  0.500000  0.292791  1
  N  N37  1  0.512745  0.500000  0.934863  1
  O  O38  1  0.129767  0.000000  0.068309  1
  O  O39  1  0.870233  0.500000  0.568309  1
