# generated using pymatgen
data_Sr3CePC3O13
_symmetry_space_group_name_H-M   'P 1'
_cell_length_a   6.65766211
_cell_length_b   6.65766186
_cell_length_c   6.65766212
_cell_angle_alpha   99.98873551
_cell_angle_beta   99.98873511
_cell_angle_gamma   99.98873926
_symmetry_Int_Tables_number   1
_chemical_formula_structural   Sr3CePC3O13
_chemical_formula_sum   'Sr3 Ce1 P1 C3 O13'
_cell_volume   279.84549271
_cell_formula_units_Z   1
loop_
 _symmetry_equiv_pos_site_id
 _symmetry_equiv_pos_as_xyz
  1  'x, y, z'
loop_
 _atom_site_type_symbol
 _atom_site_label
 _atom_site_symmetry_multiplicity
 _atom_site_fract_x
 _atom_site_fract_y
 _atom_site_fract_z
 _atom_site_occupancy
  Sr  Sr0  1  0.525899  0.525899  0.079116  1
  Sr  Sr1  1  0.525899  0.079116  0.525899  1
  Sr  Sr2  1  0.079116  0.525899  0.525899  1
  Ce  Ce3  1  0.999880  0.999880  0.999880  1
  P  P4  1  0.579507  0.579507  0.579507  1
  C  C5  1  0.066922  0.565877  0.066922  1
  C  C6  1  0.066922  0.066922  0.565877  1
  C  C7  1  0.565877  0.066922  0.066922  1
  O  O8  1  0.159458  0.657205  0.939989  1
  O  O9  1  0.939989  0.159458  0.657205  1
  O  O10  1  0.111208  0.111208  0.394661  1
  O  O11  1  0.438620  0.686079  0.438620  1
  O  O12  1  0.744545  0.744545  0.744545  1
  O  O13  1  0.657205  0.939989  0.159458  1
  O  O14  1  0.939989  0.657205  0.159458  1
  O  O15  1  0.438620  0.438620  0.686079  1
  O  O16  1  0.111208  0.394661  0.111208  1
  O  O17  1  0.657205  0.159458  0.939989  1
  O  O18  1  0.159458  0.939989  0.657205  1
  O  O19  1  0.686079  0.438620  0.438620  1
  O  O20  1  0.394661  0.111208  0.111208  1
