# generated using pymatgen
data_K3Nb2Ag3S8
_symmetry_space_group_name_H-M   'P 1'
_cell_length_a   5.97729092
_cell_length_b   12.86423194
_cell_length_c   13.88525433
_cell_angle_alpha   65.16180208
_cell_angle_beta   77.57114316
_cell_angle_gamma   76.56504984
_symmetry_Int_Tables_number   1
_chemical_formula_structural   K3Nb2Ag3S8
_chemical_formula_sum   'K6 Nb4 Ag6 S16'
_cell_volume   933.99797298
_cell_formula_units_Z   2
loop_
 _symmetry_equiv_pos_site_id
 _symmetry_equiv_pos_as_xyz
  1  'x, y, z'
loop_
 _atom_site_type_symbol
 _atom_site_label
 _atom_site_symmetry_multiplicity
 _atom_site_fract_x
 _atom_site_fract_y
 _atom_site_fract_z
 _atom_site_occupancy
  K  K0  1  0.246047  0.790995  0.600498  1
  K  K1  1  0.753953  0.209005  0.399502  1
  K  K2  1  0.362543  0.290682  0.100498  1
  K  K3  1  0.000000  0.500000  0.500000  1
  K  K4  1  0.637457  0.709318  0.899502  1
  K  K5  1  0.000000  0.000000  0.000000  1
  Nb  Nb6  1  0.411935  0.523654  0.220645  1
  Nb  Nb7  1  0.588065  0.476346  0.779355  1
  Nb  Nb8  1  0.843753  0.023679  0.720690  1
  Nb  Nb9  1  0.156247  0.976321  0.279310  1
  Ag  Ag10  1  0.282940  0.749995  0.249962  1
  Ag  Ag11  1  0.717060  0.250005  0.750038  1
  Ag  Ag12  1  0.911023  0.531465  0.214754  1
  Ag  Ag13  1  0.657082  0.968670  0.285296  1
  Ag  Ag14  1  0.088977  0.468535  0.785246  1
  Ag  Ag15  1  0.342918  0.031330  0.714704  1
  S  S16  1  0.452644  0.438820  0.653147  1
  S  S17  1  0.782559  0.632633  0.683653  1
  S  S18  1  0.711770  0.969570  0.607984  1
  S  S19  1  0.173855  0.686558  0.115980  1
  S  S20  1  0.826145  0.313442  0.884020  1
  S  S21  1  0.544527  0.061209  0.846848  1
  S  S22  1  0.023621  0.186537  0.616045  1
  S  S23  1  0.547356  0.561180  0.346853  1
  S  S24  1  0.976379  0.813463  0.383955  1
  S  S25  1  0.710842  0.469615  0.107949  1
  S  S26  1  0.289158  0.530385  0.892051  1
  S  S27  1  0.288230  0.030430  0.392016  1
  S  S28  1  0.098853  0.867378  0.816447  1
  S  S29  1  0.217441  0.367367  0.316347  1
  S  S30  1  0.455473  0.938791  0.153152  1
  S  S31  1  0.901147  0.132622  0.183553  1
