# generated using pymatgen
data_ThP2O7
_symmetry_space_group_name_H-M   'P 1'
_cell_length_a   9.02677846
_cell_length_b   9.02677846
_cell_length_c   9.02677846
_cell_angle_alpha   90.00000000
_cell_angle_beta   90.00000000
_cell_angle_gamma   90.00000000
_symmetry_Int_Tables_number   1
_chemical_formula_structural   ThP2O7
_chemical_formula_sum   'Th4 P8 O28'
_cell_volume   735.52654630
_cell_formula_units_Z   4
loop_
 _symmetry_equiv_pos_site_id
 _symmetry_equiv_pos_as_xyz
  1  'x, y, z'
loop_
 _atom_site_type_symbol
 _atom_site_label
 _atom_site_symmetry_multiplicity
 _atom_site_fract_x
 _atom_site_fract_y
 _atom_site_fract_z
 _atom_site_occupancy
  O  O0  1  0.761605  0.570628  0.556014  1
  O  O1  1  0.261605  0.929372  0.443986  1
  O  O2  1  0.238395  0.070628  0.943986  1
  O  O3  1  0.929372  0.443986  0.261605  1
  O  O4  1  0.943986  0.238395  0.070628  1
  O  O5  1  0.443986  0.261605  0.929372  1
  O  O6  1  0.570628  0.556014  0.761605  1
  O  O7  1  0.556014  0.761605  0.570628  1
  O  O8  1  0.070628  0.943986  0.238395  1
  O  O9  1  0.429372  0.056014  0.738395  1
  O  O10  1  0.056014  0.738395  0.429372  1
  O  O11  1  0.738395  0.429372  0.056014  1
  O  O12  1  0.500000  0.500000  0.500000  1
  O  O13  1  0.000000  0.500000  0.000000  1
  O  O14  1  0.000000  0.000000  0.500000  1
  O  O15  1  0.500000  0.000000  0.000000  1
  O  O16  1  0.261605  0.570628  0.943986  1
  O  O17  1  0.943986  0.261605  0.570628  1
  O  O18  1  0.570628  0.943986  0.261605  1
  O  O19  1  0.929372  0.056014  0.761605  1
  O  O20  1  0.443986  0.238395  0.429372  1
  O  O21  1  0.429372  0.443986  0.238395  1
  O  O22  1  0.556014  0.738395  0.070628  1
  O  O23  1  0.056014  0.761605  0.929372  1
  O  O24  1  0.070628  0.556014  0.738395  1
  O  O25  1  0.761605  0.929372  0.056014  1
  O  O26  1  0.738395  0.070628  0.556014  1
  O  O27  1  0.238395  0.429372  0.443986  1
  P  P28  1  0.398520  0.101480  0.898520  1
  P  P29  1  0.101480  0.898520  0.398520  1
  P  P30  1  0.898520  0.398520  0.101480  1
  P  P31  1  0.601480  0.601480  0.601480  1
  P  P32  1  0.601480  0.898520  0.101480  1
  P  P33  1  0.898520  0.101480  0.601480  1
  P  P34  1  0.101480  0.601480  0.898520  1
  P  P35  1  0.398520  0.398520  0.398520  1
  Th  Th36  1  0.000000  0.500000  0.500000  1
  Th  Th37  1  0.500000  0.500000  0.000000  1
  Th  Th38  1  0.500000  0.000000  0.500000  1
  Th  Th39  1  0.000000  0.000000  0.000000  1
