# generated using pymatgen
data_Ca2CuTe4(ClO5)2
_symmetry_space_group_name_H-M   'P 1'
_cell_length_a   5.43945450
_cell_length_b   7.33398322
_cell_length_c   8.83337926
_cell_angle_alpha   72.28942844
_cell_angle_beta   79.24064263
_cell_angle_gamma   77.87802779
_symmetry_Int_Tables_number   1
_chemical_formula_structural   Ca2CuTe4(ClO5)2
_chemical_formula_sum   'Ca2 Cu1 Te4 Cl2 O10'
_cell_volume   325.33718169
_cell_formula_units_Z   1
loop_
 _symmetry_equiv_pos_site_id
 _symmetry_equiv_pos_as_xyz
  1  'x, y, z'
loop_
 _atom_site_type_symbol
 _atom_site_label
 _atom_site_symmetry_multiplicity
 _atom_site_fract_x
 _atom_site_fract_y
 _atom_site_fract_z
 _atom_site_occupancy
  Ca  Ca0  1  0.828662  0.899451  0.894723  1
  Ca  Ca1  1  0.171338  0.100549  0.105277  1
  Cu  Cu2  1  0.000000  0.000000  0.500000  1
  Te  Te3  1  0.392409  0.180890  0.607008  1
  Te  Te4  1  0.382858  0.591015  0.146382  1
  Te  Te5  1  0.617142  0.408985  0.853618  1
  Te  Te6  1  0.607591  0.819110  0.392993  1
  Cl  Cl7  1  0.878853  0.403165  0.346739  1
  Cl  Cl8  1  0.121147  0.596835  0.653261  1
  O  O9  1  0.670305  0.602663  0.973004  1
  O  O10  1  0.343494  0.047044  0.378183  1
  O  O11  1  0.166375  0.801399  0.035826  1
  O  O12  1  0.105443  0.053932  0.679560  1
  O  O13  1  0.833625  0.198601  0.964174  1
  O  O14  1  0.329695  0.397337  0.026996  1
  O  O15  1  0.546456  0.827986  0.177802  1
  O  O16  1  0.656506  0.952956  0.621817  1
  O  O17  1  0.894557  0.946068  0.320440  1
  O  O18  1  0.453544  0.172014  0.822198  1
