# generated using pymatgen
data_Rb3In(PO4)2
_symmetry_space_group_name_H-M   'P 1'
_cell_length_a   10.12234169
_cell_length_b   11.81031525
_cell_length_c   16.21549329
_cell_angle_alpha   90.00000000
_cell_angle_beta   90.38830147
_cell_angle_gamma   90.00000000
_symmetry_Int_Tables_number   1
_chemical_formula_structural   Rb3In(PO4)2
_chemical_formula_sum   'Rb24 In8 P16 O64'
_cell_volume   1938.48602616
_cell_formula_units_Z   8
loop_
 _symmetry_equiv_pos_site_id
 _symmetry_equiv_pos_as_xyz
  1  'x, y, z'
loop_
 _atom_site_type_symbol
 _atom_site_label
 _atom_site_symmetry_multiplicity
 _atom_site_fract_x
 _atom_site_fract_y
 _atom_site_fract_z
 _atom_site_occupancy
  Rb  Rb0  1  0.296207  0.878602  0.491477  1
  Rb  Rb1  1  0.814325  0.136484  0.242822  1
  Rb  Rb2  1  0.796207  0.621398  0.991477  1
  Rb  Rb3  1  0.612907  0.915552  0.328357  1
  Rb  Rb4  1  0.703793  0.121398  0.508523  1
  Rb  Rb5  1  0.210652  0.400176  0.254230  1
  Rb  Rb6  1  0.737817  0.605591  0.500315  1
  Rb  Rb7  1  0.685675  0.636484  0.257178  1
  Rb  Rb8  1  0.901782  0.878481  0.582578  1
  Rb  Rb9  1  0.887093  0.415552  0.171643  1
  Rb  Rb10  1  0.112907  0.584448  0.828357  1
  Rb  Rb11  1  0.710652  0.099824  0.754230  1
  Rb  Rb12  1  0.762183  0.105591  0.999685  1
  Rb  Rb13  1  0.289348  0.900176  0.245770  1
  Rb  Rb14  1  0.098218  0.121519  0.417422  1
  Rb  Rb15  1  0.598218  0.378481  0.917422  1
  Rb  Rb16  1  0.185675  0.863516  0.757178  1
  Rb  Rb17  1  0.387093  0.084448  0.671643  1
  Rb  Rb18  1  0.401782  0.621519  0.082578  1
  Rb  Rb19  1  0.262183  0.394409  0.499685  1
  Rb  Rb20  1  0.203793  0.378602  0.008523  1
  Rb  Rb21  1  0.237817  0.894409  0.000315  1
  Rb  Rb22  1  0.789348  0.599824  0.745770  1
  Rb  Rb23  1  0.314325  0.363516  0.742822  1
  In  In24  1  0.577541  0.368564  0.368472  1
  In  In25  1  0.422459  0.631436  0.631528  1
  In  In26  1  0.073318  0.652515  0.385876  1
  In  In27  1  0.426682  0.152515  0.114124  1
  In  In28  1  0.926682  0.347485  0.614124  1
  In  In29  1  0.077541  0.131436  0.868472  1
  In  In30  1  0.922459  0.868564  0.131528  1
  In  In31  1  0.573318  0.847485  0.885876  1
  P  P32  1  0.434762  0.638150  0.854784  1
  P  P33  1  0.581075  0.878654  0.101458  1
  P  P34  1  0.934762  0.861850  0.354784  1
  P  P35  1  0.065238  0.138150  0.645216  1
  P  P36  1  0.418925  0.121346  0.898542  1
  P  P37  1  0.585290  0.365795  0.594305  1
  P  P38  1  0.944175  0.341576  0.837202  1
  P  P39  1  0.414710  0.634205  0.405695  1
  P  P40  1  0.565238  0.361850  0.145216  1
  P  P41  1  0.918925  0.378654  0.398542  1
  P  P42  1  0.444175  0.158424  0.337202  1
  P  P43  1  0.055825  0.658424  0.162798  1
  P  P44  1  0.081075  0.621346  0.601458  1
  P  P45  1  0.085290  0.134205  0.094305  1
  P  P46  1  0.555825  0.841576  0.662798  1
  P  P47  1  0.914710  0.865795  0.905695  1
  O  O48  1  0.228584  0.088833  0.109656  1
  O  O49  1  0.389441  0.065737  0.393862  1
  O  O50  1  0.619421  0.455153  0.088361  1
  O  O51  1  0.722493  0.927472  0.119718  1
  O  O52  1  0.597187  0.179568  0.352979  1
  O  O53  1  0.880579  0.955153  0.411639  1
  O  O54  1  0.396396  0.605302  0.764464  1
  O  O55  1  0.535886  0.800115  0.171198  1
  O  O56  1  0.988196  0.040966  0.126216  1
  O  O57  1  0.411718  0.344309  0.134343  1
  O  O58  1  0.440031  0.651992  0.499824  1
  O  O59  1  0.271416  0.588833  0.390344  1
  O  O60  1  0.911718  0.155691  0.634343  1
  O  O61  1  0.485612  0.981256  0.092976  1
  O  O62  1  0.059969  0.151992  0.000176  1
  O  O63  1  0.110559  0.565737  0.106138  1
  O  O64  1  0.618617  0.721833  0.645447  1
  O  O65  1  0.576592  0.880638  0.753698  1
  O  O66  1  0.035886  0.699885  0.671198  1
  O  O67  1  0.964114  0.300115  0.328802  1
  O  O68  1  0.603604  0.394698  0.235536  1
  O  O69  1  0.423408  0.119362  0.246302  1
  O  O70  1  0.896396  0.894698  0.264464  1
  O  O71  1  0.881383  0.221833  0.854553  1
  O  O72  1  0.277507  0.072528  0.880282  1
  O  O73  1  0.875015  0.741722  0.376806  1
  O  O74  1  0.610559  0.934263  0.606138  1
  O  O75  1  0.119421  0.044847  0.588361  1
  O  O76  1  0.103604  0.105302  0.735536  1
  O  O77  1  0.889441  0.434263  0.893862  1
  O  O78  1  0.381383  0.278167  0.354553  1
  O  O79  1  0.511804  0.540966  0.373784  1
  O  O80  1  0.488196  0.459034  0.626216  1
  O  O81  1  0.464114  0.199885  0.828802  1
  O  O82  1  0.578446  0.809376  0.018654  1
  O  O83  1  0.624985  0.241722  0.123194  1
  O  O84  1  0.559969  0.348008  0.500176  1
  O  O85  1  0.011804  0.959034  0.873784  1
  O  O86  1  0.728584  0.411167  0.609656  1
  O  O87  1  0.921554  0.309376  0.481346  1
  O  O88  1  0.439986  0.745677  0.360577  1
  O  O89  1  0.118617  0.778167  0.145447  1
  O  O90  1  0.771416  0.911167  0.890344  1
  O  O91  1  0.097187  0.320432  0.852979  1
  O  O92  1  0.088282  0.844309  0.365657  1
  O  O93  1  0.939986  0.754323  0.860577  1
  O  O94  1  0.124985  0.258278  0.623194  1
  O  O95  1  0.402813  0.820432  0.647021  1
  O  O96  1  0.902813  0.679568  0.147021  1
  O  O97  1  0.421554  0.190624  0.981346  1
  O  O98  1  0.060014  0.245677  0.139423  1
  O  O99  1  0.014388  0.481256  0.407024  1
  O  O100  1  0.222493  0.572528  0.619718  1
  O  O101  1  0.076592  0.619362  0.253698  1
  O  O102  1  0.078446  0.690624  0.518654  1
  O  O103  1  0.514388  0.018744  0.907024  1
  O  O104  1  0.923408  0.380638  0.746302  1
  O  O105  1  0.940031  0.848008  0.999824  1
  O  O106  1  0.560014  0.254323  0.639423  1
  O  O107  1  0.588282  0.655691  0.865657  1
  O  O108  1  0.380579  0.544847  0.911639  1
  O  O109  1  0.777507  0.427472  0.380282  1
  O  O110  1  0.375015  0.758278  0.876806  1
  O  O111  1  0.985612  0.518744  0.592976  1
