# generated using pymatgen
data_Gd(SiRu)2
_symmetry_space_group_name_H-M   'P 1'
_cell_length_a   4.20098179
_cell_length_b   4.20098205
_cell_length_c   5.66896949
_cell_angle_alpha   111.74795240
_cell_angle_beta   111.74795382
_cell_angle_gamma   89.99999886
_symmetry_Int_Tables_number   1
_chemical_formula_structural   Gd(SiRu)2
_chemical_formula_sum   'Gd1 Si2 Ru2'
_cell_volume   85.21215957
_cell_formula_units_Z   1
loop_
 _symmetry_equiv_pos_site_id
 _symmetry_equiv_pos_as_xyz
  1  'x, y, z'
loop_
 _atom_site_type_symbol
 _atom_site_label
 _atom_site_symmetry_multiplicity
 _atom_site_fract_x
 _atom_site_fract_y
 _atom_site_fract_z
 _atom_site_occupancy
  Gd  Gd0  1  0.000000  0.000000  0.000000  1
  Si  Si1  1  0.367409  0.367409  0.734818  1
  Si  Si2  1  0.632591  0.632591  0.265182  1
  Ru  Ru3  1  0.750000  0.250000  0.500000  1
  Ru  Ru4  1  0.250000  0.750000  0.500000  1
