# generated using pymatgen
data_FeBiO3
_symmetry_space_group_name_H-M   'P 1'
_cell_length_a   5.57982248
_cell_length_b   5.57676547
_cell_length_c   7.89202089
_cell_angle_alpha   90.00000000
_cell_angle_beta   90.00000000
_cell_angle_gamma   89.98745019
_symmetry_Int_Tables_number   1
_chemical_formula_structural   FeBiO3
_chemical_formula_sum   'Fe4 Bi4 O12'
_cell_volume   245.57885968
_cell_formula_units_Z   4
loop_
 _symmetry_equiv_pos_site_id
 _symmetry_equiv_pos_as_xyz
  1  'x, y, z'
loop_
 _atom_site_type_symbol
 _atom_site_label
 _atom_site_symmetry_multiplicity
 _atom_site_fract_x
 _atom_site_fract_y
 _atom_site_fract_z
 _atom_site_occupancy
  Fe  Fe0  1  0.999469  0.497182  0.250000  1
  Fe  Fe1  1  0.500531  0.002818  0.750000  1
  Fe  Fe2  1  0.000531  0.502818  0.750000  1
  Fe  Fe3  1  0.499469  0.997182  0.250000  1
  Bi  Bi4  1  0.500000  0.500000  0.500000  1
  Bi  Bi5  1  0.500000  0.500000  0.000000  1
  Bi  Bi6  1  0.000000  0.000000  0.000000  1
  Bi  Bi7  1  0.000000  0.000000  0.500000  1
  O  O8  1  0.251810  0.744028  0.250000  1
  O  O9  1  0.000000  0.500000  0.500000  1
  O  O10  1  0.000000  0.500000  0.000000  1
  O  O11  1  0.751810  0.244028  0.250000  1
  O  O12  1  0.500000  0.000000  0.000000  1
  O  O13  1  0.500000  0.000000  0.500000  1
  O  O14  1  0.248190  0.755972  0.750000  1
  O  O15  1  0.748190  0.255972  0.750000  1
  O  O16  1  0.754319  0.757152  0.750000  1
  O  O17  1  0.745681  0.742848  0.250000  1
  O  O18  1  0.254319  0.257152  0.750000  1
  O  O19  1  0.245681  0.242848  0.250000  1
