# generated using pymatgen
data_Ho3(AgSn)4
_symmetry_space_group_name_H-M   'P 1'
_cell_length_a   4.57171603
_cell_length_b   7.39997745
_cell_length_c   8.79562800
_cell_angle_alpha   114.88517184
_cell_angle_beta   105.06742016
_cell_angle_gamma   90.00582813
_symmetry_Int_Tables_number   1
_chemical_formula_structural   Ho3(AgSn)4
_chemical_formula_sum   'Ho3 Ag4 Sn4'
_cell_volume   258.60927922
_cell_formula_units_Z   1
loop_
 _symmetry_equiv_pos_site_id
 _symmetry_equiv_pos_as_xyz
  1  'x, y, z'
loop_
 _atom_site_type_symbol
 _atom_site_label
 _atom_site_symmetry_multiplicity
 _atom_site_fract_x
 _atom_site_fract_y
 _atom_site_fract_z
 _atom_site_occupancy
  Ho  Ho0  1  0.873394  0.373399  0.746807  1
  Ho  Ho1  1  0.000000  0.000000  0.000000  1
  Ho  Ho2  1  0.126606  0.626601  0.253192  1
  Ag  Ag3  1  0.671874  0.973666  0.343847  1
  Ag  Ag4  1  0.328126  0.026334  0.656153  1
  Ag  Ag5  1  0.671827  0.370073  0.343807  1
  Ag  Ag6  1  0.328173  0.629927  0.656193  1
  Sn  Sn7  1  0.500122  0.697210  -0.000028  1
  Sn  Sn8  1  0.499878  0.302790  1.000028  1
  Sn  Sn9  1  0.214973  0.215183  0.430283  1
  Sn  Sn10  1  0.785027  0.784817  0.569717  1
