# generated using pymatgen
data_AgCNO
_symmetry_space_group_name_H-M   'P 1'
_cell_length_a   5.27663009
_cell_length_b   5.27662980
_cell_length_c   5.27663019
_cell_angle_alpha   119.95236160
_cell_angle_beta   116.07199821
_cell_angle_gamma   93.50984702
_symmetry_Int_Tables_number   1
_chemical_formula_structural   AgCNO
_chemical_formula_sum   'Ag2 C2 N2 O2'
_cell_volume   106.64785222
_cell_formula_units_Z   2
loop_
 _symmetry_equiv_pos_site_id
 _symmetry_equiv_pos_as_xyz
  1  'x, y, z'
loop_
 _atom_site_type_symbol
 _atom_site_label
 _atom_site_symmetry_multiplicity
 _atom_site_fract_x
 _atom_site_fract_y
 _atom_site_fract_z
 _atom_site_occupancy
  Ag  Ag0  1  0.000000  0.000000  0.000000  1
  Ag  Ag1  1  0.500000  0.500000  0.000000  1
  C  C2  1  0.000000  0.500000  0.500000  1
  C  C3  1  0.500000  0.000000  0.500000  1
  N  N4  1  0.750000  0.750000  0.000000  1
  N  N5  1  0.250000  0.250000  0.000000  1
  O  O6  1  0.750000  0.250000  0.500000  1
  O  O7  1  0.250000  0.750000  0.500000  1
