# generated using pymatgen
data_SiO2
_symmetry_space_group_name_H-M   'P 1'
_cell_length_a   4.92506972
_cell_length_b   7.12610983
_cell_length_c   6.97433169
_cell_angle_alpha   122.67772316
_cell_angle_beta   83.95995409
_cell_angle_gamma   108.84196309
_symmetry_Int_Tables_number   1
_chemical_formula_structural   SiO2
_chemical_formula_sum   'Si4 O8'
_cell_volume   194.25579734
_cell_formula_units_Z   4
loop_
 _symmetry_equiv_pos_site_id
 _symmetry_equiv_pos_as_xyz
  1  'x, y, z'
loop_
 _atom_site_type_symbol
 _atom_site_label
 _atom_site_symmetry_multiplicity
 _atom_site_fract_x
 _atom_site_fract_y
 _atom_site_fract_z
 _atom_site_occupancy
  Si  Si0  1  0.895370  0.422462  0.949529  1
  Si  Si1  1  0.044468  0.960244  0.201450  1
  Si  Si2  1  0.311819  0.135398  0.888489  1
  Si  Si3  1  0.556536  0.130621  0.503340  1
  O  O4  1  0.390752  0.980887  0.622343  1
  O  O5  1  1.028004  0.700933  0.136639  1
  O  O6  1  0.109078  0.968250  0.971752  1
  O  O7  1  0.304961  0.163790  0.400501  1
  O  O8  1  0.146865  0.306349  0.903048  1
  O  O9  1  0.621350  0.299869  0.045025  1
  O  O10  1  0.737636  -0.000943  0.290775  1
  O  O11  1  0.776211  0.377642  0.710361  1
