# generated using pymatgen
data_Ti8O15
_symmetry_space_group_name_H-M   'P 1'
_cell_length_a   5.58414619
_cell_length_b   7.19517076
_cell_length_c   26.12962478
_cell_angle_alpha   91.27203752
_cell_angle_beta   89.32182623
_cell_angle_gamma   71.34640897
_symmetry_Int_Tables_number   1
_chemical_formula_structural   Ti8O15
_chemical_formula_sum   'Ti32 O60'
_cell_volume   994.26586523
_cell_formula_units_Z   4
loop_
 _symmetry_equiv_pos_site_id
 _symmetry_equiv_pos_as_xyz
  1  'x, y, z'
loop_
 _atom_site_type_symbol
 _atom_site_label
 _atom_site_symmetry_multiplicity
 _atom_site_fract_x
 _atom_site_fract_y
 _atom_site_fract_z
 _atom_site_occupancy
  Ti  Ti0  1  0.549215  0.949061  0.227301  1
  Ti  Ti1  1  0.950869  0.052875  0.274221  1
  Ti  Ti2  1  0.392960  0.905506  0.095669  1
  Ti  Ti3  1  0.607040  0.094494  0.904331  1
  Ti  Ti4  1  0.950785  0.550939  0.272699  1
  Ti  Ti5  1  0.697156  0.367242  0.468095  1
  Ti  Ti6  1  0.515705  0.809658  0.340260  1
  Ti  Ti7  1  0.201779  0.366422  0.967831  1
  Ti  Ti8  1  0.985517  0.186102  0.160035  1
  Ti  Ti9  1  0.802844  0.132758  0.031905  1
  Ti  Ti10  1  0.602331  0.595891  0.904836  1
  Ti  Ti11  1  0.049131  0.947125  0.725779  1
  Ti  Ti12  1  0.485517  0.686102  0.660035  1
  Ti  Ti13  1  0.014483  0.813898  0.839965  1
  Ti  Ti14  1  0.514483  0.313898  0.339965  1
  Ti  Ti15  1  0.049215  0.449061  0.727301  1
  Ti  Ti16  1  0.450785  0.050939  0.772699  1
  Ti  Ti17  1  0.798221  0.633578  0.032169  1
  Ti  Ti18  1  0.549131  0.447125  0.225779  1
  Ti  Ti19  1  0.701779  0.866422  0.467831  1
  Ti  Ti20  1  0.897669  0.904109  0.595164  1
  Ti  Ti21  1  0.102331  0.095891  0.404836  1
  Ti  Ti22  1  0.015705  0.309658  0.840260  1
  Ti  Ti23  1  0.107040  0.594494  0.404331  1
  Ti  Ti24  1  0.302844  0.632758  0.531905  1
  Ti  Ti25  1  0.397669  0.404109  0.095164  1
  Ti  Ti26  1  0.298221  0.133578  0.532169  1
  Ti  Ti27  1  0.984295  0.690342  0.159740  1
  Ti  Ti28  1  0.450869  0.552875  0.774221  1
  Ti  Ti29  1  0.484295  0.190342  0.659740  1
  Ti  Ti30  1  0.892960  0.405506  0.595669  1
  Ti  Ti31  1  0.197156  0.867242  0.968095  1
  O  O32  1  0.252905  0.751030  0.894094  1
  O  O33  1  0.274299  0.187570  0.121405  1
  O  O34  1  0.342098  0.521049  0.170570  1
  O  O35  1  0.247095  0.748970  0.605906  1
  O  O36  1  0.202679  0.081073  0.226001  1
  O  O37  1  0.157884  0.968589  0.038985  1
  O  O38  1  0.492657  0.369463  0.922774  1
  O  O39  1  0.323674  0.084139  0.945112  1
  O  O40  1  0.225701  0.312430  0.378595  1
  O  O41  1  0.907745  0.093585  0.858255  1
  O  O42  1  0.888721  0.457095  0.196170  1
  O  O43  1  0.092255  0.906415  0.141745  1
  O  O44  1  0.201085  0.661266  0.710083  1
  O  O45  1  0.388721  0.957095  0.696170  1
  O  O46  1  0.470303  0.925951  0.406058  1
  O  O47  1  0.048933  0.204319  0.761780  1
  O  O48  1  0.081231  0.643756  0.988204  1
  O  O49  1  0.157902  0.978951  0.329430  1
  O  O50  1  0.797321  0.918927  0.773999  1
  O  O51  1  0.657884  0.468589  0.538985  1
  O  O52  1  0.029697  0.574049  0.093942  1
  O  O53  1  0.581231  0.143756  0.488204  1
  O  O54  1  0.878096  0.662869  0.339320  1
  O  O55  1  0.951067  0.795681  0.238220  1
  O  O56  1  0.063332  0.195222  0.472841  1
  O  O57  1  0.657902  0.478951  0.829430  1
  O  O58  1  0.529697  0.074049  0.593942  1
  O  O59  1  0.007343  0.130537  0.577226  1
  O  O60  1  0.378096  0.162869  0.839320  1
  O  O61  1  0.842098  0.021049  0.670570  1
  O  O62  1  0.970303  0.425951  0.906058  1
  O  O63  1  0.676326  0.915861  0.054888  1
  O  O64  1  0.842116  0.031411  0.961015  1
  O  O65  1  0.992657  0.869463  0.422774  1
  O  O66  1  0.298915  0.838734  0.789917  1
  O  O67  1  0.121904  0.337131  0.660680  1
  O  O68  1  0.747095  0.248970  0.105906  1
  O  O69  1  0.725701  0.812430  0.878595  1
  O  O70  1  0.823674  0.584139  0.445112  1
  O  O71  1  0.507343  0.630537  0.077226  1
  O  O72  1  0.592255  0.406415  0.641745  1
  O  O73  1  0.918769  0.356244  0.011796  1
  O  O74  1  0.407745  0.593585  0.358255  1
  O  O75  1  0.297321  0.418927  0.273999  1
  O  O76  1  0.111279  0.542905  0.803830  1
  O  O77  1  0.798915  0.338734  0.289917  1
  O  O78  1  0.752905  0.251030  0.394094  1
  O  O79  1  0.342116  0.531411  0.461015  1
  O  O80  1  0.611279  0.042905  0.303830  1
  O  O81  1  0.701085  0.161266  0.210083  1
  O  O82  1  0.176326  0.415861  0.554888  1
  O  O83  1  0.563332  0.695222  0.972841  1
  O  O84  1  0.548933  0.704319  0.261780  1
  O  O85  1  0.451067  0.295681  0.738220  1
  O  O86  1  0.621904  0.837131  0.160680  1
  O  O87  1  0.418769  0.856244  0.511796  1
  O  O88  1  0.702679  0.581073  0.726001  1
  O  O89  1  0.936668  0.804778  0.527159  1
  O  O90  1  0.774299  0.687570  0.621405  1
  O  O91  1  0.436668  0.304778  0.027159  1
