# generated using pymatgen
data_MgVO3
_symmetry_space_group_name_H-M   'P 1'
_cell_length_a   5.33459968
_cell_length_b   5.21062093
_cell_length_c   5.81776819
_cell_angle_alpha   116.57317485
_cell_angle_beta   89.99583176
_cell_angle_gamma   90.01431773
_symmetry_Int_Tables_number   1
_chemical_formula_structural   MgVO3
_chemical_formula_sum   'Mg2 V2 O6'
_cell_volume   144.63117463
_cell_formula_units_Z   2
loop_
 _symmetry_equiv_pos_site_id
 _symmetry_equiv_pos_as_xyz
  1  'x, y, z'
loop_
 _atom_site_type_symbol
 _atom_site_label
 _atom_site_symmetry_multiplicity
 _atom_site_fract_x
 _atom_site_fract_y
 _atom_site_fract_z
 _atom_site_occupancy
  Mg  Mg0  1  0.499997  0.173787  0.347555  1
  O  O1  1  0.771206  0.500053  0.500089  1
  V  V2  1  0.999991  0.674774  0.349304  1
  V  V3  1  0.000008  0.325226  0.650691  1
  O  O4  1  0.228923  0.000029  0.500074  1
  O  O5  1  1.000001  0.499999  1.000000  1
  Mg  Mg6  1  0.500002  0.826215  0.652450  1
  O  O7  1  0.771077  0.999970  0.499924  1
  O  O8  1  0.228795  0.499948  0.499910  1
  O  O9  1  0.500001  -0.000000  0.000002  1
