# generated using pymatgen
data_Er4I5
_symmetry_space_group_name_H-M   'P 1'
_cell_length_a   3.93273742
_cell_length_b   8.75291324
_cell_length_c   9.46430470
_cell_angle_alpha   103.36852558
_cell_angle_beta   101.99243982
_cell_angle_gamma   90.00609079
_symmetry_Int_Tables_number   1
_chemical_formula_structural   Er4I5
_chemical_formula_sum   'Er4 I5'
_cell_volume   309.64628152
_cell_formula_units_Z   1
loop_
 _symmetry_equiv_pos_site_id
 _symmetry_equiv_pos_as_xyz
  1  'x, y, z'
loop_
 _atom_site_type_symbol
 _atom_site_label
 _atom_site_symmetry_multiplicity
 _atom_site_fract_x
 _atom_site_fract_y
 _atom_site_fract_z
 _atom_site_occupancy
  Er  Er0  1  0.999616  0.196064  0.999221  1
  Er  Er1  1  0.000384  0.803936  0.000779  1
  Er  Er2  1  0.366553  0.932523  0.733064  1
  Er  Er3  1  0.633447  0.067477  0.266936  1
  I  I4  1  0.832177  0.653492  0.664212  1
  I  I5  1  0.167823  0.346508  0.335788  1
  I  I6  1  0.825515  0.175246  0.650838  1
  I  I7  1  0.174485  0.824754  0.349162  1
  I  I8  1  0.500000  0.500000  0.000000  1
