# generated using pymatgen
data_Ba2V(CuS2)3
_symmetry_space_group_name_H-M   'P 1'
_cell_length_a   8.83402214
_cell_length_b   8.83402169
_cell_length_c   9.02220847
_cell_angle_alpha   103.41801710
_cell_angle_beta   105.90638044
_cell_angle_gamma   118.88795397
_symmetry_Int_Tables_number   1
_chemical_formula_structural   Ba2V(CuS2)3
_chemical_formula_sum   'Ba4 V2 Cu6 S12'
_cell_volume   534.46447993
_cell_formula_units_Z   2
loop_
 _symmetry_equiv_pos_site_id
 _symmetry_equiv_pos_as_xyz
  1  'x, y, z'
loop_
 _atom_site_type_symbol
 _atom_site_label
 _atom_site_symmetry_multiplicity
 _atom_site_fract_x
 _atom_site_fract_y
 _atom_site_fract_z
 _atom_site_occupancy
  Ba  Ba0  1  0.159322  0.854850  0.944433  1
  Ba  Ba1  1  0.410418  0.214890  0.555567  1
  Ba  Ba2  1  0.840678  0.145150  0.055567  1
  Ba  Ba3  1  0.589582  0.785110  0.444433  1
  V  V4  1  0.111383  0.361383  0.750000  1
  V  V5  1  0.888617  0.638617  0.250000  1
  Cu  Cu6  1  0.838732  0.323184  0.492383  1
  Cu  Cu7  1  0.669199  0.653651  0.992383  1
  Cu  Cu8  1  0.584098  0.334098  0.250000  1
  Cu  Cu9  1  0.415902  0.665902  0.750000  1
  Cu  Cu10  1  0.161268  0.676816  0.507617  1
  Cu  Cu11  1  0.330801  0.346349  0.007617  1
  S  S12  1  0.366535  0.615815  0.982041  1
  S  S13  1  0.697695  0.695450  0.762123  1
  S  S14  1  0.633465  0.384184  0.017959  1
  S  S15  1  0.138553  0.651965  0.243425  1
  S  S16  1  0.302305  0.304550  0.237877  1
  S  S17  1  0.566674  0.064428  0.262123  1
  S  S18  1  0.861447  0.348035  0.756575  1
  S  S19  1  0.133775  0.384494  0.517959  1
  S  S20  1  0.091460  0.104872  0.743425  1
  S  S21  1  0.433326  0.935572  0.737877  1
  S  S22  1  0.866225  0.615506  0.482041  1
  S  S23  1  0.908540  0.895128  0.256575  1
