# generated using pymatgen
data_Na2BeSiO4
_symmetry_space_group_name_H-M   'P 1'
_cell_length_a   4.98793451
_cell_length_b   9.97274737
_cell_length_c   14.21488747
_cell_angle_alpha   90.00000000
_cell_angle_beta   90.00000000
_cell_angle_gamma   90.00000000
_symmetry_Int_Tables_number   1
_chemical_formula_structural   Na2BeSiO4
_chemical_formula_sum   'Na16 Be8 Si8 O32'
_cell_volume   707.09698642
_cell_formula_units_Z   8
loop_
 _symmetry_equiv_pos_site_id
 _symmetry_equiv_pos_as_xyz
  1  'x, y, z'
loop_
 _atom_site_type_symbol
 _atom_site_label
 _atom_site_symmetry_multiplicity
 _atom_site_fract_x
 _atom_site_fract_y
 _atom_site_fract_z
 _atom_site_occupancy
  Na  Na0  1  0.008673  0.007039  0.958027  1
  Na  Na1  1  0.978846  0.779871  0.786167  1
  Na  Na2  1  0.509670  0.492044  0.072860  1
  Na  Na3  1  0.490330  0.507956  0.572860  1
  Na  Na4  1  0.978846  0.720129  0.286167  1
  Na  Na5  1  0.008673  0.492961  0.458027  1
  Na  Na6  1  0.509670  0.007956  0.572860  1
  Na  Na7  1  0.490330  0.992044  0.072860  1
  Na  Na8  1  0.471826  0.764792  0.663528  1
  Na  Na9  1  0.021154  0.279871  0.786167  1
  Na  Na10  1  0.021154  0.220129  0.286167  1
  Na  Na11  1  0.471826  0.735208  0.163528  1
  Na  Na12  1  0.528174  0.264792  0.663528  1
  Na  Na13  1  0.528174  0.235208  0.163528  1
  Na  Na14  1  0.991327  0.992961  0.458027  1
  Na  Na15  1  0.991327  0.507039  0.958027  1
  Be  Be16  1  0.989506  0.766120  0.574046  1
  Be  Be17  1  0.010494  0.266120  0.574046  1
  Be  Be18  1  0.043817  0.016011  0.682730  1
  Be  Be19  1  0.956183  0.983989  0.182730  1
  Be  Be20  1  0.043817  0.483989  0.182730  1
  Be  Be21  1  0.010494  0.233880  0.074046  1
  Be  Be22  1  0.989506  0.733880  0.074046  1
  Be  Be23  1  0.956183  0.516011  0.682730  1
  Si  Si24  1  0.523809  0.487977  0.308364  1
  Si  Si25  1  0.508722  0.263368  0.940373  1
  Si  Si26  1  0.476191  0.512023  0.808364  1
  Si  Si27  1  0.523809  0.012023  0.808364  1
  Si  Si28  1  0.476191  0.987977  0.308364  1
  Si  Si29  1  0.491278  0.763368  0.940373  1
  Si  Si30  1  0.491278  0.736632  0.440373  1
  Si  Si31  1  0.508722  0.236632  0.440373  1
  O  O32  1  0.292640  0.488465  0.716470  1
  O  O33  1  0.277449  0.313288  0.498693  1
  O  O34  1  0.707360  0.988465  0.716470  1
  O  O35  1  0.115556  0.336914  0.150244  1
  O  O36  1  0.876551  0.400384  0.610724  1
  O  O37  1  0.629138  0.902776  0.892404  1
  O  O38  1  0.707360  0.511535  0.216470  1
  O  O39  1  0.205288  0.508786  0.295181  1
  O  O40  1  0.370862  0.402776  0.892404  1
  O  O41  1  0.123449  0.599616  0.110724  1
  O  O42  1  0.884444  0.836914  0.150244  1
  O  O43  1  0.277449  0.186712  0.998693  1
  O  O44  1  0.722551  0.813288  0.498693  1
  O  O45  1  0.604848  0.333473  0.349215  1
  O  O46  1  0.722551  0.686712  0.998693  1
  O  O47  1  0.794712  0.491214  0.795181  1
  O  O48  1  0.604848  0.166527  0.849215  1
  O  O49  1  0.123449  0.900384  0.610724  1
  O  O50  1  0.115556  0.163086  0.650244  1
  O  O51  1  0.395152  0.833473  0.349215  1
  O  O52  1  0.395152  0.666527  0.849215  1
  O  O53  1  0.794712  0.008786  0.295181  1
  O  O54  1  0.629138  0.597224  0.392404  1
  O  O55  1  0.235335  0.812431  1.000974  1
  O  O56  1  0.884444  0.663086  0.650244  1
  O  O57  1  0.292640  0.011535  0.216470  1
  O  O58  1  0.370862  0.097224  0.392404  1
  O  O59  1  0.235335  0.687569  0.500974  1
  O  O60  1  0.205288  0.991214  0.795181  1
  O  O61  1  0.764665  0.312431  1.000974  1
  O  O62  1  0.764665  0.187569  0.500974  1
  O  O63  1  0.876551  0.099616  0.110724  1
