# generated using pymatgen
data_La3C2I3
_symmetry_space_group_name_H-M   'P 1'
_cell_length_a   10.82548586
_cell_length_b   10.82548601
_cell_length_c   17.88202728
_cell_angle_alpha   90.00000000
_cell_angle_beta   90.00000000
_cell_angle_gamma   111.69778527
_symmetry_Int_Tables_number   1
_chemical_formula_structural   La3C2I3
_chemical_formula_sum   'La24 C16 I24'
_cell_volume   1947.13435000
_cell_formula_units_Z   8
loop_
 _symmetry_equiv_pos_site_id
 _symmetry_equiv_pos_as_xyz
  1  'x, y, z'
loop_
 _atom_site_type_symbol
 _atom_site_label
 _atom_site_symmetry_multiplicity
 _atom_site_fract_x
 _atom_site_fract_y
 _atom_site_fract_z
 _atom_site_occupancy
  La  La0  1  0.156797  0.894252  1.000369  1
  La  La1  1  0.740874  0.769265  0.400580  1
  La  La2  1  0.615676  0.323419  0.979297  1
  La  La3  1  0.631122  0.368878  0.750000  1
  La  La4  1  0.552134  0.009958  0.603309  1
  La  La5  1  0.384324  0.676581  0.479297  1
  La  La6  1  0.769265  0.740874  0.599420  1
  La  La7  1  0.470650  0.973831  0.381231  1
  La  La8  1  0.973831  0.470650  0.618769  1
  La  La9  1  0.529350  0.026169  0.881231  1
  La  La10  1  0.447866  0.990042  0.103309  1
  La  La11  1  0.105748  0.843203  0.499631  1
  La  La12  1  0.323419  0.615676  0.020703  1
  La  La13  1  0.009958  0.552134  0.396691  1
  La  La14  1  0.831248  0.168752  0.750000  1
  La  La15  1  0.230735  0.259126  0.099420  1
  La  La16  1  0.259126  0.230735  0.900580  1
  La  La17  1  0.990042  0.447866  0.896691  1
  La  La18  1  0.676581  0.384324  0.520703  1
  La  La19  1  0.168752  0.831248  0.250000  1
  La  La20  1  0.843203  0.105748  0.500369  1
  La  La21  1  0.026169  0.529350  0.118769  1
  La  La22  1  0.368878  0.631122  0.250000  1
  La  La23  1  0.894252  0.156797  -0.000369  1
  C  C24  1  0.280421  0.724902  0.349888  1
  C  C25  1  0.902625  0.590900  0.528683  1
  C  C26  1  0.656687  0.853049  0.523530  1
  C  C27  1  0.590900  0.902625  0.471317  1
  C  C28  1  0.719579  0.275098  0.849888  1
  C  C29  1  0.781320  0.225060  0.904143  1
  C  C30  1  0.218680  0.774940  0.404143  1
  C  C31  1  0.275098  0.719579  0.150112  1
  C  C32  1  0.724902  0.280421  0.650112  1
  C  C33  1  0.343313  0.146951  0.023530  1
  C  C34  1  0.853049  0.656687  0.476470  1
  C  C35  1  0.146951  0.343313  0.976470  1
  C  C36  1  0.225060  0.781320  0.095857  1
  C  C37  1  0.097375  0.409100  0.028683  1
  C  C38  1  0.409100  0.097375  0.971317  1
  C  C39  1  0.774940  0.218680  0.595857  1
  I  I40  1  0.362968  0.098867  0.743151  1
  I  I41  1  0.863207  0.629861  0.993921  1
  I  I42  1  0.901133  0.637032  0.756849  1
  I  I43  1  0.501225  0.517671  0.880888  1
  I  I44  1  0.141747  0.370480  0.754349  1
  I  I45  1  0.370139  0.136793  0.506079  1
  I  I46  1  0.482329  0.498775  0.619112  1
  I  I47  1  0.986741  0.979538  0.132645  1
  I  I48  1  0.498775  0.482329  0.380888  1
  I  I49  1  0.136793  0.370139  0.493921  1
  I  I50  1  0.746019  0.259733  0.367254  1
  I  I51  1  0.979538  0.986741  0.867355  1
  I  I52  1  0.020462  0.013259  0.367355  1
  I  I53  1  0.259733  0.746019  0.632746  1
  I  I54  1  0.740267  0.253981  0.132746  1
  I  I55  1  0.253981  0.740267  0.867254  1
  I  I56  1  0.629861  0.863207  0.006079  1
  I  I57  1  0.098867  0.362968  0.256849  1
  I  I58  1  0.013259  0.020462  0.632645  1
  I  I59  1  0.370480  0.141747  0.245651  1
  I  I60  1  0.637032  0.901133  0.243151  1
  I  I61  1  0.629520  0.858253  0.745651  1
  I  I62  1  0.517671  0.501225  0.119112  1
  I  I63  1  0.858253  0.629520  0.254349  1
