# generated using pymatgen
data_KCaAl2F9
_symmetry_space_group_name_H-M   'P 1'
_cell_length_a   7.24723451
_cell_length_b   7.24723458
_cell_length_c   23.00917665
_cell_angle_alpha   90.00000000
_cell_angle_beta   90.00000000
_cell_angle_gamma   119.80701015
_symmetry_Int_Tables_number   1
_chemical_formula_structural   KCaAl2F9
_chemical_formula_sum   'K6 Ca6 Al12 F54'
_cell_volume   1048.61878362
_cell_formula_units_Z   6
loop_
 _symmetry_equiv_pos_site_id
 _symmetry_equiv_pos_as_xyz
  1  'x, y, z'
loop_
 _atom_site_type_symbol
 _atom_site_label
 _atom_site_symmetry_multiplicity
 _atom_site_fract_x
 _atom_site_fract_y
 _atom_site_fract_z
 _atom_site_occupancy
  K  K0  1  0.010459  0.989541  0.000000  1
  K  K1  1  0.964170  0.007044  0.833482  1
  K  K2  1  0.989541  0.010459  0.500000  1
  K  K3  1  0.007044  0.964170  0.666518  1
  K  K4  1  0.992956  0.035830  0.166518  1
  K  K5  1  0.035830  0.992956  0.333482  1
  Ca  Ca6  1  0.500835  0.988275  0.583476  1
  Ca  Ca7  1  0.515324  0.515324  0.250000  1
  Ca  Ca8  1  0.988275  0.500835  0.916524  1
  Ca  Ca9  1  0.484676  0.484676  0.750000  1
  Ca  Ca10  1  0.011725  0.499165  0.416524  1
  Ca  Ca11  1  0.499165  0.011725  0.083476  1
  Al  Al12  1  0.001679  0.484519  0.586269  1
  Al  Al13  1  0.520618  0.017596  0.253226  1
  Al  Al14  1  0.982404  0.479382  0.746774  1
  Al  Al15  1  0.484519  0.001679  0.913731  1
  Al  Al16  1  0.496857  0.512559  0.080113  1
  Al  Al17  1  0.998321  0.515481  0.086269  1
  Al  Al18  1  0.479382  0.982404  0.753226  1
  Al  Al19  1  0.017596  0.520618  0.246774  1
  Al  Al20  1  0.487441  0.503143  0.919887  1
  Al  Al21  1  0.512559  0.496857  0.419887  1
  Al  Al22  1  0.503143  0.487441  0.580113  1
  Al  Al23  1  0.515481  0.998321  0.413731  1
  F  F24  1  0.459771  0.520849  0.843198  1
  F  F25  1  0.226524  0.334874  0.415447  1
  F  F26  1  0.797579  0.660111  0.427922  1
  F  F27  1  0.520849  0.459771  0.656802  1
  F  F28  1  0.247732  0.713045  0.761355  1
  F  F29  1  0.415000  0.966315  0.676842  1
  F  F30  1  0.485928  0.514072  0.500000  1
  F  F31  1  0.886332  0.672116  0.232600  1
  F  F32  1  0.479151  0.540229  0.156802  1
  F  F33  1  0.202421  0.339889  0.927922  1
  F  F34  1  0.795580  0.130708  0.397010  1
  F  F35  1  0.540229  0.479151  0.343198  1
  F  F36  1  0.752268  0.286955  0.261355  1
  F  F37  1  0.641084  0.859497  0.742800  1
  F  F38  1  0.270079  0.520500  0.594217  1
  F  F39  1  0.005505  0.460718  0.166474  1
  F  F40  1  0.729921  0.479500  0.094217  1
  F  F41  1  0.585000  0.033685  0.176842  1
  F  F42  1  0.232792  0.873496  0.426207  1
  F  F43  1  0.514072  0.485928  0.000000  1
  F  F44  1  0.520500  0.270079  0.905783  1
  F  F45  1  0.672116  0.886332  0.267400  1
  F  F46  1  0.126504  0.767208  0.573793  1
  F  F47  1  0.988391  0.573530  0.010284  1
  F  F48  1  0.737871  0.454655  0.571716  1
  F  F49  1  0.869292  0.204420  0.602990  1
  F  F50  1  0.479500  0.729921  0.405783  1
  F  F51  1  0.660111  0.797579  0.072078  1
  F  F52  1  0.773476  0.665126  0.915447  1
  F  F53  1  0.873496  0.232792  0.073793  1
  F  F54  1  0.545345  0.262129  0.428284  1
  F  F55  1  0.286955  0.752268  0.238645  1
  F  F56  1  0.713045  0.247732  0.738645  1
  F  F57  1  0.130708  0.795580  0.102990  1
  F  F58  1  0.966315  0.415000  0.823158  1
  F  F59  1  0.994495  0.539282  0.666474  1
  F  F60  1  0.327884  0.113668  0.767400  1
  F  F61  1  0.460718  0.005505  0.333526  1
  F  F62  1  0.033685  0.585000  0.323158  1
  F  F63  1  0.011609  0.426470  0.510284  1
  F  F64  1  0.767208  0.126504  0.926207  1
  F  F65  1  0.665126  0.773476  0.584553  1
  F  F66  1  0.358916  0.140503  0.242800  1
  F  F67  1  0.334874  0.226524  0.084553  1
  F  F68  1  0.859497  0.641084  0.757200  1
  F  F69  1  0.454655  0.737871  0.928284  1
  F  F70  1  0.339889  0.202421  0.572078  1
  F  F71  1  0.113668  0.327884  0.732600  1
  F  F72  1  0.140503  0.358916  0.257200  1
  F  F73  1  0.204420  0.869292  0.897010  1
  F  F74  1  0.426470  0.011609  0.989716  1
  F  F75  1  0.573530  0.988391  0.489716  1
  F  F76  1  0.539282  0.994495  0.833526  1
  F  F77  1  0.262129  0.545345  0.071716  1
