# generated using pymatgen
data_KFeF4
_symmetry_space_group_name_H-M   'P 1'
_cell_length_a   7.72906835
_cell_length_b   7.93417148
_cell_length_c   12.45991821
_cell_angle_alpha   90.00000000
_cell_angle_beta   90.00000000
_cell_angle_gamma   90.00000000
_symmetry_Int_Tables_number   1
_chemical_formula_structural   KFeF4
_chemical_formula_sum   'K8 Fe8 F32'
_cell_volume   764.08895505
_cell_formula_units_Z   8
loop_
 _symmetry_equiv_pos_site_id
 _symmetry_equiv_pos_as_xyz
  1  'x, y, z'
loop_
 _atom_site_type_symbol
 _atom_site_label
 _atom_site_symmetry_multiplicity
 _atom_site_fract_x
 _atom_site_fract_y
 _atom_site_fract_z
 _atom_site_occupancy
  K  K0  1  0.000000  0.501187  0.275292  1
  K  K1  1  0.500000  0.501683  0.733056  1
  K  K2  1  0.000000  0.001683  0.266944  1
  K  K3  1  0.500000  0.749754  0.225584  1
  K  K4  1  0.500000  0.001187  0.724708  1
  K  K5  1  0.000000  0.249754  0.774416  1
  K  K6  1  0.000000  0.749737  0.766969  1
  K  K7  1  0.500000  0.249737  0.233031  1
  Fe  Fe8  1  0.250505  0.751065  0.498986  1
  Fe  Fe9  1  0.249495  0.251065  0.501014  1
  Fe  Fe10  1  0.249563  0.499173  0.001004  1
  Fe  Fe11  1  0.750437  0.499173  0.001004  1
  Fe  Fe12  1  0.749563  0.999173  0.998996  1
  Fe  Fe13  1  0.750505  0.251065  0.501014  1
  Fe  Fe14  1  0.749495  0.751065  0.498986  1
  Fe  Fe15  1  0.250437  0.999173  0.998996  1
  F  F16  1  0.285410  0.001093  0.501813  1
  F  F17  1  0.700679  0.744966  0.648707  1
  F  F18  1  0.281685  0.749165  0.001486  1
  F  F19  1  0.701675  0.494175  0.150953  1
  F  F20  1  0.798325  0.994175  0.849047  1
  F  F21  1  0.000000  0.527216  0.038817  1
  F  F22  1  0.200070  0.505451  0.851315  1
  F  F23  1  0.718315  0.749165  0.001486  1
  F  F24  1  0.000000  0.969898  0.035789  1
  F  F25  1  0.299321  0.744966  0.648707  1
  F  F26  1  0.799321  0.244966  0.351293  1
  F  F27  1  0.785410  0.501093  0.498187  1
  F  F28  1  0.799930  0.505451  0.851315  1
  F  F29  1  0.200679  0.244966  0.351293  1
  F  F30  1  0.797578  0.757837  0.349077  1
  F  F31  1  0.702422  0.257837  0.650923  1
  F  F32  1  0.299930  0.005451  0.148685  1
  F  F33  1  0.500000  0.027216  0.961183  1
  F  F34  1  0.202422  0.757837  0.349077  1
  F  F35  1  0.000000  0.782556  0.535075  1
  F  F36  1  0.500000  0.469898  0.964211  1
  F  F37  1  0.214590  0.501093  0.498187  1
  F  F38  1  0.781685  0.249165  0.998514  1
  F  F39  1  0.201675  0.994175  0.849047  1
  F  F40  1  0.700070  0.005451  0.148685  1
  F  F41  1  0.714590  0.001093  0.501813  1
  F  F42  1  0.297578  0.257837  0.650923  1
  F  F43  1  0.500000  0.282556  0.464925  1
  F  F44  1  0.218315  0.249165  0.998514  1
  F  F45  1  0.500000  0.717919  0.461945  1
  F  F46  1  0.000000  0.217919  0.538055  1
  F  F47  1  0.298325  0.494175  0.150953  1
