# generated using pymatgen
data_Na3Fe2(PO4)3
_symmetry_space_group_name_H-M   'P 1'
_cell_length_a   8.84549931
_cell_length_b   8.84549902
_cell_length_c   8.90897924
_cell_angle_alpha   59.77334992
_cell_angle_beta   59.77335102
_cell_angle_gamma   60.16180954
_symmetry_Int_Tables_number   1
_chemical_formula_structural   Na3Fe2(PO4)3
_chemical_formula_sum   'Na6 Fe4 P6 O24'
_cell_volume   491.79702451
_cell_formula_units_Z   2
loop_
 _symmetry_equiv_pos_site_id
 _symmetry_equiv_pos_as_xyz
  1  'x, y, z'
loop_
 _atom_site_type_symbol
 _atom_site_label
 _atom_site_symmetry_multiplicity
 _atom_site_fract_x
 _atom_site_fract_y
 _atom_site_fract_z
 _atom_site_occupancy
  Na  Na0  1  0.890980  0.751598  0.241409  1
  Na  Na1  1  0.109020  0.248402  0.758591  1
  Na  Na2  1  0.751598  0.890980  0.741409  1
  Na  Na3  1  0.248402  0.109020  0.258591  1
  Na  Na4  1  0.500000  0.000000  0.500000  1
  Na  Na5  1  0.000000  0.500000  0.000000  1
  Fe  Fe6  1  0.846645  0.357793  0.442029  1
  Fe  Fe7  1  0.642207  0.153355  0.057971  1
  Fe  Fe8  1  0.153355  0.642207  0.557971  1
  Fe  Fe9  1  0.357793  0.846645  0.942029  1
  P  P10  1  0.549838  0.747405  0.239359  1
  P  P11  1  0.252595  0.450162  0.260641  1
  P  P12  1  0.044142  0.955858  0.750000  1
  P  P13  1  0.450162  0.252595  0.760641  1
  P  P14  1  0.747405  0.549838  0.739359  1
  P  P15  1  0.955858  0.044142  0.250000  1
  O  O16  1  0.086893  0.435618  0.253691  1
  O  O17  1  0.290182  0.625089  0.098807  1
  O  O18  1  0.731610  0.583519  0.252147  1
  O  O19  1  0.564382  0.913107  0.246309  1
  O  O20  1  0.220656  0.938271  0.762988  1
  O  O21  1  0.779344  0.061729  0.237012  1
  O  O22  1  0.532144  0.798351  0.054249  1
  O  O23  1  0.709818  0.374911  0.901193  1
  O  O24  1  0.416481  0.268390  0.247853  1
  O  O25  1  0.984662  0.873143  0.424614  1
  O  O26  1  0.913107  0.564382  0.746309  1
  O  O27  1  0.938271  0.220656  0.262988  1
  O  O28  1  0.374911  0.709818  0.401193  1
  O  O29  1  0.798351  0.532144  0.554249  1
  O  O30  1  0.268390  0.416481  0.747853  1
  O  O31  1  0.126857  0.015338  0.075386  1
  O  O32  1  0.015338  0.126857  0.575386  1
  O  O33  1  0.467856  0.201649  0.945751  1
  O  O34  1  0.435618  0.086893  0.753691  1
  O  O35  1  0.061729  0.779344  0.737012  1
  O  O36  1  0.583519  0.731610  0.752147  1
  O  O37  1  0.625089  0.290182  0.598807  1
  O  O38  1  0.201649  0.467856  0.445751  1
  O  O39  1  0.873143  0.984662  0.924614  1
