# generated using pymatgen
data_Ba2FeCoF9
_symmetry_space_group_name_H-M   'P 1'
_cell_length_a   5.80032267
_cell_length_b   7.62912842
_cell_length_c   17.93985532
_cell_angle_alpha   90.00000000
_cell_angle_beta   90.00000000
_cell_angle_gamma   90.45394963
_symmetry_Int_Tables_number   1
_chemical_formula_structural   Ba2FeCoF9
_chemical_formula_sum   'Ba8 Fe4 Co4 F36'
_cell_volume   793.83891451
_cell_formula_units_Z   4
loop_
 _symmetry_equiv_pos_site_id
 _symmetry_equiv_pos_as_xyz
  1  'x, y, z'
loop_
 _atom_site_type_symbol
 _atom_site_label
 _atom_site_symmetry_multiplicity
 _atom_site_fract_x
 _atom_site_fract_y
 _atom_site_fract_z
 _atom_site_occupancy
  Ba  Ba0  1  0.246785  0.195643  0.036205  1
  Ba  Ba1  1  0.253215  0.304356  0.536205  1
  Ba  Ba2  1  0.753215  0.804357  0.963795  1
  Ba  Ba3  1  0.746785  0.695643  0.463795  1
  Ba  Ba4  1  0.215108  0.428987  0.282637  1
  Ba  Ba5  1  0.284892  0.071013  0.782637  1
  Ba  Ba6  1  0.784892  0.571013  0.717363  1
  Ba  Ba7  1  0.715108  0.928987  0.217363  1
  Co  Co8  1  0.268537  0.726595  0.087153  1
  Co  Co9  1  0.231463  0.773405  0.587153  1
  Co  Co10  1  0.731463  0.273405  0.912847  1
  Co  Co11  1  0.768537  0.226595  0.412847  1
  Fe  Fe12  1  0.265387  0.912594  0.374680  1
  Fe  Fe13  1  0.234613  0.587406  0.874680  1
  Fe  Fe14  1  0.734613  0.087406  0.625320  1
  Fe  Fe15  1  0.765387  0.412594  0.125320  1
  F  F16  1  0.506963  0.396645  0.414807  1
  F  F17  1  0.993037  0.103355  0.914807  1
  F  F18  1  0.493037  0.603355  0.585193  1
  F  F19  1  0.006963  0.896645  0.085193  1
  F  F20  1  0.313013  0.705860  0.193901  1
  F  F21  1  0.186987  0.794140  0.693901  1
  F  F22  1  0.686987  0.294140  0.806099  1
  F  F23  1  0.813013  0.205860  0.306099  1
  F  F24  1  0.310340  0.064812  0.290769  1
  F  F25  1  0.189660  0.435188  0.790769  1
  F  F26  1  0.689660  0.935188  0.709231  1
  F  F27  1  0.810340  0.564812  0.209231  1
  F  F28  1  0.241336  0.760381  0.468346  1
  F  F29  1  0.258664  0.739619  0.968346  1
  F  F30  1  0.758664  0.239619  0.531654  1
  F  F31  1  0.741336  0.260381  0.031654  1
  F  F32  1  0.503637  0.934285  0.083062  1
  F  F33  1  0.996363  0.565715  0.583062  1
  F  F34  1  0.496363  0.065715  0.916938  1
  F  F35  1  0.003637  0.434285  0.416938  1
  F  F36  1  0.498982  0.290051  0.165302  1
  F  F37  1  0.001018  0.209949  0.665302  1
  F  F38  1  0.501018  0.709949  0.834698  1
  F  F39  1  0.998982  0.790051  0.334698  1
  F  F40  1  0.478338  0.738279  0.336304  1
  F  F41  1  0.021662  0.761721  0.836304  1
  F  F42  1  0.521662  0.261721  0.663696  1
  F  F43  1  0.978338  0.238279  0.163696  1
  F  F44  1  0.040565  0.514332  0.076593  1
  F  F45  1  0.459435  0.985668  0.576593  1
  F  F46  1  0.959435  0.485668  0.923407  1
  F  F47  1  0.540565  0.014332  0.423407  1
  F  F48  1  0.062166  0.073785  0.429409  1
  F  F49  1  0.437834  0.426215  0.929409  1
  F  F50  1  0.937834  0.926215  0.570591  1
  F  F51  1  0.562166  0.573785  0.070591  1
