# generated using pymatgen
data_CoAs4F18
_symmetry_space_group_name_H-M   'P 1'
_cell_length_a   7.42350762
_cell_length_b   7.44549788
_cell_length_c   13.14097569
_cell_angle_alpha   90.00000000
_cell_angle_beta   90.00000000
_cell_angle_gamma   91.81884132
_symmetry_Int_Tables_number   1
_chemical_formula_structural   CoAs4F18
_chemical_formula_sum   'Co2 As8 F36'
_cell_volume   725.95826227
_cell_formula_units_Z   2
loop_
 _symmetry_equiv_pos_site_id
 _symmetry_equiv_pos_as_xyz
  1  'x, y, z'
loop_
 _atom_site_type_symbol
 _atom_site_label
 _atom_site_symmetry_multiplicity
 _atom_site_fract_x
 _atom_site_fract_y
 _atom_site_fract_z
 _atom_site_occupancy
  Co  Co0  1  0.500000  0.500000  0.500000  1
  Co  Co1  1  0.000000  0.000000  0.000000  1
  As  As2  1  0.500000  0.000000  0.500000  1
  As  As3  1  0.517343  0.438814  0.781363  1
  As  As4  1  0.982657  0.061186  0.281363  1
  As  As5  1  0.500000  0.000000  0.000000  1
  As  As6  1  0.000000  0.500000  0.000000  1
  As  As7  1  0.482657  0.561186  0.218637  1
  As  As8  1  0.017343  0.938814  0.718637  1
  As  As9  1  0.000000  0.500000  0.500000  1
  F  F10  1  0.735884  0.052779  0.967629  1
  F  F11  1  0.553438  0.541645  0.653934  1
  F  F12  1  0.185433  0.167976  0.244502  1
  F  F13  1  0.264116  0.947221  0.032371  1
  F  F14  1  0.443792  0.233465  0.528034  1
  F  F15  1  0.314567  0.332024  0.744502  1
  F  F16  1  0.440582  0.209498  0.949453  1
  F  F17  1  0.968374  0.400650  0.619016  1
  F  F18  1  0.280246  0.959196  0.454800  1
  F  F19  1  0.780246  0.459196  0.045200  1
  F  F20  1  0.571665  0.061121  0.377738  1
  F  F21  1  0.940582  0.709498  0.550547  1
  F  F22  1  0.071665  0.561121  0.122262  1
  F  F23  1  0.468374  0.900650  0.880984  1
  F  F24  1  0.946562  0.958355  0.153934  1
  F  F25  1  0.846959  0.242415  0.253212  1
  F  F26  1  0.928335  0.438879  0.877738  1
  F  F27  1  0.235884  0.552779  0.532371  1
  F  F28  1  0.056208  0.266535  0.028034  1
  F  F29  1  0.446562  0.458355  0.346066  1
  F  F30  1  0.719754  0.040804  0.545200  1
  F  F31  1  0.559418  0.790502  0.050547  1
  F  F32  1  0.764116  0.447221  0.467629  1
  F  F33  1  0.219754  0.540804  0.954800  1
  F  F34  1  0.346959  0.742415  0.246788  1
  F  F35  1  0.685433  0.667976  0.255498  1
  F  F36  1  0.428335  0.938879  0.622262  1
  F  F37  1  0.653041  0.257585  0.753212  1
  F  F38  1  0.053438  0.041645  0.846066  1
  F  F39  1  0.059418  0.290502  0.449453  1
  F  F40  1  0.943792  0.733465  0.971966  1
  F  F41  1  0.556208  0.766535  0.471966  1
  F  F42  1  0.153041  0.757585  0.746788  1
  F  F43  1  0.031626  0.599350  0.380984  1
  F  F44  1  0.531626  0.099350  0.119016  1
  F  F45  1  0.814567  0.832024  0.755498  1
