# generated using pymatgen
data_K2NaS2ClO6
_symmetry_space_group_name_H-M   'P 1'
_cell_length_a   5.67074689
_cell_length_b   12.32220551
_cell_length_c   12.32220551
_cell_angle_alpha   90.00000000
_cell_angle_beta   90.00000000
_cell_angle_gamma   90.00000000
_symmetry_Int_Tables_number   1
_chemical_formula_structural   K2NaS2ClO6
_chemical_formula_sum   'K8 Na4 S8 Cl4 O24'
_cell_volume   861.02777009
_cell_formula_units_Z   4
loop_
 _symmetry_equiv_pos_site_id
 _symmetry_equiv_pos_as_xyz
  1  'x, y, z'
loop_
 _atom_site_type_symbol
 _atom_site_label
 _atom_site_symmetry_multiplicity
 _atom_site_fract_x
 _atom_site_fract_y
 _atom_site_fract_z
 _atom_site_occupancy
  K  K0  1  0.482607  1.000151  0.305374  1
  K  K1  1  0.482607  0.194626  1.000151  1
  K  K2  1  0.517393  -0.000151  0.694626  1
  K  K3  1  0.482607  0.499849  0.194626  1
  K  K4  1  0.482607  0.305374  0.499849  1
  K  K5  1  0.517393  0.694626  0.500151  1
  K  K6  1  0.517393  0.500151  0.805374  1
  K  K7  1  0.517393  0.805374  -0.000151  1
  Na  Na8  1  0.947224  0.750000  0.750000  1
  Na  Na9  1  0.000000  0.750000  0.250000  1
  Na  Na10  1  0.052776  0.250000  0.250000  1
  Na  Na11  1  0.000000  0.250000  0.750000  1
  S  S12  1  0.024490  0.587717  0.009122  1
  S  S13  1  0.024490  0.009122  0.912283  1
  S  S14  1  0.975510  0.990878  0.087717  1
  S  S15  1  0.975510  0.087717  0.509122  1
  S  S16  1  0.975510  0.412283  0.990878  1
  S  S17  1  0.024490  0.912283  0.490878  1
  S  S18  1  0.024490  0.490878  0.587717  1
  S  S19  1  0.975510  0.509122  0.412283  1
  Cl  Cl20  1  0.438482  0.750000  0.750000  1
  Cl  Cl21  1  0.500000  0.750000  0.250000  1
  Cl  Cl22  1  0.561518  0.250000  0.250000  1
  Cl  Cl23  1  0.500000  0.250000  0.750000  1
  O  O24  1  0.928188  0.610447  0.117512  1
  O  O25  1  0.071812  0.617512  0.389553  1
  O  O26  1  0.888564  0.580015  0.637046  1
  O  O27  1  0.718930  0.397196  0.999459  1
  O  O28  1  0.111436  0.137046  0.419985  1
  O  O29  1  0.111436  0.419985  0.362954  1
  O  O30  1  0.928188  0.117512  0.889553  1
  O  O31  1  0.281070  0.000541  0.897196  1
  O  O32  1  0.718930  0.500541  0.397196  1
  O  O33  1  0.281070  0.897196  0.499459  1
  O  O34  1  0.071812  0.110447  0.617512  1
  O  O35  1  0.888564  0.862954  0.580015  1
  O  O36  1  0.071812  0.389553  0.882488  1
  O  O37  1  0.928188  0.889553  0.382488  1
  O  O38  1  0.281070  0.499459  0.602804  1
  O  O39  1  0.928188  0.382488  0.610447  1
  O  O40  1  0.071812  0.882488  0.110447  1
  O  O41  1  0.281070  0.602804  0.000541  1
  O  O42  1  0.718930  0.999459  0.102804  1
  O  O43  1  0.888564  0.919985  0.862954  1
  O  O44  1  0.111436  0.080015  0.137046  1
  O  O45  1  0.718930  0.102804  0.500541  1
  O  O46  1  0.888564  0.637046  0.919985  1
  O  O47  1  0.111436  0.362954  0.080015  1
