# generated using pymatgen
data_NaCuPO4
_symmetry_space_group_name_H-M   'P 1'
_cell_length_a   4.84793744
_cell_length_b   7.31164030
_cell_length_c   9.83824586
_cell_angle_alpha   90.00000000
_cell_angle_beta   90.00000000
_cell_angle_gamma   90.00000000
_symmetry_Int_Tables_number   1
_chemical_formula_structural   NaCuPO4
_chemical_formula_sum   'Na4 Cu4 P4 O16'
_cell_volume   348.73014972
_cell_formula_units_Z   4
loop_
 _symmetry_equiv_pos_site_id
 _symmetry_equiv_pos_as_xyz
  1  'x, y, z'
loop_
 _atom_site_type_symbol
 _atom_site_label
 _atom_site_symmetry_multiplicity
 _atom_site_fract_x
 _atom_site_fract_y
 _atom_site_fract_z
 _atom_site_occupancy
  Na  Na0  1  0.983301  0.732889  0.812440  1
  Na  Na1  1  0.516699  0.267111  0.312440  1
  Na  Na2  1  0.016699  0.232889  0.687560  1
  Na  Na3  1  0.483301  0.767111  0.187560  1
  Cu  Cu4  1  0.500806  0.435690  0.957483  1
  Cu  Cu5  1  1.000806  0.064310  0.042517  1
  Cu  Cu6  1  0.499194  0.935690  0.542517  1
  Cu  Cu7  1  -0.000806  0.564310  0.457483  1
  P  P8  1  0.063717  0.972295  0.365295  1
  P  P9  1  0.936283  0.472295  0.134705  1
  P  P10  1  0.563717  0.527705  0.634705  1
  P  P11  1  0.436283  0.027705  0.865295  1
  O  O12  1  0.834645  0.526473  0.278776  1
  O  O13  1  0.745928  0.976840  0.375303  1
  O  O14  1  0.754072  0.023160  0.875303  1
  O  O15  1  0.793406  0.605617  0.031878  1
  O  O16  1  0.206594  0.105617  0.468122  1
  O  O17  1  0.665355  0.473527  0.778776  1
  O  O18  1  0.305524  0.220433  0.896315  1
  O  O19  1  0.194476  0.779567  0.396315  1
  O  O20  1  0.254072  0.476840  0.124697  1
  O  O21  1  0.245928  0.523160  0.624697  1
  O  O22  1  0.165355  0.026473  0.221224  1
  O  O23  1  0.334645  0.973527  0.721224  1
  O  O24  1  0.694476  0.720433  0.603685  1
  O  O25  1  0.706594  0.394383  0.531878  1
  O  O26  1  0.805524  0.279567  0.103685  1
  O  O27  1  0.293406  0.894383  0.968122  1
