# generated using pymatgen
data_AgH9C7S2(OF)4
_symmetry_space_group_name_H-M   'P 1'
_cell_length_a   6.89606960
_cell_length_b   8.51390266
_cell_length_c   11.14922876
_cell_angle_alpha   87.45032009
_cell_angle_beta   84.33560105
_cell_angle_gamma   83.78697535
_symmetry_Int_Tables_number   1
_chemical_formula_structural   AgH9C7S2(OF)4
_chemical_formula_sum   'Ag2 H18 C14 S4 O8 F8'
_cell_volume   647.19810969
_cell_formula_units_Z   2
loop_
 _symmetry_equiv_pos_site_id
 _symmetry_equiv_pos_as_xyz
  1  'x, y, z'
loop_
 _atom_site_type_symbol
 _atom_site_label
 _atom_site_symmetry_multiplicity
 _atom_site_fract_x
 _atom_site_fract_y
 _atom_site_fract_z
 _atom_site_occupancy
  Ag  Ag0  1  0.174701  0.981684  0.072274  1
  Ag  Ag1  1  0.825299  0.018316  0.927726  1
  H  H2  1  0.716215  0.693697  0.249784  1
  H  H3  1  0.643003  0.629760  0.911443  1
  H  H4  1  0.113281  0.385979  0.042473  1
  H  H5  1  0.979498  0.359077  0.620945  1
  H  H6  1  0.908537  0.777361  0.687537  1
  H  H7  1  0.308091  0.467733  0.947681  1
  H  H8  1  0.691909  0.532267  0.052319  1
  H  H9  1  0.252989  0.709054  0.331252  1
  H  H10  1  0.261402  0.098741  0.756419  1
  H  H11  1  0.738598  0.901259  0.243581  1
  H  H12  1  0.356997  0.370240  0.088557  1
  H  H13  1  0.091463  0.222639  0.312463  1
  H  H14  1  0.747011  0.290946  0.668748  1
  H  H15  1  0.047676  0.849855  0.372289  1
  H  H16  1  0.283785  0.306303  0.750216  1
  H  H17  1  0.886719  0.614021  0.957527  1
  H  H18  1  0.952324  0.150145  0.627711  1
  H  H19  1  0.020502  0.640923  0.379055  1
  C  C20  1  0.462975  0.788292  0.594815  1
  C  C21  1  0.269524  0.371740  0.011539  1
  C  C22  1  0.905845  0.263889  0.669386  1
  C  C23  1  0.780362  0.240410  0.212642  1
  C  C24  1  0.635438  0.842978  0.657450  1
  C  C25  1  0.662875  0.324052  0.324013  1
  C  C26  1  0.730476  0.628260  0.988461  1
  C  C27  1  0.777676  0.790838  0.195743  1
  C  C28  1  0.537025  0.211708  0.405185  1
  C  C29  1  0.094155  0.736111  0.330614  1
  C  C30  1  0.337125  0.675948  0.675987  1
  C  C31  1  0.364562  0.157022  0.342550  1
  C  C32  1  0.222324  0.209162  0.804257  1
  C  C33  1  0.219638  0.759590  0.787358  1
  S  S34  1  0.660478  0.816638  0.057806  1
  S  S35  1  0.957506  0.255879  0.825763  1
  S  S36  1  0.042494  0.744121  0.174237  1
  S  S37  1  0.339522  0.183362  0.942194  1
  O  O38  1  0.687882  0.233832  0.122989  1
  O  O39  1  0.956330  0.184396  0.226493  1
  O  O40  1  0.608548  0.961078  0.718482  1
  O  O41  1  0.312118  0.766168  0.877011  1
  O  O42  1  0.391452  0.038922  0.281518  1
  O  O43  1  0.043670  0.815604  0.773507  1
  O  O44  1  0.796771  0.747553  0.637096  1
  O  O45  1  0.203229  0.252447  0.362904  1
  F  F46  1  0.530553  0.714530  0.489551  1
  F  F47  1  0.461976  0.549458  0.714532  1
  F  F48  1  0.538024  0.450542  0.285468  1
  F  F49  1  0.662186  0.080942  0.434504  1
  F  F50  1  0.786769  0.385087  0.395267  1
  F  F51  1  0.469447  0.285470  0.510449  1
  F  F52  1  0.213231  0.614913  0.604733  1
  F  F53  1  0.337814  0.919058  0.565496  1
