# generated using pymatgen
data_CSNF5
_symmetry_space_group_name_H-M   'P 1'
_cell_length_a   6.04922839
_cell_length_b   8.59703166
_cell_length_c   9.73268051
_cell_angle_alpha   90.00000000
_cell_angle_beta   90.00000000
_cell_angle_gamma   90.00000000
_symmetry_Int_Tables_number   1
_chemical_formula_structural   CSNF5
_chemical_formula_sum   'C4 S4 N4 F20'
_cell_volume   506.15202073
_cell_formula_units_Z   4
loop_
 _symmetry_equiv_pos_site_id
 _symmetry_equiv_pos_as_xyz
  1  'x, y, z'
loop_
 _atom_site_type_symbol
 _atom_site_label
 _atom_site_symmetry_multiplicity
 _atom_site_fract_x
 _atom_site_fract_y
 _atom_site_fract_z
 _atom_site_occupancy
  C  C0  1  0.250000  0.026359  0.358120  1
  C  C1  1  0.750000  0.526359  0.141880  1
  C  C2  1  0.250000  0.473641  0.858120  1
  C  C3  1  0.750000  0.973641  0.641880  1
  S  S4  1  0.250000  0.927900  0.199154  1
  S  S5  1  0.250000  0.572100  0.699154  1
  S  S6  1  0.750000  0.072100  0.800846  1
  S  S7  1  0.750000  0.427900  0.300846  1
  N  N8  1  0.250000  0.407904  0.962690  1
  N  N9  1  0.750000  0.907904  0.537310  1
  N  N10  1  0.250000  0.092096  0.462690  1
  N  N11  1  0.750000  0.592096  0.037310  1
  F  F12  1  0.250000  0.091561  0.119824  1
  F  F13  1  0.250000  0.838577  0.055512  1
  F  F14  1  0.250000  0.763552  0.278178  1
  F  F15  1  0.015480  0.427563  0.300852  1
  F  F16  1  0.250000  0.661423  0.555512  1
  F  F17  1  0.750000  0.591561  0.380176  1
  F  F18  1  0.250000  0.408439  0.619824  1
  F  F19  1  0.984520  0.927563  0.199148  1
  F  F20  1  0.015480  0.072437  0.800852  1
  F  F21  1  0.984520  0.572437  0.699148  1
  F  F22  1  0.515480  0.572437  0.699148  1
  F  F23  1  0.484520  0.072437  0.800852  1
  F  F24  1  0.750000  0.338577  0.444488  1
  F  F25  1  0.484520  0.427563  0.300852  1
  F  F26  1  0.750000  0.161423  0.944488  1
  F  F27  1  0.750000  0.236448  0.721822  1
  F  F28  1  0.515480  0.927563  0.199148  1
  F  F29  1  0.750000  0.263552  0.221822  1
  F  F30  1  0.250000  0.736448  0.778178  1
  F  F31  1  0.750000  0.908439  0.880176  1
