# generated using pymatgen
data_Sb2MoO6
_symmetry_space_group_name_H-M   'P 1'
_cell_length_a   10.27486160
_cell_length_b   11.42338615
_cell_length_c   18.46753273
_cell_angle_alpha   95.95584602
_cell_angle_beta   90.25218284
_cell_angle_gamma   90.25678776
_symmetry_Int_Tables_number   1
_chemical_formula_structural   Sb2MoO6
_chemical_formula_sum   'Sb32 Mo16 O96'
_cell_volume   2155.85501536
_cell_formula_units_Z   16
loop_
 _symmetry_equiv_pos_site_id
 _symmetry_equiv_pos_as_xyz
  1  'x, y, z'
loop_
 _atom_site_type_symbol
 _atom_site_label
 _atom_site_symmetry_multiplicity
 _atom_site_fract_x
 _atom_site_fract_y
 _atom_site_fract_z
 _atom_site_occupancy
  Sb  Sb0  1  0.965691  0.927726  0.336755  1
  Sb  Sb1  1  0.027168  0.065399  0.168288  1
  Sb  Sb2  1  0.727760  0.319809  0.169107  1
  Sb  Sb3  1  0.712323  0.320519  0.664401  1
  Sb  Sb4  1  0.472115  0.934776  0.331487  1
  Sb  Sb5  1  0.033799  0.572388  0.162975  1
  Sb  Sb6  1  0.227609  0.819843  0.169240  1
  Sb  Sb7  1  0.466095  0.927645  0.837112  1
  Sb  Sb8  1  0.027795  0.565307  0.668520  1
  Sb  Sb9  1  0.527299  0.565354  0.168290  1
  Sb  Sb10  1  0.966201  0.427612  0.837025  1
  Sb  Sb11  1  0.211930  0.320309  0.164632  1
  Sb  Sb12  1  0.972205  0.434693  0.331480  1
  Sb  Sb13  1  0.465813  0.427504  0.336732  1
  Sb  Sb14  1  0.271687  0.180067  0.331009  1
  Sb  Sb15  1  0.788070  0.679691  0.835368  1
  Sb  Sb16  1  0.972832  0.934601  0.831712  1
  Sb  Sb17  1  0.728313  0.819933  0.668991  1
  Sb  Sb18  1  0.034309  0.072274  0.663245  1
  Sb  Sb19  1  0.212629  0.820389  0.664471  1
  Sb  Sb20  1  0.771771  0.680048  0.331090  1
  Sb  Sb21  1  0.534187  0.572496  0.663268  1
  Sb  Sb22  1  0.787371  0.179611  0.335529  1
  Sb  Sb23  1  0.287677  0.679481  0.335599  1
  Sb  Sb24  1  0.527885  0.065224  0.668513  1
  Sb  Sb25  1  0.712122  0.820320  0.164724  1
  Sb  Sb26  1  0.772391  0.180157  0.830760  1
  Sb  Sb27  1  0.287878  0.179680  0.835276  1
  Sb  Sb28  1  0.533905  0.072355  0.162888  1
  Sb  Sb29  1  0.472701  0.434646  0.831710  1
  Sb  Sb30  1  0.228229  0.319952  0.668910  1
  Sb  Sb31  1  0.272240  0.680191  0.830893  1
  Mo  Mo32  1  0.252694  0.977179  0.000952  1
  Mo  Mo33  1  0.976564  0.756546  0.007090  1
  Mo  Mo34  1  0.752636  0.477135  0.000829  1
  Mo  Mo35  1  0.976552  0.256493  0.507077  1
  Mo  Mo36  1  0.023448  0.743507  0.492923  1
  Mo  Mo37  1  0.476558  0.256538  0.007039  1
  Mo  Mo38  1  0.476679  0.756498  0.507085  1
  Mo  Mo39  1  0.747415  0.522891  0.499219  1
  Mo  Mo40  1  0.252585  0.477109  0.500781  1
  Mo  Mo41  1  0.523442  0.743462  0.992961  1
  Mo  Mo42  1  0.747306  0.022821  0.999048  1
  Mo  Mo43  1  0.752698  0.977143  0.500830  1
  Mo  Mo44  1  0.023436  0.243454  0.992910  1
  Mo  Mo45  1  0.523321  0.243502  0.492915  1
  Mo  Mo46  1  0.247364  0.522865  0.999171  1
  Mo  Mo47  1  0.247302  0.022857  0.499170  1
  O  O48  1  0.922633  0.247196  0.905856  1
  O  O49  1  0.348030  0.817404  0.278498  1
  O  O50  1  0.820368  0.502039  0.905254  1
  O  O51  1  0.439118  0.744438  0.405051  1
  O  O52  1  0.334618  0.821301  0.781121  1
  O  O53  1  0.857214  0.141337  0.029029  1
  O  O54  1  0.109320  0.108485  0.968203  1
  O  O55  1  0.150918  0.182651  0.221663  1
  O  O56  1  0.412760  0.066742  0.780425  1
  O  O57  1  0.596899  0.928915  0.721034  1
  O  O58  1  0.609355  0.108527  0.468303  1
  O  O59  1  0.111297  0.104838  0.471172  1
  O  O60  1  0.833725  0.821306  0.281239  1
  O  O61  1  0.422380  0.246724  0.405839  1
  O  O62  1  0.679569  0.497804  0.594733  1
  O  O63  1  0.361038  0.647548  0.529492  1
  O  O64  1  0.651206  0.682524  0.221621  1
  O  O65  1  0.890680  0.891515  0.031797  1
  O  O66  1  0.577620  0.753276  0.594161  1
  O  O67  1  0.096666  0.428819  0.720930  1
  O  O68  1  0.390736  0.391514  0.031878  1
  O  O69  1  0.412148  0.566664  0.280272  1
  O  O70  1  0.088157  0.933265  0.719745  1
  O  O71  1  0.911843  0.066735  0.280255  1
  O  O72  1  0.860747  0.647587  0.029350  1
  O  O73  1  0.904396  0.071230  0.779154  1
  O  O74  1  0.890532  0.391458  0.531774  1
  O  O75  1  0.912826  0.566767  0.780397  1
  O  O76  1  0.061164  0.755590  0.594921  1
  O  O77  1  0.611504  0.604986  0.471193  1
  O  O78  1  0.165190  0.678747  0.218994  1
  O  O79  1  0.403101  0.071085  0.278966  1
  O  O80  1  0.679660  0.997978  0.094634  1
  O  O81  1  0.142589  0.358734  0.470655  1
  O  O82  1  0.577645  0.252736  0.093996  1
  O  O83  1  0.388496  0.395014  0.528807  1
  O  O84  1  0.834810  0.321253  0.781007  1
  O  O85  1  0.111397  0.604768  0.971089  1
  O  O86  1  0.638962  0.352452  0.470508  1
  O  O87  1  0.404261  0.571350  0.779255  1
  O  O88  1  0.087174  0.433233  0.219603  1
  O  O89  1  0.609264  0.608486  0.968122  1
  O  O90  1  0.849082  0.817349  0.778337  1
  O  O91  1  0.938836  0.244410  0.405079  1
  O  O92  1  0.818505  0.986669  0.905629  1
  O  O93  1  0.179633  0.497961  0.094746  1
  O  O94  1  0.152039  0.682524  0.721508  1
  O  O95  1  0.320431  0.502196  0.405267  1
  O  O96  1  0.651970  0.182596  0.721502  1
  O  O97  1  0.642687  0.358672  0.970784  1
  O  O98  1  0.139253  0.352413  0.970650  1
  O  O99  1  0.320340  0.002022  0.905366  1
  O  O100  1  0.095604  0.928770  0.220846  1
  O  O101  1  0.820279  0.002327  0.405302  1
  O  O102  1  0.422355  0.747264  0.906004  1
  O  O103  1  0.179721  0.997673  0.594698  1
  O  O104  1  0.939337  0.744612  0.905039  1
  O  O105  1  0.560882  0.255562  0.594949  1
  O  O106  1  0.139090  0.852417  0.470443  1
  O  O107  1  0.639182  0.852390  0.970566  1
  O  O108  1  0.348794  0.317476  0.778379  1
  O  O109  1  0.888603  0.395232  0.028911  1
  O  O110  1  0.642766  0.858688  0.470744  1
  O  O111  1  0.587240  0.933258  0.219575  1
  O  O112  1  0.077367  0.752804  0.094144  1
  O  O113  1  0.390645  0.891473  0.531697  1
  O  O114  1  0.166275  0.178694  0.718761  1
  O  O115  1  0.388709  0.895328  0.029083  1
  O  O116  1  0.357234  0.141312  0.529256  1
  O  O117  1  0.318214  0.986982  0.405677  1
  O  O118  1  0.560961  0.755365  0.094945  1
  O  O119  1  0.181692  0.513016  0.594265  1
  O  O120  1  0.439039  0.244635  0.905055  1
  O  O121  1  0.666190  0.678760  0.718849  1
  O  O122  1  0.857411  0.641266  0.529345  1
  O  O123  1  0.333810  0.321240  0.281151  1
  O  O124  1  0.818308  0.486984  0.405735  1
  O  O125  1  0.142786  0.858663  0.970971  1
  O  O126  1  0.611291  0.104672  0.970917  1
  O  O127  1  0.357313  0.641328  0.029216  1
  O  O128  1  0.077685  0.253239  0.594066  1
  O  O129  1  0.595739  0.428650  0.220745  1
  O  O130  1  0.360818  0.147610  0.029434  1
  O  O131  1  0.109468  0.608542  0.468226  1
  O  O132  1  0.903334  0.571181  0.279070  1
  O  O133  1  0.665382  0.178699  0.218879  1
  O  O134  1  0.060663  0.255388  0.094961  1
  O  O135  1  0.681786  0.013018  0.594323  1
  O  O136  1  0.681489  0.513184  0.094262  1
  O  O137  1  0.860910  0.147583  0.529557  1
  O  O138  1  0.587852  0.433336  0.719728  1
  O  O139  1  0.181495  0.013331  0.094371  1
  O  O140  1  0.922315  0.746761  0.405934  1
  O  O141  1  0.888702  0.895162  0.528828  1
  O  O142  1  0.318511  0.486816  0.905738  1
  O  O143  1  0.847961  0.317476  0.278492  1
