# generated using pymatgen
data_Ce3S2O3
_symmetry_space_group_name_H-M   'P 1'
_cell_length_a   3.96620339
_cell_length_b   6.84150063
_cell_length_c   21.52434084
_cell_angle_alpha   90.00000000
_cell_angle_beta   90.00000000
_cell_angle_gamma   90.00000000
_symmetry_Int_Tables_number   1
_chemical_formula_structural   Ce3S2O3
_chemical_formula_sum   'Ce12 S8 O12'
_cell_volume   584.05831773
_cell_formula_units_Z   4
loop_
 _symmetry_equiv_pos_site_id
 _symmetry_equiv_pos_as_xyz
  1  'x, y, z'
loop_
 _atom_site_type_symbol
 _atom_site_label
 _atom_site_symmetry_multiplicity
 _atom_site_fract_x
 _atom_site_fract_y
 _atom_site_fract_z
 _atom_site_occupancy
  Ce  Ce0  1  0.750000  0.222649  0.973630  1
  Ce  Ce1  1  0.250000  0.777351  0.026370  1
  Ce  Ce2  1  0.750000  0.722649  0.526370  1
  Ce  Ce3  1  0.250000  0.277351  0.473630  1
  Ce  Ce4  1  0.750000  0.285595  0.633050  1
  Ce  Ce5  1  0.250000  0.714405  0.366950  1
  Ce  Ce6  1  0.750000  0.785595  0.866950  1
  Ce  Ce7  1  0.250000  0.214405  0.133050  1
  Ce  Ce8  1  0.750000  0.289980  0.311710  1
  Ce  Ce9  1  0.250000  0.710020  0.688290  1
  Ce  Ce10  1  0.750000  0.789980  0.188290  1
  Ce  Ce11  1  0.250000  0.210020  0.811710  1
  S  S12  1  0.750000  0.004596  0.729152  1
  S  S13  1  0.250000  0.995404  0.270848  1
  S  S14  1  0.750000  0.504596  0.770848  1
  S  S15  1  0.250000  0.495404  0.229152  1
  S  S16  1  0.750000  0.504516  0.078458  1
  S  S17  1  0.250000  0.495484  0.921542  1
  S  S18  1  0.750000  0.004516  0.421542  1
  S  S19  1  0.250000  0.995484  0.578458  1
  O  O20  1  0.750000  0.141094  0.872022  1
  O  O21  1  0.250000  0.858906  0.127978  1
  O  O22  1  0.750000  0.641094  0.627978  1
  O  O23  1  0.250000  0.358906  0.372022  1
  O  O24  1  0.750000  0.372300  0.524911  1
  O  O25  1  0.250000  0.627700  0.475089  1
  O  O26  1  0.750000  0.872300  0.975089  1
  O  O27  1  0.250000  0.127700  0.024911  1
  O  O28  1  0.750000  0.117410  0.164924  1
  O  O29  1  0.250000  0.882590  0.835076  1
  O  O30  1  0.750000  0.617410  0.335076  1
  O  O31  1  0.250000  0.382590  0.664924  1
