# generated using pymatgen
data_Li18Fe5N12
_symmetry_space_group_name_H-M   'P 1'
_cell_length_a   14.17954298
_cell_length_b   6.74113360
_cell_length_c   11.64151652
_cell_angle_alpha   125.09233592
_cell_angle_beta   113.87745963
_cell_angle_gamma   45.28864369
_symmetry_Int_Tables_number   1
_chemical_formula_structural   Li18Fe5N12
_chemical_formula_sum   'Li36 Fe10 N24'
_cell_volume   647.05346196
_cell_formula_units_Z   2
loop_
 _symmetry_equiv_pos_site_id
 _symmetry_equiv_pos_as_xyz
  1  'x, y, z'
loop_
 _atom_site_type_symbol
 _atom_site_label
 _atom_site_symmetry_multiplicity
 _atom_site_fract_x
 _atom_site_fract_y
 _atom_site_fract_z
 _atom_site_occupancy
  Fe  Fe0  1  0.089981  0.997075  0.998405  1
  Fe  Fe1  1  0.078015  0.016872  0.498684  1
  Fe  Fe2  1  0.410598  0.998349  0.998694  1
  Fe  Fe3  1  0.249874  0.998363  0.497151  1
  Fe  Fe4  1  0.577704  0.019785  0.001868  1
  Fe  Fe5  1  0.422296  0.980215  0.498132  1
  Fe  Fe6  1  0.750126  0.001637  0.002849  1
  Fe  Fe7  1  0.589402  0.001651  0.501306  1
  Fe  Fe8  1  0.921985  0.983128  0.001316  1
  Fe  Fe9  1  0.910019  0.002925  0.501595  1
  Li  Li10  1  0.086387  0.256601  0.756350  1
  Li  Li11  1  0.086433  0.258931  0.259094  1
  Li  Li12  1  0.087175  0.493756  0.497315  1
  Li  Li13  1  0.081853  0.736750  0.737274  1
  Li  Li14  1  0.249478  0.253180  0.752856  1
  Li  Li15  1  0.108512  0.419694  0.997717  1
  Li  Li16  1  0.078527  0.740248  0.240578  1
  Li  Li17  1  0.249606  0.205619  0.210980  1
  Li  Li18  1  0.250289  0.498470  0.498393  1
  Li  Li19  1  0.250019  0.782654  0.782885  1
  Li  Li20  1  0.412340  0.255752  0.756076  1
  Li  Li21  1  0.249655  0.492834  0.993521  1
  Li  Li22  1  0.250918  0.739004  0.238434  1
  Li  Li23  1  0.410438  0.259984  0.259690  1
  Li  Li24  1  0.413440  0.503689  0.497754  1
  Li  Li25  1  0.418540  0.739494  0.737878  1
  Li  Li26  1  0.581460  0.260506  0.762122  1
  Li  Li27  1  0.390075  0.576510  0.997328  1
  Li  Li28  1  0.424618  0.739073  0.240329  1
  Li  Li29  1  0.575382  0.260927  0.259671  1
  Li  Li30  1  0.609925  0.423490  0.502672  1
  Li  Li31  1  0.587660  0.744248  0.743924  1
  Li  Li32  1  0.749981  0.217346  0.717115  1
  Li  Li33  1  0.586560  0.496311  0.002246  1
  Li  Li34  1  0.589562  0.740016  0.240310  1
  Li  Li35  1  0.749082  0.260996  0.261566  1
  Li  Li36  1  0.750345  0.507166  0.506479  1
  Li  Li37  1  0.750522  0.746820  0.747144  1
  Li  Li38  1  0.918147  0.263250  0.762726  1
  Li  Li39  1  0.749711  0.501530  0.001607  1
  Li  Li40  1  0.750394  0.794381  0.289020  1
  Li  Li41  1  0.921473  0.259752  0.259422  1
  Li  Li42  1  0.891488  0.580306  0.502283  1
  Li  Li43  1  0.913613  0.743399  0.743650  1
  Li  Li44  1  0.912825  0.506244  0.002685  1
  Li  Li45  1  0.913567  0.741069  0.240906  1
  N  N46  1  0.090441  0.336809  0.609929  1
  N  N47  1  0.270483  0.103626  0.878519  1
  N  N48  1  0.076351  0.347298  0.116420  1
  N  N49  1  0.267082  0.093632  0.385152  1
  N  N50  1  0.069144  0.902055  0.609546  1
  N  N51  1  0.230021  0.649068  0.877132  1
  N  N52  1  0.076895  0.889503  0.111053  1
  N  N53  1  0.233249  0.680867  0.386854  1
  N  N54  1  0.431418  0.315636  0.608734  1
  N  N55  1  0.590723  0.116005  0.889829  1
  N  N56  1  0.422382  0.331307  0.110901  1
  N  N57  1  0.576704  0.115629  0.383467  1
  N  N58  1  0.409277  0.883995  0.610171  1
  N  N59  1  0.568582  0.684364  0.891266  1
  N  N60  1  0.423296  0.884371  0.116533  1
  N  N61  1  0.577618  0.668693  0.389099  1
  N  N62  1  0.769979  0.350932  0.622868  1
  N  N63  1  0.930856  0.097945  0.890454  1
  N  N64  1  0.766751  0.319133  0.113146  1
  N  N65  1  0.923105  0.110497  0.388947  1
  N  N66  1  0.729517  0.896374  0.621481  1
  N  N67  1  0.909559  0.663191  0.890071  1
  N  N68  1  0.732918  0.906368  0.114848  1
  N  N69  1  0.923649  0.652702  0.383580  1
