# generated using pymatgen
data_Rb16Sn16F47
_symmetry_space_group_name_H-M   'P 1'
_cell_length_a   16.98735689
_cell_length_b   10.36384467
_cell_length_c   10.33243246
_cell_angle_alpha   80.36036654
_cell_angle_beta   72.54675767
_cell_angle_gamma   72.34711713
_symmetry_Int_Tables_number   1
_chemical_formula_structural   Rb16Sn16F47
_chemical_formula_sum   'Rb16 Sn16 F47'
_cell_volume   1647.74336142
_cell_formula_units_Z   1
loop_
 _symmetry_equiv_pos_site_id
 _symmetry_equiv_pos_as_xyz
  1  'x, y, z'
loop_
 _atom_site_type_symbol
 _atom_site_label
 _atom_site_symmetry_multiplicity
 _atom_site_fract_x
 _atom_site_fract_y
 _atom_site_fract_z
 _atom_site_occupancy
  F  F0  1  0.040170  0.323231  0.163845  1
  F  F1  1  0.019521  0.158667  0.724331  1
  F  F2  1  0.113102  0.290976  0.385976  1
  F  F3  1  0.030296  0.818735  0.574031  1
  F  F4  1  0.128132  0.764673  0.046567  1
  F  F5  1  0.125810  0.086868  0.912519  1
  F  F6  1  0.123004  0.952530  0.233337  1
  F  F7  1  0.218571  0.425235  0.181739  1
  F  F8  1  0.138493  0.613505  0.706008  1
  F  F9  1  0.287933  0.169830  0.333023  1
  F  F10  1  0.232470  0.275305  0.844019  1
  F  F11  1  0.272388  0.726326  0.156409  1
  F  F12  1  0.209266  0.835401  0.677780  1
  F  F13  1  0.361523  0.389117  0.291125  1
  F  F14  1  0.296173  0.850822  0.371356  1
  F  F15  1  0.280221  0.570567  0.818366  1
  F  F16  1  0.377517  0.048260  0.760907  1
  F  F17  1  0.378175  0.917514  0.079423  1
  F  F18  1  0.378153  0.234648  0.947866  1
  F  F19  1  0.470880  0.179490  0.418058  1
  F  F20  1  0.386025  0.713928  0.627823  1
  F  F21  1  0.532859  0.341907  0.156498  1
  F  F22  1  0.479048  0.837262  0.277613  1
  F  F23  1  0.523739  0.160358  0.722211  1
  F  F24  1  0.467131  0.658296  0.843643  1
  F  F25  1  0.614375  0.285434  0.371957  1
  F  F26  1  0.529822  0.819085  0.580518  1
  F  F27  1  0.624825  0.764975  0.051622  1
  F  F28  1  0.622903  0.081971  0.921560  1
  F  F29  1  0.624478  0.950658  0.240379  1
  F  F30  1  0.719630  0.428299  0.181723  1
  F  F31  1  0.704648  0.149042  0.629387  1
  F  F32  1  0.638873  0.610293  0.710014  1
  F  F33  1  0.789839  0.158403  0.322685  1
  F  F34  1  0.727365  0.276173  0.843990  1
  F  F35  1  0.770708  0.727591  0.159057  1
  F  F36  1  0.713660  0.828433  0.661931  1
  F  F37  1  0.863165  0.377281  0.289153  1
  F  F38  1  0.780922  0.576652  0.820575  1
  F  F39  1  0.876234  0.048609  0.770398  1
  F  F40  1  0.873692  0.919311  0.081227  1
  F  F41  1  0.873312  0.240809  0.952696  1
  F  F42  1  0.970516  0.181314  0.426810  1
  F  F43  1  0.954049  0.627768  0.151332  1
  F  F44  1  0.887654  0.708746  0.610266  1
  F  F45  1  0.978579  0.842894  0.273250  1
  F  F46  1  0.963072  0.666565  0.829529  1
  Rb  Rb47  1  0.126948  0.016810  0.486044  1
  Rb  Rb48  1  0.220470  0.147829  0.115519  1
  Rb  Rb49  1  0.029196  0.884889  0.852159  1
  Rb  Rb50  1  0.121540  0.514291  0.982056  1
  Rb  Rb51  1  0.369744  0.485567  0.019248  1
  Rb  Rb52  1  0.467760  0.108828  0.154847  1
  Rb  Rb53  1  0.277650  0.856154  0.887940  1
  Rb  Rb54  1  0.372792  0.979187  0.510601  1
  Rb  Rb55  1  0.625569  0.022327  0.491341  1
  Rb  Rb56  1  0.719264  0.150699  0.109649  1
  Rb  Rb57  1  0.532226  0.890637  0.845388  1
  Rb  Rb58  1  0.628790  0.515523  0.981592  1
  Rb  Rb59  1  0.877277  0.491169  0.021809  1
  Rb  Rb60  1  0.972169  0.112451  0.144731  1
  Rb  Rb61  1  0.780096  0.851844  0.883414  1
  Rb  Rb62  1  0.875013  0.986825  0.517787  1
  Sn  Sn63  1  0.025195  0.616850  0.629634  1
  Sn  Sn64  1  0.123967  0.244519  0.754996  1
  Sn  Sn65  1  0.125184  0.749179  0.250803  1
  Sn  Sn66  1  0.223929  0.368619  0.384611  1
  Sn  Sn67  1  0.273486  0.638949  0.617899  1
  Sn  Sn68  1  0.372491  0.252964  0.746363  1
  Sn  Sn69  1  0.387732  0.746288  0.217279  1
  Sn  Sn70  1  0.476262  0.380511  0.363617  1
  Sn  Sn71  1  0.523187  0.618823  0.636948  1
  Sn  Sn72  1  0.611676  0.253072  0.783087  1
  Sn  Sn73  1  0.626687  0.747092  0.254776  1
  Sn  Sn74  1  0.727642  0.356906  0.381451  1
  Sn  Sn75  1  0.776249  0.627081  0.617910  1
  Sn  Sn76  1  0.874750  0.252240  0.749319  1
  Sn  Sn77  1  0.863405  0.784069  0.253810  1
  Sn  Sn78  1  0.976436  0.381850  0.361442  1
