# generated using pymatgen
data_VP2H4O9
_symmetry_space_group_name_H-M   'P 1'
_cell_length_a   7.89582532
_cell_length_b   9.16756373
_cell_length_c   9.16756373
_cell_angle_alpha   90.00000000
_cell_angle_beta   90.00000000
_cell_angle_gamma   90.00000000
_symmetry_Int_Tables_number   1
_chemical_formula_structural   VP2H4O9
_chemical_formula_sum   'V4 P8 H16 O36'
_cell_volume   663.59851773
_cell_formula_units_Z   4
loop_
 _symmetry_equiv_pos_site_id
 _symmetry_equiv_pos_as_xyz
  1  'x, y, z'
loop_
 _atom_site_type_symbol
 _atom_site_label
 _atom_site_symmetry_multiplicity
 _atom_site_fract_x
 _atom_site_fract_y
 _atom_site_fract_z
 _atom_site_occupancy
  V  V0  1  0.204234  0.250000  0.250000  1
  V  V1  1  0.295766  0.750000  0.750000  1
  V  V2  1  0.795766  0.750000  0.750000  1
  V  V3  1  0.704234  0.250000  0.250000  1
  P  P4  1  0.250000  0.954349  0.045651  1
  P  P5  1  0.250000  0.454349  0.954349  1
  P  P6  1  0.250000  0.045651  0.545651  1
  P  P7  1  0.250000  0.545651  0.454349  1
  P  P8  1  0.750000  0.045651  0.954349  1
  P  P9  1  0.750000  0.545651  0.045651  1
  P  P10  1  0.750000  0.954349  0.454349  1
  P  P11  1  0.750000  0.454349  0.545651  1
  O  O12  1  0.243248  0.115917  0.079111  1
  O  O13  1  0.243248  0.420889  0.115917  1
  O  O14  1  0.243248  0.079111  0.384083  1
  O  O15  1  0.243248  0.384083  0.420889  1
  O  O16  1  0.256752  0.615917  0.920889  1
  O  O17  1  0.256752  0.884083  0.579111  1
  O  O18  1  0.256752  0.579111  0.615917  1
  O  O19  1  0.256752  0.920889  0.884083  1
  O  O20  1  0.756752  0.884083  0.920889  1
  O  O21  1  0.756752  0.579111  0.884083  1
  O  O22  1  0.756752  0.920889  0.615917  1
  O  O23  1  0.756752  0.615917  0.579111  1
  O  O24  1  0.743248  0.384083  0.079111  1
  O  O25  1  0.743248  0.115917  0.420889  1
  O  O26  1  0.743248  0.420889  0.384083  1
  O  O27  1  0.743248  0.079111  0.115917  1
  O  O28  1  0.087137  0.882339  0.119556  1
  O  O29  1  0.087137  0.380444  0.882339  1
  O  O30  1  0.087137  0.119556  0.617661  1
  O  O31  1  0.087137  0.617661  0.380444  1
  O  O32  1  0.412863  0.382339  0.880444  1
  O  O33  1  0.412863  0.117661  0.619556  1
  O  O34  1  0.412863  0.619556  0.382339  1
  O  O35  1  0.412863  0.880444  0.117661  1
  O  O36  1  0.912863  0.117661  0.880444  1
  O  O37  1  0.912863  0.619556  0.117661  1
  O  O38  1  0.912863  0.880444  0.382339  1
  O  O39  1  0.912863  0.382339  0.619556  1
  O  O40  1  0.587137  0.617661  0.119556  1
  O  O41  1  0.587137  0.882339  0.380444  1
  O  O42  1  0.587137  0.380444  0.617661  1
  O  O43  1  0.587137  0.119556  0.882339  1
  O  O44  1  0.993763  0.250000  0.250000  1
  O  O45  1  0.506237  0.750000  0.750000  1
  O  O46  1  0.006237  0.750000  0.750000  1
  O  O47  1  0.493763  0.250000  0.250000  1
  H  H48  1  0.447741  0.215126  0.584014  1
  H  H49  1  0.447741  0.915986  0.215126  1
  H  H50  1  0.447741  0.584014  0.284874  1
  H  H51  1  0.447741  0.284874  0.915986  1
  H  H52  1  0.052259  0.715126  0.415986  1
  H  H53  1  0.052259  0.784874  0.084014  1
  H  H54  1  0.052259  0.084014  0.715126  1
  H  H55  1  0.052259  0.415986  0.784874  1
  H  H56  1  0.552259  0.784874  0.415986  1
  H  H57  1  0.552259  0.084014  0.784874  1
  H  H58  1  0.552259  0.415986  0.715126  1
  H  H59  1  0.552259  0.715126  0.084014  1
  H  H60  1  0.947741  0.284874  0.584014  1
  H  H61  1  0.947741  0.215126  0.915986  1
  H  H62  1  0.947741  0.915986  0.284874  1
  H  H63  1  0.947741  0.584014  0.215126  1
