# generated using pymatgen
data_SiO2
_symmetry_space_group_name_H-M   'P 1'
_cell_length_a   7.36282587
_cell_length_b   7.36282565
_cell_length_c   7.05100916
_cell_angle_alpha   90.00000000
_cell_angle_beta   90.00000000
_cell_angle_gamma   120.00000103
_symmetry_Int_Tables_number   1
_chemical_formula_structural   SiO2
_chemical_formula_sum   'Si6 O12'
_cell_volume   331.03274264
_cell_formula_units_Z   6
loop_
 _symmetry_equiv_pos_site_id
 _symmetry_equiv_pos_as_xyz
  1  'x, y, z'
loop_
 _atom_site_type_symbol
 _atom_site_label
 _atom_site_symmetry_multiplicity
 _atom_site_fract_x
 _atom_site_fract_y
 _atom_site_fract_z
 _atom_site_occupancy
  Si  Si0  1  0.534369  0.767185  0.416667  1
  Si  Si1  1  0.465631  0.232815  0.916667  1
  Si  Si2  1  0.232815  0.465631  0.750000  1
  Si  Si3  1  0.767185  0.232815  0.583333  1
  Si  Si4  1  0.767185  0.534369  0.250000  1
  Si  Si5  1  0.232815  0.767185  0.083333  1
  O  O6  1  0.611807  0.388193  0.083333  1
  O  O7  1  1.000000  0.684501  0.166667  1
  O  O8  1  0.776385  0.388193  0.416667  1
  O  O9  1  0.684501  0.684501  0.333333  1
  O  O10  1  0.315499  0.315499  0.833333  1
  O  O11  1  0.611807  0.223615  0.750000  1
  O  O12  1  0.223615  0.611807  0.916667  1
  O  O13  1  0.315499  0.000000  0.000000  1
  O  O14  1  0.000000  0.315499  0.666667  1
  O  O15  1  0.388193  0.776385  0.250000  1
  O  O16  1  0.388193  0.611807  0.583333  1
  O  O17  1  0.684501  0.000000  0.500000  1
