# generated using pymatgen
data_BaCa(PO3)4
_symmetry_space_group_name_H-M   'P 1'
_cell_length_a   7.35596783
_cell_length_b   9.38750560
_cell_length_c   15.42852016
_cell_angle_alpha   90.00000000
_cell_angle_beta   91.02573879
_cell_angle_gamma   90.00000000
_symmetry_Int_Tables_number   1
_chemical_formula_structural   BaCa(PO3)4
_chemical_formula_sum   'Ba4 Ca4 P16 O48'
_cell_volume   1065.23322282
_cell_formula_units_Z   4
loop_
 _symmetry_equiv_pos_site_id
 _symmetry_equiv_pos_as_xyz
  1  'x, y, z'
loop_
 _atom_site_type_symbol
 _atom_site_label
 _atom_site_symmetry_multiplicity
 _atom_site_fract_x
 _atom_site_fract_y
 _atom_site_fract_z
 _atom_site_occupancy
  Ba  Ba0  1  0.486151  0.891947  0.632956  1
  Ba  Ba1  1  0.013849  0.391947  0.867044  1
  Ba  Ba2  1  0.513849  0.108053  0.367044  1
  Ba  Ba3  1  0.986151  0.608053  0.132956  1
  Ca  Ca4  1  0.501664  0.764493  0.155177  1
  Ca  Ca5  1  0.498336  0.235507  0.844823  1
  Ca  Ca6  1  -0.001664  0.264493  0.344823  1
  Ca  Ca7  1  1.001664  0.735507  0.655177  1
  P  P8  1  0.633361  0.519548  0.327252  1
  P  P9  1  0.261442  0.101488  0.177434  1
  P  P10  1  0.133361  0.980452  0.827252  1
  P  P11  1  0.738558  0.898512  0.822566  1
  P  P12  1  0.366639  0.480452  0.672748  1
  P  P13  1  0.373049  0.337592  0.060891  1
  P  P14  1  0.236515  0.748250  0.956632  1
  P  P15  1  0.866639  0.019548  0.172748  1
  P  P16  1  0.761442  0.398512  0.677434  1
  P  P17  1  0.626951  0.662408  0.939109  1
  P  P18  1  0.763485  0.251750  0.043368  1
  P  P19  1  0.126951  0.837592  0.439109  1
  P  P20  1  0.238558  0.601488  0.322566  1
  P  P21  1  0.873049  0.162408  0.560891  1
  P  P22  1  0.263485  0.248250  0.543368  1
  P  P23  1  0.736515  0.751750  0.456632  1
  O  O24  1  0.082411  0.499763  0.308593  1
  O  O25  1  0.730766  0.225424  0.948136  1
  O  O26  1  0.214853  0.903415  0.912913  1
  O  O27  1  0.214412  0.684925  0.412309  1
  O  O28  1  0.331473  0.394040  0.752809  1
  O  O29  1  0.414889  0.686313  0.910937  1
  O  O30  1  0.831473  0.105960  0.252809  1
  O  O31  1  0.917589  0.500237  0.691407  1
  O  O32  1  0.914889  0.813687  0.410938  1
  O  O33  1  0.079489  0.652570  0.933604  1
  O  O34  1  0.585111  0.313687  0.089063  1
  O  O35  1  0.918412  0.988885  0.846137  1
  O  O36  1  0.800163  0.868425  0.167986  1
  O  O37  1  0.649686  0.657550  0.036459  1
  O  O38  1  0.230766  0.274576  0.448136  1
  O  O39  1  0.668527  0.605960  0.247191  1
  O  O40  1  0.769234  0.725424  0.551864  1
  O  O41  1  0.785588  0.315075  0.587691  1
  O  O42  1  0.850314  0.157550  0.463541  1
  O  O43  1  0.582411  0.000237  0.808593  1
  O  O44  1  0.300163  0.631575  0.667986  1
  O  O45  1  0.579489  0.847430  0.433604  1
  O  O46  1  0.199837  0.131575  0.832014  1
  O  O47  1  0.304812  0.457655  0.114292  1
  O  O48  1  0.230904  0.202805  0.251436  1
  O  O49  1  0.695188  0.542345  0.885708  1
  O  O50  1  0.350314  0.342450  0.963541  1
  O  O51  1  0.285147  0.403415  0.587087  1
  O  O52  1  0.168527  0.894040  0.747191  1
  O  O53  1  0.714853  0.596585  0.412913  1
  O  O54  1  0.730904  0.297195  0.751436  1
  O  O55  1  0.714412  0.815075  0.912309  1
  O  O56  1  0.769096  0.797195  0.748564  1
  O  O57  1  0.269096  0.702805  0.248564  1
  O  O58  1  0.418412  0.511115  0.346137  1
  O  O59  1  0.804812  0.042345  0.614292  1
  O  O60  1  0.420511  0.152570  0.566396  1
  O  O61  1  0.269234  0.774576  0.051864  1
  O  O62  1  0.581588  0.488885  0.653863  1
  O  O63  1  0.081588  0.011115  0.153863  1
  O  O64  1  0.285588  0.184925  0.087691  1
  O  O65  1  0.149686  0.842450  0.536459  1
  O  O66  1  0.417589  0.999763  0.191407  1
  O  O67  1  0.785147  0.096585  0.087087  1
  O  O68  1  0.699837  0.368425  0.332014  1
  O  O69  1  0.085111  0.186313  0.589063  1
  O  O70  1  0.195188  0.957655  0.385708  1
  O  O71  1  0.920511  0.347430  0.066396  1
