# generated using pymatgen
data_KNb2PS10
_symmetry_space_group_name_H-M   'P 1'
_cell_length_a   7.88311278
_cell_length_b   13.12532816
_cell_length_c   13.94504025
_cell_angle_alpha   90.00000000
_cell_angle_beta   90.00000000
_cell_angle_gamma   90.00000000
_symmetry_Int_Tables_number   1
_chemical_formula_structural   KNb2PS10
_chemical_formula_sum   'K4 Nb8 P4 S40'
_cell_volume   1442.87159052
_cell_formula_units_Z   4
loop_
 _symmetry_equiv_pos_site_id
 _symmetry_equiv_pos_as_xyz
  1  'x, y, z'
loop_
 _atom_site_type_symbol
 _atom_site_label
 _atom_site_symmetry_multiplicity
 _atom_site_fract_x
 _atom_site_fract_y
 _atom_site_fract_z
 _atom_site_occupancy
  Nb  Nb0  1  0.069339  0.813537  0.387339  1
  Nb  Nb1  1  0.930661  0.186463  0.887339  1
  Nb  Nb2  1  0.930661  0.313537  0.387339  1
  Nb  Nb3  1  0.069339  0.686463  0.887339  1
  Nb  Nb4  1  0.948692  0.023997  0.386500  1
  Nb  Nb5  1  0.051308  0.976003  0.886500  1
  Nb  Nb6  1  0.051308  0.523997  0.386500  1
  Nb  Nb7  1  0.948692  0.476003  0.886500  1
  S  S8  1  0.140037  0.666488  0.512698  1
  S  S9  1  0.859963  0.333512  0.012698  1
  S  S10  1  0.859963  0.166488  0.512698  1
  S  S11  1  0.140037  0.833512  0.012698  1
  S  S12  1  0.396634  0.792740  0.380161  1
  S  S13  1  0.603366  0.207260  0.880161  1
  S  S14  1  0.603366  0.292739  0.380161  1
  S  S15  1  0.396634  0.707260  0.880161  1
  S  S16  1  0.898939  0.898392  0.255169  1
  S  S17  1  0.101061  0.101608  0.755169  1
  S  S18  1  0.101061  0.398392  0.255169  1
  S  S19  1  0.898939  0.601608  0.755169  1
  S  S20  1  0.886618  0.890743  0.514398  1
  S  S21  1  0.113382  0.109257  0.014398  1
  S  S22  1  0.113382  0.390743  0.514398  1
  S  S23  1  0.886618  0.609257  0.014398  1
  S  S24  1  0.050247  0.668916  0.262235  1
  S  S25  1  0.949753  0.331084  0.762235  1
  S  S26  1  0.949753  0.168916  0.262235  1
  S  S27  1  0.050247  0.831084  0.762235  1
  S  S28  1  0.128001  0.948079  0.517392  1
  S  S29  1  0.871999  0.051921  0.017392  1
  S  S30  1  0.871999  0.448079  0.517392  1
  S  S31  1  0.128001  0.551921  0.017392  1
  S  S32  1  0.569520  0.650827  0.558754  1
  S  S33  1  0.430480  0.349173  0.058754  1
  S  S34  1  0.430480  0.150827  0.558754  1
  S  S35  1  0.569520  0.849173  0.058754  1
  S  S36  1  0.846556  0.673768  0.353893  1
  S  S37  1  0.153444  0.326232  0.853893  1
  S  S38  1  0.153444  0.173768  0.353893  1
  S  S39  1  0.846556  0.826232  0.853893  1
  S  S40  1  0.379661  0.532560  0.372398  1
  S  S41  1  0.620339  0.467440  0.872398  1
  S  S42  1  0.620339  0.032560  0.372398  1
  S  S43  1  0.379661  0.967440  0.872398  1
  S  S44  1  0.144104  0.944109  0.263776  1
  S  S45  1  0.855896  0.055891  0.763776  1
  S  S46  1  0.855896  0.444109  0.263776  1
  S  S47  1  0.144104  0.555891  0.763776  1
  K  K48  1  0.502279  0.881522  0.651602  1
  K  K49  1  0.497721  0.118478  0.151602  1
  K  K50  1  0.497721  0.381522  0.651602  1
  K  K51  1  0.502279  0.618478  0.151602  1
  P  P52  1  0.389472  0.660331  0.459536  1
  P  P53  1  0.610528  0.339669  0.959536  1
  P  P54  1  0.610528  0.160331  0.459536  1
  P  P55  1  0.389472  0.839669  0.959536  1
