# generated using pymatgen
data_RbMnVO4
_symmetry_space_group_name_H-M   'P 1'
_cell_length_a   11.50775176
_cell_length_b   11.50775139
_cell_length_c   9.20695338
_cell_angle_alpha   90.00000000
_cell_angle_beta   90.00000000
_cell_angle_gamma   120.00000105
_symmetry_Int_Tables_number   1
_chemical_formula_structural   RbMnVO4
_chemical_formula_sum   'Rb8 Mn8 V8 O32'
_cell_volume   1055.91151714
_cell_formula_units_Z   8
loop_
 _symmetry_equiv_pos_site_id
 _symmetry_equiv_pos_as_xyz
  1  'x, y, z'
loop_
 _atom_site_type_symbol
 _atom_site_label
 _atom_site_symmetry_multiplicity
 _atom_site_fract_x
 _atom_site_fract_y
 _atom_site_fract_z
 _atom_site_occupancy
  Rb  Rb0  1  0.000000  0.000000  0.386594  1
  Rb  Rb1  1  0.000000  0.000000  0.886594  1
  Rb  Rb2  1  0.472318  0.517440  0.400464  1
  Rb  Rb3  1  0.954878  0.472318  0.900464  1
  Rb  Rb4  1  0.482560  0.954878  0.400464  1
  Rb  Rb5  1  0.527682  0.482560  0.900464  1
  Rb  Rb6  1  0.045122  0.527682  0.400464  1
  Rb  Rb7  1  0.517440  0.045122  0.900464  1
  Mn  Mn8  1  0.834955  0.164161  0.203570  1
  Mn  Mn9  1  0.835839  0.670795  0.203570  1
  Mn  Mn10  1  0.670795  0.834955  0.703570  1
  Mn  Mn11  1  0.164161  0.329205  0.703570  1
  Mn  Mn12  1  0.666667  0.333333  0.567696  1
  Mn  Mn13  1  0.329205  0.165045  0.203570  1
  Mn  Mn14  1  0.333333  0.666667  0.067696  1
  Mn  Mn15  1  0.165045  0.835839  0.703570  1
  V  V16  1  0.172780  0.840296  0.095283  1
  V  V17  1  0.827220  0.159704  0.595283  1
  V  V18  1  0.332483  0.172780  0.595283  1
  V  V19  1  0.667517  0.827220  0.095283  1
  V  V20  1  0.666667  0.333333  0.159325  1
  V  V21  1  0.159704  0.332483  0.095283  1
  V  V22  1  0.333333  0.666667  0.659325  1
  V  V23  1  0.840296  0.667517  0.595283  1
  O  O24  1  0.232093  0.503977  0.591756  1
  O  O25  1  0.307395  0.484068  0.133954  1
  O  O26  1  0.818940  0.806066  0.621957  1
  O  O27  1  0.503977  0.271883  0.091756  1
  O  O28  1  0.012875  0.818940  0.121957  1
  O  O29  1  0.667046  0.780759  0.915111  1
  O  O30  1  0.289358  0.971165  0.204389  1
  O  O31  1  0.271883  0.767907  0.591756  1
  O  O32  1  0.728117  0.232093  0.091756  1
  O  O33  1  0.823327  0.307395  0.633954  1
  O  O34  1  0.666667  0.333333  0.346531  1
  O  O35  1  0.780759  0.113712  0.415111  1
  O  O36  1  0.028835  0.318193  0.204389  1
  O  O37  1  0.333333  0.666667  0.846531  1
  O  O38  1  0.886288  0.667046  0.415111  1
  O  O39  1  0.318193  0.289358  0.704389  1
  O  O40  1  0.484068  0.176673  0.633954  1
  O  O41  1  0.332954  0.219241  0.415111  1
  O  O42  1  0.219241  0.886288  0.915111  1
  O  O43  1  0.767907  0.496023  0.091756  1
  O  O44  1  0.681807  0.710642  0.204389  1
  O  O45  1  0.515932  0.823327  0.133954  1
  O  O46  1  0.987125  0.181060  0.621957  1
  O  O47  1  0.806066  0.987125  0.121957  1
  O  O48  1  0.496023  0.728117  0.591756  1
  O  O49  1  0.181060  0.193934  0.121957  1
  O  O50  1  0.710642  0.028835  0.704389  1
  O  O51  1  0.971165  0.681807  0.704389  1
  O  O52  1  0.692605  0.515932  0.633954  1
  O  O53  1  0.113712  0.332954  0.915111  1
  O  O54  1  0.193934  0.012875  0.621957  1
  O  O55  1  0.176673  0.692605  0.133954  1
