# generated using pymatgen
data_Cs2In3
_symmetry_space_group_name_H-M   'P 1'
_cell_length_a   7.10112145
_cell_length_b   7.10112088
_cell_length_c   9.85087099
_cell_angle_alpha   111.12667992
_cell_angle_beta   111.12667814
_cell_angle_gamma   89.99999412
_symmetry_Int_Tables_number   1
_chemical_formula_structural   Cs2In3
_chemical_formula_sum   'Cs4 In6'
_cell_volume   427.36286523
_cell_formula_units_Z   2
loop_
 _symmetry_equiv_pos_site_id
 _symmetry_equiv_pos_as_xyz
  1  'x, y, z'
loop_
 _atom_site_type_symbol
 _atom_site_label
 _atom_site_symmetry_multiplicity
 _atom_site_fract_x
 _atom_site_fract_y
 _atom_site_fract_z
 _atom_site_occupancy
  Cs  Cs0  1  0.388087  0.388087  0.776174  1
  Cs  Cs1  1  0.611913  0.611913  0.223826  1
  Cs  Cs2  1  0.250000  0.750000  0.500000  1
  Cs  Cs3  1  0.750000  0.250000  0.500000  1
  In  In4  1  0.005691  0.711544  0.011382  1
  In  In5  1  0.140559  0.140559  0.281118  1
  In  In6  1  0.859441  0.859441  0.718882  1
  In  In7  1  0.005691  0.299838  0.011382  1
  In  In8  1  0.288456  0.994309  0.988618  1
  In  In9  1  0.700162  0.994309  0.988618  1
