# generated using pymatgen
data_CdI2
_symmetry_space_group_name_H-M   'P 1'
_cell_length_a   4.33560278
_cell_length_b   4.33560305
_cell_length_c   74.05281481
_cell_angle_alpha   90.00000000
_cell_angle_beta   90.00000000
_cell_angle_gamma   119.99999794
_symmetry_Int_Tables_number   1
_chemical_formula_structural   CdI2
_chemical_formula_sum   'Cd10 I20'
_cell_volume   1205.51109282
_cell_formula_units_Z   10
loop_
 _symmetry_equiv_pos_site_id
 _symmetry_equiv_pos_as_xyz
  1  'x, y, z'
loop_
 _atom_site_type_symbol
 _atom_site_label
 _atom_site_symmetry_multiplicity
 _atom_site_fract_x
 _atom_site_fract_y
 _atom_site_fract_z
 _atom_site_occupancy
  Cd  Cd0  1  0.666667  0.333333  0.225002  1
  Cd  Cd1  1  0.333333  0.666667  0.925002  1
  Cd  Cd2  1  0.666667  0.333333  0.024995  1
  Cd  Cd3  1  0.000000  0.000000  0.824986  1
  Cd  Cd4  1  0.666667  0.333333  0.425008  1
  Cd  Cd5  1  0.333333  0.666667  0.525002  1
  Cd  Cd6  1  0.333333  0.666667  0.725000  1
  Cd  Cd7  1  0.333333  0.666667  0.325015  1
  Cd  Cd8  1  0.333333  0.666667  0.124984  1
  Cd  Cd9  1  0.000000  0.000000  0.624975  1
  I  I10  1  0.000000  0.000000  0.101691  1
  I  I11  1  0.333333  0.666667  0.448301  1
  I  I12  1  0.666667  0.333333  0.648274  1
  I  I13  1  0.000000  0.000000  0.301730  1
  I  I14  1  0.666667  0.333333  0.948296  1
  I  I15  1  0.000000  0.000000  0.201722  1
  I  I16  1  0.000000  0.000000  0.401729  1
  I  I17  1  0.666667  0.333333  0.348309  1
  I  I18  1  0.666667  0.333333  0.548294  1
  I  I19  1  0.000000  0.000000  0.901715  1
  I  I20  1  0.333333  0.666667  0.801692  1
  I  I21  1  0.666667  0.333333  0.148283  1
  I  I22  1  0.000000  0.000000  0.001710  1
  I  I23  1  0.333333  0.666667  0.048291  1
  I  I24  1  0.666667  0.333333  0.848285  1
  I  I25  1  0.333333  0.666667  0.601677  1
  I  I26  1  0.333333  0.666667  0.248299  1
  I  I27  1  0.000000  0.000000  0.501723  1
  I  I28  1  0.000000  0.000000  0.701716  1
  I  I29  1  0.666667  0.333333  0.748294  1
