# generated using pymatgen
data_KBC4NF9
_symmetry_space_group_name_H-M   'P 1'
_cell_length_a   9.48766584
_cell_length_b   9.77400352
_cell_length_c   10.69366076
_cell_angle_alpha   90.00000000
_cell_angle_beta   90.00000000
_cell_angle_gamma   90.00000000
_symmetry_Int_Tables_number   1
_chemical_formula_structural   KBC4NF9
_chemical_formula_sum   'K4 B4 C16 N4 F36'
_cell_volume   991.64967525
_cell_formula_units_Z   4
loop_
 _symmetry_equiv_pos_site_id
 _symmetry_equiv_pos_as_xyz
  1  'x, y, z'
loop_
 _atom_site_type_symbol
 _atom_site_label
 _atom_site_symmetry_multiplicity
 _atom_site_fract_x
 _atom_site_fract_y
 _atom_site_fract_z
 _atom_site_occupancy
  K  K0  1  0.491074  0.722854  0.250000  1
  K  K1  1  0.508926  0.277146  0.750000  1
  K  K2  1  0.008926  0.222854  0.250000  1
  K  K3  1  0.991074  0.777146  0.750000  1
  B  B4  1  0.979663  0.215825  0.750000  1
  B  B5  1  0.020337  0.784175  0.250000  1
  B  B6  1  0.520337  0.715825  0.750000  1
  B  B7  1  0.479663  0.284175  0.250000  1
  C  C8  1  0.984999  0.376780  0.750000  1
  C  C9  1  0.604984  0.665055  0.875898  1
  C  C10  1  0.641844  0.343558  0.250000  1
  C  C11  1  0.104984  0.834945  0.124102  1
  C  C12  1  0.895016  0.165055  0.624102  1
  C  C13  1  0.104984  0.834945  0.375898  1
  C  C14  1  0.395016  0.334945  0.124102  1
  C  C15  1  0.858156  0.843558  0.250000  1
  C  C16  1  0.015001  0.623220  0.250000  1
  C  C17  1  0.484999  0.123220  0.250000  1
  C  C18  1  0.395016  0.334945  0.375898  1
  C  C19  1  0.141844  0.156442  0.750000  1
  C  C20  1  0.895016  0.165055  0.875898  1
  C  C21  1  0.604984  0.665055  0.624102  1
  C  C22  1  0.515001  0.876780  0.750000  1
  C  C23  1  0.358156  0.656442  0.750000  1
  N  N24  1  0.988026  0.495914  0.750000  1
  N  N25  1  0.488026  0.004086  0.250000  1
  N  N26  1  0.511974  0.995914  0.750000  1
  N  N27  1  0.011974  0.504086  0.250000  1
  F  F28  1  0.280484  0.697194  0.647847  1
  F  F29  1  0.040492  0.794054  0.014640  1
  F  F30  1  0.880784  0.024995  0.885618  1
  F  F31  1  0.740456  0.716109  0.883346  1
  F  F32  1  0.259544  0.283891  0.116654  1
  F  F33  1  0.759544  0.216109  0.883346  1
  F  F34  1  0.459508  0.294054  0.014640  1
  F  F35  1  0.780484  0.802806  0.352153  1
  F  F36  1  0.259544  0.283891  0.383346  1
  F  F37  1  0.540492  0.705946  0.514640  1
  F  F38  1  0.040492  0.794054  0.485360  1
  F  F39  1  0.619216  0.524995  0.885618  1
  F  F40  1  0.850700  0.985441  0.250000  1
  F  F41  1  0.959508  0.205946  0.985360  1
  F  F42  1  0.649300  0.485441  0.250000  1
  F  F43  1  0.219516  0.197194  0.647847  1
  F  F44  1  0.380784  0.475005  0.385618  1
  F  F45  1  0.240456  0.783891  0.383346  1
  F  F46  1  0.380784  0.475005  0.114382  1
  F  F47  1  0.459508  0.294054  0.485360  1
  F  F48  1  0.119216  0.975005  0.114382  1
  F  F49  1  0.959508  0.205946  0.514640  1
  F  F50  1  0.540492  0.705946  0.985360  1
  F  F51  1  0.719516  0.302806  0.147847  1
  F  F52  1  0.619216  0.524995  0.614382  1
  F  F53  1  0.240456  0.783891  0.116654  1
  F  F54  1  0.149300  0.014559  0.750000  1
  F  F55  1  0.219516  0.197194  0.852153  1
  F  F56  1  0.719516  0.302806  0.352153  1
  F  F57  1  0.880784  0.024995  0.614382  1
  F  F58  1  0.759544  0.216109  0.616654  1
  F  F59  1  0.740456  0.716109  0.616654  1
  F  F60  1  0.119216  0.975005  0.385618  1
  F  F61  1  0.780484  0.802806  0.147847  1
  F  F62  1  0.350700  0.514559  0.750000  1
  F  F63  1  0.280484  0.697194  0.852153  1
