# generated using pymatgen
data_Ba2YbBiO6
_symmetry_space_group_name_H-M   'P 1'
_cell_length_a   6.15787471
_cell_length_b   6.15787412
_cell_length_c   6.15787423
_cell_angle_alpha   60.26041962
_cell_angle_beta   60.26042273
_cell_angle_gamma   60.26042453
_symmetry_Int_Tables_number   1
_chemical_formula_structural   Ba2YbBiO6
_chemical_formula_sum   'Ba2 Yb1 Bi1 O6'
_cell_volume   166.08483198
_cell_formula_units_Z   1
loop_
 _symmetry_equiv_pos_site_id
 _symmetry_equiv_pos_as_xyz
  1  'x, y, z'
loop_
 _atom_site_type_symbol
 _atom_site_label
 _atom_site_symmetry_multiplicity
 _atom_site_fract_x
 _atom_site_fract_y
 _atom_site_fract_z
 _atom_site_occupancy
  O  O0  1  0.209244  0.275547  0.758394  1
  O  O1  1  0.790756  0.724453  0.241606  1
  O  O2  1  0.275547  0.758394  0.209244  1
  O  O3  1  0.758394  0.209244  0.275547  1
  O  O4  1  0.724453  0.241606  0.790756  1
  O  O5  1  0.241606  0.790756  0.724453  1
  Bi  Bi6  1  0.000000  0.000000  0.000000  1
  Ba  Ba7  1  0.249864  0.249864  0.249864  1
  Ba  Ba8  1  0.750136  0.750136  0.750136  1
  Yb  Yb9  1  0.500000  0.500000  0.500000  1
