# generated using pymatgen
data_KSbF4
_symmetry_space_group_name_H-M   'P 1'
_cell_length_a   4.64598001
_cell_length_b   11.82006484
_cell_length_c   16.69220355
_cell_angle_alpha   90.00000000
_cell_angle_beta   90.00000000
_cell_angle_gamma   90.00000000
_symmetry_Int_Tables_number   1
_chemical_formula_structural   KSbF4
_chemical_formula_sum   'K8 Sb8 F32'
_cell_volume   916.66546072
_cell_formula_units_Z   8
loop_
 _symmetry_equiv_pos_site_id
 _symmetry_equiv_pos_as_xyz
  1  'x, y, z'
loop_
 _atom_site_type_symbol
 _atom_site_label
 _atom_site_symmetry_multiplicity
 _atom_site_fract_x
 _atom_site_fract_y
 _atom_site_fract_z
 _atom_site_occupancy
  F  F0  1  0.373148  0.575649  0.250000  1
  F  F1  1  0.373148  0.924351  0.250000  1
  F  F2  1  0.626852  0.075649  0.750000  1
  F  F3  1  0.626852  0.424351  0.750000  1
  F  F4  1  0.046710  0.250000  0.041479  1
  F  F5  1  0.046710  0.250000  0.458521  1
  F  F6  1  0.953290  0.750000  0.958521  1
  F  F7  1  0.953290  0.750000  0.541479  1
  F  F8  1  0.793335  0.601310  0.846517  1
  F  F9  1  0.793335  0.898690  0.653483  1
  F  F10  1  0.206665  0.101310  0.153483  1
  F  F11  1  0.206665  0.398690  0.346517  1
  F  F12  1  0.206665  0.398690  0.153483  1
  F  F13  1  0.206665  0.101310  0.346517  1
  F  F14  1  0.793335  0.898690  0.846517  1
  F  F15  1  0.793335  0.601310  0.653483  1
  F  F16  1  0.486410  0.632090  0.506465  1
  F  F17  1  0.486410  0.867910  0.993535  1
  F  F18  1  0.513590  0.132090  0.493535  1
  F  F19  1  0.513590  0.367910  0.006465  1
  F  F20  1  0.513590  0.367910  0.493535  1
  F  F21  1  0.513590  0.132090  0.006465  1
  F  F22  1  0.486410  0.867910  0.506465  1
  F  F23  1  0.486410  0.632090  0.993535  1
  F  F24  1  0.077073  0.382602  0.659484  1
  F  F25  1  0.077073  0.117398  0.840516  1
  F  F26  1  0.922927  0.882602  0.340516  1
  F  F27  1  0.922927  0.617398  0.159484  1
  F  F28  1  0.922927  0.617398  0.340516  1
  F  F29  1  0.922927  0.882602  0.159484  1
  F  F30  1  0.077073  0.117398  0.659484  1
  F  F31  1  0.077073  0.382602  0.840516  1
  K  K32  1  0.565960  0.250000  0.865947  1
  K  K33  1  0.565960  0.250000  0.634053  1
  K  K34  1  0.434040  0.750000  0.134053  1
  K  K35  1  0.434040  0.750000  0.365947  1
  K  K36  1  0.000000  0.500000  0.000000  1
  K  K37  1  0.000000  0.000000  0.500000  1
  K  K38  1  0.000000  0.000000  0.000000  1
  K  K39  1  0.000000  0.500000  0.500000  1
  Sb  Sb40  1  0.429799  0.250000  0.093017  1
  Sb  Sb41  1  0.429799  0.250000  0.406983  1
  Sb  Sb42  1  0.570201  0.750000  0.906983  1
  Sb  Sb43  1  0.570201  0.750000  0.593017  1
  Sb  Sb44  1  0.987010  0.502495  0.250000  1
  Sb  Sb45  1  0.987010  0.997505  0.250000  1
  Sb  Sb46  1  0.012990  0.002495  0.750000  1
  Sb  Sb47  1  0.012990  0.497505  0.750000  1
