# generated using pymatgen
data_Li2Hg(PO3)4
_symmetry_space_group_name_H-M   'P 1'
_cell_length_a   9.58965116
_cell_length_b   9.71719745
_cell_length_c   10.28657354
_cell_angle_alpha   90.00000000
_cell_angle_beta   90.00000000
_cell_angle_gamma   91.61064649
_symmetry_Int_Tables_number   1
_chemical_formula_structural   Li2Hg(PO3)4
_chemical_formula_sum   'Li8 Hg4 P16 O48'
_cell_volume   958.17084662
_cell_formula_units_Z   4
loop_
 _symmetry_equiv_pos_site_id
 _symmetry_equiv_pos_as_xyz
  1  'x, y, z'
loop_
 _atom_site_type_symbol
 _atom_site_label
 _atom_site_symmetry_multiplicity
 _atom_site_fract_x
 _atom_site_fract_y
 _atom_site_fract_z
 _atom_site_occupancy
  Li  Li0  1  0.108738  0.002359  0.817810  1
  Li  Li1  1  0.393686  0.500270  0.682055  1
  Li  Li2  1  0.891262  0.497641  0.317810  1
  Li  Li3  1  0.393686  0.000270  0.817945  1
  Li  Li4  1  0.891262  0.997641  0.182190  1
  Li  Li5  1  0.606314  0.999730  0.182055  1
  Li  Li6  1  0.108738  0.502359  0.682190  1
  Li  Li7  1  0.606314  0.499730  0.317945  1
  Hg  Hg8  1  0.748418  0.988853  0.806154  1
  Hg  Hg9  1  0.748418  0.488853  0.693846  1
  Hg  Hg10  1  0.251582  0.011147  0.193846  1
  Hg  Hg11  1  0.251582  0.511147  0.306154  1
  P  P12  1  0.034542  0.292857  0.105194  1
  P  P13  1  0.506687  0.203183  0.600026  1
  P  P14  1  0.506687  0.703183  0.899974  1
  P  P15  1  0.965458  0.207143  0.605194  1
  P  P16  1  0.237914  0.729413  0.035904  1
  P  P17  1  0.733246  0.700376  0.097683  1
  P  P18  1  0.762086  0.770587  0.535904  1
  P  P19  1  0.762086  0.270587  0.964096  1
  P  P20  1  0.266754  0.299624  0.902317  1
  P  P21  1  0.493313  0.296817  0.100026  1
  P  P22  1  0.733246  0.200376  0.402317  1
  P  P23  1  0.034542  0.792857  0.394806  1
  P  P24  1  0.493313  0.796817  0.399974  1
  P  P25  1  0.266754  0.799624  0.597683  1
  P  P26  1  0.965458  0.707143  0.894806  1
  P  P27  1  0.237914  0.229413  0.464096  1
  O  O28  1  0.966840  0.860985  0.881619  1
  O  O29  1  0.966840  0.360985  0.618381  1
  O  O30  1  0.241914  0.884977  0.017476  1
  O  O31  1  0.654273  0.336792  0.062644  1
  O  O32  1  0.584731  0.656945  0.031826  1
  O  O33  1  0.415270  0.343055  0.968174  1
  O  O34  1  0.758086  0.115023  0.982524  1
  O  O35  1  0.584731  0.156945  0.468174  1
  O  O36  1  0.744547  0.353262  0.381935  1
  O  O37  1  0.538138  0.605878  0.790938  1
  O  O38  1  0.523572  0.356468  0.617078  1
  O  O39  1  0.255453  0.146738  0.881935  1
  O  O40  1  0.905282  0.838049  0.486640  1
  O  O41  1  0.476428  0.143532  0.117078  1
  O  O42  1  0.248482  0.395027  0.789477  1
  O  O43  1  0.476428  0.643532  0.382922  1
  O  O44  1  0.751518  0.604973  0.210523  1
  O  O45  1  0.033160  0.639015  0.381619  1
  O  O46  1  0.905282  0.338049  0.013360  1
  O  O47  1  0.032443  0.384151  0.223312  1
  O  O48  1  0.835908  0.652557  0.981037  1
  O  O49  1  0.751518  0.104973  0.289477  1
  O  O50  1  0.735865  0.817102  0.672377  1
  O  O51  1  0.032443  0.884151  0.276688  1
  O  O52  1  0.033160  0.139015  0.118381  1
  O  O53  1  0.094718  0.161951  0.513360  1
  O  O54  1  0.735865  0.317102  0.827623  1
  O  O55  1  0.744547  0.853262  0.118065  1
  O  O56  1  0.264135  0.682898  0.172377  1
  O  O57  1  0.967557  0.115849  0.723312  1
  O  O58  1  0.967557  0.615849  0.776688  1
  O  O59  1  0.461862  0.894122  0.290938  1
  O  O60  1  0.248482  0.895027  0.710523  1
  O  O61  1  0.345727  0.663208  0.937356  1
  O  O62  1  0.164092  0.347443  0.018963  1
  O  O63  1  0.415270  0.843055  0.531826  1
  O  O64  1  0.255453  0.646738  0.618065  1
  O  O65  1  0.538138  0.105878  0.709062  1
  O  O66  1  0.345727  0.163208  0.562644  1
  O  O67  1  0.164092  0.847443  0.481037  1
  O  O68  1  0.758086  0.615023  0.517476  1
  O  O69  1  0.835908  0.152557  0.518963  1
  O  O70  1  0.461862  0.394122  0.209062  1
  O  O71  1  0.523572  0.856468  0.882922  1
  O  O72  1  0.241914  0.384977  0.482524  1
  O  O73  1  0.654273  0.836792  0.437356  1
  O  O74  1  0.094718  0.661951  0.986640  1
  O  O75  1  0.264135  0.182898  0.327623  1
