# generated using pymatgen
data_Ba2LaIrO6
_symmetry_space_group_name_H-M   'P 1'
_cell_length_a   6.12786877
_cell_length_b   6.12798863
_cell_length_c   6.12786767
_cell_angle_alpha   59.74989071
_cell_angle_beta   59.75029876
_cell_angle_gamma   59.75089088
_symmetry_Int_Tables_number   1
_chemical_formula_structural   Ba2LaIrO6
_chemical_formula_sum   'Ba2 La1 Ir1 O6'
_cell_volume   161.79044237
_cell_formula_units_Z   1
loop_
 _symmetry_equiv_pos_site_id
 _symmetry_equiv_pos_as_xyz
  1  'x, y, z'
loop_
 _atom_site_type_symbol
 _atom_site_label
 _atom_site_symmetry_multiplicity
 _atom_site_fract_x
 _atom_site_fract_y
 _atom_site_fract_z
 _atom_site_occupancy
  O  O0  1  0.730626  0.243775  0.297939  1
  O  O1  1  0.756243  0.702048  0.269373  1
  O  O2  1  0.702091  0.269335  0.756239  1
  Ba  Ba3  1  0.247335  0.247345  0.247355  1
  La  La4  1  -0.000025  0.999996  0.999869  1
  Ba  Ba5  1  0.752664  0.752646  0.752670  1
  O  O6  1  0.269391  0.756217  0.702092  1
  O  O7  1  0.243762  0.297945  0.730665  1
  O  O8  1  0.297923  0.730657  0.243808  1
  Ir  Ir9  1  0.499991  0.500036  0.499990  1
