# generated using pymatgen
data_B3H5
_symmetry_space_group_name_H-M   'P 1'
_cell_length_a   7.12604602
_cell_length_b   11.46632953
_cell_length_c   11.86778888
_cell_angle_alpha   108.41921833
_cell_angle_beta   90.00000000
_cell_angle_gamma   90.00000000
_symmetry_Int_Tables_number   1
_chemical_formula_structural   B3H5
_chemical_formula_sum   'B36 H60'
_cell_volume   920.03391138
_cell_formula_units_Z   12
loop_
 _symmetry_equiv_pos_site_id
 _symmetry_equiv_pos_as_xyz
  1  'x, y, z'
loop_
 _atom_site_type_symbol
 _atom_site_label
 _atom_site_symmetry_multiplicity
 _atom_site_fract_x
 _atom_site_fract_y
 _atom_site_fract_z
 _atom_site_occupancy
  B  B0  1  0.801527  0.214142  0.341376  1
  B  B1  1  0.129104  0.818947  0.531015  1
  B  B2  1  0.232340  0.620056  0.629930  1
  B  B3  1  0.767660  0.379944  0.370070  1
  B  B4  1  0.491619  0.225782  0.545287  1
  B  B5  1  0.865596  0.828127  0.152458  1
  B  B6  1  0.991619  0.274218  0.954713  1
  B  B7  1  0.208798  0.321279  0.918493  1
  B  B8  1  0.732340  0.879944  0.870070  1
  B  B9  1  0.634404  0.328127  0.652458  1
  B  B10  1  0.127913  0.695411  0.399296  1
  B  B11  1  0.372087  0.195411  0.899296  1
  B  B12  1  0.301527  0.285859  0.158624  1
  B  B13  1  0.698473  0.714141  0.841376  1
  B  B14  1  0.370896  0.318947  0.031015  1
  B  B15  1  0.139926  0.362595  0.072932  1
  B  B16  1  0.627913  0.804589  0.100704  1
  B  B17  1  0.008381  0.725782  0.045287  1
  B  B18  1  0.944183  0.318739  0.449677  1
  B  B19  1  0.360074  0.862595  0.572932  1
  B  B20  1  0.555817  0.818739  0.949677  1
  B  B21  1  0.267660  0.120056  0.129930  1
  B  B22  1  0.134404  0.171873  0.847542  1
  B  B23  1  0.291202  0.821279  0.418493  1
  B  B24  1  0.872087  0.304589  0.600704  1
  B  B25  1  0.365596  0.671873  0.347542  1
  B  B26  1  0.791202  0.678721  0.081507  1
  B  B27  1  0.444183  0.181261  0.050323  1
  B  B28  1  0.639926  0.137405  0.427068  1
  B  B29  1  0.708798  0.178721  0.581507  1
  B  B30  1  0.870896  0.181053  0.468985  1
  B  B31  1  0.055817  0.681261  0.550323  1
  B  B32  1  0.508381  0.774218  0.454713  1
  B  B33  1  0.198473  0.785859  0.658624  1
  B  B34  1  0.629104  0.681053  0.968985  1
  B  B35  1  0.860074  0.637405  0.927068  1
  H  H36  1  0.833397  0.418312  0.295892  1
  H  H37  1  0.634120  0.652169  0.748923  1
  H  H38  1  0.507114  0.605767  0.949467  1
  H  H39  1  0.606924  0.169193  0.067975  1
  H  H40  1  0.275678  0.895116  0.367494  1
  H  H41  1  0.992886  0.105767  0.449467  1
  H  H42  1  0.490294  0.171128  0.824527  1
  H  H43  1  0.241252  0.598242  0.374870  1
  H  H44  1  0.893076  0.669193  0.567975  1
  H  H45  1  0.999687  0.150426  0.918334  1
  H  H46  1  0.492886  0.394233  0.050533  1
  H  H47  1  0.162141  0.698206  0.066541  1
  H  H48  1  0.362823  0.076892  0.021234  1
  H  H49  1  0.637177  0.923108  0.978766  1
  H  H50  1  0.775678  0.604884  0.132506  1
  H  H51  1  0.224322  0.395116  0.867494  1
  H  H52  1  0.724322  0.104884  0.632506  1
  H  H53  1  0.865880  0.152169  0.248923  1
  H  H54  1  0.916668  0.537569  0.873440  1
  H  H55  1  0.137177  0.576892  0.521234  1
  H  H56  1  0.914812  0.875627  0.252221  1
  H  H57  1  0.758748  0.401758  0.625130  1
  H  H58  1  0.134120  0.847831  0.751077  1
  H  H59  1  0.106924  0.330807  0.432025  1
  H  H60  1  0.666603  0.918312  0.795892  1
  H  H61  1  0.660722  0.273274  0.320823  1
  H  H62  1  0.583332  0.037569  0.373440  1
  H  H63  1  0.085188  0.124373  0.747779  1
  H  H64  1  0.509706  0.828872  0.175473  1
  H  H65  1  0.127623  0.067409  0.081054  1
  H  H66  1  0.000313  0.849574  0.081666  1
  H  H67  1  0.837859  0.301794  0.933459  1
  H  H68  1  0.166603  0.581688  0.704108  1
  H  H69  1  0.333397  0.081688  0.204108  1
  H  H70  1  0.500313  0.650426  0.418334  1
  H  H71  1  0.372377  0.567409  0.581054  1
  H  H72  1  0.414812  0.624373  0.247779  1
  H  H73  1  0.839278  0.773274  0.820823  1
  H  H74  1  -0.000452  0.715871  0.930366  1
  H  H75  1  0.741252  0.901758  0.125130  1
  H  H76  1  0.009706  0.671128  0.324527  1
  H  H77  1  0.365880  0.347831  0.251077  1
  H  H78  1  0.662141  0.801794  0.433459  1
  H  H79  1  0.627623  0.432591  0.418946  1
  H  H80  1  0.499548  0.784129  0.569634  1
  H  H81  1  0.872377  0.932591  0.918946  1
  H  H82  1  0.007114  0.894233  0.550533  1
  H  H83  1  0.393076  0.830807  0.932025  1
  H  H84  1  0.862823  0.423108  0.478766  1
  H  H85  1  0.339278  0.726726  0.679177  1
  H  H86  1  0.585188  0.375627  0.752221  1
  H  H87  1  0.160722  0.226726  0.179177  1
  H  H88  1  1.000452  0.284129  0.069634  1
  H  H89  1  0.083332  0.462431  0.126560  1
  H  H90  1  0.990294  0.328872  0.675473  1
  H  H91  1  0.416668  0.962431  0.626560  1
  H  H92  1  0.499687  0.349574  0.581666  1
  H  H93  1  0.500452  0.215871  0.430366  1
  H  H94  1  0.258748  0.098242  0.874870  1
  H  H95  1  0.337859  0.198206  0.566541  1
