# generated using pymatgen
data_P2WO7
_symmetry_space_group_name_H-M   'P 1'
_cell_length_a   8.41698366
_cell_length_b   8.41698366
_cell_length_c   8.41698366
_cell_angle_alpha   90.00000000
_cell_angle_beta   90.00000000
_cell_angle_gamma   90.00000000
_symmetry_Int_Tables_number   1
_chemical_formula_structural   P2WO7
_chemical_formula_sum   'P8 W4 O28'
_cell_volume   596.30637485
_cell_formula_units_Z   4
loop_
 _symmetry_equiv_pos_site_id
 _symmetry_equiv_pos_as_xyz
  1  'x, y, z'
loop_
 _atom_site_type_symbol
 _atom_site_label
 _atom_site_symmetry_multiplicity
 _atom_site_fract_x
 _atom_site_fract_y
 _atom_site_fract_z
 _atom_site_occupancy
  W  W0  1  0.000000  0.000000  0.000000  1
  W  W1  1  0.500000  0.000000  0.500000  1
  W  W2  1  0.500000  0.500000  0.000000  1
  W  W3  1  0.000000  0.500000  0.500000  1
  P  P4  1  0.391008  0.391008  0.391008  1
  P  P5  1  0.108992  0.608992  0.891008  1
  P  P6  1  0.891008  0.108992  0.608992  1
  P  P7  1  0.608992  0.891008  0.108992  1
  P  P8  1  0.608992  0.608992  0.608992  1
  P  P9  1  0.891008  0.391008  0.108992  1
  P  P10  1  0.108992  0.891008  0.391008  1
  P  P11  1  0.391008  0.108992  0.891008  1
  O  O12  1  0.500000  0.500000  0.500000  1
  O  O13  1  0.000000  0.500000  0.000000  1
  O  O14  1  0.000000  0.000000  0.500000  1
  O  O15  1  0.500000  0.000000  0.000000  1
  O  O16  1  0.220591  0.086785  0.944605  1
  O  O17  1  0.944605  0.220591  0.086785  1
  O  O18  1  0.086785  0.944605  0.220591  1
  O  O19  1  0.413215  0.055395  0.720591  1
  O  O20  1  0.444605  0.279409  0.913215  1
  O  O21  1  0.913215  0.444605  0.279409  1
  O  O22  1  0.555395  0.779409  0.586785  1
  O  O23  1  0.055395  0.720591  0.413215  1
  O  O24  1  0.586785  0.555395  0.779409  1
  O  O25  1  0.720591  0.413215  0.055395  1
  O  O26  1  0.779409  0.586785  0.555395  1
  O  O27  1  0.279409  0.913215  0.444605  1
  O  O28  1  0.779409  0.913215  0.055395  1
  O  O29  1  0.055395  0.779409  0.913215  1
  O  O30  1  0.913215  0.055395  0.779409  1
  O  O31  1  0.586785  0.944605  0.279409  1
  O  O32  1  0.555395  0.720591  0.086785  1
  O  O33  1  0.086785  0.555395  0.720591  1
  O  O34  1  0.444605  0.220591  0.413215  1
  O  O35  1  0.944605  0.279409  0.586785  1
  O  O36  1  0.413215  0.444605  0.220591  1
  O  O37  1  0.279409  0.586785  0.944605  1
  O  O38  1  0.220591  0.413215  0.444605  1
  O  O39  1  0.720591  0.086785  0.555395  1
