# generated using pymatgen
data_Li3Cr2(PO4)3
_symmetry_space_group_name_H-M   'P 1'
_cell_length_a   8.45529197
_cell_length_b   8.72535047
_cell_length_c   12.00083408
_cell_angle_alpha   90.00003230
_cell_angle_beta   89.57162646
_cell_angle_gamma   89.99994162
_symmetry_Int_Tables_number   1
_chemical_formula_structural   Li3Cr2(PO4)3
_chemical_formula_sum   'Li12 Cr8 P12 O48'
_cell_volume   885.34141849
_cell_formula_units_Z   4
loop_
 _symmetry_equiv_pos_site_id
 _symmetry_equiv_pos_as_xyz
  1  'x, y, z'
loop_
 _atom_site_type_symbol
 _atom_site_label
 _atom_site_symmetry_multiplicity
 _atom_site_fract_x
 _atom_site_fract_y
 _atom_site_fract_z
 _atom_site_occupancy
  Cr  Cr0  1  0.247215  0.027382  0.106871  1
  Cr  Cr1  1  0.246195  0.465172  0.889176  1
  Cr  Cr2  1  0.252783  0.527362  0.393148  1
  Cr  Cr3  1  0.253789  0.965185  0.610835  1
  Cr  Cr4  1  0.746211  0.034815  0.389165  1
  Cr  Cr5  1  0.747217  0.472638  0.606852  1
  Cr  Cr6  1  0.753805  0.534828  0.110824  1
  Cr  Cr7  1  0.752785  0.972618  0.893129  1
  Li  Li8  1  0.069513  0.511651  0.654898  1
  Li  Li9  1  0.082040  0.087896  0.309607  1
  Li  Li10  1  0.176477  0.782305  0.824198  1
  Li  Li11  1  0.323523  0.282316  0.675802  1
  Li  Li12  1  0.417961  0.587896  0.190393  1
  Li  Li13  1  0.430484  0.011658  0.845100  1
  Li  Li14  1  0.569516  0.988342  0.154900  1
  Li  Li15  1  0.582039  0.412104  0.809607  1
  Li  Li16  1  0.676477  0.717684  0.324198  1
  Li  Li17  1  0.823523  0.217695  0.175802  1
  Li  Li18  1  0.917960  0.912103  0.690393  1
  Li  Li19  1  0.930487  0.488349  0.345102  1
  O  O20  1  0.053599  0.873004  0.556099  1
  O  O21  1  0.057387  0.667361  0.398292  1
  O  O22  1  0.058893  0.885476  0.104027  1
  O  O23  1  0.063239  0.576360  0.813459  1
  O  O24  1  0.094796  0.362150  0.416924  1
  O  O25  1  0.117644  0.205307  0.168486  1
  O  O26  1  0.126505  0.994600  0.754531  1
  O  O27  1  0.137914  0.418804  0.027665  1
  O  O28  1  0.172997  0.270415  0.812385  1
  O  O29  1  0.186298  0.177483  0.564287  1
  O  O30  1  0.226403  0.474388  0.224793  1
  O  O31  1  0.232245  0.049727  0.940802  1
  O  O32  1  0.267751  0.549721  0.559204  1
  O  O33  1  0.273597  0.974386  0.275215  1
  O  O34  1  0.313692  0.677485  0.935721  1
  O  O35  1  0.326999  0.770413  0.687616  1
  O  O36  1  0.362088  0.918809  0.472339  1
  O  O37  1  0.373496  0.494602  0.745474  1
  O  O38  1  0.382358  0.705306  0.331528  1
  O  O39  1  0.405205  0.862150  0.083080  1
  O  O40  1  0.436761  0.076362  0.686533  1
  O  O41  1  0.441115  0.385481  0.395972  1
  O  O42  1  0.442620  0.167359  0.101708  1
  O  O43  1  0.446398  0.373005  0.943905  1
  O  O44  1  0.553602  0.626995  0.056095  1
  O  O45  1  0.557380  0.832641  0.898292  1
  O  O46  1  0.558885  0.614519  0.604028  1
  O  O47  1  0.563239  0.923638  0.313467  1
  O  O48  1  0.594795  0.137850  0.916920  1
  O  O49  1  0.617642  0.294694  0.668472  1
  O  O50  1  0.626504  0.505398  0.254526  1
  O  O51  1  0.637912  0.081191  0.527661  1
  O  O52  1  0.673001  0.229587  0.312384  1
  O  O53  1  0.686308  0.322515  0.064279  1
  O  O54  1  0.726403  0.025614  0.724785  1
  O  O55  1  0.732249  0.450279  0.440796  1
  O  O56  1  0.767755  0.950273  0.059198  1
  O  O57  1  0.773597  0.525612  0.775207  1
  O  O58  1  0.813702  0.822517  0.435713  1
  O  O59  1  0.827003  0.729585  0.187615  1
  O  O60  1  0.862086  0.581196  0.972335  1
  O  O61  1  0.873495  0.005400  0.245469  1
  O  O62  1  0.882356  0.794693  0.831514  1
  O  O63  1  0.905204  0.637850  0.583076  1
  O  O64  1  0.936761  0.423640  0.186541  1
  O  O65  1  0.941107  0.114524  0.895973  1
  O  O66  1  0.942613  0.332639  0.601708  1
  O  O67  1  0.946401  0.126996  0.443901  1
  P  P68  1  0.038638  0.249208  0.509407  1
  P  P69  1  0.111723  0.382721  0.149562  1
  P  P70  1  0.111467  0.112492  0.853584  1
  P  P71  1  0.388280  0.882719  0.350444  1
  P  P72  1  0.388531  0.612492  0.646418  1
  P  P73  1  0.461359  0.749210  0.990595  1
  P  P74  1  0.538641  0.250790  0.009405  1
  P  P75  1  0.611469  0.387508  0.353582  1
  P  P76  1  0.611720  0.117281  0.649556  1
  P  P77  1  0.888533  0.887508  0.146416  1
  P  P78  1  0.888278  0.617279  0.850438  1
  P  P79  1  0.961362  0.750792  0.490593  1
