# generated using pymatgen
data_C2S(OF)4
_symmetry_space_group_name_H-M   'P 1'
_cell_length_a   6.63548401
_cell_length_b   9.17435133
_cell_length_c   11.30548594
_cell_angle_alpha   105.22425440
_cell_angle_beta   90.00000000
_cell_angle_gamma   90.00000000
_symmetry_Int_Tables_number   1
_chemical_formula_structural   C2S(OF)4
_chemical_formula_sum   'C8 S4 O16 F16'
_cell_volume   664.08237438
_cell_formula_units_Z   4
loop_
 _symmetry_equiv_pos_site_id
 _symmetry_equiv_pos_as_xyz
  1  'x, y, z'
loop_
 _atom_site_type_symbol
 _atom_site_label
 _atom_site_symmetry_multiplicity
 _atom_site_fract_x
 _atom_site_fract_y
 _atom_site_fract_z
 _atom_site_occupancy
  C  C0  1  0.619257  0.741450  0.162362  1
  C  C1  1  0.727073  0.661607  0.569789  1
  C  C2  1  0.380743  0.258550  0.837638  1
  C  C3  1  0.772927  0.161607  0.569789  1
  C  C4  1  0.880743  0.241450  0.162362  1
  C  C5  1  0.272927  0.338393  0.430211  1
  C  C6  1  0.119257  0.758550  0.837638  1
  C  C7  1  0.227073  0.838393  0.430211  1
  S  S8  1  0.616194  0.325305  0.773095  1
  S  S9  1  0.383806  0.674695  0.226905  1
  S  S10  1  0.883806  0.825305  0.773095  1
  S  S11  1  0.116194  0.174695  0.226905  1
  O  O12  1  0.934806  0.953896  0.730198  1
  O  O13  1  0.376794  0.829092  0.345879  1
  O  O14  1  0.905712  0.249321  0.569010  1
  O  O15  1  0.065194  0.046104  0.269802  1
  O  O16  1  0.623206  0.170908  0.654121  1
  O  O17  1  0.434806  0.546104  0.269802  1
  O  O18  1  0.281227  0.177497  0.146497  1
  O  O19  1  0.781227  0.322503  0.853503  1
  O  O20  1  0.094288  0.750679  0.430990  1
  O  O21  1  0.876794  0.670908  0.654121  1
  O  O22  1  0.718773  0.822503  0.853503  1
  O  O23  1  0.594288  0.749321  0.569010  1
  O  O24  1  0.123206  0.329092  0.345879  1
  O  O25  1  0.565194  0.453896  0.730198  1
  O  O26  1  0.405712  0.250679  0.430990  1
  O  O27  1  0.218773  0.677497  0.146497  1
  F  F28  1  0.838199  0.134363  0.058559  1
  F  F29  1  0.745048  0.031074  0.484487  1
  F  F30  1  0.254952  0.968926  0.515513  1
  F  F31  1  0.245048  0.468926  0.515513  1
  F  F32  1  0.914839  0.373838  0.136711  1
  F  F33  1  0.161801  0.865637  0.941441  1
  F  F34  1  0.754952  0.531074  0.484487  1
  F  F35  1  0.661801  0.634363  0.058559  1
  F  F36  1  0.771150  0.753930  0.242083  1
  F  F37  1  0.414839  0.126162  0.863289  1
  F  F38  1  0.228850  0.246070  0.757917  1
  F  F39  1  0.085161  0.626162  0.863289  1
  F  F40  1  0.338199  0.365637  0.941441  1
  F  F41  1  0.728850  0.253930  0.242083  1
  F  F42  1  0.271150  0.746070  0.757917  1
  F  F43  1  0.585161  0.873838  0.136711  1
