# generated using pymatgen
data_TaNO
_symmetry_space_group_name_H-M   'P 1'
_cell_length_a   6.68987439
_cell_length_b   6.69063944
_cell_length_c   3.92248194
_cell_angle_alpha   90.00000000
_cell_angle_beta   90.00000000
_cell_angle_gamma   119.99621759
_symmetry_Int_Tables_number   1
_chemical_formula_structural   TaNO
_chemical_formula_sum   'Ta3 N3 O3'
_cell_volume   152.05255612
_cell_formula_units_Z   3
loop_
 _symmetry_equiv_pos_site_id
 _symmetry_equiv_pos_as_xyz
  1  'x, y, z'
loop_
 _atom_site_type_symbol
 _atom_site_label
 _atom_site_symmetry_multiplicity
 _atom_site_fract_x
 _atom_site_fract_y
 _atom_site_fract_z
 _atom_site_occupancy
  N  N0  1  0.000000  0.500000  0.000000  1
  N  N1  1  0.500000  0.500000  0.000000  1
  Ta  Ta2  1  0.333106  0.666212  0.000000  1
  Ta  Ta3  1  0.999999  0.999999  0.000000  1
  O  O4  1  0.666660  0.333320  0.500000  1
  N  N5  1  0.500000  0.000000  0.000000  1
  O  O6  1  0.333340  0.666680  0.500000  1
  O  O7  1  0.000000  0.000000  0.500000  1
  Ta  Ta8  1  0.666894  0.333788  0.000000  1
