# generated using pymatgen
data_K2Ni(NO3)4
_symmetry_space_group_name_H-M   'P 1'
_cell_length_a   7.18806272
_cell_length_b   9.23440020
_cell_length_c   9.26317001
_cell_angle_alpha   97.44368890
_cell_angle_beta   112.82958682
_cell_angle_gamma   89.99999768
_symmetry_Int_Tables_number   1
_chemical_formula_structural   K2Ni(NO3)4
_chemical_formula_sum   'K4 Ni2 N8 O24'
_cell_volume   561.07247383
_cell_formula_units_Z   2
loop_
 _symmetry_equiv_pos_site_id
 _symmetry_equiv_pos_as_xyz
  1  'x, y, z'
loop_
 _atom_site_type_symbol
 _atom_site_label
 _atom_site_symmetry_multiplicity
 _atom_site_fract_x
 _atom_site_fract_y
 _atom_site_fract_z
 _atom_site_occupancy
  K  K0  1  0.105128  0.282730  0.517357  1
  K  K1  1  0.412229  0.782730  0.517357  1
  K  K2  1  0.429772  0.351076  0.118513  1
  K  K3  1  0.688741  0.851076  0.118513  1
  Ni  Ni4  1  0.033819  0.675789  0.759251  1
  Ni  Ni5  1  0.725432  0.175789  0.759251  1
  N  N6  1  0.001411  0.975105  0.668094  1
  N  N7  1  0.540028  0.096423  0.409119  1
  N  N8  1  0.986000  0.212618  0.118871  1
  N  N9  1  0.666683  0.475105  0.668094  1
  N  N10  1  0.382667  0.584503  0.875047  1
  N  N11  1  0.492380  0.084503  0.875047  1
  N  N12  1  0.869092  0.596423  0.409119  1
  N  N13  1  0.132871  0.712618  0.118871  1
  O  O14  1  0.622846  0.207201  0.389982  1
  O  O15  1  0.507384  0.095150  0.538507  1
  O  O16  1  0.031124  0.595150  0.538507  1
  O  O17  1  0.393247  0.048615  0.949031  1
  O  O18  1  0.797655  0.383167  0.726239  1
  O  O19  1  0.844838  0.155989  0.144088  1
  O  O20  1  0.965858  0.232475  0.978205  1
  O  O21  1  0.299250  0.655989  0.144088  1
  O  O22  1  0.941313  0.106344  0.672557  1
  O  O23  1  0.492150  0.215294  0.839747  1
  O  O24  1  0.824144  0.483434  0.308977  1
  O  O25  1  0.077085  0.753417  0.230376  1
  O  O26  1  0.928584  0.883167  0.726239  1
  O  O27  1  0.606878  0.997117  0.832782  1
  O  O28  1  0.482072  0.444180  0.607616  1
  O  O29  1  0.153290  0.253417  0.230376  1
  O  O30  1  0.484834  0.983434  0.308977  1
  O  O31  1  0.012348  0.732475  0.978205  1
  O  O32  1  0.225903  0.497117  0.832782  1
  O  O33  1  0.347596  0.715294  0.839747  1
  O  O34  1  0.125544  0.944180  0.607616  1
  O  O35  1  0.731245  0.606344  0.672557  1
  O  O36  1  0.767136  0.707201  0.389982  1
  O  O37  1  0.555784  0.548615  0.949031  1
