# generated using pymatgen
data_K3Pu(PS4)2
_symmetry_space_group_name_H-M   'P 1'
_cell_length_a   9.12925842
_cell_length_b   9.62077096
_cell_length_c   17.28054279
_cell_angle_alpha   90.00000000
_cell_angle_beta   90.00000000
_cell_angle_gamma   90.41601171
_symmetry_Int_Tables_number   1
_chemical_formula_structural   K3Pu(PS4)2
_chemical_formula_sum   'K12 Pu4 P8 S32'
_cell_volume   1517.71878072
_cell_formula_units_Z   4
loop_
 _symmetry_equiv_pos_site_id
 _symmetry_equiv_pos_as_xyz
  1  'x, y, z'
loop_
 _atom_site_type_symbol
 _atom_site_label
 _atom_site_symmetry_multiplicity
 _atom_site_fract_x
 _atom_site_fract_y
 _atom_site_fract_z
 _atom_site_occupancy
  Pu  Pu0  1  0.279481  0.475342  0.011871  1
  Pu  Pu1  1  0.720519  0.024658  0.511871  1
  Pu  Pu2  1  0.720519  0.524658  0.988129  1
  Pu  Pu3  1  0.279481  0.975342  0.488129  1
  P  P4  1  0.973138  0.283435  0.903627  1
  P  P5  1  0.026862  0.216565  0.403627  1
  P  P6  1  0.026862  0.716565  0.096373  1
  P  P7  1  0.973138  0.783435  0.596373  1
  P  P8  1  0.500936  0.260319  0.100276  1
  P  P9  1  0.499064  0.239681  0.600276  1
  P  P10  1  0.499064  0.739681  0.899724  1
  P  P11  1  0.500936  0.760319  0.399724  1
  K  K12  1  0.231930  0.511939  0.531145  1
  K  K13  1  0.768070  0.988061  0.031145  1
  K  K14  1  0.768070  0.488061  0.468855  1
  K  K15  1  0.231930  0.011939  0.968855  1
  K  K16  1  0.622265  0.627663  0.708086  1
  K  K17  1  0.377735  0.872337  0.208086  1
  K  K18  1  0.377735  0.372337  0.291914  1
  K  K19  1  0.622265  0.127663  0.791914  1
  K  K20  1  0.114895  0.632497  0.788242  1
  K  K21  1  0.885105  0.867503  0.288242  1
  K  K22  1  0.885105  0.367503  0.211758  1
  K  K23  1  0.114895  0.132497  0.711758  1
  S  S24  1  0.170947  0.586861  0.152063  1
  S  S25  1  0.829053  0.913139  0.652063  1
  S  S26  1  0.829053  0.413139  0.847937  1
  S  S27  1  0.170947  0.086861  0.347937  1
  S  S28  1  0.186744  0.336471  0.875342  1
  S  S29  1  0.813256  0.163529  0.375342  1
  S  S30  1  0.813256  0.663529  0.124658  1
  S  S31  1  0.186744  0.836471  0.624658  1
  S  S32  1  0.953442  0.325530  0.020646  1
  S  S33  1  0.046558  0.174470  0.520646  1
  S  S34  1  0.046558  0.674470  0.979354  1
  S  S35  1  0.953442  0.825530  0.479354  1
  S  S36  1  0.533707  0.471280  0.119895  1
  S  S37  1  0.466293  0.028720  0.619895  1
  S  S38  1  0.466293  0.528720  0.880105  1
  S  S39  1  0.533707  0.971280  0.380105  1
  S  S40  1  0.279815  0.231170  0.109776  1
  S  S41  1  0.720185  0.268830  0.609776  1
  S  S42  1  0.720185  0.768830  0.890224  1
  S  S43  1  0.279815  0.731170  0.390224  1
  S  S44  1  0.554557  0.252061  0.984338  1
  S  S45  1  0.445443  0.247939  0.484338  1
  S  S46  1  0.445443  0.747939  0.015662  1
  S  S47  1  0.554557  0.752061  0.515662  1
  S  S48  1  0.614884  0.141149  0.175251  1
  S  S49  1  0.385116  0.358851  0.675251  1
  S  S50  1  0.385116  0.858851  0.824749  1
  S  S51  1  0.614884  0.641149  0.324749  1
  S  S52  1  0.934552  0.082251  0.874635  1
  S  S53  1  0.065448  0.417749  0.374635  1
  S  S54  1  0.065448  0.917749  0.125365  1
  S  S55  1  0.934552  0.582251  0.625365  1
