# generated using pymatgen
data_TiCl3
_symmetry_space_group_name_H-M   'P 1'
_cell_length_a   6.12199468
_cell_length_b   6.12199480
_cell_length_c   19.63506162
_cell_angle_alpha   90.00000000
_cell_angle_beta   90.00000000
_cell_angle_gamma   119.99999937
_symmetry_Int_Tables_number   1
_chemical_formula_structural   TiCl3
_chemical_formula_sum   'Ti6 Cl18'
_cell_volume   637.30717369
_cell_formula_units_Z   6
loop_
 _symmetry_equiv_pos_site_id
 _symmetry_equiv_pos_as_xyz
  1  'x, y, z'
loop_
 _atom_site_type_symbol
 _atom_site_label
 _atom_site_symmetry_multiplicity
 _atom_site_fract_x
 _atom_site_fract_y
 _atom_site_fract_z
 _atom_site_occupancy
  Ti  Ti0  1  0.113232  0.886768  0.333333  1
  Ti  Ti1  1  0.775569  0.224431  0.333333  1
  Ti  Ti2  1  0.775569  0.551138  0.666667  1
  Ti  Ti3  1  0.113232  0.226464  0.666667  1
  Ti  Ti4  1  0.773536  0.886768  -0.000000  1
  Ti  Ti5  1  0.448862  0.224431  -0.000000  1
  Cl  Cl6  1  0.802063  0.913096  0.262108  1
  Cl  Cl7  1  0.111033  0.197937  0.928774  1
  Cl  Cl8  1  0.443821  0.531722  0.594355  1
  Cl  Cl9  1  0.087901  0.531722  0.738978  1
  Cl  Cl10  1  0.802063  0.888967  0.737892  1
  Cl  Cl11  1  0.086904  0.197937  0.404559  1
  Cl  Cl12  1  0.443821  0.912099  0.405645  1
  Cl  Cl13  1  0.468278  0.556179  0.072312  1
  Cl  Cl14  1  0.111033  0.913096  0.071226  1
  Cl  Cl15  1  0.445103  0.245860  0.738765  1
  Cl  Cl16  1  0.754140  0.199244  0.072099  1
  Cl  Cl17  1  0.800756  0.554897  0.405432  1
  Cl  Cl18  1  0.086904  0.888967  0.595441  1
  Cl  Cl19  1  0.468278  0.912099  0.927688  1
  Cl  Cl20  1  0.800756  0.245860  0.594568  1
  Cl  Cl21  1  0.087901  0.556179  0.261022  1
  Cl  Cl22  1  0.754140  0.554897  0.927901  1
  Cl  Cl23  1  0.445103  0.199244  0.261235  1
