# generated using pymatgen
data_BaMnFeF7
_symmetry_space_group_name_H-M   'P 1'
_cell_length_a   5.65741528
_cell_length_b   9.35311253
_cell_length_c   11.14002891
_cell_angle_alpha   90.00000000
_cell_angle_beta   90.00000000
_cell_angle_gamma   94.79450133
_symmetry_Int_Tables_number   1
_chemical_formula_structural   BaMnFeF7
_chemical_formula_sum   'Ba4 Mn4 Fe4 F28'
_cell_volume   587.40579310
_cell_formula_units_Z   4
loop_
 _symmetry_equiv_pos_site_id
 _symmetry_equiv_pos_as_xyz
  1  'x, y, z'
loop_
 _atom_site_type_symbol
 _atom_site_label
 _atom_site_symmetry_multiplicity
 _atom_site_fract_x
 _atom_site_fract_y
 _atom_site_fract_z
 _atom_site_occupancy
  F  F0  1  0.294046  0.026974  0.905532  1
  F  F1  1  0.705954  0.473026  0.405532  1
  F  F2  1  0.705954  0.973026  0.094468  1
  F  F3  1  0.294046  0.526974  0.594468  1
  F  F4  1  0.654745  0.559013  0.146284  1
  F  F5  1  0.345255  0.940987  0.646284  1
  F  F6  1  0.345255  0.440987  0.853716  1
  F  F7  1  0.654745  0.059013  0.353716  1
  F  F8  1  0.895991  0.289427  0.237999  1
  F  F9  1  0.104009  0.210573  0.737999  1
  F  F10  1  0.104009  0.710573  0.762001  1
  F  F11  1  0.895991  0.789427  0.262001  1
  F  F12  1  0.594785  0.718219  0.713104  1
  F  F13  1  0.405215  0.781781  0.213104  1
  F  F14  1  0.405215  0.281781  0.286896  1
  F  F15  1  0.594785  0.218219  0.786896  1
  F  F16  1  0.503673  0.746381  0.969781  1
  F  F17  1  0.496327  0.753619  0.469781  1
  F  F18  1  0.496327  0.253619  0.030219  1
  F  F19  1  0.503673  0.246381  0.530219  1
  F  F20  1  0.861878  0.989838  0.601569  1
  F  F21  1  0.138122  0.510162  0.101569  1
  F  F22  1  0.138122  0.010162  0.398431  1
  F  F23  1  0.861878  0.489838  0.898431  1
  F  F24  1  0.023022  0.717494  0.515427  1
  F  F25  1  0.976978  0.782506  0.015427  1
  F  F26  1  0.976978  0.282506  0.484573  1
  F  F27  1  0.023022  0.217494  0.984573  1
  Mn  Mn28  1  0.815815  0.881375  0.436003  1
  Mn  Mn29  1  0.184185  0.618625  0.936003  1
  Mn  Mn30  1  0.815815  0.381375  0.063997  1
  Mn  Mn31  1  0.184185  0.118625  0.563997  1
  Fe  Fe32  1  0.309584  0.735095  0.619856  1
  Fe  Fe33  1  0.690416  0.264905  0.380144  1
  Fe  Fe34  1  0.690416  0.764905  0.119856  1
  Fe  Fe35  1  0.309584  0.235095  0.880144  1
  Ba  Ba36  1  0.764631  0.460182  0.668416  1
  Ba  Ba37  1  0.235369  0.039818  0.168416  1
  Ba  Ba38  1  0.235369  0.539818  0.331584  1
  Ba  Ba39  1  0.764631  0.960182  0.831584  1
