# generated using pymatgen
data_AsS
_symmetry_space_group_name_H-M   'P 1'
_cell_length_a   7.27990730
_cell_length_b   7.27990779
_cell_length_c   9.51259682
_cell_angle_alpha   80.99314857
_cell_angle_beta   80.99314789
_cell_angle_gamma   85.26962858
_symmetry_Int_Tables_number   1
_chemical_formula_structural   AsS
_chemical_formula_sum   'As8 S8'
_cell_volume   490.91501581
_cell_formula_units_Z   8
loop_
 _symmetry_equiv_pos_site_id
 _symmetry_equiv_pos_as_xyz
  1  'x, y, z'
loop_
 _atom_site_type_symbol
 _atom_site_label
 _atom_site_symmetry_multiplicity
 _atom_site_fract_x
 _atom_site_fract_y
 _atom_site_fract_z
 _atom_site_occupancy
  As  As0  1  0.788708  0.206774  0.934465  1
  As  As1  1  0.793226  0.211292  0.565535  1
  As  As2  1  0.211292  0.793226  0.065535  1
  As  As3  1  0.206774  0.788708  0.434465  1
  As  As4  1  0.449278  0.246627  0.863226  1
  As  As5  1  0.753373  0.550722  0.636774  1
  As  As6  1  0.550722  0.753373  0.136774  1
  As  As7  1  0.246627  0.449278  0.363226  1
  S  S8  1  0.934904  0.065096  0.750000  1
  S  S9  1  0.065096  0.934904  0.250000  1
  S  S10  1  0.456664  0.543336  0.750000  1
  S  S11  1  0.543336  0.456664  0.250000  1
  S  S12  1  0.507062  0.115579  0.660580  1
  S  S13  1  0.884421  0.492938  0.839420  1
  S  S14  1  0.492938  0.884421  0.339420  1
  S  S15  1  0.115579  0.507062  0.160580  1
