# generated using pymatgen
data_Rb4H6C2O9
_symmetry_space_group_name_H-M   'P 1'
_cell_length_a   7.59276509
_cell_length_b   9.42426481
_cell_length_c   9.42426509
_cell_angle_alpha   95.82496109
_cell_angle_beta   109.67505581
_cell_angle_gamma   109.67505725
_symmetry_Int_Tables_number   1
_chemical_formula_structural   Rb4H6C2O9
_chemical_formula_sum   'Rb8 H12 C4 O18'
_cell_volume   580.10143515
_cell_formula_units_Z   2
loop_
 _symmetry_equiv_pos_site_id
 _symmetry_equiv_pos_as_xyz
  1  'x, y, z'
loop_
 _atom_site_type_symbol
 _atom_site_label
 _atom_site_symmetry_multiplicity
 _atom_site_fract_x
 _atom_site_fract_y
 _atom_site_fract_z
 _atom_site_occupancy
  Rb  Rb0  1  0.958567  0.994010  0.717242  1
  Rb  Rb1  1  0.541433  0.282758  0.005990  1
  Rb  Rb2  1  0.041433  0.005990  0.282758  1
  Rb  Rb3  1  0.458567  0.717242  0.994010  1
  Rb  Rb4  1  0.750000  0.311500  0.688500  1
  Rb  Rb5  1  0.250000  0.688500  0.311500  1
  Rb  Rb6  1  0.750000  0.618398  0.381602  1
  Rb  Rb7  1  0.250000  0.381602  0.618398  1
  O  O8  1  0.649504  0.891900  0.325626  1
  O  O9  1  0.850496  0.674374  0.108100  1
  O  O10  1  0.350496  0.108100  0.674374  1
  O  O11  1  0.149504  0.325626  0.891900  1
  O  O12  1  0.830685  0.147073  0.442436  1
  O  O13  1  0.669315  0.557564  0.852927  1
  O  O14  1  0.169315  0.852927  0.557564  1
  O  O15  1  0.330685  0.442436  0.147073  1
  O  O16  1  0.487869  0.055278  0.315257  1
  O  O17  1  0.012131  0.684743  0.944722  1
  O  O18  1  0.512131  0.944722  0.684743  1
  O  O19  1  0.987869  0.315257  0.055278  1
  C  C20  1  0.656056  0.030169  0.360599  1
  C  C21  1  0.843944  0.639401  0.969831  1
  C  C22  1  0.343944  0.969831  0.639401  1
  C  C23  1  0.156056  0.360599  0.030169  1
  O  O24  1  0.428842  0.313019  0.391247  1
  O  O25  1  0.071158  0.608753  0.686981  1
  O  O26  1  0.571158  0.686981  0.608753  1
  O  O27  1  0.928842  0.391247  0.313019  1
  O  O28  1  0.250000  0.985511  0.014489  1
  O  O29  1  0.750000  0.014489  0.985511  1
  H  H30  1  0.463857  0.224496  0.358590  1
  H  H31  1  0.036143  0.641410  0.775504  1
  H  H32  1  0.536143  0.775504  0.641410  1
  H  H33  1  0.963857  0.358590  0.224496  1
  H  H34  1  0.378381  0.352694  0.297466  1
  H  H35  1  0.121619  0.702534  0.647306  1
  H  H36  1  0.621619  0.647306  0.702534  1
  H  H37  1  0.878381  0.297466  0.352694  1
  H  H38  1  0.344664  0.007939  0.125686  1
  H  H39  1  0.155336  0.874314  0.992061  1
  H  H40  1  0.655336  0.992061  0.874314  1
  H  H41  1  0.844664  0.125686  0.007939  1
