# generated using pymatgen
data_Ba9(RhO3)8
_symmetry_space_group_name_H-M   'P 1'
_cell_length_a   15.40532767
_cell_length_b   15.40532756
_cell_length_c   15.40532755
_cell_angle_alpha   38.75621923
_cell_angle_beta   38.75621972
_cell_angle_gamma   38.75621980
_symmetry_Int_Tables_number   1
_chemical_formula_structural   Ba9(RhO3)8
_chemical_formula_sum   'Ba18 Rh16 O48'
_cell_volume   1287.91255116
_cell_formula_units_Z   2
loop_
 _symmetry_equiv_pos_site_id
 _symmetry_equiv_pos_as_xyz
  1  'x, y, z'
loop_
 _atom_site_type_symbol
 _atom_site_label
 _atom_site_symmetry_multiplicity
 _atom_site_fract_x
 _atom_site_fract_y
 _atom_site_fract_z
 _atom_site_occupancy
  Ba  Ba0  1  0.534630  0.197593  0.851172  1
  Ba  Ba1  1  0.302407  0.965370  0.648828  1
  Ba  Ba2  1  0.802407  0.148828  0.465370  1
  Ba  Ba3  1  0.034630  0.351172  0.697593  1
  Ba  Ba4  1  0.148828  0.465370  0.802407  1
  Ba  Ba5  1  0.697593  0.034630  0.351172  1
  Ba  Ba6  1  0.465370  0.802407  0.148828  1
  Ba  Ba7  1  0.351172  0.697593  0.034630  1
  Ba  Ba8  1  0.601938  0.898062  0.250000  1
  Ba  Ba9  1  0.965370  0.648828  0.302407  1
  Ba  Ba10  1  0.898062  0.250000  0.601938  1
  Ba  Ba11  1  0.101938  0.750000  0.398062  1
  Ba  Ba12  1  0.197593  0.851172  0.534630  1
  Ba  Ba13  1  0.398062  0.101938  0.750000  1
  Ba  Ba14  1  0.851172  0.534630  0.197593  1
  Ba  Ba15  1  0.648828  0.302407  0.965370  1
  Ba  Ba16  1  0.750000  0.398062  0.101938  1
  Ba  Ba17  1  0.250000  0.601938  0.898062  1
  Rh  Rh18  1  0.620735  0.620735  0.620735  1
  Rh  Rh19  1  0.059732  0.059732  0.059732  1
  Rh  Rh20  1  0.250000  0.250000  0.250000  1
  Rh  Rh21  1  0.940268  0.940268  0.940268  1
  Rh  Rh22  1  0.379265  0.379265  0.379265  1
  Rh  Rh23  1  0.815693  0.815693  0.815693  1
  Rh  Rh24  1  0.184307  0.184307  0.184307  1
  Rh  Rh25  1  0.559732  0.559732  0.559732  1
  Rh  Rh26  1  0.500000  0.500000  0.500000  1
  Rh  Rh27  1  0.684307  0.684307  0.684307  1
  Rh  Rh28  1  0.315693  0.315693  0.315693  1
  Rh  Rh29  1  0.440268  0.440268  0.440268  1
  Rh  Rh30  1  0.879265  0.879265  0.879265  1
  Rh  Rh31  1  0.120735  0.120735  0.120735  1
  Rh  Rh32  1  0.000000  0.000000  0.000000  1
  Rh  Rh33  1  0.750000  0.750000  0.750000  1
  O  O34  1  0.393997  0.118615  0.337590  1
  O  O35  1  0.418170  0.563046  0.249937  1
  O  O36  1  0.749937  0.063046  0.918170  1
  O  O37  1  0.750063  0.581830  0.436954  1
  O  O38  1  0.162410  0.381385  0.106003  1
  O  O39  1  0.662410  0.606003  0.881385  1
  O  O40  1  0.627661  0.472788  0.310327  1
  O  O41  1  0.118615  0.337590  0.393997  1
  O  O42  1  0.207526  0.507900  0.329153  1
  O  O43  1  0.329153  0.207526  0.507900  1
  O  O44  1  0.436954  0.750063  0.581830  1
  O  O45  1  0.972788  0.127661  0.810327  1
  O  O46  1  0.250063  0.936954  0.081830  1
  O  O47  1  0.372339  0.527212  0.689673  1
  O  O48  1  0.707526  0.829153  0.007900  1
  O  O49  1  0.492100  0.670847  0.792474  1
  O  O50  1  0.837590  0.618615  0.893997  1
  O  O51  1  0.063046  0.918170  0.749937  1
  O  O52  1  0.027212  0.872339  0.189673  1
  O  O53  1  0.829153  0.007900  0.707526  1
  O  O54  1  0.563046  0.249937  0.418170  1
  O  O55  1  0.670847  0.792474  0.492100  1
  O  O56  1  0.872339  0.189673  0.027212  1
  O  O57  1  0.581830  0.436954  0.750063  1
  O  O58  1  0.792474  0.492100  0.670847  1
  O  O59  1  0.106003  0.162410  0.381385  1
  O  O60  1  0.310327  0.627661  0.472788  1
  O  O61  1  0.292474  0.170847  0.992100  1
  O  O62  1  0.249937  0.418170  0.563046  1
  O  O63  1  0.337590  0.393997  0.118615  1
  O  O64  1  0.007900  0.707526  0.829153  1
  O  O65  1  0.472788  0.310327  0.627661  1
  O  O66  1  0.189673  0.027212  0.872339  1
  O  O67  1  0.936954  0.081830  0.250063  1
  O  O68  1  0.507900  0.329153  0.207526  1
  O  O69  1  0.081830  0.250063  0.936954  1
  O  O70  1  0.893997  0.837590  0.618615  1
  O  O71  1  0.689673  0.372339  0.527212  1
  O  O72  1  0.606003  0.881385  0.662410  1
  O  O73  1  0.127661  0.810327  0.972788  1
  O  O74  1  0.170847  0.992100  0.292474  1
  O  O75  1  0.381385  0.106003  0.162410  1
  O  O76  1  0.918170  0.749937  0.063046  1
  O  O77  1  0.881385  0.662410  0.606003  1
  O  O78  1  0.618615  0.893997  0.837590  1
  O  O79  1  0.810327  0.972788  0.127661  1
  O  O80  1  0.992100  0.292474  0.170847  1
  O  O81  1  0.527212  0.689673  0.372339  1
