# generated using pymatgen
data_Na3Fe2Mo5O16
_symmetry_space_group_name_H-M   'P 1'
_cell_length_a   6.11575461
_cell_length_b   6.11575427
_cell_length_c   21.44877275
_cell_angle_alpha   90.00000000
_cell_angle_beta   90.00000000
_cell_angle_gamma   120.00000189
_symmetry_Int_Tables_number   1
_chemical_formula_structural   Na3Fe2Mo5O16
_chemical_formula_sum   'Na6 Fe4 Mo10 O32'
_cell_volume   694.75734981
_cell_formula_units_Z   2
loop_
 _symmetry_equiv_pos_site_id
 _symmetry_equiv_pos_as_xyz
  1  'x, y, z'
loop_
 _atom_site_type_symbol
 _atom_site_label
 _atom_site_symmetry_multiplicity
 _atom_site_fract_x
 _atom_site_fract_y
 _atom_site_fract_z
 _atom_site_occupancy
  Na  Na0  1  0.333333  0.666667  0.615470  1
  Na  Na1  1  0.666667  0.333333  0.384530  1
  Na  Na2  1  0.000000  0.000000  0.000000  1
  Na  Na3  1  0.666667  0.333333  0.888680  1
  Na  Na4  1  0.333333  0.666667  0.111320  1
  Na  Na5  1  0.000000  0.000000  0.500000  1
  Fe  Fe6  1  0.000000  0.000000  0.352644  1
  Fe  Fe7  1  0.000000  0.000000  0.849494  1
  Fe  Fe8  1  0.000000  0.000000  0.647356  1
  Fe  Fe9  1  0.000000  0.000000  0.150506  1
  Mo  Mo10  1  0.666667  0.333333  0.568910  1
  Mo  Mo11  1  0.997530  0.498765  0.247794  1
  Mo  Mo12  1  0.333333  0.666667  0.431090  1
  Mo  Mo13  1  0.498765  0.501235  0.752206  1
  Mo  Mo14  1  0.501235  0.498765  0.247794  1
  Mo  Mo15  1  0.498765  0.997530  0.752206  1
  Mo  Mo16  1  0.666667  0.333333  0.075957  1
  Mo  Mo17  1  0.002470  0.501235  0.752206  1
  Mo  Mo18  1  0.501235  0.002470  0.247794  1
  Mo  Mo19  1  0.333333  0.666667  0.924043  1
  O  O20  1  0.333423  0.166711  0.589954  1
  O  O21  1  0.666577  0.833289  0.410046  1
  O  O22  1  0.323247  0.161624  0.090580  1
  O  O23  1  0.161624  0.323247  0.909420  1
  O  O24  1  0.659825  0.829913  0.194552  1
  O  O25  1  0.176942  0.823058  0.701621  1
  O  O26  1  0.833289  0.666577  0.589954  1
  O  O27  1  0.333333  0.666667  0.513136  1
  O  O28  1  0.838376  0.161624  0.090580  1
  O  O29  1  0.166711  0.333423  0.410046  1
  O  O30  1  0.170087  0.340175  0.194552  1
  O  O31  1  0.676753  0.838376  0.909420  1
  O  O32  1  0.666667  0.333333  0.191490  1
  O  O33  1  0.823058  0.176942  0.298379  1
  O  O34  1  0.829913  0.170087  0.805448  1
  O  O35  1  0.666667  0.333333  0.486864  1
  O  O36  1  0.333333  0.666667  0.808510  1
  O  O37  1  0.176942  0.353885  0.701621  1
  O  O38  1  0.833289  0.166711  0.589954  1
  O  O39  1  0.333333  0.666667  0.298834  1
  O  O40  1  0.170087  0.829913  0.194552  1
  O  O41  1  0.333333  0.666667  0.006026  1
  O  O42  1  0.829913  0.659825  0.805448  1
  O  O43  1  0.666667  0.333333  0.701166  1
  O  O44  1  0.353885  0.176942  0.298379  1
  O  O45  1  0.646115  0.823058  0.701621  1
  O  O46  1  0.823058  0.646115  0.298379  1
  O  O47  1  0.166711  0.833289  0.410046  1
  O  O48  1  0.161624  0.838376  0.909420  1
  O  O49  1  0.340175  0.170087  0.805448  1
  O  O50  1  0.666667  0.333333  0.993974  1
  O  O51  1  0.838376  0.676753  0.090580  1
