# generated using pymatgen
data_Pr8Sb2S15
_symmetry_space_group_name_H-M   'P 1'
_cell_length_a   15.01010129
_cell_length_b   15.01010166
_cell_length_c   15.01010106
_cell_angle_alpha   96.40034749
_cell_angle_beta   116.37616411
_cell_angle_gamma   116.37616452
_symmetry_Int_Tables_number   1
_chemical_formula_structural   Pr8Sb2S15
_chemical_formula_sum   'Pr32 Sb8 S60'
_cell_volume   2505.36149354
_cell_formula_units_Z   4
loop_
 _symmetry_equiv_pos_site_id
 _symmetry_equiv_pos_as_xyz
  1  'x, y, z'
loop_
 _atom_site_type_symbol
 _atom_site_label
 _atom_site_symmetry_multiplicity
 _atom_site_fract_x
 _atom_site_fract_y
 _atom_site_fract_z
 _atom_site_occupancy
  Pr  Pr0  1  0.792915  0.399210  0.892333  1
  Pr  Pr1  1  0.006877  0.356295  0.649210  1
  Pr  Pr2  1  0.506877  0.899210  0.106295  1
  Pr  Pr3  1  0.673151  0.217685  0.583793  1
  Pr  Pr4  1  0.292915  0.142333  0.149210  1
  Pr  Pr5  1  0.493123  0.599418  0.392333  1
  Pr  Pr6  1  0.866108  0.333793  0.160641  1
  Pr  Pr7  1  0.429753  0.316912  0.472036  1
  Pr  Pr8  1  0.369777  0.950804  0.280696  1
  Pr  Pr9  1  0.633892  0.717685  0.044534  1
  Pr  Pr10  1  0.366108  0.410641  0.083793  1
  Pr  Pr11  1  0.070247  0.137158  0.792282  1
  Pr  Pr12  1  0.133892  0.294534  0.467685  1
  Pr  Pr13  1  0.844876  0.816912  0.387158  1
  Pr  Pr14  1  0.570247  0.042282  0.887158  1
  Pr  Pr15  1  0.655124  0.222036  0.292282  1
  Pr  Pr16  1  0.326849  0.910641  0.544534  1
  Pr  Pr17  1  0.329892  0.410919  0.780696  1
  Pr  Pr18  1  0.707085  0.856295  0.849418  1
  Pr  Pr19  1  0.869777  0.530696  0.700804  1
  Pr  Pr20  1  0.173151  0.833793  0.967685  1
  Pr  Pr21  1  0.344876  0.637158  0.566912  1
  Pr  Pr22  1  0.207085  0.099418  0.606295  1
  Pr  Pr23  1  0.170108  0.331027  0.200804  1
  Pr  Pr24  1  0.993123  0.642333  0.349418  1
  Pr  Pr25  1  0.929753  0.722036  0.066912  1
  Pr  Pr26  1  0.630223  0.910919  0.581027  1
  Pr  Pr27  1  0.829892  0.030696  0.160919  1
  Pr  Pr28  1  0.826849  0.794534  0.660641  1
  Pr  Pr29  1  0.155124  0.542282  0.972036  1
  Pr  Pr30  1  0.670108  0.450804  0.081027  1
  Pr  Pr31  1  0.130223  0.831027  0.660919  1
  Sb  Sb32  1  0.113126  0.993963  0.314058  1
  Sb  Sb33  1  0.179906  0.630837  0.243963  1
  Sb  Sb34  1  0.386874  0.130837  0.950932  1
  Sb  Sb35  1  0.613126  0.564058  0.743963  1
  Sb  Sb36  1  0.679906  0.493963  0.380837  1
  Sb  Sb37  1  0.886874  0.200932  0.880837  1
  Sb  Sb38  1  0.820094  0.064058  0.450931  1
  Sb  Sb39  1  0.320094  0.700932  0.814058  1
  S  S40  1  0.646877  0.372984  0.672164  1
  S  S41  1  0.012626  0.051182  0.383163  1
  S  S42  1  0.850482  0.870629  0.066594  1
  S  S43  1  0.087231  0.870383  0.462947  1
  S  S44  1  0.799180  0.422164  0.275287  1
  S  S45  1  0.200820  0.476107  0.622984  1
  S  S46  1  0.816189  0.732721  0.841753  1
  S  S47  1  0.886574  0.660913  0.468974  1
  S  S48  1  0.592564  0.875716  0.962947  1
  S  S49  1  0.299180  0.525287  0.172164  1
  S  S50  1  0.322942  0.448896  0.438989  1
  S  S51  1  0.195965  0.716112  0.566594  1
  S  S52  1  0.683811  0.166532  0.775564  1
  S  S53  1  0.890968  0.232721  0.416532  1
  S  S54  1  0.822942  0.688989  0.198896  1
  S  S55  1  0.831981  0.133163  0.620537  1
  S  S56  1  0.353123  0.025287  0.726107  1
  S  S57  1  0.109032  0.525564  0.341753  1
  S  S58  1  0.512626  0.633163  0.801182  1
  S  S59  1  0.487374  0.288556  0.120537  1
  S  S60  1  0.490093  0.188989  0.366047  1
  S  S61  1  0.146877  0.922164  0.122984  1
  S  S62  1  0.390968  0.666532  0.982721  1
  S  S63  1  0.808061  0.082399  0.968974  1
  S  S64  1  0.000000  0.749464  0.749464  1
  S  S65  1  0.191939  0.160913  0.274339  1
  S  S66  1  0.668019  0.551182  0.538556  1
  S  S67  1  0.168019  0.788556  0.301182  1
  S  S68  1  0.304035  0.770147  0.120629  1
  S  S69  1  0.509907  0.875954  0.698896  1
  S  S70  1  0.386574  0.718974  0.410913  1
  S  S71  1  0.613426  0.024339  0.332399  1
  S  S72  1  0.316189  0.091753  0.482721  1
  S  S73  1  0.649518  0.270147  0.966112  1
  S  S74  1  0.092564  0.212947  0.625716  1
  S  S75  1  0.350482  0.316594  0.620629  1
  S  S76  1  0.700820  0.872984  0.226107  1
  S  S77  1  0.308061  0.218974  0.832399  1
  S  S78  1  0.407436  0.370383  0.283152  1
  S  S79  1  0.500000  0.499464  -0.000536  1
  S  S80  1  0.009907  0.948896  0.625954  1
  S  S81  1  0.500000  -0.000536  0.499464  1
  S  S82  1  0.113426  0.582399  0.774339  1
  S  S83  1  0.609032  0.591753  0.275564  1
  S  S84  1  0.695965  0.816594  0.466112  1
  S  S85  1  0.412769  0.033152  0.125716  1
  S  S86  1  0.912769  0.375716  0.783152  1
  S  S87  1  0.907436  0.533152  0.120383  1
  S  S88  1  0.183811  0.025564  0.916532  1
  S  S89  1  0.587231  0.712947  0.620383  1
  S  S90  1  0.853123  0.976107  0.775287  1
  S  S91  1  0.149518  0.216112  0.020147  1
  S  S92  1  0.177058  0.375954  0.866047  1
  S  S93  1  0.987374  0.370537  0.038556  1
  S  S94  1  0.990093  0.616047  0.938989  1
  S  S95  1  0.804035  0.370629  0.520147  1
  S  S96  1  0.000000  0.249464  0.249464  1
  S  S97  1  0.331981  0.870537  0.883163  1
  S  S98  1  0.677058  0.116047  0.125954  1
  S  S99  1  0.691939  0.524339  0.910913  1
