# generated using pymatgen
data_Tl2S
_symmetry_space_group_name_H-M   'P 1'
_cell_length_a   9.67592290
_cell_length_b   9.67592215
_cell_length_c   9.67592215
_cell_angle_alpha   81.36948900
_cell_angle_beta   81.36948955
_cell_angle_gamma   81.36948727
_symmetry_Int_Tables_number   1
_chemical_formula_structural   Tl2S
_chemical_formula_sum   'Tl18 S9'
_cell_volume   877.92373288
_cell_formula_units_Z   9
loop_
 _symmetry_equiv_pos_site_id
 _symmetry_equiv_pos_as_xyz
  1  'x, y, z'
loop_
 _atom_site_type_symbol
 _atom_site_label
 _atom_site_symmetry_multiplicity
 _atom_site_fract_x
 _atom_site_fract_y
 _atom_site_fract_z
 _atom_site_occupancy
  Tl  Tl0  1  0.758967  0.733584  0.427566  1
  Tl  Tl1  1  0.764562  0.085539  0.055148  1
  Tl  Tl2  1  0.660650  0.692317  0.036210  1
  Tl  Tl3  1  0.094988  0.427086  0.397181  1
  Tl  Tl4  1  0.085539  0.055148  0.764562  1
  Tl  Tl5  1  0.427566  0.758967  0.733584  1
  Tl  Tl6  1  0.699640  0.333430  0.365768  1
  Tl  Tl7  1  0.365444  0.001238  0.031514  1
  Tl  Tl8  1  0.001238  0.031514  0.365444  1
  Tl  Tl9  1  0.365768  0.699640  0.333430  1
  Tl  Tl10  1  0.427086  0.397181  0.094988  1
  Tl  Tl11  1  0.733584  0.427566  0.758967  1
  Tl  Tl12  1  0.397181  0.094988  0.427086  1
  Tl  Tl13  1  0.692317  0.036210  0.660650  1
  Tl  Tl14  1  0.055148  0.764562  0.085539  1
  Tl  Tl15  1  0.031514  0.365444  0.001238  1
  Tl  Tl16  1  0.036210  0.660650  0.692317  1
  Tl  Tl17  1  0.333430  0.365768  0.699640  1
  S  S18  1  0.540945  0.540945  0.540945  1
  S  S19  1  0.207752  0.207752  0.207752  1
  S  S20  1  0.241397  0.576373  0.911177  1
  S  S21  1  0.874549  0.542658  0.209684  1
  S  S22  1  0.911177  0.241397  0.576373  1
  S  S23  1  0.209684  0.874549  0.542658  1
  S  S24  1  0.576373  0.911177  0.241397  1
  S  S25  1  0.542658  0.209684  0.874549  1
  S  S26  1  0.862633  0.862633  0.862633  1
