# generated using pymatgen
data_Na2USiO6
_symmetry_space_group_name_H-M   'P 1'
_cell_length_a   11.48382928
_cell_length_b   11.48382935
_cell_length_c   11.48382921
_cell_angle_alpha   104.81973872
_cell_angle_beta   111.84584441
_cell_angle_gamma   111.84584013
_symmetry_Int_Tables_number   1
_chemical_formula_structural   Na2USiO6
_chemical_formula_sum   'Na16 U8 Si8 O48'
_cell_volume   1160.13718587
_cell_formula_units_Z   8
loop_
 _symmetry_equiv_pos_site_id
 _symmetry_equiv_pos_as_xyz
  1  'x, y, z'
loop_
 _atom_site_type_symbol
 _atom_site_label
 _atom_site_symmetry_multiplicity
 _atom_site_fract_x
 _atom_site_fract_y
 _atom_site_fract_z
 _atom_site_occupancy
  Na  Na0  1  0.640558  0.070279  0.820279  1
  Na  Na1  1  0.750000  0.625000  0.875000  1
  Na  Na2  1  0.359442  0.929721  0.179721  1
  Na  Na3  1  0.859442  0.679721  0.429721  1
  Na  Na4  1  0.250000  0.179721  0.320279  1
  Na  Na5  1  0.250000  0.570279  0.929721  1
  Na  Na6  1  0.250000  0.625000  0.375000  1
  Na  Na7  1  0.250000  0.375000  0.125000  1
  Na  Na8  1  0.250000  0.125000  0.875000  1
  Na  Na9  1  0.140558  0.320279  0.570279  1
  Na  Na10  1  0.750000  0.429721  0.070279  1
  Na  Na11  1  0.250000  0.875000  0.625000  1
  Na  Na12  1  0.750000  0.820279  0.679721  1
  Na  Na13  1  0.750000  0.375000  0.625000  1
  Na  Na14  1  0.750000  0.875000  0.125000  1
  Na  Na15  1  0.750000  0.125000  0.375000  1
  U  U16  1  0.500000  0.000000  0.500000  1
  U  U17  1  0.000000  0.000000  0.500000  1
  U  U18  1  0.500000  0.500000  0.500000  1
  U  U19  1  0.000000  0.000000  0.000000  1
  U  U20  1  0.000000  0.500000  0.000000  1
  U  U21  1  0.000000  0.500000  0.500000  1
  U  U22  1  0.500000  0.500000  0.000000  1
  U  U23  1  0.500000  0.000000  0.000000  1
  Si  Si24  1  0.909454  0.250000  0.159454  1
  Si  Si25  1  0.409454  0.250000  0.659454  1
  Si  Si26  1  0.090546  0.750000  0.840546  1
  Si  Si27  1  0.909454  0.159454  0.750000  1
  Si  Si28  1  0.090546  0.840546  0.250000  1
  Si  Si29  1  0.590546  0.340546  0.250000  1
  Si  Si30  1  0.409454  0.659454  0.750000  1
  Si  Si31  1  0.590546  0.750000  0.340546  1
  O  O32  1  0.959472  0.322110  0.326420  1
  O  O33  1  0.435725  0.867545  0.565030  1
  O  O34  1  0.495690  0.362638  0.322110  1
  O  O35  1  0.504310  0.366948  0.826420  1
  O  O36  1  0.767918  0.441699  0.371354  1
  O  O37  1  -0.004310  0.673580  0.133052  1
  O  O38  1  0.540528  0.173580  0.177890  1
  O  O39  1  0.540528  0.866948  0.362638  1
  O  O40  1  0.267918  0.896563  0.326219  1
  O  O41  1  0.929655  0.371354  0.103437  1
  O  O42  1  0.040528  0.677890  0.673580  1
  O  O43  1  0.935725  0.370695  0.568180  1
  O  O44  1  0.232082  0.173781  0.603437  1
  O  O45  1  0.064275  0.629305  0.431820  1
  O  O46  1  0.732082  0.103437  0.673781  1
  O  O47  1  0.697485  0.565030  0.629305  1
  O  O48  1  0.732082  0.128646  0.058301  1
  O  O49  1  0.232082  0.558301  0.628646  1
  O  O50  1  0.429655  0.603437  0.871354  1
  O  O51  1  0.495690  0.633052  0.173580  1
  O  O52  1  0.064275  0.934970  0.632455  1
  O  O53  1  0.459472  0.826420  0.822110  1
  O  O54  1  0.767918  0.826219  0.396563  1
  O  O55  1  0.459472  0.133052  0.637362  1
  O  O56  1  0.302515  0.367545  0.931820  1
  O  O57  1  0.802515  0.870695  0.934970  1
  O  O58  1  1.004310  0.326420  0.866948  1
  O  O59  1  0.040528  0.862638  0.366948  1
  O  O60  1  0.802515  0.431820  0.867545  1
  O  O61  1  0.435725  0.068180  0.870695  1
  O  O62  1  0.959472  0.137362  0.633052  1
  O  O63  1  0.197485  0.129305  0.065030  1
  O  O64  1  0.429655  0.326219  0.558301  1
  O  O65  1  0.504310  0.637362  0.677890  1
  O  O66  1  0.197485  0.568180  0.132455  1
  O  O67  1  0.697485  0.632455  0.068180  1
  O  O68  1  0.570345  0.396563  0.128646  1
  O  O69  1  1.004310  0.177890  0.137362  1
  O  O70  1  0.564275  0.931820  0.129305  1
  O  O71  1  0.564275  0.132455  0.434970  1
  O  O72  1  -0.004310  0.822110  0.862638  1
  O  O73  1  0.929655  0.058301  0.826219  1
  O  O74  1  0.570345  0.673781  0.441699  1
  O  O75  1  0.267918  0.871354  0.941699  1
  O  O76  1  0.302515  0.434970  0.370695  1
  O  O77  1  0.070345  0.941699  0.173781  1
  O  O78  1  0.935725  0.065030  0.367545  1
  O  O79  1  0.070345  0.628646  0.896563  1
