# generated using pymatgen
data_U6Mn
_symmetry_space_group_name_H-M   'P 1'
_cell_length_a   5.29465270
_cell_length_b   7.64101306
_cell_length_c   7.64101284
_cell_angle_alpha   83.10579530
_cell_angle_beta   69.72888880
_cell_angle_gamma   69.72888735
_symmetry_Int_Tables_number   1
_chemical_formula_structural   U6Mn
_chemical_formula_sum   'U12 Mn2'
_cell_volume   272.02201015
_cell_formula_units_Z   2
loop_
 _symmetry_equiv_pos_site_id
 _symmetry_equiv_pos_as_xyz
  1  'x, y, z'
loop_
 _atom_site_type_symbol
 _atom_site_label
 _atom_site_symmetry_multiplicity
 _atom_site_fract_x
 _atom_site_fract_y
 _atom_site_fract_z
 _atom_site_occupancy
  U  U0  1  0.098478  0.682976  0.120069  1
  U  U1  1  0.901522  0.317024  0.879931  1
  U  U2  1  0.093399  0.313202  0.500000  1
  U  U3  1  0.593399  0.500000  0.313202  1
  U  U4  1  0.598478  0.120069  0.682976  1
  U  U5  1  0.281453  0.317024  0.120069  1
  U  U6  1  0.781453  0.120069  0.317024  1
  U  U7  1  0.906601  0.686798  0.500000  1
  U  U8  1  0.401522  0.879931  0.317024  1
  U  U9  1  0.218547  0.879931  0.682976  1
  U  U10  1  0.406601  0.500000  0.686798  1
  U  U11  1  0.718547  0.682976  0.879931  1
  Mn  Mn12  1  0.250000  0.000000  0.000000  1
  Mn  Mn13  1  0.750000  0.000000  0.000000  1
