# generated using pymatgen
data_Fe2(SeO4)3
_symmetry_space_group_name_H-M   'P 1'
_cell_length_a   8.50064580
_cell_length_b   8.81987538
_cell_length_c   11.98494891
_cell_angle_alpha   90.00000000
_cell_angle_beta   91.26797194
_cell_angle_gamma   90.00000000
_symmetry_Int_Tables_number   1
_chemical_formula_structural   Fe2(SeO4)3
_chemical_formula_sum   'Fe8 Se12 O48'
_cell_volume   898.34716161
_cell_formula_units_Z   4
loop_
 _symmetry_equiv_pos_site_id
 _symmetry_equiv_pos_as_xyz
  1  'x, y, z'
loop_
 _atom_site_type_symbol
 _atom_site_label
 _atom_site_symmetry_multiplicity
 _atom_site_fract_x
 _atom_site_fract_y
 _atom_site_fract_z
 _atom_site_occupancy
  Fe  Fe0  1  0.747572  0.469516  0.616991  1
  Fe  Fe1  1  0.752428  0.969516  0.883009  1
  Fe  Fe2  1  0.252428  0.530484  0.383009  1
  Fe  Fe3  1  0.247572  0.030484  0.116991  1
  Fe  Fe4  1  0.752883  0.033585  0.386002  1
  Fe  Fe5  1  0.747117  0.533585  0.113998  1
  Fe  Fe6  1  0.247117  0.966415  0.613998  1
  Fe  Fe7  1  0.252883  0.466415  0.886002  1
  Se  Se8  1  0.036010  0.252184  0.493357  1
  Se  Se9  1  0.463990  0.752184  0.006643  1
  Se  Se10  1  0.963990  0.747816  0.506643  1
  Se  Se11  1  0.536010  0.247816  0.993357  1
  Se  Se12  1  0.604841  0.376335  0.349655  1
  Se  Se13  1  0.895159  0.876335  0.150345  1
  Se  Se14  1  0.395159  0.623665  0.650345  1
  Se  Se15  1  0.104841  0.123665  0.849655  1
  Se  Se16  1  0.612554  0.121131  0.642354  1
  Se  Se17  1  0.887446  0.621131  0.857646  1
  Se  Se18  1  0.387446  0.878869  0.357646  1
  Se  Se19  1  0.112554  0.378869  0.142354  1
  O  O20  1  0.088939  0.121754  0.589374  1
  O  O21  1  0.411061  0.621754  0.910626  1
  O  O22  1  0.911061  0.878246  0.410626  1
  O  O23  1  0.588939  0.378246  0.089374  1
  O  O24  1  0.926716  0.186905  0.383461  1
  O  O25  1  0.573284  0.686905  0.116539  1
  O  O26  1  0.073285  0.813095  0.616539  1
  O  O27  1  0.426716  0.313095  0.883461  1
  O  O28  1  0.200733  0.327178  0.443200  1
  O  O29  1  0.299268  0.827178  0.056800  1
  O  O30  1  0.799268  0.672822  0.556800  1
  O  O31  1  0.700732  0.172822  0.943200  1
  O  O32  1  0.945491  0.384359  0.567354  1
  O  O33  1  0.554509  0.884359  0.932646  1
  O  O34  1  0.054509  0.615641  0.432646  1
  O  O35  1  0.445491  0.115641  0.067354  1
  O  O36  1  0.737134  0.479018  0.279745  1
  O  O37  1  0.762866  0.979018  0.220255  1
  O  O38  1  0.262866  0.520982  0.720255  1
  O  O39  1  0.237134  0.020982  0.779745  1
  O  O40  1  0.421497  0.419381  0.307828  1
  O  O41  1  0.078503  0.919381  0.192172  1
  O  O42  1  0.578503  0.580619  0.692172  1
  O  O43  1  0.921497  0.080619  0.807828  1
  O  O44  1  0.623314  0.402695  0.487276  1
  O  O45  1  0.876686  0.902695  0.012724  1
  O  O46  1  0.376686  0.597305  0.512724  1
  O  O47  1  0.123314  0.097305  0.987276  1
  O  O48  1  0.610558  0.186895  0.327877  1
  O  O49  1  0.889442  0.686895  0.172123  1
  O  O50  1  0.389442  0.813105  0.672123  1
  O  O51  1  0.110558  0.313105  0.827877  1
  O  O52  1  0.620268  0.000565  0.749002  1
  O  O53  1  0.879732  0.500565  0.750998  1
  O  O54  1  0.379732  0.999435  0.250998  1
  O  O55  1  0.120268  0.499435  0.249002  1
  O  O56  1  0.746695  0.071490  0.546896  1
  O  O57  1  0.753305  0.571490  0.953104  1
  O  O58  1  0.253305  0.928510  0.453104  1
  O  O59  1  0.246695  0.428510  0.046896  1
  O  O60  1  0.426515  0.116577  0.591708  1
  O  O61  1  0.073485  0.616577  0.908292  1
  O  O62  1  0.573485  0.883423  0.408292  1
  O  O63  1  0.926515  0.383423  0.091708  1
  O  O64  1  0.663504  0.292473  0.692897  1
  O  O65  1  0.836496  0.792473  0.807103  1
  O  O66  1  0.336496  0.707527  0.307103  1
  O  O67  1  0.163504  0.207527  0.192897  1
