# generated using pymatgen
data_PH8C2NO2
_symmetry_space_group_name_H-M   'P 1'
_cell_length_a   5.92970992
_cell_length_b   6.32896963
_cell_length_c   13.43459581
_cell_angle_alpha   90.00000000
_cell_angle_beta   98.92494131
_cell_angle_gamma   90.00000000
_symmetry_Int_Tables_number   1
_chemical_formula_structural   PH8C2NO2
_chemical_formula_sum   'P4 H32 C8 N4 O8'
_cell_volume   498.08185468
_cell_formula_units_Z   4
loop_
 _symmetry_equiv_pos_site_id
 _symmetry_equiv_pos_as_xyz
  1  'x, y, z'
loop_
 _atom_site_type_symbol
 _atom_site_label
 _atom_site_symmetry_multiplicity
 _atom_site_fract_x
 _atom_site_fract_y
 _atom_site_fract_z
 _atom_site_occupancy
  P  P0  1  0.666509  0.643974  0.375987  1
  P  P1  1  0.333491  0.143974  0.124013  1
  P  P2  1  0.666509  0.856026  0.875987  1
  P  P3  1  0.333491  0.356026  0.624013  1
  H  H4  1  0.770957  0.542678  0.975465  1
  H  H5  1  0.770957  0.957322  0.475465  1
  H  H6  1  0.229043  0.457322  0.024535  1
  H  H7  1  0.052141  0.822984  0.765263  1
  H  H8  1  0.753897  0.989944  0.253016  1
  H  H9  1  0.670538  0.750891  0.548972  1
  H  H10  1  0.246103  0.010056  0.746984  1
  H  H11  1  0.641471  0.097739  0.645401  1
  H  H12  1  0.358529  0.902261  0.354599  1
  H  H13  1  0.733214  0.258088  0.801675  1
  H  H14  1  0.358529  0.597739  0.854599  1
  H  H15  1  0.229043  0.042678  0.524535  1
  H  H16  1  0.047918  0.237373  0.983220  1
  H  H17  1  0.329462  0.249109  0.451028  1
  H  H18  1  0.670538  0.749109  0.048972  1
  H  H19  1  0.329462  0.250891  0.951028  1
  H  H20  1  0.047918  0.262627  0.483220  1
  H  H21  1  0.952082  0.762627  0.016780  1
  H  H22  1  0.288320  0.673001  0.420203  1
  H  H23  1  0.711680  0.326999  0.579797  1
  H  H24  1  0.288320  0.826999  0.920203  1
  H  H25  1  0.052141  0.677016  0.265263  1
  H  H26  1  0.711680  0.173001  0.079797  1
  H  H27  1  0.947859  0.177016  0.234737  1
  H  H28  1  0.947859  0.322984  0.734737  1
  H  H29  1  0.246103  0.489944  0.246984  1
  H  H30  1  0.733214  0.241912  0.301675  1
  H  H31  1  0.952082  0.737373  0.516780  1
  H  H32  1  0.266786  0.758088  0.698325  1
  H  H33  1  0.753897  0.510056  0.753016  1
  H  H34  1  0.266786  0.741912  0.198325  1
  H  H35  1  0.641471  0.402261  0.145401  1
  C  C36  1  0.224957  0.213441  0.509765  1
  C  C37  1  0.364665  0.771420  0.855402  1
  C  C38  1  0.635335  0.228580  0.144598  1
  C  C39  1  0.775043  0.713441  0.990235  1
  C  C40  1  0.775043  0.786559  0.490235  1
  C  C41  1  0.224957  0.286559  0.009765  1
  C  C42  1  0.364665  0.728580  0.355402  1
  C  C43  1  0.635335  0.271420  0.644598  1
  N  N44  1  0.773619  0.347219  0.739730  1
  N  N45  1  0.773619  0.152781  0.239730  1
  N  N46  1  0.226381  0.847219  0.760270  1
  N  N47  1  0.226381  0.652781  0.260270  1
  O  O48  1  0.681317  0.406511  0.394114  1
  O  O49  1  0.222412  0.225969  0.212579  1
  O  O50  1  0.318683  0.906511  0.105886  1
  O  O51  1  0.222412  0.274031  0.712579  1
  O  O52  1  0.318683  0.593489  0.605886  1
  O  O53  1  0.681317  0.093489  0.894114  1
  O  O54  1  0.777588  0.774031  0.787421  1
  O  O55  1  0.777588  0.725969  0.287421  1
