# generated using pymatgen
data_Rb2SbBr6
_symmetry_space_group_name_H-M   'P 1'
_cell_length_a   10.98286582
_cell_length_b   10.98286527
_cell_length_c   13.56626071
_cell_angle_alpha   113.87771841
_cell_angle_beta   113.87771722
_cell_angle_gamma   90.00000154
_symmetry_Int_Tables_number   1
_chemical_formula_structural   Rb2SbBr6
_chemical_formula_sum   'Rb8 Sb4 Br24'
_cell_volume   1341.75104142
_cell_formula_units_Z   4
loop_
 _symmetry_equiv_pos_site_id
 _symmetry_equiv_pos_as_xyz
  1  'x, y, z'
loop_
 _atom_site_type_symbol
 _atom_site_label
 _atom_site_symmetry_multiplicity
 _atom_site_fract_x
 _atom_site_fract_y
 _atom_site_fract_z
 _atom_site_occupancy
  Rb  Rb0  1  0.498193  0.265864  0.495657  1
  Rb  Rb1  1  0.770207  0.001807  0.004343  1
  Rb  Rb2  1  0.997464  0.729793  0.495657  1
  Rb  Rb3  1  0.765864  0.497464  0.995657  1
  Rb  Rb4  1  0.501807  0.734136  0.504343  1
  Rb  Rb5  1  0.229793  0.998193  0.995657  1
  Rb  Rb6  1  0.234136  0.502536  0.004343  1
  Rb  Rb7  1  0.002536  0.270207  0.504343  1
  Sb  Sb8  1  0.625000  0.875000  0.250000  1
  Sb  Sb9  1  0.375000  0.125000  0.750000  1
  Sb  Sb10  1  0.125000  0.375000  0.250000  1
  Sb  Sb11  1  0.875000  0.625000  0.750000  1
  Br  Br12  1  0.867448  0.849344  0.250199  1
  Br  Br13  1  0.859017  0.371435  0.743642  1
  Br  Br14  1  0.599145  0.632552  0.249801  1
  Br  Br15  1  0.871435  0.384625  0.243642  1
  Br  Br16  1  0.745122  0.995122  0.490245  1
  Br  Br17  1  0.617249  0.099145  0.749801  1
  Br  Br18  1  0.382751  0.900855  0.250199  1
  Br  Br19  1  0.372207  0.359017  0.243642  1
  Br  Br20  1  0.400855  0.367448  0.750199  1
  Br  Br21  1  0.254878  0.004878  0.509755  1
  Br  Br22  1  0.349344  0.882751  0.750199  1
  Br  Br23  1  0.750835  0.500835  0.501669  1
  Br  Br24  1  0.999165  0.749165  0.998331  1
  Br  Br25  1  0.884625  0.872207  0.743642  1
  Br  Br26  1  0.128565  0.615375  0.756358  1
  Br  Br27  1  0.627793  0.640983  0.756358  1
  Br  Br28  1  0.132552  0.150656  0.749801  1
  Br  Br29  1  0.650656  0.117249  0.249801  1
  Br  Br30  1  0.504878  0.754878  0.009755  1
  Br  Br31  1  0.000835  0.250835  0.001669  1
  Br  Br32  1  0.495122  0.245122  0.990245  1
  Br  Br33  1  0.249165  0.499165  0.498331  1
  Br  Br34  1  0.115375  0.127793  0.256358  1
  Br  Br35  1  0.140983  0.628565  0.256358  1
