# generated using pymatgen
data_Na26In4O19
_symmetry_space_group_name_H-M   'P 1'
_cell_length_a   12.54681719
_cell_length_b   12.48168524
_cell_length_c   12.48742948
_cell_angle_alpha   109.57105448
_cell_angle_beta   109.78179523
_cell_angle_gamma   109.14916693
_symmetry_Int_Tables_number   1
_chemical_formula_structural   Na26In4O19
_chemical_formula_sum   'Na52 In8 O38'
_cell_volume   1503.74156319
_cell_formula_units_Z   2
loop_
 _symmetry_equiv_pos_site_id
 _symmetry_equiv_pos_as_xyz
  1  'x, y, z'
loop_
 _atom_site_type_symbol
 _atom_site_label
 _atom_site_symmetry_multiplicity
 _atom_site_fract_x
 _atom_site_fract_y
 _atom_site_fract_z
 _atom_site_occupancy
  In  In0  1  0.997438  0.818008  0.500002  1
  In  In1  1  -0.002564  0.318006  0.499998  1
  In  In2  1  0.501176  1.002637  0.319492  1
  In  In3  1  0.183751  0.184016  0.183014  1
  In  In4  1  0.320130  0.502569  0.005886  1
  In  In5  1  0.500737  1.001002  0.816986  1
  In  In6  1  0.681684  0.683145  0.680508  1
  In  In7  1  0.814244  0.496683  0.994114  1
  Na  Na8  1  0.056924  0.914753  0.871290  1
  Na  Na9  1  0.181672  0.830363  0.741033  1
  Na  Na10  1  0.090397  0.264431  0.943135  1
  Na  Na11  1  0.141731  0.552768  0.820647  1
  Na  Na12  1  0.054360  0.646309  0.319463  1
  Na  Na13  1  0.117215  0.874381  0.248343  1
  Na  Na14  1  0.354468  0.812627  0.944034  1
  Na  Na15  1  0.042569  0.128915  0.686789  1
  Na  Na16  1  0.183338  0.629303  0.545098  1
  Na  Na17  1  0.322400  0.840810  0.426763  1
  Na  Na18  1  0.151030  0.690108  0.065922  1
  Na  Na19  1  0.102914  0.472230  0.153088  1
  Na  Na20  1  0.234897  0.326846  0.680537  1
  Na  Na21  1  0.181398  0.410115  0.365312  1
  Na  Na22  1  0.259026  0.943758  0.088283  1
  Na  Na23  1  0.255087  0.130069  0.874785  1
  Na  Na24  1  0.368872  0.626038  0.751657  1
  Na  Na25  1  0.138240  0.084204  0.454902  1
  Na  Na26  1  0.447052  0.748436  0.599841  1
  Na  Na27  1  0.395637  0.414047  0.573237  1
  Na  Na28  1  0.449826  0.319142  0.846912  1
  Na  Na29  1  0.585108  0.624186  0.934078  1
  Na  Na30  1  0.670743  0.855475  0.911717  1
  Na  Na31  1  0.316086  0.044803  0.634688  1
  Na  Na32  1  0.400785  0.564466  0.355856  1
  Na  Na33  1  0.640358  0.956713  0.584367  1
  Na  Na34  1  0.347212  0.148595  0.400159  1
  Na  Na35  1  0.557530  0.813562  0.141761  1
  Na  Na36  1  0.412551  0.351002  0.173747  1
  Na  Na37  1  0.613586  0.748238  0.367241  1
  Na  Na38  1  0.544930  0.208610  0.644144  1
  Na  Na39  1  0.555991  0.372346  0.415633  1
  Na  Na40  1  0.850456  0.906685  0.664012  1
  Na  Na41  1  0.460901  0.143283  0.086675  1
  Na  Na42  1  0.812606  0.942604  0.355959  1
  Na  Na43  1  0.629844  0.540354  0.189320  1
  Na  Na44  1  0.915769  0.671801  0.858239  1
  Na  Na45  1  0.738804  0.177255  0.826253  1
  Na  Na46  1  0.758652  0.590949  0.443720  1
  Na  Na47  1  0.746345  0.380996  0.632759  1
  Na  Na48  1  0.686444  0.242673  0.335988  1
  Na  Na49  1  0.821084  0.732121  0.179353  1
  Na  Na50  1  0.647262  0.321296  0.056865  1
  Na  Na51  1  0.874227  0.056608  0.913325  1
  Na  Na52  1  0.956647  0.586645  0.644041  1
  Na  Na53  1  0.940524  0.351034  0.810680  1
  Na  Na54  1  0.814931  0.147228  0.556280  1
  Na  Na55  1  0.910434  0.868593  0.055966  1
  Na  Na56  1  0.855780  0.442126  0.313211  1
  Na  Na57  1  0.685634  0.043463  0.128710  1
  Na  Na58  1  0.880302  0.255284  0.125215  1
  Na  Na59  1  0.940639  0.089329  0.258967  1
  O  O60  1  0.062435  0.947234  0.696115  1
  O  O61  1  0.126689  0.750091  0.875627  1
  O  O62  1  0.997419  0.647753  0.500753  1
  O  O63  1  0.125084  0.879736  0.433626  1
  O  O64  1  0.996666  0.147001  0.499247  1
  O  O65  1  0.364730  0.809922  0.755658  1
  O  O66  1  0.191458  0.446110  0.566374  1
  O  O67  1  0.252748  0.307458  0.865032  1
  O  O68  1  0.385532  0.631615  0.939462  1
  O  O69  1  0.244137  0.620465  0.386747  1
  O  O70  1  0.305543  0.897256  0.261812  1
  O  O71  1  0.056662  0.250735  0.114345  1
  O  O72  1  0.141976  0.489887  0.988578  1
  O  O73  1  0.109072  0.054264  0.244342  1
  O  O74  1  0.357391  0.233718  0.613253  1
  O  O75  1  0.442317  0.136390  0.885655  1
  O  O76  1  0.543731  0.635444  0.738188  1
  O  O77  1  0.501080  -0.000968  0.147349  1
  O  O78  1  0.352603  0.355526  0.353484  1
  O  O79  1  0.615851  0.749827  0.550707  1
  O  O80  1  0.635981  0.943542  0.385523  1
  O  O81  1  0.249551  0.115792  0.053905  1
  O  O82  1  0.451987  0.549742  0.190978  1
  O  O83  1  0.853731  0.851683  0.852651  1
  O  O84  1  0.499119  0.002042  0.646516  1
  O  O85  1  0.565144  0.199120  0.449293  1
  O  O86  1  0.695646  0.061886  0.946095  1
  O  O87  1  0.750458  0.558019  0.614477  1
  O  O88  1  0.761008  0.358764  0.809022  1
  O  O89  1  0.751063  0.874465  0.124373  1
  O  O90  1  0.627389  0.373269  0.252480  1
  O  O91  1  0.802886  0.754687  0.371197  1
  O  O92  1  0.653398  0.501309  0.011422  1
  O  O93  1  0.874908  0.120789  0.747520  1
  O  O94  1  0.931689  0.383490  0.628803  1
  O  O95  1  0.866320  0.251120  0.303885  1
  O  O96  1  0.887715  0.442425  0.134968  1
  O  O97  1  0.946070  0.692154  0.060538  1
