# generated using pymatgen
data_MnS
_symmetry_space_group_name_H-M   'P 1'
_cell_length_a   4.38269834
_cell_length_b   4.38268554
_cell_length_c   4.38272290
_cell_angle_alpha   59.99964059
_cell_angle_beta   59.99991337
_cell_angle_gamma   60.00064499
_symmetry_Int_Tables_number   1
_chemical_formula_structural   MnS
_chemical_formula_sum   'Mn2 S2'
_cell_volume   59.52666599
_cell_formula_units_Z   2
loop_
 _symmetry_equiv_pos_site_id
 _symmetry_equiv_pos_as_xyz
  1  'x, y, z'
loop_
 _atom_site_type_symbol
 _atom_site_label
 _atom_site_symmetry_multiplicity
 _atom_site_fract_x
 _atom_site_fract_y
 _atom_site_fract_z
 _atom_site_occupancy
  Mn  Mn0  1  -0.000003  0.000025  -0.000037  1
  Mn  Mn1  1  0.500016  0.499983  0.500010  1
  S  S2  1  0.749998  0.750009  0.749995  1
  S  S3  1  0.249988  0.249983  0.250032  1
