# generated using pymatgen
data_Y2Zr24O51
_symmetry_space_group_name_H-M   'P 1'
_cell_length_a   3.66096152
_cell_length_b   3.64756956
_cell_length_c   68.76727515
_cell_angle_alpha   90.00000000
_cell_angle_beta   90.00000000
_cell_angle_gamma   90.00000000
_symmetry_Int_Tables_number   1
_chemical_formula_structural   Y2Zr24O51
_chemical_formula_sum   'Y2 Zr24 O51'
_cell_volume   918.29149694
_cell_formula_units_Z   1
loop_
 _symmetry_equiv_pos_site_id
 _symmetry_equiv_pos_as_xyz
  1  'x, y, z'
loop_
 _atom_site_type_symbol
 _atom_site_label
 _atom_site_symmetry_multiplicity
 _atom_site_fract_x
 _atom_site_fract_y
 _atom_site_fract_z
 _atom_site_occupancy
  O  O0  1  0.250000  0.250000  1.001676  1
  O  O1  1  0.250000  0.250000  0.040437  1
  O  O2  1  0.250000  0.250000  0.079465  1
  O  O3  1  0.250000  0.250000  0.157046  1
  O  O4  1  0.250000  0.250000  0.118289  1
  O  O5  1  0.250000  0.250000  0.195704  1
  O  O6  1  0.250000  0.250000  0.234397  1
  O  O7  1  0.250000  0.250000  0.273033  1
  O  O8  1  0.250000  0.250000  0.311664  1
  O  O9  1  0.250000  0.250000  0.350218  1
  O  O10  1  0.250000  0.250000  0.388776  1
  O  O11  1  0.250000  0.250000  0.427265  1
  O  O12  1  0.250000  0.250000  0.465774  1
  O  O13  1  0.250000  0.250000  0.542718  1
  O  O14  1  0.250000  0.250000  0.504231  1
  O  O15  1  0.250000  0.250000  0.581155  1
  O  O16  1  0.250000  0.250000  0.619617  1
  O  O17  1  0.250000  0.250000  0.658016  1
  O  O18  1  0.250000  0.250000  0.696429  1
  O  O19  1  0.250000  0.250000  0.734755  1
  O  O20  1  0.250000  0.250000  0.773081  1
  O  O21  1  0.250000  0.250000  0.811316  1
  O  O22  1  0.250000  0.250000  0.849543  1
  O  O23  1  0.250000  0.250000  0.887612  1
  O  O24  1  0.250000  0.250000  0.925418  1
  O  O25  1  0.750000  0.750000  0.075629  1
  O  O26  1  0.750000  0.750000  0.225954  1
  O  O27  1  0.750000  0.750000  0.149661  1
  O  O28  1  0.750000  0.750000  0.380175  1
  O  O29  1  0.750000  0.750000  0.303043  1
  O  O30  1  0.750000  0.750000  0.534180  1
  O  O31  1  0.750000  0.750000  0.457211  1
  O  O32  1  0.750000  0.750000  0.687986  1
  O  O33  1  0.750000  0.750000  0.039673  1
  O  O34  1  0.750000  0.750000  0.611110  1
  O  O35  1  0.750000  0.750000  0.841480  1
  O  O36  1  0.750000  0.750000  0.764771  1
  O  O37  1  0.750000  0.750000  0.112296  1
  O  O38  1  0.750000  0.750000  0.187655  1
  O  O39  1  0.750000  0.750000  0.918191  1
  O  O40  1  0.750000  0.750000  0.003710  1
  O  O41  1  0.750000  0.750000  0.264486  1
  O  O42  1  0.750000  0.750000  0.341636  1
  O  O43  1  0.750000  0.750000  0.495721  1
  O  O44  1  0.750000  0.750000  0.418723  1
  O  O45  1  0.750000  0.750000  0.649575  1
  O  O46  1  0.750000  0.750000  0.572670  1
  O  O47  1  0.750000  0.750000  0.803152  1
  O  O48  1  0.750000  0.750000  0.726412  1
  O  O49  1  0.750000  0.750000  0.962188  1
  O  O50  1  0.750000  0.750000  0.879863  1
  Y  Y51  1  0.250000  0.750000  0.984819  1
  Y  Y52  1  0.750000  0.250000  0.939998  1
  Zr  Zr53  1  0.250000  0.750000  0.058807  1
  Zr  Zr54  1  0.250000  0.750000  0.134456  1
  Zr  Zr55  1  0.250000  0.750000  0.211153  1
  Zr  Zr56  1  0.250000  0.750000  0.288131  1
  Zr  Zr57  1  0.250000  0.750000  0.365221  1
  Zr  Zr58  1  0.250000  0.750000  0.442271  1
  Zr  Zr59  1  0.250000  0.750000  0.519229  1
  Zr  Zr60  1  0.250000  0.750000  0.596154  1
  Zr  Zr61  1  0.250000  0.750000  0.673038  1
  Zr  Zr62  1  0.250000  0.750000  0.749825  1
  Zr  Zr63  1  0.250000  0.750000  0.826461  1
  Zr  Zr64  1  0.250000  0.750000  0.902861  1
  Zr  Zr65  1  0.750000  0.250000  0.021350  1
  Zr  Zr66  1  0.750000  0.250000  0.096455  1
  Zr  Zr67  1  0.750000  0.250000  0.172680  1
  Zr  Zr68  1  0.750000  0.250000  0.249567  1
  Zr  Zr69  1  0.750000  0.250000  0.326622  1
  Zr  Zr70  1  0.750000  0.250000  0.403703  1
  Zr  Zr71  1  0.750000  0.250000  0.480708  1
  Zr  Zr72  1  0.750000  0.250000  0.634554  1
  Zr  Zr73  1  0.750000  0.250000  0.557643  1
  Zr  Zr74  1  0.750000  0.250000  0.788121  1
  Zr  Zr75  1  0.750000  0.250000  0.711400  1
  Zr  Zr76  1  0.750000  0.250000  0.864654  1
