# generated using pymatgen
data_TmAu3
_symmetry_space_group_name_H-M   'P 1'
_cell_length_a   5.13859264
_cell_length_b   5.02668484
_cell_length_c   6.11931201
_cell_angle_alpha   90.00000000
_cell_angle_beta   90.00000000
_cell_angle_gamma   90.00000000
_symmetry_Int_Tables_number   1
_chemical_formula_structural   TmAu3
_chemical_formula_sum   'Tm2 Au6'
_cell_volume   158.06235378
_cell_formula_units_Z   2
loop_
 _symmetry_equiv_pos_site_id
 _symmetry_equiv_pos_as_xyz
  1  'x, y, z'
loop_
 _atom_site_type_symbol
 _atom_site_label
 _atom_site_symmetry_multiplicity
 _atom_site_fract_x
 _atom_site_fract_y
 _atom_site_fract_z
 _atom_site_occupancy
  Tm  Tm0  1  0.345727  0.750000  0.750000  1
  Tm  Tm1  1  0.654273  0.250000  0.250000  1
  Au  Au2  1  0.658371  0.250000  0.750000  1
  Au  Au3  1  0.157780  0.250000  0.505077  1
  Au  Au4  1  0.157780  0.250000  0.994923  1
  Au  Au5  1  0.842220  0.750000  0.005077  1
  Au  Au6  1  0.341629  0.750000  0.250000  1
  Au  Au7  1  0.842220  0.750000  0.494923  1
