# generated using pymatgen
data_KV2PO8
_symmetry_space_group_name_H-M   'P 1'
_cell_length_a   4.83794605
_cell_length_b   13.94843390
_cell_length_c   20.56934697
_cell_angle_alpha   90.00000000
_cell_angle_beta   90.00000000
_cell_angle_gamma   90.00000000
_symmetry_Int_Tables_number   1
_chemical_formula_structural   KV2PO8
_chemical_formula_sum   'K8 V16 P8 O64'
_cell_volume   1388.05595548
_cell_formula_units_Z   8
loop_
 _symmetry_equiv_pos_site_id
 _symmetry_equiv_pos_as_xyz
  1  'x, y, z'
loop_
 _atom_site_type_symbol
 _atom_site_label
 _atom_site_symmetry_multiplicity
 _atom_site_fract_x
 _atom_site_fract_y
 _atom_site_fract_z
 _atom_site_occupancy
  K  K0  1  0.314284  0.470067  0.250453  1
  K  K1  1  0.814284  0.029933  0.750453  1
  K  K2  1  0.291513  0.713631  0.494729  1
  K  K3  1  0.185716  0.970067  0.250453  1
  K  K4  1  0.208487  0.213631  0.494729  1
  K  K5  1  0.791513  0.786369  0.994729  1
  K  K6  1  0.685716  0.529933  0.750453  1
  K  K7  1  0.708487  0.286369  0.994729  1
  V  V8  1  0.204822  0.957796  0.601056  1
  V  V9  1  0.164381  0.372771  0.865940  1
  V  V10  1  0.798463  0.289622  0.641844  1
  V  V11  1  0.343512  0.122248  0.877115  1
  V  V12  1  0.701537  0.789622  0.641844  1
  V  V13  1  0.704822  0.542204  0.101056  1
  V  V14  1  0.795178  0.042204  0.101056  1
  V  V15  1  0.664381  0.127229  0.365940  1
  V  V16  1  0.295178  0.457796  0.601056  1
  V  V17  1  0.335619  0.872771  0.865940  1
  V  V18  1  0.201537  0.710378  0.141844  1
  V  V19  1  0.298463  0.210378  0.141844  1
  V  V20  1  0.656488  0.877752  0.377115  1
  V  V21  1  0.156488  0.622248  0.877115  1
  V  V22  1  0.835619  0.627229  0.365940  1
  V  V23  1  0.843512  0.377752  0.377115  1
  P  P24  1  0.188319  0.736269  0.741196  1
  P  P25  1  0.305981  0.986307  0.002332  1
  P  P26  1  0.811681  0.263731  0.241196  1
  P  P27  1  0.688319  0.763731  0.241196  1
  P  P28  1  0.311681  0.236269  0.741196  1
  P  P29  1  0.694019  0.013693  0.502332  1
  P  P30  1  0.805981  0.513693  0.502332  1
  P  P31  1  0.194019  0.486307  0.002332  1
  O  O32  1  0.383562  0.728693  0.682218  1
  O  O33  1  0.115971  0.269165  0.218299  1
  O  O34  1  0.819611  0.618714  0.877586  1
  O  O35  1  0.326163  0.019891  0.661555  1
  O  O36  1  0.673837  0.980109  0.161555  1
  O  O37  1  0.739525  0.755674  0.393220  1
  O  O38  1  0.240576  0.647593  0.785140  1
  O  O39  1  0.239525  0.744326  0.893220  1
  O  O40  1  0.749095  0.419053  0.464498  1
  O  O41  1  0.585056  0.391055  0.648246  1
  O  O42  1  0.758637  0.168623  0.278662  1
  O  O43  1  0.390297  0.019038  0.525637  1
  O  O44  1  0.827192  0.373577  0.865693  1
  O  O45  1  0.756030  0.602662  0.458335  1
  O  O46  1  0.680389  0.118714  0.877586  1
  O  O47  1  0.914923  0.644083  0.093005  1
  O  O48  1  0.173837  0.519891  0.661555  1
  O  O49  1  0.384029  0.769165  0.218299  1
  O  O50  1  0.750905  0.919053  0.464498  1
  O  O51  1  0.239932  0.993997  0.849780  1
  O  O52  1  0.327192  0.126423  0.365693  1
  O  O53  1  0.609188  0.521090  0.560891  1
  O  O54  1  0.260475  0.244326  0.893220  1
  O  O55  1  0.414923  0.855917  0.593005  1
  O  O56  1  0.241363  0.831377  0.778662  1
  O  O57  1  0.256030  0.897338  0.958335  1
  O  O58  1  0.759423  0.352407  0.285140  1
  O  O59  1  0.672808  0.873577  0.865693  1
  O  O60  1  0.178440  0.275001  0.082473  1
  O  O61  1  0.678440  0.224999  0.582473  1
  O  O62  1  0.739932  0.506003  0.349780  1
  O  O63  1  0.172808  0.626423  0.365693  1
  O  O64  1  0.741363  0.668623  0.278662  1
  O  O65  1  0.890812  0.021090  0.560891  1
  O  O66  1  0.321560  0.775001  0.082473  1
  O  O67  1  0.615971  0.230835  0.718299  1
  O  O68  1  0.109703  0.519038  0.525637  1
  O  O69  1  0.585077  0.144083  0.093005  1
  O  O70  1  0.085056  0.108945  0.148246  1
  O  O71  1  0.914944  0.891055  0.648246  1
  O  O72  1  0.890297  0.480962  0.025637  1
  O  O73  1  0.258637  0.331377  0.778662  1
  O  O74  1  0.740577  0.852407  0.285140  1
  O  O75  1  0.390812  0.478910  0.060891  1
  O  O76  1  0.414944  0.608945  0.148246  1
  O  O77  1  0.609703  0.980962  0.025637  1
  O  O78  1  0.260068  0.493997  0.849780  1
  O  O79  1  0.826163  0.480109  0.161555  1
  O  O80  1  0.760475  0.255674  0.393220  1
  O  O81  1  0.249095  0.080947  0.964498  1
  O  O82  1  0.760068  0.006003  0.349780  1
  O  O83  1  0.250905  0.580947  0.964498  1
  O  O84  1  0.085077  0.355917  0.593005  1
  O  O85  1  0.883561  0.771307  0.182218  1
  O  O86  1  0.116439  0.228693  0.682218  1
  O  O87  1  0.743970  0.102662  0.458335  1
  O  O88  1  0.259423  0.147593  0.785140  1
  O  O89  1  0.319611  0.881286  0.377586  1
  O  O90  1  0.616439  0.271307  0.182218  1
  O  O91  1  0.884029  0.730835  0.718299  1
  O  O92  1  0.180389  0.381286  0.377586  1
  O  O93  1  0.243970  0.397338  0.958335  1
  O  O94  1  0.109188  0.978910  0.060891  1
  O  O95  1  0.821560  0.724999  0.582473  1
