# generated using pymatgen
data_NaFe4(MoO4)5
_symmetry_space_group_name_H-M   'P 1'
_cell_length_a   7.04858080
_cell_length_b   7.14259620
_cell_length_c   18.23186536
_cell_angle_alpha   87.54217381
_cell_angle_beta   87.87917400
_cell_angle_gamma   79.41521181
_symmetry_Int_Tables_number   1
_chemical_formula_structural   NaFe4(MoO4)5
_chemical_formula_sum   'Na2 Fe8 Mo10 O40'
_cell_volume   901.04102844
_cell_formula_units_Z   2
loop_
 _symmetry_equiv_pos_site_id
 _symmetry_equiv_pos_as_xyz
  1  'x, y, z'
loop_
 _atom_site_type_symbol
 _atom_site_label
 _atom_site_symmetry_multiplicity
 _atom_site_fract_x
 _atom_site_fract_y
 _atom_site_fract_z
 _atom_site_occupancy
  Na  Na0  1  0.881178  0.667358  0.698404  1
  Na  Na1  1  0.118822  0.332642  0.301596  1
  Fe  Fe2  1  0.174461  0.081808  0.113178  1
  Fe  Fe3  1  0.249866  0.300998  0.733547  1
  Fe  Fe4  1  0.185485  0.827407  0.492703  1
  Fe  Fe5  1  0.222262  0.574259  0.874864  1
  Fe  Fe6  1  0.750134  0.699002  0.266453  1
  Fe  Fe7  1  0.814515  0.172593  0.507297  1
  Fe  Fe8  1  0.777738  0.425741  0.125136  1
  Fe  Fe9  1  0.825539  0.918192  0.886822  1
  Mo  Mo10  1  0.681546  0.219937  0.308871  1
  Mo  Mo11  1  0.729624  0.691814  0.471570  1
  Mo  Mo12  1  0.728115  0.939013  0.095858  1
  Mo  Mo13  1  0.217318  0.824461  0.284748  1
  Mo  Mo14  1  0.271885  0.060987  0.904142  1
  Mo  Mo15  1  0.751400  0.455743  0.913146  1
  Mo  Mo16  1  0.318454  0.780063  0.691129  1
  Mo  Mo17  1  0.248600  0.544257  0.086854  1
  Mo  Mo18  1  0.782682  0.175539  0.715252  1
  Mo  Mo19  1  0.270376  0.308186  0.528430  1
  O  O20  1  0.087112  0.384914  0.125105  1
  O  O21  1  0.793276  0.881495  0.004223  1
  O  O22  1  0.876259  0.863443  0.497358  1
  O  O23  1  0.182134  0.798459  0.610218  1
  O  O24  1  0.202137  0.528803  0.478832  1
  O  O25  1  0.829847  0.212283  0.888994  1
  O  O26  1  0.047391  0.664831  0.268819  1
  O  O27  1  0.769560  0.717283  0.154990  1
  O  O28  1  0.478766  0.034658  0.104425  1
  O  O29  1  0.462854  0.713920  0.263987  1
  O  O30  1  0.521234  0.965342  0.895575  1
  O  O31  1  0.754267  0.651498  0.373544  1
  O  O32  1  0.251684  0.534220  0.990067  1
  O  O33  1  0.162012  0.047554  0.233880  1
  O  O34  1  0.537146  0.286080  0.736013  1
  O  O35  1  0.563413  0.707069  0.668845  1
  O  O36  1  0.436587  0.292931  0.331155  1
  O  O37  1  0.197199  0.879732  0.378448  1
  O  O38  1  0.485652  0.787457  0.492849  1
  O  O39  1  0.802801  0.120268  0.621552  1
  O  O40  1  0.716156  0.986250  0.269161  1
  O  O41  1  0.797863  0.471197  0.521168  1
  O  O42  1  0.230440  0.282717  0.845010  1
  O  O43  1  0.775566  0.403364  0.248691  1
  O  O44  1  0.123741  0.136557  0.502642  1
  O  O45  1  0.837988  0.952446  0.766120  1
  O  O46  1  0.480940  0.458857  0.123310  1
  O  O47  1  0.952609  0.335169  0.731181  1
  O  O48  1  0.748316  0.465780  0.009933  1
  O  O49  1  0.283844  0.013750  0.730839  1
  O  O50  1  0.817866  0.201541  0.389782  1
  O  O51  1  0.860175  0.123085  0.118977  1
  O  O52  1  0.139825  0.876915  0.881023  1
  O  O53  1  0.245733  0.348502  0.626456  1
  O  O54  1  0.514348  0.212543  0.507151  1
  O  O55  1  0.519060  0.541143  0.876690  1
  O  O56  1  0.912888  0.615086  0.874895  1
  O  O57  1  0.224434  0.596636  0.751309  1
  O  O58  1  0.206724  0.118505  0.995777  1
  O  O59  1  0.170153  0.787717  0.111006  1
