# generated using pymatgen
data_V2Co(PO5)2
_symmetry_space_group_name_H-M   'P 1'
_cell_length_a   7.36114302
_cell_length_b   7.45642378
_cell_length_c   7.42280992
_cell_angle_alpha   90.10381212
_cell_angle_beta   119.70883227
_cell_angle_gamma   90.02772228
_symmetry_Int_Tables_number   1
_chemical_formula_structural   V2Co(PO5)2
_chemical_formula_sum   'V4 Co2 P4 O20'
_cell_volume   353.86719593
_cell_formula_units_Z   2
loop_
 _symmetry_equiv_pos_site_id
 _symmetry_equiv_pos_as_xyz
  1  'x, y, z'
loop_
 _atom_site_type_symbol
 _atom_site_label
 _atom_site_symmetry_multiplicity
 _atom_site_fract_x
 _atom_site_fract_y
 _atom_site_fract_z
 _atom_site_occupancy
  V  V0  1  0.203347  0.775406  0.462880  1
  V  V1  1  0.703814  0.724772  0.963993  1
  V  V2  1  0.295951  0.275170  0.035879  1
  V  V3  1  0.796898  0.224613  0.537304  1
  Co  Co4  1  1.000049  0.999882  0.000064  1
  Co  Co5  1  0.499974  0.499952  0.500028  1
  P  P6  1  0.498607  0.120401  0.750174  1
  P  P7  1  0.501600  0.879645  0.249997  1
  P  P8  1  0.002832  0.620747  0.750663  1
  P  P9  1  0.997019  0.379288  0.249157  1
  O  O10  1  0.498578  0.660809  0.728744  1
  O  O11  1  0.425472  0.243805  0.866531  1
  O  O12  1  0.003498  0.160795  0.770698  1
  O  O13  1  0.817755  0.494491  0.090301  1
  O  O14  1  0.411957  0.754428  0.355385  1
  O  O15  1  0.075528  0.743586  0.633973  1
  O  O16  1  0.317728  0.004779  0.098334  1
  O  O17  1  0.182114  0.505560  0.909467  1
  O  O18  1  0.574702  0.756164  0.133646  1
  O  O19  1  0.914608  0.746697  0.857495  1
  O  O20  1  0.318659  0.005435  0.590465  1
  O  O21  1  0.682318  0.995113  0.901814  1
  O  O22  1  0.924227  0.256610  0.365872  1
  O  O23  1  0.681545  0.994762  0.409415  1
  O  O24  1  0.588558  0.245658  0.645090  1
  O  O25  1  0.085028  0.253236  0.142235  1
  O  O26  1  0.817744  0.495530  0.599385  1
  O  O27  1  0.996783  0.839028  0.229360  1
  O  O28  1  0.182171  0.504448  0.400422  1
  O  O29  1  0.500937  0.339187  0.271227  1
