# generated using pymatgen
data_FeN3ClO3
_symmetry_space_group_name_H-M   'P 1'
_cell_length_a   7.71230796
_cell_length_b   7.71230823
_cell_length_c   6.32583698
_cell_angle_alpha   90.00000000
_cell_angle_beta   90.00000000
_cell_angle_gamma   119.99999883
_symmetry_Int_Tables_number   1
_chemical_formula_structural   FeN3ClO3
_chemical_formula_sum   'Fe2 N6 Cl2 O6'
_cell_volume   325.84973639
_cell_formula_units_Z   2
loop_
 _symmetry_equiv_pos_site_id
 _symmetry_equiv_pos_as_xyz
  1  'x, y, z'
loop_
 _atom_site_type_symbol
 _atom_site_label
 _atom_site_symmetry_multiplicity
 _atom_site_fract_x
 _atom_site_fract_y
 _atom_site_fract_z
 _atom_site_occupancy
  Fe  Fe0  1  0.333333  0.666667  0.786884  1
  Fe  Fe1  1  0.666667  0.333333  0.286884  1
  N  N2  1  0.794313  0.205687  0.183329  1
  N  N3  1  0.588625  0.794313  0.683329  1
  N  N4  1  0.205687  0.794313  0.683329  1
  N  N5  1  0.411375  0.205687  0.183329  1
  N  N6  1  0.794313  0.588625  0.183329  1
  N  N7  1  0.205687  0.411375  0.683329  1
  Cl  Cl8  1  0.333333  0.666667  0.146474  1
  Cl  Cl9  1  0.666667  0.333333  0.646474  1
  O  O10  1  0.861682  0.138318  0.063941  1
  O  O11  1  0.138318  0.276635  0.563941  1
  O  O12  1  0.138318  0.861682  0.563941  1
  O  O13  1  0.276635  0.138318  0.063941  1
  O  O14  1  0.723365  0.861682  0.563941  1
  O  O15  1  0.861682  0.723365  0.063941  1
