# generated using pymatgen
data_Ca7NbSi2N9
_symmetry_space_group_name_H-M   'P 1'
_cell_length_a   6.06582027
_cell_length_b   9.02428514
_cell_length_c   9.96507504
_cell_angle_alpha   90.00000000
_cell_angle_beta   90.00000000
_cell_angle_gamma   91.97045749
_symmetry_Int_Tables_number   1
_chemical_formula_structural   Ca7NbSi2N9
_chemical_formula_sum   'Ca14 Nb2 Si4 N18'
_cell_volume   545.16258449
_cell_formula_units_Z   2
loop_
 _symmetry_equiv_pos_site_id
 _symmetry_equiv_pos_as_xyz
  1  'x, y, z'
loop_
 _atom_site_type_symbol
 _atom_site_label
 _atom_site_symmetry_multiplicity
 _atom_site_fract_x
 _atom_site_fract_y
 _atom_site_fract_z
 _atom_site_occupancy
  Ca  Ca0  1  0.569003  0.165650  0.943102  1
  Ca  Ca1  1  0.750324  0.494870  0.077448  1
  Ca  Ca2  1  0.909331  0.801208  0.250000  1
  Ca  Ca3  1  0.430997  0.834350  0.443102  1
  Ca  Ca4  1  0.249676  0.505130  0.577448  1
  Ca  Ca5  1  0.930244  0.830878  0.577897  1
  Ca  Ca6  1  0.930244  0.830878  0.922103  1
  Ca  Ca7  1  0.069756  0.169122  0.422103  1
  Ca  Ca8  1  0.750324  0.494870  0.422552  1
  Ca  Ca9  1  0.069756  0.169122  0.077897  1
  Ca  Ca10  1  0.249676  0.505130  0.922552  1
  Ca  Ca11  1  0.430997  0.834350  0.056898  1
  Ca  Ca12  1  0.090669  0.198792  0.750000  1
  Ca  Ca13  1  0.569003  0.165650  0.556898  1
  Nb  Nb14  1  0.720944  0.438125  0.750000  1
  Nb  Nb15  1  0.279056  0.561875  0.250000  1
  Si  Si16  1  0.676543  0.062100  0.250000  1
  Si  Si17  1  0.540996  0.722323  0.750000  1
  Si  Si18  1  0.323457  0.937900  0.750000  1
  Si  Si19  1  0.459004  0.277677  0.250000  1
  N  N20  1  0.767672  0.981806  0.399439  1
  N  N21  1  0.753662  0.259052  0.250000  1
  N  N22  1  0.885613  0.341840  0.902015  1
  N  N23  1  0.633887  0.631072  0.609407  1
  N  N24  1  0.442280  0.332660  0.750000  1
  N  N25  1  0.380103  0.083744  0.250000  1
  N  N26  1  0.633887  0.631072  0.890593  1
  N  N27  1  0.366113  0.368928  0.390593  1
  N  N28  1  0.619897  0.916256  0.750000  1
  N  N29  1  0.114387  0.658160  0.097985  1
  N  N30  1  0.246338  0.740948  0.750000  1
  N  N31  1  0.366113  0.368928  0.109407  1
  N  N32  1  0.232328  0.018194  0.600561  1
  N  N33  1  0.557720  0.667340  0.250000  1
  N  N34  1  0.114387  0.658160  0.402015  1
  N  N35  1  0.885613  0.341840  0.597985  1
  N  N36  1  0.767672  0.981806  0.100561  1
  N  N37  1  0.232328  0.018194  0.899439  1
