# generated using pymatgen
data_Cs5Si3AgO9
_symmetry_space_group_name_H-M   'P 1'
_cell_length_a   6.62056374
_cell_length_b   9.89165498
_cell_length_c   11.79525040
_cell_angle_alpha   93.82143592
_cell_angle_beta   90.00000000
_cell_angle_gamma   90.00000000
_symmetry_Int_Tables_number   1
_chemical_formula_structural   Cs5Si3AgO9
_chemical_formula_sum   'Cs10 Si6 Ag2 O18'
_cell_volume   770.73381185
_cell_formula_units_Z   2
loop_
 _symmetry_equiv_pos_site_id
 _symmetry_equiv_pos_as_xyz
  1  'x, y, z'
loop_
 _atom_site_type_symbol
 _atom_site_label
 _atom_site_symmetry_multiplicity
 _atom_site_fract_x
 _atom_site_fract_y
 _atom_site_fract_z
 _atom_site_occupancy
  Cs  Cs0  1  0.250000  0.660897  0.063419  1
  Cs  Cs1  1  0.750000  0.048075  0.618568  1
  Cs  Cs2  1  0.250000  0.777308  0.685882  1
  Cs  Cs3  1  0.250000  0.951925  0.381432  1
  Cs  Cs4  1  0.250000  0.273949  0.142052  1
  Cs  Cs5  1  0.250000  0.538810  0.398218  1
  Cs  Cs6  1  0.750000  0.339103  0.936581  1
  Cs  Cs7  1  0.750000  0.461190  0.601782  1
  Cs  Cs8  1  0.750000  0.726051  0.857948  1
  Cs  Cs9  1  0.750000  0.222692  0.314118  1
  Si  Si10  1  0.250000  0.130190  0.799218  1
  Si  Si11  1  0.750000  0.869810  0.200782  1
  Si  Si12  1  0.250000  0.442723  0.790420  1
  Si  Si13  1  0.750000  0.746331  0.435193  1
  Si  Si14  1  0.250000  0.253669  0.564807  1
  Si  Si15  1  0.750000  0.557277  0.209580  1
  Ag  Ag16  1  0.000000  0.000000  0.000000  1
  Ag  Ag17  1  0.500000  0.000000  0.000000  1
  O  O18  1  0.456717  0.243019  0.491965  1
  O  O19  1  0.957774  0.947107  0.164887  1
  O  O20  1  0.457774  0.052893  0.835113  1
  O  O21  1  0.455858  0.523908  0.824943  1
  O  O22  1  0.956717  0.756981  0.508035  1
  O  O23  1  0.044142  0.523908  0.824943  1
  O  O24  1  0.250000  0.290722  0.852558  1
  O  O25  1  0.750000  0.870917  0.341464  1
  O  O26  1  0.750000  0.601204  0.350241  1
  O  O27  1  0.042226  0.052893  0.835113  1
  O  O28  1  0.250000  0.398796  0.649759  1
  O  O29  1  0.542226  0.947107  0.164887  1
  O  O30  1  0.750000  0.709278  0.147442  1
  O  O31  1  0.543283  0.756981  0.508035  1
  O  O32  1  0.544142  0.476092  0.175057  1
  O  O33  1  0.043283  0.243019  0.491965  1
  O  O34  1  0.955858  0.476092  0.175057  1
  O  O35  1  0.250000  0.129083  0.658536  1
