# generated using pymatgen
data_CoH6(CO3)2
_symmetry_space_group_name_H-M   'P 1'
_cell_length_a   7.24396590
_cell_length_b   8.76229655
_cell_length_c   9.31466707
_cell_angle_alpha   97.24668093
_cell_angle_beta   90.00000000
_cell_angle_gamma   90.00000000
_symmetry_Int_Tables_number   1
_chemical_formula_structural   CoH6(CO3)2
_chemical_formula_sum   'Co4 H24 C8 O24'
_cell_volume   586.51445510
_cell_formula_units_Z   4
loop_
 _symmetry_equiv_pos_site_id
 _symmetry_equiv_pos_as_xyz
  1  'x, y, z'
loop_
 _atom_site_type_symbol
 _atom_site_label
 _atom_site_symmetry_multiplicity
 _atom_site_fract_x
 _atom_site_fract_y
 _atom_site_fract_z
 _atom_site_occupancy
  Co  Co0  1  0.500000  0.000000  0.500000  1
  Co  Co1  1  0.000000  0.000000  0.000000  1
  Co  Co2  1  0.000000  0.500000  0.500000  1
  Co  Co3  1  0.500000  0.500000  0.000000  1
  O  O4  1  0.725618  0.563140  0.580540  1
  O  O5  1  0.225617  0.436860  0.919460  1
  O  O6  1  0.274382  0.436860  0.419460  1
  O  O7  1  0.774382  0.563140  0.080540  1
  O  O8  1  0.335678  0.209140  0.499692  1
  O  O9  1  0.835678  0.790860  0.000308  1
  O  O10  1  0.664322  0.790860  0.500308  1
  O  O11  1  0.164322  0.209140  0.999692  1
  O  O12  1  0.726907  0.093621  0.403836  1
  O  O13  1  0.226907  0.906379  0.096164  1
  O  O14  1  0.273093  0.906379  0.596164  1
  O  O15  1  0.773093  0.093621  0.903836  1
  O  O16  1  0.900048  0.100743  0.205370  1
  O  O17  1  0.400048  0.899257  0.294630  1
  O  O18  1  0.099952  0.899257  0.794630  1
  O  O19  1  0.599952  0.100743  0.705370  1
  O  O20  1  0.022483  0.720318  0.428589  1
  O  O21  1  0.522483  0.279682  0.071411  1
  O  O22  1  0.977517  0.279682  0.571411  1
  O  O23  1  0.477517  0.720318  0.928589  1
  O  O24  1  0.890661  0.411081  0.302730  1
  O  O25  1  0.390661  0.588919  0.197270  1
  O  O26  1  0.109339  0.588919  0.697270  1
  O  O27  1  0.609339  0.411081  0.802730  1
  C  C28  1  0.380208  0.324714  0.436313  1
  C  C29  1  0.880208  0.675286  0.063687  1
  C  C30  1  0.619792  0.675286  0.563687  1
  C  C31  1  0.119792  0.324714  0.936313  1
  C  C32  1  0.778120  0.038654  0.276843  1
  C  C33  1  0.278120  0.961346  0.223157  1
  C  C34  1  0.221880  0.961346  0.723157  1
  C  C35  1  0.721880  0.038654  0.776843  1
  H  H36  1  0.478798  0.672167  0.608635  1
  H  H37  1  0.978798  0.327833  0.891365  1
  H  H38  1  0.521202  0.327833  0.391365  1
  H  H39  1  0.021202  0.672167  0.108635  1
  H  H40  1  0.711815  0.931670  0.226709  1
  H  H41  1  0.211815  0.068330  0.273291  1
  H  H42  1  0.288185  0.068330  0.773291  1
  H  H43  1  0.788185  0.931670  0.726709  1
  H  H44  1  0.113337  0.786305  0.487413  1
  H  H45  1  0.613337  0.213695  0.012587  1
  H  H46  1  0.886663  0.213695  0.512587  1
  H  H47  1  0.386663  0.786305  0.987413  1
  H  H48  1  0.897578  0.765256  0.450713  1
  H  H49  1  0.397578  0.234744  0.049287  1
  H  H50  1  0.102422  0.234744  0.549287  1
  H  H51  1  0.602422  0.765256  0.950713  1
  H  H52  1  0.905891  0.301111  0.264109  1
  H  H53  1  0.405891  0.698889  0.235891  1
  H  H54  1  0.094109  0.698889  0.735891  1
  H  H55  1  0.594109  0.301111  0.764109  1
  H  H56  1  0.845462  0.467107  0.222956  1
  H  H57  1  0.345462  0.532893  0.277044  1
  H  H58  1  0.154538  0.532893  0.777044  1
  H  H59  1  0.654538  0.467107  0.722956  1
