# generated using pymatgen
data_Zr(PO3)4
_symmetry_space_group_name_H-M   'P 1'
_cell_length_a   8.62274316
_cell_length_b   9.91866960
_cell_length_c   20.87080354
_cell_angle_alpha   90.00000000
_cell_angle_beta   90.00000000
_cell_angle_gamma   90.00000000
_symmetry_Int_Tables_number   1
_chemical_formula_structural   Zr(PO3)4
_chemical_formula_sum   'Zr8 P32 O96'
_cell_volume   1784.99927486
_cell_formula_units_Z   8
loop_
 _symmetry_equiv_pos_site_id
 _symmetry_equiv_pos_as_xyz
  1  'x, y, z'
loop_
 _atom_site_type_symbol
 _atom_site_label
 _atom_site_symmetry_multiplicity
 _atom_site_fract_x
 _atom_site_fract_y
 _atom_site_fract_z
 _atom_site_occupancy
  Zr  Zr0  1  0.998873  0.019932  0.116306  1
  Zr  Zr1  1  0.498873  0.980068  0.883694  1
  Zr  Zr2  1  0.498873  0.019932  0.383694  1
  Zr  Zr3  1  0.498146  0.485642  0.133144  1
  Zr  Zr4  1  0.998146  0.485642  0.366856  1
  Zr  Zr5  1  0.498146  0.514358  0.633144  1
  Zr  Zr6  1  0.998873  0.980068  0.616306  1
  Zr  Zr7  1  0.998146  0.514358  0.866856  1
  P  P8  1  0.264649  0.987739  0.739185  1
  P  P9  1  0.771294  0.507141  0.011460  1
  P  P10  1  0.119385  0.511139  0.202751  1
  P  P11  1  0.384278  0.635308  0.877876  1
  P  P12  1  0.622725  0.006490  0.547523  1
  P  P13  1  0.381191  0.142116  0.123811  1
  P  P14  1  0.122725  0.006490  0.952477  1
  P  P15  1  0.261459  0.767589  0.164640  1
  P  P16  1  0.761459  0.232411  0.835360  1
  P  P17  1  0.261139  0.260045  0.907123  1
  P  P18  1  0.764649  0.987739  0.760815  1
  P  P19  1  0.619385  0.488861  0.797249  1
  P  P20  1  0.264649  0.012261  0.239185  1
  P  P21  1  0.761139  0.260045  0.592877  1
  P  P22  1  0.119385  0.488861  0.702751  1
  P  P23  1  0.261459  0.232411  0.664640  1
  P  P24  1  0.261139  0.739955  0.407123  1
  P  P25  1  0.884278  0.364692  0.122124  1
  P  P26  1  0.622725  0.993510  0.047523  1
  P  P27  1  0.761139  0.739955  0.092877  1
  P  P28  1  0.381191  0.857884  0.623811  1
  P  P29  1  0.761459  0.767589  0.335360  1
  P  P30  1  0.271294  0.492859  0.988540  1
  P  P31  1  0.271294  0.507141  0.488540  1
  P  P32  1  0.122725  0.993510  0.452477  1
  P  P33  1  0.884278  0.635308  0.622124  1
  P  P34  1  0.764649  0.012261  0.260815  1
  P  P35  1  0.771294  0.492859  0.511460  1
  P  P36  1  0.881191  0.857884  0.876189  1
  P  P37  1  0.384278  0.364692  0.377876  1
  P  P38  1  0.881191  0.142116  0.376189  1
  P  P39  1  0.619385  0.511139  0.297249  1
  O  O40  1  0.324005  0.860921  0.222618  1
  O  O41  1  0.268670  0.443159  0.185621  1
  O  O42  1  0.768670  0.443159  0.314379  1
  O  O43  1  0.499668  0.025630  0.103136  1
  O  O44  1  0.875390  0.112934  0.300681  1
  O  O45  1  0.608231  0.511879  0.537086  1
  O  O46  1  0.888152  0.827140  0.118991  1
  O  O47  1  0.042968  0.481430  0.265757  1
  O  O48  1  0.602035  0.025971  0.288052  1
  O  O49  1  0.768670  0.556841  0.814379  1
  O  O50  1  0.492176  0.514537  0.852221  1
  O  O51  1  0.888152  0.172860  0.618991  1
  O  O52  1  0.725468  0.119821  0.406207  1
  O  O53  1  0.635093  0.672889  0.300572  1
  O  O54  1  0.883364  0.400727  0.046886  1
  O  O55  1  0.396247  0.317175  0.644062  1
  O  O56  1  0.824005  0.860921  0.277382  1
  O  O57  1  0.388152  0.827140  0.381009  1
  O  O58  1  0.225468  0.880179  0.593793  1
  O  O59  1  0.542968  0.518570  0.734243  1
  O  O60  1  0.800019  0.503210  0.441314  1
  O  O61  1  0.224483  0.376024  0.350893  1
  O  O62  1  0.044226  0.980370  0.015393  1
  O  O63  1  0.455560  0.723072  0.613648  1
  O  O64  1  0.724483  0.623976  0.649107  1
  O  O65  1  0.108231  0.488121  0.462914  1
  O  O66  1  0.544226  0.019630  0.984607  1
  O  O67  1  0.375390  0.112934  0.199319  1
  O  O68  1  0.300019  0.503210  0.058686  1
  O  O69  1  0.883364  0.599273  0.546886  1
  O  O70  1  0.793054  0.963231  0.691573  1
  O  O71  1  0.793054  0.036769  0.191573  1
  O  O72  1  0.102035  0.974029  0.711948  1
  O  O73  1  0.832993  0.653659  0.034755  1
  O  O74  1  0.492176  0.485463  0.352221  1
  O  O75  1  0.955560  0.723072  0.886352  1
  O  O76  1  0.184286  0.145083  0.615754  1
  O  O77  1  0.684286  0.854917  0.384246  1
  O  O78  1  0.275162  0.060063  0.438349  1
  O  O79  1  0.275162  0.939937  0.938349  1
  O  O80  1  0.135434  0.167749  0.943585  1
  O  O81  1  0.635434  0.832251  0.056415  1
  O  O82  1  0.775162  0.060063  0.061651  1
  O  O83  1  0.293054  0.036769  0.308427  1
  O  O84  1  0.135093  0.672889  0.199428  1
  O  O85  1  0.544226  0.980370  0.484607  1
  O  O86  1  0.468754  0.766509  0.870741  1
  O  O87  1  0.635434  0.167749  0.556415  1
  O  O88  1  0.968754  0.766509  0.629259  1
  O  O89  1  0.396247  0.682825  0.144062  1
  O  O90  1  0.635093  0.327111  0.800572  1
  O  O91  1  0.724483  0.376024  0.149107  1
  O  O92  1  0.968754  0.233491  0.129259  1
  O  O93  1  0.999668  0.974370  0.896864  1
  O  O94  1  0.225468  0.119821  0.093793  1
  O  O95  1  0.896247  0.682825  0.355938  1
  O  O96  1  0.608231  0.488121  0.037086  1
  O  O97  1  0.183823  0.646782  0.360666  1
  O  O98  1  0.775162  0.939937  0.561651  1
  O  O99  1  0.800019  0.496790  0.941314  1
  O  O100  1  0.135093  0.327111  0.699428  1
  O  O101  1  0.183823  0.353218  0.860666  1
  O  O102  1  0.102035  0.025971  0.211948  1
  O  O103  1  0.455560  0.276928  0.113648  1
  O  O104  1  0.135434  0.832251  0.443585  1
  O  O105  1  0.332993  0.346341  0.965245  1
  O  O106  1  0.875390  0.887066  0.800681  1
  O  O107  1  0.542968  0.481430  0.234243  1
  O  O108  1  0.044226  0.019630  0.515393  1
  O  O109  1  0.383364  0.400727  0.453114  1
  O  O110  1  0.725468  0.880179  0.906207  1
  O  O111  1  0.992176  0.485463  0.147779  1
  O  O112  1  0.375390  0.887066  0.699319  1
  O  O113  1  0.602035  0.974029  0.788052  1
  O  O114  1  0.108231  0.511879  0.962914  1
  O  O115  1  0.224483  0.623976  0.850893  1
  O  O116  1  0.324005  0.139079  0.722618  1
  O  O117  1  0.300019  0.496790  0.558686  1
  O  O118  1  0.268670  0.556841  0.685621  1
  O  O119  1  0.955560  0.276928  0.386352  1
  O  O120  1  0.683823  0.353218  0.639334  1
  O  O121  1  0.468754  0.233491  0.370741  1
  O  O122  1  0.383364  0.599273  0.953114  1
  O  O123  1  0.042968  0.518570  0.765757  1
  O  O124  1  0.896247  0.317175  0.855938  1
  O  O125  1  0.832993  0.346341  0.534755  1
  O  O126  1  0.499668  0.974370  0.603136  1
  O  O127  1  0.824005  0.139079  0.777382  1
  O  O128  1  0.999668  0.025630  0.396864  1
  O  O129  1  0.332993  0.653659  0.465245  1
  O  O130  1  0.683823  0.646782  0.139334  1
  O  O131  1  0.388152  0.172860  0.881009  1
  O  O132  1  0.992176  0.514537  0.647779  1
  O  O133  1  0.293054  0.963231  0.808427  1
  O  O134  1  0.184286  0.854917  0.115754  1
  O  O135  1  0.684286  0.145083  0.884246  1
