# generated using pymatgen
data_K2Ni12As7
_symmetry_space_group_name_H-M   'P 1'
_cell_length_a   9.54225458
_cell_length_b   9.54225500
_cell_length_c   3.83057829
_cell_angle_alpha   90.00000000
_cell_angle_beta   90.00000000
_cell_angle_gamma   119.99999858
_symmetry_Int_Tables_number   1
_chemical_formula_structural   K2Ni12As7
_chemical_formula_sum   'K2 Ni12 As7'
_cell_volume   302.06262895
_cell_formula_units_Z   1
loop_
 _symmetry_equiv_pos_site_id
 _symmetry_equiv_pos_as_xyz
  1  'x, y, z'
loop_
 _atom_site_type_symbol
 _atom_site_label
 _atom_site_symmetry_multiplicity
 _atom_site_fract_x
 _atom_site_fract_y
 _atom_site_fract_z
 _atom_site_occupancy
  As  As0  1  0.000000  0.000000  0.000000  1
  As  As1  1  0.400605  0.113902  0.000000  1
  As  As2  1  0.713297  0.599395  0.000000  1
  As  As3  1  0.886098  0.286703  0.000000  1
  As  As4  1  0.601547  0.898830  0.500000  1
  As  As5  1  0.297283  0.398453  0.500000  1
  As  As6  1  0.101170  0.702717  0.500000  1
  Ni  Ni7  1  0.374318  0.954149  0.500000  1
  Ni  Ni8  1  0.579831  0.625682  0.500000  1
  Ni  Ni9  1  0.045851  0.420169  0.500000  1
  Ni  Ni10  1  0.205313  0.111201  0.500000  1
  Ni  Ni11  1  0.905888  0.794687  0.500000  1
  Ni  Ni12  1  0.888799  0.094112  0.500000  1
  Ni  Ni13  1  0.149843  0.874727  0.000000  1
  Ni  Ni14  1  0.724884  0.850157  0.000000  1
  Ni  Ni15  1  0.125273  0.275116  0.000000  1
  Ni  Ni16  1  0.616352  0.050901  0.000000  1
  Ni  Ni17  1  0.434549  0.383648  0.000000  1
  Ni  Ni18  1  0.949099  0.565451  0.000000  1
  K  K19  1  0.666667  0.333333  0.500000  1
  K  K20  1  0.333333  0.666667  0.000000  1
