# generated using pymatgen
data_Ba6V4S11O5
_symmetry_space_group_name_H-M   'P 1'
_cell_length_a   7.68888516
_cell_length_b   14.07960328
_cell_length_c   23.61650173
_cell_angle_alpha   90.00000000
_cell_angle_beta   90.00000000
_cell_angle_gamma   90.00000000
_symmetry_Int_Tables_number   1
_chemical_formula_structural   Ba6V4S11O5
_chemical_formula_sum   'Ba24 V16 S44 O20'
_cell_volume   2556.63870290
_cell_formula_units_Z   4
loop_
 _symmetry_equiv_pos_site_id
 _symmetry_equiv_pos_as_xyz
  1  'x, y, z'
loop_
 _atom_site_type_symbol
 _atom_site_label
 _atom_site_symmetry_multiplicity
 _atom_site_fract_x
 _atom_site_fract_y
 _atom_site_fract_z
 _atom_site_occupancy
  Ba  Ba0  1  0.787110  0.250000  0.849483  1
  Ba  Ba1  1  0.290401  0.983238  0.926325  1
  Ba  Ba2  1  0.420742  0.419646  0.724392  1
  Ba  Ba3  1  0.920742  0.919646  0.775608  1
  Ba  Ba4  1  0.287110  0.750000  0.650517  1
  Ba  Ba5  1  0.709599  0.483238  0.073675  1
  Ba  Ba6  1  0.209599  0.516762  0.426325  1
  Ba  Ba7  1  0.290401  0.516762  0.926325  1
  Ba  Ba8  1  0.079258  0.080354  0.224392  1
  Ba  Ba9  1  0.709599  0.016762  0.073675  1
  Ba  Ba10  1  0.188524  0.250000  0.042493  1
  Ba  Ba11  1  0.579258  0.580354  0.275608  1
  Ba  Ba12  1  0.790401  0.483238  0.573675  1
  Ba  Ba13  1  0.212890  0.750000  0.150517  1
  Ba  Ba14  1  0.688524  0.750000  0.457507  1
  Ba  Ba15  1  0.811476  0.750000  0.957507  1
  Ba  Ba16  1  0.311476  0.250000  0.542493  1
  Ba  Ba17  1  0.420742  0.080354  0.724392  1
  Ba  Ba18  1  0.579258  0.919646  0.275608  1
  Ba  Ba19  1  0.920742  0.580354  0.775608  1
  Ba  Ba20  1  0.790401  0.016762  0.573675  1
  Ba  Ba21  1  0.079258  0.419646  0.224392  1
  Ba  Ba22  1  0.209599  0.983238  0.426325  1
  Ba  Ba23  1  0.712890  0.250000  0.349483  1
  V  V24  1  0.200323  0.250000  0.338094  1
  V  V25  1  0.705176  0.994485  0.419570  1
  V  V26  1  0.799677  0.750000  0.661906  1
  V  V27  1  0.083558  0.750000  0.333910  1
  V  V28  1  0.294824  0.005515  0.580430  1
  V  V29  1  0.416442  0.750000  0.833910  1
  V  V30  1  0.294824  0.494485  0.580430  1
  V  V31  1  0.794824  0.994485  0.919570  1
  V  V32  1  0.205176  0.005515  0.080430  1
  V  V33  1  0.705176  0.505515  0.419570  1
  V  V34  1  0.299677  0.250000  0.838094  1
  V  V35  1  0.916442  0.250000  0.666090  1
  V  V36  1  0.794824  0.505515  0.919570  1
  V  V37  1  0.700323  0.750000  0.161906  1
  V  V38  1  0.583558  0.250000  0.166090  1
  V  V39  1  0.205176  0.494485  0.080430  1
  S  S40  1  0.301560  0.250000  0.171597  1
  S  S41  1  0.138053  0.538764  0.653672  1
  S  S42  1  0.138053  0.961236  0.653672  1
  S  S43  1  0.411577  0.883016  0.538385  1
  S  S44  1  0.198440  0.250000  0.671597  1
  S  S45  1  0.906898  0.750000  0.577112  1
  S  S46  1  0.182138  0.623226  0.292895  1
  S  S47  1  0.848340  0.250000  0.577376  1
  S  S48  1  0.857052  0.622284  0.176437  1
  S  S49  1  0.088423  0.883016  0.038385  1
  S  S50  1  0.361947  0.961236  0.153672  1
  S  S51  1  0.682137  0.123226  0.207105  1
  S  S52  1  0.588423  0.383016  0.461615  1
  S  S53  1  0.642948  0.622284  0.676437  1
  S  S54  1  0.861947  0.038764  0.346328  1
  S  S55  1  0.357052  0.377716  0.323563  1
  S  S56  1  0.142948  0.377716  0.823563  1
  S  S57  1  0.911577  0.116984  0.961615  1
  S  S58  1  0.348340  0.750000  0.922624  1
  S  S59  1  0.593102  0.750000  0.077112  1
  S  S60  1  0.861947  0.461236  0.346328  1
  S  S61  1  0.588423  0.116984  0.461615  1
  S  S62  1  0.682137  0.376774  0.207105  1
  S  S63  1  0.817863  0.123226  0.707105  1
  S  S64  1  0.638053  0.038764  0.846328  1
  S  S65  1  0.142948  0.122284  0.823563  1
  S  S66  1  0.317862  0.876774  0.792895  1
  S  S67  1  0.182138  0.876774  0.292895  1
  S  S68  1  0.088423  0.616984  0.038385  1
  S  S69  1  0.651660  0.250000  0.077376  1
  S  S70  1  0.817863  0.376774  0.707105  1
  S  S71  1  0.911577  0.383016  0.961615  1
  S  S72  1  0.406898  0.250000  0.922888  1
  S  S73  1  0.801560  0.750000  0.328403  1
  S  S74  1  0.638053  0.461236  0.846328  1
  S  S75  1  0.357052  0.122284  0.323563  1
  S  S76  1  0.151660  0.750000  0.422624  1
  S  S77  1  0.093102  0.250000  0.422888  1
  S  S78  1  0.857052  0.877716  0.176437  1
  S  S79  1  0.411577  0.616984  0.538385  1
  S  S80  1  0.642948  0.877716  0.676437  1
  S  S81  1  0.317862  0.623226  0.792895  1
  S  S82  1  0.361947  0.538764  0.153672  1
  S  S83  1  0.698440  0.750000  0.828403  1
  O  O84  1  0.453103  0.417233  0.603786  1
  O  O85  1  0.161723  0.436136  0.533160  1
  O  O86  1  0.046898  0.082767  0.103786  1
  O  O87  1  0.953102  0.917233  0.896214  1
  O  O88  1  0.531991  0.750000  0.209809  1
  O  O89  1  0.661723  0.563864  0.966840  1
  O  O90  1  0.838277  0.563864  0.466840  1
  O  O91  1  0.161723  0.063864  0.533160  1
  O  O92  1  0.338277  0.063864  0.033160  1
  O  O93  1  0.453103  0.082767  0.603786  1
  O  O94  1  0.338277  0.436136  0.033160  1
  O  O95  1  0.546898  0.582767  0.396214  1
  O  O96  1  0.953102  0.582767  0.896214  1
  O  O97  1  0.031991  0.250000  0.290191  1
  O  O98  1  0.046898  0.417233  0.103786  1
  O  O99  1  0.661723  0.936136  0.966840  1
  O  O100  1  0.968009  0.750000  0.709809  1
  O  O101  1  0.546898  0.917233  0.396214  1
  O  O102  1  0.838277  0.936136  0.466840  1
  O  O103  1  0.468009  0.250000  0.790191  1
