# generated using pymatgen
data_SiO2
_symmetry_space_group_name_H-M   'P 1'
_cell_length_a   9.88231439
_cell_length_b   11.50616258
_cell_length_c   19.94488085
_cell_angle_alpha   90.00000000
_cell_angle_beta   90.00000000
_cell_angle_gamma   115.43175477
_symmetry_Int_Tables_number   1
_chemical_formula_structural   SiO2
_chemical_formula_sum   'Si32 O64'
_cell_volume   2048.11917666
_cell_formula_units_Z   32
loop_
 _symmetry_equiv_pos_site_id
 _symmetry_equiv_pos_as_xyz
  1  'x, y, z'
loop_
 _atom_site_type_symbol
 _atom_site_label
 _atom_site_symmetry_multiplicity
 _atom_site_fract_x
 _atom_site_fract_y
 _atom_site_fract_z
 _atom_site_occupancy
  Si  Si0  1  0.491856  0.531733  0.891131  1
  Si  Si1  1  0.361912  0.642127  0.171744  1
  Si  Si2  1  0.473678  0.152895  0.940493  1
  Si  Si3  1  0.692689  0.694060  0.493373  1
  Si  Si4  1  0.638088  0.357873  0.828256  1
  Si  Si5  1  0.001372  0.694060  0.993373  1
  Si  Si6  1  0.039877  0.531733  0.391131  1
  Si  Si7  1  0.998628  0.305940  0.493373  1
  Si  Si8  1  0.508144  0.468267  0.391131  1
  Si  Si9  1  0.280215  0.642127  0.671744  1
  Si  Si10  1  0.280215  0.642127  0.828256  1
  Si  Si11  1  0.491856  0.531733  0.608869  1
  Si  Si12  1  0.526322  0.847105  0.440493  1
  Si  Si13  1  0.361912  0.642127  0.328256  1
  Si  Si14  1  0.638088  0.357873  0.671744  1
  Si  Si15  1  0.508144  0.468267  0.108869  1
  Si  Si16  1  0.526322  0.847105  0.059507  1
  Si  Si17  1  0.307311  0.305940  0.506627  1
  Si  Si18  1  0.320784  0.847105  0.940493  1
  Si  Si19  1  0.998628  0.305940  0.006627  1
  Si  Si20  1  0.692689  0.694060  0.006627  1
  Si  Si21  1  0.719785  0.357873  0.328256  1
  Si  Si22  1  0.960123  0.468267  0.608869  1
  Si  Si23  1  0.679216  0.152895  0.440493  1
  Si  Si24  1  0.960123  0.468267  0.891131  1
  Si  Si25  1  0.473678  0.152895  0.559507  1
  Si  Si26  1  0.679216  0.152895  0.059507  1
  Si  Si27  1  0.001372  0.694060  0.506627  1
  Si  Si28  1  0.719785  0.357873  0.171744  1
  Si  Si29  1  0.320784  0.847105  0.559507  1
  Si  Si30  1  0.039877  0.531733  0.108869  1
  Si  Si31  1  0.307311  0.305940  0.993373  1
  O  O32  1  0.817979  0.416446  0.840588  1
  O  O33  1  0.591256  0.000000  0.073167  1
  O  O34  1  0.626972  0.570381  0.443207  1
  O  O35  1  0.662536  0.811807  0.037043  1
  O  O36  1  0.598467  0.416446  0.159412  1
  O  O37  1  0.943409  0.570381  0.943207  1
  O  O38  1  0.962023  0.347385  0.566912  1
  O  O39  1  0.337464  0.188193  0.537043  1
  O  O40  1  0.887128  0.464555  0.347605  1
  O  O41  1  0.112872  0.535445  0.847605  1
  O  O42  1  0.284452  0.680598  0.750000  1
  O  O43  1  0.715548  0.319402  0.250000  1
  O  O44  1  0.056591  0.429619  0.443207  1
  O  O45  1  0.448719  0.772202  0.127909  1
  O  O46  1  0.337464  0.188193  0.962957  1
  O  O47  1  0.962023  0.347385  0.933088  1
  O  O48  1  0.676518  0.227798  0.372091  1
  O  O49  1  0.056591  0.429619  0.056793  1
  O  O50  1  0.591256  0.000000  0.426833  1
  O  O51  1  0.396146  0.680598  0.250000  1
  O  O52  1  0.850729  0.188193  0.462957  1
  O  O53  1  0.872532  0.745064  0.000000  1
  O  O54  1  0.598694  0.197387  0.500000  1
  O  O55  1  0.614637  0.652615  0.933088  1
  O  O56  1  0.887128  0.464555  0.152395  1
  O  O57  1  0.448719  0.772202  0.372091  1
  O  O58  1  0.817979  0.416446  0.659412  1
  O  O59  1  0.850729  0.188193  0.037043  1
  O  O60  1  0.626972  0.570381  0.056793  1
  O  O61  1  0.127468  0.254936  0.500000  1
  O  O62  1  0.614637  0.652615  0.566912  1
  O  O63  1  0.676518  0.227798  0.127909  1
  O  O64  1  0.112872  0.535445  0.652395  1
  O  O65  1  0.037977  0.652615  0.433088  1
  O  O66  1  0.422573  0.535445  0.347605  1
  O  O67  1  0.149271  0.811807  0.962957  1
  O  O68  1  0.598694  0.197387  0.000000  1
  O  O69  1  0.662536  0.811807  0.462957  1
  O  O70  1  0.551280  0.227798  0.627909  1
  O  O71  1  0.408744  0.000000  0.926833  1
  O  O72  1  0.401533  0.583554  0.840588  1
  O  O73  1  0.872532  0.745064  0.500000  1
  O  O74  1  0.182021  0.583554  0.159412  1
  O  O75  1  0.323482  0.772202  0.872091  1
  O  O76  1  0.577427  0.464555  0.847605  1
  O  O77  1  0.422573  0.535445  0.152395  1
  O  O78  1  0.373028  0.429619  0.943207  1
  O  O79  1  0.373028  0.429619  0.556793  1
  O  O80  1  0.577427  0.464555  0.652395  1
  O  O81  1  0.323482  0.772202  0.627909  1
  O  O82  1  0.385363  0.347385  0.066911  1
  O  O83  1  0.598467  0.416446  0.340588  1
  O  O84  1  0.401306  0.802613  0.500000  1
  O  O85  1  0.385363  0.347385  0.433088  1
  O  O86  1  0.037977  0.652615  0.066911  1
  O  O87  1  0.408744  0.000000  0.573167  1
  O  O88  1  0.182021  0.583554  0.340588  1
  O  O89  1  0.551280  0.227798  0.872091  1
  O  O90  1  0.149271  0.811807  0.537043  1
  O  O91  1  0.603854  0.319402  0.750000  1
  O  O92  1  0.401533  0.583554  0.659412  1
  O  O93  1  0.943409  0.570381  0.556793  1
  O  O94  1  0.127468  0.254936  0.000000  1
  O  O95  1  0.401306  0.802613  0.000000  1
