# generated using pymatgen
data_PrPH5CO7
_symmetry_space_group_name_H-M   'P 1'
_cell_length_a   6.76178932
_cell_length_b   7.14648382
_cell_length_c   7.84359745
_cell_angle_alpha   110.54253476
_cell_angle_beta   95.79501411
_cell_angle_gamma   89.49575965
_symmetry_Int_Tables_number   1
_chemical_formula_structural   PrPH5CO7
_chemical_formula_sum   'Pr2 P2 H10 C2 O14'
_cell_volume   352.96662541
_cell_formula_units_Z   2
loop_
 _symmetry_equiv_pos_site_id
 _symmetry_equiv_pos_as_xyz
  1  'x, y, z'
loop_
 _atom_site_type_symbol
 _atom_site_label
 _atom_site_symmetry_multiplicity
 _atom_site_fract_x
 _atom_site_fract_y
 _atom_site_fract_z
 _atom_site_occupancy
  Pr  Pr0  1  0.132151  0.223290  0.935125  1
  Pr  Pr1  1  0.867849  0.776710  0.064875  1
  P  P2  1  0.675861  0.253565  0.018482  1
  P  P3  1  0.324139  0.746435  0.981518  1
  H  H4  1  0.550905  0.159353  0.435540  1
  H  H5  1  0.449095  0.840647  0.564460  1
  H  H6  1  0.713787  0.666788  0.636535  1
  H  H7  1  0.286213  0.333212  0.363465  1
  H  H8  1  0.831933  0.481500  0.670424  1
  H  H9  1  0.628457  0.290750  0.197888  1
  H  H10  1  0.168067  0.518500  0.329576  1
  H  H11  1  0.466097  0.256496  0.623557  1
  H  H12  1  0.371543  0.709250  0.802112  1
  H  H13  1  0.533903  0.743504  0.376443  1
  C  C14  1  0.065432  0.910642  0.501097  1
  C  C15  1  0.934568  0.089358  0.498903  1
  O  O16  1  0.818917  0.424775  0.025407  1
  O  O17  1  0.826270  0.070772  0.352543  1
  O  O18  1  0.173730  0.929228  0.647457  1
  O  O19  1  0.432358  0.222148  0.491518  1
  O  O20  1  0.793116  0.621640  0.728469  1
  O  O21  1  0.206884  0.378360  0.271531  1
  O  O22  1  0.197998  0.937482  0.036729  1
  O  O23  1  0.481043  0.234622  0.896216  1
  O  O24  1  0.802002  0.062518  0.963271  1
  O  O25  1  0.945408  0.240961  0.645595  1
  O  O26  1  0.518957  0.765378  0.103784  1
  O  O27  1  0.181083  0.575225  0.974593  1
  O  O28  1  0.567642  0.777852  0.508482  1
  O  O29  1  0.054592  0.759039  0.354405  1
