# generated using pymatgen
data_Sr3(B3Rh4)2
_symmetry_space_group_name_H-M   'P 1'
_cell_length_a   5.62332212
_cell_length_b   5.75956394
_cell_length_c   9.05473564
_cell_angle_alpha   81.28112631
_cell_angle_beta   71.90953077
_cell_angle_gamma   60.77946203
_symmetry_Int_Tables_number   1
_chemical_formula_structural   Sr3(B3Rh4)2
_chemical_formula_sum   'Sr3 B6 Rh8'
_cell_volume   243.29304456
_cell_formula_units_Z   1
loop_
 _symmetry_equiv_pos_site_id
 _symmetry_equiv_pos_as_xyz
  1  'x, y, z'
loop_
 _atom_site_type_symbol
 _atom_site_label
 _atom_site_symmetry_multiplicity
 _atom_site_fract_x
 _atom_site_fract_y
 _atom_site_fract_z
 _atom_site_occupancy
  Sr  Sr0  1  0.316568  0.000000  0.366864  1
  Sr  Sr1  1  0.500000  0.000000  0.000000  1
  Sr  Sr2  1  0.683432  1.000000  0.633136  1
  B  B3  1  0.995526  0.670544  0.338403  1
  B  B4  1  0.004474  0.329456  0.661597  1
  B  B5  1  0.164552  0.670895  1.000000  1
  B  B6  1  0.666070  0.329456  0.338403  1
  B  B7  1  0.333930  0.670544  0.661597  1
  B  B8  1  0.835448  0.329105  0.000000  1
  Rh  Rh9  1  0.415710  0.500000  0.168580  1
  Rh  Rh10  1  0.913115  1.000000  0.173770  1
  Rh  Rh11  1  0.915710  0.500000  0.168580  1
  Rh  Rh12  1  0.750000  0.500000  0.500000  1
  Rh  Rh13  1  0.084290  0.500000  0.831420  1
  Rh  Rh14  1  0.584290  0.500000  0.831420  1
  Rh  Rh15  1  0.250000  0.500000  0.500000  1
  Rh  Rh16  1  0.086885  0.000000  0.826230  1
