# generated using pymatgen
data_AsCS3N2F11
_symmetry_space_group_name_H-M   'P 1'
_cell_length_a   6.31898398
_cell_length_b   7.22139981
_cell_length_c   13.37401924
_cell_angle_alpha   95.59998719
_cell_angle_beta   96.66692475
_cell_angle_gamma   104.08669866
_symmetry_Int_Tables_number   1
_chemical_formula_structural   AsCS3N2F11
_chemical_formula_sum   'As2 C2 S6 N4 F22'
_cell_volume   582.88983685
_cell_formula_units_Z   2
loop_
 _symmetry_equiv_pos_site_id
 _symmetry_equiv_pos_as_xyz
  1  'x, y, z'
loop_
 _atom_site_type_symbol
 _atom_site_label
 _atom_site_symmetry_multiplicity
 _atom_site_fract_x
 _atom_site_fract_y
 _atom_site_fract_z
 _atom_site_occupancy
  As  As0  1  0.482677  0.757340  0.830207  1
  As  As1  1  0.517323  0.242660  0.169793  1
  C  C2  1  0.071870  0.758704  0.270717  1
  C  C3  1  0.928130  0.241296  0.729283  1
  S  S4  1  0.186769  0.749493  0.403222  1
  S  S5  1  0.813231  0.250507  0.596778  1
  S  S6  1  0.873838  0.854163  0.126024  1
  S  S7  1  0.880849  0.389751  0.830656  1
  S  S8  1  0.126162  0.145837  0.873976  1
  S  S9  1  0.119151  0.610249  0.169344  1
  N  N10  1  0.984461  0.691490  0.083277  1
  N  N11  1  0.048301  0.125287  0.752790  1
  N  N12  1  0.015539  0.308510  0.916723  1
  N  N13  1  0.951699  0.874713  0.247210  1
  F  F14  1  0.254744  0.208671  0.093540  1
  F  F15  1  0.358813  0.760231  0.942309  1
  F  F16  1  0.528402  0.012327  0.836820  1
  F  F17  1  0.221525  0.724546  0.756966  1
  F  F18  1  0.170750  0.523507  0.373279  1
  F  F19  1  0.941360  0.694997  0.432783  1
  F  F20  1  0.745256  0.791329  0.906460  1
  F  F21  1  0.471598  0.987673  0.163180  1
  F  F22  1  0.388590  0.246501  0.279469  1
  F  F23  1  0.794462  0.026282  0.567150  1
  F  F24  1  0.778475  0.275454  0.243034  1
  F  F25  1  0.567531  0.197857  0.627741  1
  F  F26  1  0.829250  0.476493  0.626721  1
  F  F27  1  0.286512  0.736544  0.516167  1
  F  F28  1  0.641187  0.239769  0.057691  1
  F  F29  1  0.432469  0.802143  0.372259  1
  F  F30  1  0.560403  0.497789  0.175534  1
  F  F31  1  0.611410  0.753499  0.720531  1
  F  F32  1  0.205538  0.973718  0.432850  1
  F  F33  1  0.713488  0.263456  0.483833  1
  F  F34  1  0.439597  0.502211  0.824466  1
  F  F35  1  0.058640  0.305003  0.567217  1
