# generated using pymatgen
data_CsSb2F11
_symmetry_space_group_name_H-M   'P 1'
_cell_length_a   7.92522752
_cell_length_b   9.78905306
_cell_length_c   14.64633032
_cell_angle_alpha   90.00000000
_cell_angle_beta   90.00000000
_cell_angle_gamma   112.95227885
_symmetry_Int_Tables_number   1
_chemical_formula_structural   CsSb2F11
_chemical_formula_sum   'Cs4 Sb8 F44'
_cell_volume   1046.31076153
_cell_formula_units_Z   4
loop_
 _symmetry_equiv_pos_site_id
 _symmetry_equiv_pos_as_xyz
  1  'x, y, z'
loop_
 _atom_site_type_symbol
 _atom_site_label
 _atom_site_symmetry_multiplicity
 _atom_site_fract_x
 _atom_site_fract_y
 _atom_site_fract_z
 _atom_site_occupancy
  Cs  Cs0  1  0.983579  0.725725  0.372203  1
  Cs  Cs1  1  0.016421  0.274275  0.627797  1
  Cs  Cs2  1  0.483579  0.225725  0.127797  1
  Cs  Cs3  1  0.516421  0.774275  0.872203  1
  Sb  Sb4  1  0.023865  0.756657  0.050180  1
  Sb  Sb5  1  0.976135  0.243343  0.949820  1
  Sb  Sb6  1  0.523865  0.256657  0.449820  1
  Sb  Sb7  1  0.411275  0.690602  0.194647  1
  Sb  Sb8  1  0.588725  0.309398  0.805353  1
  Sb  Sb9  1  0.088725  0.809398  0.694647  1
  Sb  Sb10  1  0.911275  0.190602  0.305353  1
  Sb  Sb11  1  0.476135  0.743343  0.550180  1
  F  F12  1  0.114178  0.994168  0.641678  1
  F  F13  1  0.932751  0.349061  0.049689  1
  F  F14  1  0.611193  0.659665  0.478638  1
  F  F15  1  0.631514  0.718152  0.257142  1
  F  F16  1  0.368486  0.281848  0.742858  1
  F  F17  1  0.165746  0.656189  0.127318  1
  F  F18  1  0.131514  0.218152  0.242858  1
  F  F19  1  0.759482  0.089498  0.205888  1
  F  F20  1  0.868486  0.781848  0.757142  1
  F  F21  1  0.388807  0.340335  0.521362  1
  F  F22  1  0.240518  0.910502  0.794112  1
  F  F23  1  0.487764  0.645354  0.661055  1
  F  F24  1  0.432751  0.849061  0.450311  1
  F  F25  1  0.614178  0.494168  0.858322  1
  F  F26  1  0.892490  0.368966  0.264269  1
  F  F27  1  0.607510  0.131034  0.764269  1
  F  F28  1  0.567249  0.150939  0.549689  1
  F  F29  1  0.257422  0.911497  0.027043  1
  F  F30  1  0.969163  0.712297  0.586198  1
  F  F31  1  0.740518  0.410502  0.705888  1
  F  F32  1  0.310866  0.090879  0.414100  1
  F  F33  1  0.742578  0.088503  0.972957  1
  F  F34  1  0.987764  0.145354  0.838945  1
  F  F35  1  0.385822  0.505832  0.141678  1
  F  F36  1  0.259482  0.589498  0.294112  1
  F  F37  1  0.665746  0.156189  0.372682  1
  F  F38  1  0.189134  0.409121  0.914100  1
  F  F39  1  0.111193  0.159665  0.021362  1
  F  F40  1  0.885822  0.005832  0.358322  1
  F  F41  1  0.030837  0.287703  0.413802  1
  F  F42  1  0.810866  0.590879  0.085900  1
  F  F43  1  0.392490  0.868966  0.235731  1
  F  F44  1  0.067249  0.650939  0.950311  1
  F  F45  1  0.334254  0.843811  0.627318  1
  F  F46  1  0.107510  0.631034  0.735731  1
  F  F47  1  0.242578  0.588503  0.527043  1
  F  F48  1  0.689134  0.909121  0.585900  1
  F  F49  1  0.757422  0.411497  0.472957  1
  F  F50  1  0.888807  0.840335  0.978638  1
  F  F51  1  0.512236  0.354646  0.338945  1
  F  F52  1  0.012236  0.854646  0.161055  1
  F  F53  1  0.530837  0.787703  0.086198  1
  F  F54  1  0.834254  0.343811  0.872682  1
  F  F55  1  0.469163  0.212297  0.913802  1
