# generated using pymatgen
data_Ni18Bi3AsS16
_symmetry_space_group_name_H-M   'P 1'
_cell_length_a   9.05732902
_cell_length_b   9.05732912
_cell_length_c   9.05732883
_cell_angle_alpha   106.61173710
_cell_angle_beta   110.91960914
_cell_angle_gamma   110.91960701
_symmetry_Int_Tables_number   1
_chemical_formula_structural   Ni18Bi3AsS16
_chemical_formula_sum   'Ni18 Bi3 As1 S16'
_cell_volume   570.91520783
_cell_formula_units_Z   1
loop_
 _symmetry_equiv_pos_site_id
 _symmetry_equiv_pos_as_xyz
  1  'x, y, z'
loop_
 _atom_site_type_symbol
 _atom_site_label
 _atom_site_symmetry_multiplicity
 _atom_site_fract_x
 _atom_site_fract_y
 _atom_site_fract_z
 _atom_site_occupancy
  Ni  Ni0  1  0.713750  0.235625  0.235625  1
  Ni  Ni1  1  1.000000  0.235625  0.521875  1
  Ni  Ni2  1  0.500000  0.000000  0.500000  1
  Ni  Ni3  1  0.000000  0.297726  0.954690  1
  Ni  Ni4  1  1.000000  0.045310  0.702274  1
  Ni  Ni5  1  0.343036  0.045310  0.045310  1
  Ni  Ni6  1  1.000000  0.478125  0.764375  1
  Ni  Ni7  1  0.656964  0.954690  0.954690  1
  Ni  Ni8  1  0.713750  0.478125  0.478125  1
  Ni  Ni9  1  0.343036  0.297726  0.297726  1
  Ni  Ni10  1  0.000000  0.954690  0.297726  1
  Ni  Ni11  1  0.286250  0.521875  0.521875  1
  Ni  Ni12  1  0.286250  0.764375  0.764375  1
  Ni  Ni13  1  0.000000  0.521875  0.235625  1
  Ni  Ni14  1  0.656964  0.702274  0.702274  1
  Ni  Ni15  1  0.500000  0.500000  0.000000  1
  Ni  Ni16  1  0.000000  0.764375  0.478125  1
  Ni  Ni17  1  1.000000  0.702274  0.045310  1
  Bi  Bi18  1  0.500000  0.750000  0.250000  1
  Bi  Bi19  1  0.500000  0.250000  0.750000  1
  Bi  Bi20  1  0.000000  0.000000  0.000000  1
  As  As21  1  0.000000  0.500000  0.500000  1
  S  S22  1  0.772712  0.759476  0.532188  1
  S  S23  1  0.227288  0.467812  0.240524  1
  S  S24  1  0.511156  0.163504  0.347653  1
  S  S25  1  0.488844  0.836496  0.652347  1
  S  S26  1  0.184149  0.347653  0.836496  1
  S  S27  1  0.184149  0.836496  0.347653  1
  S  S28  1  0.488844  0.652347  0.836496  1
  S  S29  1  0.815851  0.163504  0.652347  1
  S  S30  1  0.772712  0.240524  0.013236  1
  S  S31  1  0.511156  0.347653  0.163504  1
  S  S32  1  0.772712  0.013236  0.240524  1
  S  S33  1  0.227288  0.240524  0.467812  1
  S  S34  1  0.815851  0.652347  0.163504  1
  S  S35  1  0.227288  0.986764  0.759476  1
  S  S36  1  0.227288  0.759476  0.986764  1
  S  S37  1  0.772712  0.532188  0.759476  1
