# generated using pymatgen
data_La10(Si2O9)3
_symmetry_space_group_name_H-M   'P 1'
_cell_length_a   9.95502611
_cell_length_b   19.59809135
_cell_length_c   7.29913816
_cell_angle_alpha   90.00000000
_cell_angle_beta   90.00000000
_cell_angle_gamma   120.42947598
_symmetry_Int_Tables_number   1
_chemical_formula_structural   La10(Si2O9)3
_chemical_formula_sum   'La20 Si12 O54'
_cell_volume   1227.89884923
_cell_formula_units_Z   2
loop_
 _symmetry_equiv_pos_site_id
 _symmetry_equiv_pos_as_xyz
  1  'x, y, z'
loop_
 _atom_site_type_symbol
 _atom_site_label
 _atom_site_symmetry_multiplicity
 _atom_site_fract_x
 _atom_site_fract_y
 _atom_site_fract_z
 _atom_site_occupancy
  La  La0  1  0.242102  0.996159  0.239314  1
  La  La1  1  0.005926  0.611192  0.252668  1
  La  La2  1  0.338422  0.834460  0.501400  1
  La  La3  1  0.332197  0.833970  1.002288  1
  La  La4  1  0.239583  0.615565  0.748336  1
  La  La5  1  0.242102  0.496159  0.260686  1
  La  La6  1  0.778121  0.895699  0.245888  1
  La  La7  1  0.005926  0.111192  0.247332  1
  La  La8  1  0.673116  0.671480  0.505868  1
  La  La9  1  0.662216  0.669648  0.004811  1
  La  La10  1  0.332197  0.333970  0.497712  1
  La  La11  1  0.338422  0.334460  -0.001400  1
  La  La12  1  0.999686  0.881307  0.753891  1
  La  La13  1  0.239583  0.115565  0.751664  1
  La  La14  1  0.770645  0.502890  0.792562  1
  La  La15  1  0.778121  0.395699  0.254112  1
  La  La16  1  0.662216  0.169649  0.495189  1
  La  La17  1  0.673116  0.171480  0.994132  1
  La  La18  1  0.999686  0.381307  0.746109  1
  La  La19  1  0.770645  0.002890  0.707438  1
  O  O20  1  0.256331  0.952866  0.925144  1
  O  O21  1  0.263551  0.955026  0.563949  1
  O  O22  1  0.134967  0.799805  0.746765  1
  O  O23  1  0.159330  0.834035  0.248866  1
  O  O24  1  0.092369  0.671446  0.574771  1
  O  O25  1  0.089127  0.674378  0.936865  1
  O  O26  1  0.032918  0.499951  0.335067  1
  O  O27  1  0.012167  0.498668  0.756776  1
  O  O28  1  0.470547  0.936553  0.755783  1
  O  O29  1  0.337320  0.749101  0.249514  1
  O  O30  1  0.495848  0.922219  0.250733  1
  O  O31  1  0.400122  0.764245  0.768643  1
  O  O32  1  0.348468  0.628842  0.076998  1
  O  O33  1  0.353687  0.635845  0.443148  1
  O  O34  1  0.625690  0.863794  0.559884  1
  O  O35  1  0.662408  0.876508  0.924145  1
  O  O36  1  0.263551  0.455026  0.936051  1
  O  O37  1  0.256331  0.452866  0.574856  1
  O  O38  1  0.134967  0.299805  0.753235  1
  O  O39  1  0.159330  0.334035  0.251134  1
  O  O40  1  0.601382  0.737743  0.251855  1
  O  O41  1  0.484700  0.582817  0.746901  1
  O  O42  1  0.089127  0.174378  0.563135  1
  O  O43  1  0.092369  0.171446  0.925229  1
  O  O44  1  0.670501  0.757393  0.748810  1
  O  O45  1  0.524173  0.567150  0.300845  1
  O  O46  1  0.032918  0.999951  0.164933  1
  O  O47  1  0.470547  0.436553  0.744217  1
  O  O48  1  0.337320  0.249101  0.250486  1
  O  O49  1  0.910859  0.821626  0.060136  1
  O  O50  1  0.918105  0.832327  0.426354  1
  O  O51  1  0.495848  0.422219  0.249267  1
  O  O52  1  0.400122  0.264245  0.731357  1
  O  O53  1  0.845044  0.668370  0.748732  1
  O  O54  1  0.869582  0.700356  0.258189  1
  O  O55  1  0.751771  0.543602  0.401908  1
  O  O56  1  0.662963  0.551321  0.033261  1
  O  O57  1  0.353687  0.135845  0.056852  1
  O  O58  1  0.348468  0.128842  0.423002  1
  O  O59  1  0.662408  0.376508  0.575855  1
  O  O60  1  0.625690  0.363794  0.940116  1
  O  O61  1  0.856807  0.503655  0.076533  1
  O  O62  1  0.601382  0.237743  0.248145  1
  O  O63  1  0.484700  0.082817  0.753099  1
  O  O64  1  0.670501  0.257393  0.751190  1
  O  O65  1  0.524173  0.067150  0.199155  1
  O  O66  1  0.918105  0.332327  0.073646  1
  O  O67  1  0.910859  0.321626  0.439864  1
  O  O68  1  0.845044  0.168370  0.751268  1
  O  O69  1  0.869582  0.200355  0.241811  1
  O  O70  1  0.662963  0.051321  0.466739  1
  O  O71  1  0.751771  0.043602  0.098092  1
  O  O72  1  0.856807  0.003655  0.423467  1
  O  O73  1  0.012167  0.998668  0.743224  1
  Si  Si74  1  0.033288  0.701802  0.751906  1
  Si  Si75  1  0.376606  0.985913  0.746952  1
  Si  Si76  1  0.408824  0.689685  0.255786  1
  Si  Si77  1  0.592699  0.814034  0.752174  1
  Si  Si78  1  0.033288  0.201802  0.748094  1
  Si  Si79  1  0.376606  0.485913  0.753048  1
  Si  Si80  1  0.616190  0.518752  0.245421  1
  Si  Si81  1  0.969641  0.797804  0.248536  1
  Si  Si82  1  0.408824  0.189685  0.244214  1
  Si  Si83  1  0.592699  0.314034  0.747826  1
  Si  Si84  1  0.616190  0.018752  0.254579  1
  Si  Si85  1  0.969641  0.297804  0.251464  1
