# generated using pymatgen
data_NbAgO3
_symmetry_space_group_name_H-M   'P 1'
_cell_length_a   5.64494607
_cell_length_b   5.71437952
_cell_length_c   15.91702230
_cell_angle_alpha   90.00000000
_cell_angle_beta   90.00000000
_cell_angle_gamma   90.00000000
_symmetry_Int_Tables_number   1
_chemical_formula_structural   NbAgO3
_chemical_formula_sum   'Nb8 Ag8 O24'
_cell_volume   513.44118553
_cell_formula_units_Z   8
loop_
 _symmetry_equiv_pos_site_id
 _symmetry_equiv_pos_as_xyz
  1  'x, y, z'
loop_
 _atom_site_type_symbol
 _atom_site_label
 _atom_site_symmetry_multiplicity
 _atom_site_fract_x
 _atom_site_fract_y
 _atom_site_fract_z
 _atom_site_occupancy
  O  O0  1  0.807578  0.730592  0.750000  1
  O  O1  1  0.807578  0.769407  0.250000  1
  O  O2  1  0.192423  0.230593  0.750000  1
  O  O3  1  0.192423  0.269408  0.250000  1
  O  O4  1  0.543948  0.461166  0.359937  1
  O  O5  1  0.543948  0.038833  0.640063  1
  O  O6  1  0.456051  0.961166  0.140063  1
  O  O7  1  0.456051  0.538834  0.859937  1
  O  O8  1  0.456051  0.538834  0.640063  1
  O  O9  1  0.456051  0.961166  0.359937  1
  O  O10  1  0.543948  0.038833  0.859937  1
  O  O11  1  0.543948  0.461166  0.140063  1
  O  O12  1  0.958320  0.042198  0.390226  1
  O  O13  1  0.958320  0.457801  0.609774  1
  O  O14  1  0.041682  0.542199  0.109774  1
  O  O15  1  0.041682  0.957801  0.890227  1
  O  O16  1  0.310650  0.250000  0.000000  1
  O  O17  1  0.689350  0.749999  0.500000  1
  O  O18  1  0.689350  0.749999  0.000000  1
  O  O19  1  0.310650  0.250000  0.500000  1
  O  O20  1  0.041682  0.957801  0.609774  1
  O  O21  1  0.958320  0.457801  0.890227  1
  O  O22  1  0.041682  0.542199  0.390226  1
  O  O23  1  0.958320  0.042198  0.109774  1
  Nb  Nb24  1  0.244701  0.224617  0.124967  1
  Nb  Nb25  1  0.244701  0.275384  0.875033  1
  Nb  Nb26  1  0.755300  0.724616  0.375033  1
  Nb  Nb27  1  0.755300  0.775383  0.624967  1
  Nb  Nb28  1  0.755300  0.775383  0.875033  1
  Nb  Nb29  1  0.755300  0.724616  0.124967  1
  Nb  Nb30  1  0.244701  0.275384  0.624967  1
  Nb  Nb31  1  0.244701  0.224617  0.375033  1
  Ag  Ag32  1  0.742381  0.250000  0.000000  1
  Ag  Ag33  1  0.257620  0.749999  0.500000  1
  Ag  Ag34  1  0.257620  0.749999  0.000000  1
  Ag  Ag35  1  0.742381  0.250000  0.500000  1
  Ag  Ag36  1  0.736710  0.218988  0.250000  1
  Ag  Ag37  1  0.736710  0.281013  0.750000  1
  Ag  Ag38  1  0.263291  0.718987  0.250000  1
  Ag  Ag39  1  0.263291  0.781012  0.750000  1
