# generated using pymatgen
data_CaCr2Cu3(SbO6)2
_symmetry_space_group_name_H-M   'P 1'
_cell_length_a   7.56364508
_cell_length_b   7.56364508
_cell_length_c   7.56364508
_cell_angle_alpha   90.00000000
_cell_angle_beta   90.00000000
_cell_angle_gamma   90.00000000
_symmetry_Int_Tables_number   1
_chemical_formula_structural   CaCr2Cu3(SbO6)2
_chemical_formula_sum   'Ca2 Cr4 Cu6 Sb4 O24'
_cell_volume   432.70650572
_cell_formula_units_Z   2
loop_
 _symmetry_equiv_pos_site_id
 _symmetry_equiv_pos_as_xyz
  1  'x, y, z'
loop_
 _atom_site_type_symbol
 _atom_site_label
 _atom_site_symmetry_multiplicity
 _atom_site_fract_x
 _atom_site_fract_y
 _atom_site_fract_z
 _atom_site_occupancy
  O  O0  1  0.749214  0.924968  0.446117  1
  O  O1  1  0.749214  0.575032  0.053883  1
  O  O2  1  0.750786  0.924968  0.053883  1
  O  O3  1  0.575032  0.053883  0.749214  1
  O  O4  1  0.053883  0.750786  0.924968  1
  O  O5  1  0.053883  0.749214  0.575032  1
  O  O6  1  0.924968  0.446117  0.749214  1
  O  O7  1  0.446117  0.749214  0.924968  1
  O  O8  1  0.924968  0.053883  0.750786  1
  O  O9  1  0.575032  0.446117  0.750786  1
  O  O10  1  0.446117  0.750786  0.575032  1
  O  O11  1  0.750786  0.575032  0.446117  1
  O  O12  1  0.250786  0.075032  0.553882  1
  O  O13  1  0.250786  0.424968  0.946118  1
  O  O14  1  0.249214  0.075032  0.946118  1
  O  O15  1  0.424968  0.946118  0.250786  1
  O  O16  1  0.249214  0.424968  0.553882  1
  O  O17  1  0.553882  0.249214  0.424968  1
  O  O18  1  0.424968  0.553882  0.249214  1
  O  O19  1  0.075032  0.946118  0.249214  1
  O  O20  1  0.946118  0.249214  0.075032  1
  O  O21  1  0.075032  0.553882  0.250786  1
  O  O22  1  0.946118  0.250786  0.424968  1
  O  O23  1  0.553882  0.250786  0.075032  1
  Ca  Ca24  1  0.250001  0.250001  0.250001  1
  Ca  Ca25  1  0.750000  0.750000  0.750000  1
  Cr  Cr26  1  0.500000  0.000000  0.000000  1
  Cr  Cr27  1  0.500000  0.500000  0.500000  1
  Cr  Cr28  1  0.000000  0.000000  0.500000  1
  Cr  Cr29  1  0.000000  0.500000  0.000000  1
  Cu  Cu30  1  0.250001  0.250001  0.750000  1
  Cu  Cu31  1  0.250001  0.750000  0.750000  1
  Cu  Cu32  1  0.750000  0.250001  0.750000  1
  Cu  Cu33  1  0.250001  0.750000  0.250001  1
  Cu  Cu34  1  0.750000  0.250001  0.250001  1
  Cu  Cu35  1  0.750000  0.750000  0.250001  1
  Sb  Sb36  1  0.000000  0.500000  0.500000  1
  Sb  Sb37  1  0.000000  0.000000  0.000000  1
  Sb  Sb38  1  0.500000  0.000000  0.500000  1
  Sb  Sb39  1  0.500000  0.500000  0.000000  1
