# generated using pymatgen
data_Pr2Si2O7
_symmetry_space_group_name_H-M   'P 1'
_cell_length_a   5.50202137
_cell_length_b   8.78318442
_cell_length_c   13.17178125
_cell_angle_alpha   90.00000000
_cell_angle_beta   89.61587415
_cell_angle_gamma   90.00000000
_symmetry_Int_Tables_number   1
_chemical_formula_structural   Pr2Si2O7
_chemical_formula_sum   'Pr8 Si8 O28'
_cell_volume   636.51555831
_cell_formula_units_Z   4
loop_
 _symmetry_equiv_pos_site_id
 _symmetry_equiv_pos_as_xyz
  1  'x, y, z'
loop_
 _atom_site_type_symbol
 _atom_site_label
 _atom_site_symmetry_multiplicity
 _atom_site_fract_x
 _atom_site_fract_y
 _atom_site_fract_z
 _atom_site_occupancy
  O  O0  1  0.129011  0.173253  0.329828  1
  O  O1  1  0.370989  0.673253  0.170172  1
  O  O2  1  0.870989  0.826747  0.670172  1
  O  O3  1  0.629011  0.326747  0.829828  1
  O  O4  1  0.464937  0.981211  0.248319  1
  O  O5  1  0.035063  0.481211  0.251681  1
  O  O6  1  0.535063  0.018789  0.751681  1
  O  O7  1  0.964937  0.518789  0.748319  1
  O  O8  1  0.997474  0.912495  0.260316  1
  O  O9  1  0.502526  0.412495  0.239684  1
  O  O10  1  0.002526  0.087505  0.739684  1
  O  O11  1  0.497474  0.587505  0.760316  1
  O  O12  1  0.355016  0.744797  0.593635  1
  O  O13  1  0.144984  0.244797  0.906365  1
  O  O14  1  0.644984  0.255203  0.406365  1
  O  O15  1  0.855016  0.755203  0.093635  1
  O  O16  1  0.771098  0.578162  0.932212  1
  O  O17  1  0.728902  0.078162  0.567788  1
  O  O18  1  0.228902  0.421838  0.067788  1
  O  O19  1  0.271098  0.921838  0.432212  1
  O  O20  1  0.000399  0.856142  0.919242  1
  O  O21  1  0.499601  0.356142  0.580758  1
  O  O22  1  0.999601  0.143858  0.080758  1
  O  O23  1  0.500399  0.643858  0.419242  1
  O  O24  1  0.528421  0.846770  0.950043  1
  O  O25  1  0.971579  0.346770  0.549957  1
  O  O26  1  0.471579  0.153230  0.049957  1
  O  O27  1  0.028421  0.653230  0.450043  1
  Si  Si28  1  0.219589  0.997225  0.320661  1
  Si  Si29  1  0.280411  0.497225  0.179339  1
  Si  Si30  1  0.780411  0.002775  0.679339  1
  Si  Si31  1  0.719589  0.502775  0.820661  1
  Si  Si32  1  0.280455  0.746745  0.474337  1
  Si  Si33  1  0.219545  0.246745  0.025663  1
  Si  Si34  1  0.719545  0.253255  0.525663  1
  Si  Si35  1  0.780455  0.753255  0.974337  1
  Pr  Pr36  1  0.757880  0.105680  0.910780  1
  Pr  Pr37  1  0.742120  0.605680  0.589220  1
  Pr  Pr38  1  0.242120  0.894320  0.089220  1
  Pr  Pr39  1  0.257880  0.394320  0.410780  1
  Pr  Pr40  1  0.246908  0.312095  0.733399  1
  Pr  Pr41  1  0.253092  0.812095  0.766601  1
  Pr  Pr42  1  0.753092  0.687905  0.266601  1
  Pr  Pr43  1  0.746908  0.187905  0.233399  1
