# generated using pymatgen
data_Ag2P2PbO7
_symmetry_space_group_name_H-M   'P 1'
_cell_length_a   5.50616303
_cell_length_b   7.10518171
_cell_length_c   10.42408391
_cell_angle_alpha   107.91683852
_cell_angle_beta   93.26550110
_cell_angle_gamma   111.31539695
_symmetry_Int_Tables_number   1
_chemical_formula_structural   Ag2P2PbO7
_chemical_formula_sum   'Ag4 P4 Pb2 O14'
_cell_volume   354.87831247
_cell_formula_units_Z   2
loop_
 _symmetry_equiv_pos_site_id
 _symmetry_equiv_pos_as_xyz
  1  'x, y, z'
loop_
 _atom_site_type_symbol
 _atom_site_label
 _atom_site_symmetry_multiplicity
 _atom_site_fract_x
 _atom_site_fract_y
 _atom_site_fract_z
 _atom_site_occupancy
  Ag  Ag0  1  0.663173  0.895998  0.193682  1
  Ag  Ag1  1  0.908263  0.229897  0.973051  1
  Ag  Ag2  1  0.091737  0.770103  0.026949  1
  Ag  Ag3  1  0.336827  0.104002  0.806318  1
  P  P4  1  0.490523  0.364891  0.163399  1
  P  P5  1  0.509477  0.635109  0.836601  1
  P  P6  1  0.729897  0.847296  0.638230  1
  P  P7  1  0.270103  0.152704  0.361770  1
  Pb  Pb8  1  0.856725  0.367221  0.630975  1
  Pb  Pb9  1  0.143275  0.632779  0.369025  1
  O  O10  1  0.781151  0.083730  0.727427  1
  O  O11  1  0.692217  0.839474  0.955719  1
  O  O12  1  0.026407  0.205386  0.340866  1
  O  O13  1  0.216702  0.548502  0.851152  1
  O  O14  1  0.218849  0.916270  0.272573  1
  O  O15  1  0.619496  0.457008  0.806771  1
  O  O16  1  0.380504  0.542992  0.193229  1
  O  O17  1  0.495648  0.695262  0.697466  1
  O  O18  1  0.504352  0.304738  0.302534  1
  O  O19  1  0.612966  0.791957  0.489426  1
  O  O20  1  0.387034  0.208043  0.510574  1
  O  O21  1  0.973593  0.794614  0.659134  1
  O  O22  1  0.783298  0.451498  0.148848  1
  O  O23  1  0.307783  0.160526  0.044281  1
