# generated using pymatgen
data_MnCdF5
_symmetry_space_group_name_H-M   'P 1'
_cell_length_a   5.57732696
_cell_length_b   5.57732695
_cell_length_c   7.92626715
_cell_angle_alpha   97.70847081
_cell_angle_beta   109.35286822
_cell_angle_gamma   109.78096213
_symmetry_Int_Tables_number   1
_chemical_formula_structural   MnCdF5
_chemical_formula_sum   'Mn2 Cd2 F10'
_cell_volume   210.30993041
_cell_formula_units_Z   2
loop_
 _symmetry_equiv_pos_site_id
 _symmetry_equiv_pos_as_xyz
  1  'x, y, z'
loop_
 _atom_site_type_symbol
 _atom_site_label
 _atom_site_symmetry_multiplicity
 _atom_site_fract_x
 _atom_site_fract_y
 _atom_site_fract_z
 _atom_site_occupancy
  F  F0  1  0.355658  0.105658  0.250000  1
  F  F1  1  0.644342  0.894342  0.750000  1
  F  F2  1  0.587753  0.752224  0.379049  1
  F  F3  1  0.873174  0.208703  0.120951  1
  F  F4  1  0.754320  0.690631  0.036375  1
  F  F5  1  0.154256  0.717945  0.463625  1
  F  F6  1  0.245680  0.309369  0.963625  1
  F  F7  1  0.845744  0.282055  0.536375  1
  F  F8  1  0.126826  0.791297  0.879049  1
  F  F9  1  0.412247  0.247776  0.620951  1
  Mn  Mn10  1  0.500000  0.000000  0.500000  1
  Mn  Mn11  1  0.000000  0.000000  0.000000  1
  Cd  Cd12  1  0.708456  0.458456  0.250000  1
  Cd  Cd13  1  0.291544  0.541544  0.750000  1
