# generated using pymatgen
data_NaCu5C6
_symmetry_space_group_name_H-M   'P 1'
_cell_length_a   7.21222507
_cell_length_b   7.37401507
_cell_length_c   10.88064591
_cell_angle_alpha   90.00000000
_cell_angle_beta   90.00000000
_cell_angle_gamma   90.00000000
_symmetry_Int_Tables_number   1
_chemical_formula_structural   NaCu5C6
_chemical_formula_sum   'Na4 Cu20 C24'
_cell_volume   578.66600460
_cell_formula_units_Z   4
loop_
 _symmetry_equiv_pos_site_id
 _symmetry_equiv_pos_as_xyz
  1  'x, y, z'
loop_
 _atom_site_type_symbol
 _atom_site_label
 _atom_site_symmetry_multiplicity
 _atom_site_fract_x
 _atom_site_fract_y
 _atom_site_fract_z
 _atom_site_occupancy
  Na  Na0  1  0.321328  0.059844  0.750000  1
  Na  Na1  1  0.821328  0.440156  0.250000  1
  Na  Na2  1  0.178672  0.559844  0.750000  1
  Na  Na3  1  0.678672  0.940156  0.250000  1
  Cu  Cu4  1  0.073700  0.098739  0.250000  1
  Cu  Cu5  1  0.573700  0.401261  0.750000  1
  Cu  Cu6  1  0.426300  0.598739  0.250000  1
  Cu  Cu7  1  0.926300  0.901261  0.750000  1
  Cu  Cu8  1  0.183070  0.052099  0.461130  1
  Cu  Cu9  1  0.683070  0.447901  0.538870  1
  Cu  Cu10  1  0.316930  0.552099  0.038870  1
  Cu  Cu11  1  0.816930  0.947901  0.961130  1
  Cu  Cu12  1  0.816930  0.947901  0.538870  1
  Cu  Cu13  1  0.316930  0.552099  0.461130  1
  Cu  Cu14  1  0.683070  0.447901  0.961130  1
  Cu  Cu15  1  0.183070  0.052099  0.038870  1
  Cu  Cu16  1  0.490968  0.195228  0.448179  1
  Cu  Cu17  1  0.990968  0.304772  0.551821  1
  Cu  Cu18  1  0.009032  0.695228  0.051821  1
  Cu  Cu19  1  0.509032  0.804772  0.948179  1
  Cu  Cu20  1  0.509032  0.804772  0.551821  1
  Cu  Cu21  1  0.009032  0.695228  0.448179  1
  Cu  Cu22  1  0.990968  0.304772  0.948179  1
  Cu  Cu23  1  0.490968  0.195228  0.051821  1
  C  C24  1  0.760135  0.196405  0.061973  1
  C  C25  1  0.260135  0.303595  0.938027  1
  C  C26  1  0.739865  0.696405  0.438027  1
  C  C27  1  0.239865  0.803595  0.561973  1
  C  C28  1  0.239865  0.803595  0.938027  1
  C  C29  1  0.739865  0.696405  0.061973  1
  C  C30  1  0.260135  0.303595  0.561973  1
  C  C31  1  0.760135  0.196405  0.438027  1
  C  C32  1  0.917297  0.138897  0.105869  1
  C  C33  1  0.417297  0.361103  0.894131  1
  C  C34  1  0.582703  0.638897  0.394131  1
  C  C35  1  0.082703  0.861103  0.605869  1
  C  C36  1  0.082703  0.861103  0.894131  1
  C  C37  1  0.582703  0.638897  0.105869  1
  C  C38  1  0.417297  0.361103  0.605869  1
  C  C39  1  0.917297  0.138897  0.394131  1
  C  C40  1  0.353682  0.085418  0.190862  1
  C  C41  1  0.853682  0.414582  0.809138  1
  C  C42  1  0.146318  0.585418  0.309138  1
  C  C43  1  0.646318  0.914582  0.690862  1
  C  C44  1  0.646318  0.914582  0.809138  1
  C  C45  1  0.146318  0.585418  0.190862  1
  C  C46  1  0.853682  0.414582  0.690862  1
  C  C47  1  0.353682  0.085418  0.309138  1
