# generated using pymatgen
data_Ge3(BiTe3)2
_symmetry_space_group_name_H-M   'P 1'
_cell_length_a   22.03874194
_cell_length_b   22.03874194
_cell_length_c   22.03874245
_cell_angle_alpha   11.24258902
_cell_angle_beta   11.24258895
_cell_angle_gamma   11.24258869
_symmetry_Int_Tables_number   1
_chemical_formula_structural   Ge3(BiTe3)2
_chemical_formula_sum   'Ge3 Bi2 Te6'
_cell_volume   353.49937911
_cell_formula_units_Z   1
loop_
 _symmetry_equiv_pos_site_id
 _symmetry_equiv_pos_as_xyz
  1  'x, y, z'
loop_
 _atom_site_type_symbol
 _atom_site_label
 _atom_site_symmetry_multiplicity
 _atom_site_fract_x
 _atom_site_fract_y
 _atom_site_fract_z
 _atom_site_occupancy
  Te  Te0  1  0.084550  0.084550  0.084550  1
  Te  Te1  1  0.190622  0.190622  0.190622  1
  Te  Te2  1  0.363325  0.363325  0.363325  1
  Te  Te3  1  0.637474  0.637474  0.637474  1
  Te  Te4  1  0.808349  0.808349  0.808349  1
  Te  Te5  1  0.911345  0.911345  0.911345  1
  Bi  Bi6  1  0.002583  0.002583  0.002583  1
  Bi  Bi7  1  0.271761  0.271761  0.271761  1
  Ge  Ge8  1  0.454042  0.454042  0.454042  1
  Ge  Ge9  1  0.544712  0.544712  0.544712  1
  Ge  Ge10  1  0.730237  0.730237  0.730237  1
