# generated using pymatgen
data_Mg(GaO2)2
_symmetry_space_group_name_H-M   'P 1'
_cell_length_a   5.93530033
_cell_length_b   5.97834310
_cell_length_c   23.77311535
_cell_angle_alpha   59.80464084
_cell_angle_beta   59.77682991
_cell_angle_gamma   59.75981150
_symmetry_Int_Tables_number   1
_chemical_formula_structural   Mg(GaO2)2
_chemical_formula_sum   'Mg8 Ga16 O32'
_cell_volume   593.50459675
_cell_formula_units_Z   8
loop_
 _symmetry_equiv_pos_site_id
 _symmetry_equiv_pos_as_xyz
  1  'x, y, z'
loop_
 _atom_site_type_symbol
 _atom_site_label
 _atom_site_symmetry_multiplicity
 _atom_site_fract_x
 _atom_site_fract_y
 _atom_site_fract_z
 _atom_site_occupancy
  Ga  Ga0  1  0.265210  0.244246  0.061575  1
  Ga  Ga1  1  0.265649  0.243945  0.311615  1
  Ga  Ga2  1  0.986243  0.007467  0.499705  1
  Ga  Ga3  1  0.629586  0.629251  0.027978  1
  Ga  Ga4  1  0.629609  0.115331  0.156664  1
  Ga  Ga5  1  0.629609  0.628403  0.156664  1
  Ga  Ga6  1  0.991307  0.011693  0.746327  1
  Ga  Ga7  1  0.629766  0.628271  0.278423  1
  Ga  Ga8  1  0.260038  0.239323  0.565329  1
  Ga  Ga9  1  0.625032  0.118303  0.408022  1
  Ga  Ga10  1  0.625032  0.624577  0.408022  1
  Ga  Ga11  1  0.260671  0.240220  0.814722  1
  Ga  Ga12  1  0.624608  0.124398  0.656517  1
  Ga  Ga13  1  0.624608  0.624924  0.656517  1
  Ga  Ga14  1  0.628629  0.121651  0.905352  1
  Ga  Ga15  1  0.628629  0.628313  0.905352  1
  Mg  Mg16  1  0.990955  0.006962  0.998780  1
  Mg  Mg17  1  0.985523  0.002584  0.252327  1
  Mg  Mg18  1  0.120240  0.626775  0.156553  1
  Mg  Mg19  1  0.121532  0.624080  0.407577  1
  Mg  Mg20  1  0.124692  0.624907  0.656373  1
  Mg  Mg21  1  0.624858  0.623981  0.531795  1
  Mg  Mg22  1  0.123831  0.627488  0.905298  1
  Mg  Mg23  1  0.625271  0.624600  0.781382  1
  O  O24  1  0.390621  0.379344  0.094545  1
  O  O25  1  0.390754  0.378131  0.213246  1
  O  O26  1  0.390621  0.851856  0.094545  1
  O  O27  1  0.859833  0.380317  0.094883  1
  O  O28  1  0.390498  0.379761  0.344611  1
  O  O29  1  0.397560  0.867727  0.216747  1
  O  O30  1  0.390781  0.375825  0.464392  1
  O  O31  1  0.390498  0.851296  0.344611  1
  O  O32  1  0.853638  0.405920  0.217545  1
  O  O33  1  0.853710  0.871830  0.100657  1
  O  O34  1  0.859661  0.380723  0.344723  1
  O  O35  1  0.853638  0.870262  0.217545  1
  O  O36  1  0.382301  0.874990  0.466930  1
  O  O37  1  0.387300  0.372027  0.596813  1
  O  O38  1  0.387647  0.376033  0.715072  1
  O  O39  1  0.387300  0.853423  0.596813  1
  O  O40  1  0.863737  0.391585  0.466842  1
  O  O41  1  0.846512  0.866738  0.355003  1
  O  O42  1  0.861287  0.375514  0.596921  1
  O  O43  1  0.863737  0.877312  0.466842  1
  O  O44  1  0.390203  0.874242  0.715328  1
  O  O45  1  0.387021  0.370839  0.847041  1
  O  O46  1  0.388006  0.378026  0.963986  1
  O  O47  1  0.862263  0.397743  0.715476  1
  O  O48  1  0.387021  0.853977  0.847041  1
  O  O49  1  0.860346  0.872884  0.598471  1
  O  O50  1  0.861555  0.374317  0.847453  1
  O  O51  1  0.862263  0.878090  0.715476  1
  O  O52  1  0.405059  0.867366  0.965053  1
  O  O53  1  0.853000  0.412079  0.966004  1
  O  O54  1  0.867500  0.877228  0.844511  1
  O  O55  1  0.853000  0.870905  0.966004  1
