# generated using pymatgen
data_PrAl22O34
_symmetry_space_group_name_H-M   'P 1'
_cell_length_a   11.80841957
_cell_length_b   23.61710506
_cell_length_c   34.49858978
_cell_angle_alpha   18.57928891
_cell_angle_beta   24.67498288
_cell_angle_gamma   27.68533432
_symmetry_Int_Tables_number   1
_chemical_formula_structural   PrAl22O34
_chemical_formula_sum   'Pr2 Al44 O68'
_cell_volume   1258.39492095
_cell_formula_units_Z   2
loop_
 _symmetry_equiv_pos_site_id
 _symmetry_equiv_pos_as_xyz
  1  'x, y, z'
loop_
 _atom_site_type_symbol
 _atom_site_label
 _atom_site_symmetry_multiplicity
 _atom_site_fract_x
 _atom_site_fract_y
 _atom_site_fract_z
 _atom_site_occupancy
  Al  Al0  1  1.000818  -0.000358  0.999240  1
  Al  Al1  1  0.099605  0.272645  0.049979  1
  Al  Al2  1  0.592982  0.024643  0.047054  1
  Al  Al3  1  -0.000818  0.500358  0.000760  1
  Al  Al4  1  0.349556  0.086222  0.176267  1
  Al  Al5  1  0.444625  0.111467  0.227829  1
  Al  Al6  1  0.543748  0.136022  0.277641  1
  Al  Al7  1  0.093511  0.020461  0.549651  1
  Al  Al8  1  0.093233  0.400232  0.296755  1
  Al  Al9  1  0.095218  0.772061  0.048102  1
  Al  Al10  1  0.591436  0.522418  0.049293  1
  Al  Al11  1  0.000000  0.250000  0.500000  1
  Al  Al12  1  0.646652  0.162331  0.325762  1
  Al  Al13  1  0.348564  0.590091  0.173851  1
  Al  Al14  1  0.405168  0.225376  0.449893  1
  Al  Al15  1  0.903073  0.350456  0.204310  1
  Al  Al16  1  0.450689  0.617161  0.222117  1
  Al  Al17  1  0.548960  0.641270  0.272477  1
  Al  Al18  1  0.096927  0.149544  0.795690  1
  Al  Al19  1  0.096864  0.523537  0.546744  1
  Al  Al20  1  0.094424  0.900530  0.295933  1
  Al  Al21  1  0.594833  0.274624  0.550107  1
  Al  Al22  1  1.000000  0.750000  0.500000  1
  Al  Al23  1  0.650482  0.663658  0.324151  1
  Al  Al24  1  0.353348  0.337669  0.674238  1
  Al  Al25  1  0.407219  0.726217  0.452055  1
  Al  Al26  1  0.906490  0.479539  0.450349  1
  Al  Al27  1  0.906767  0.099768  0.703245  1
  Al  Al28  1  0.902703  0.852040  0.202991  1
  Al  Al29  1  0.456251  0.363978  0.722359  1
  Al  Al30  1  0.555375  0.388533  0.772171  1
  Al  Al31  1  0.097297  0.647960  0.797009  1
  Al  Al32  1  0.592781  0.773783  0.547945  1
  Al  Al33  1  0.650443  0.413778  0.823733  1
  Al  Al34  1  0.349518  0.836342  0.675848  1
  Al  Al35  1  0.407018  0.475358  0.952946  1
  Al  Al36  1  0.900395  0.227355  0.950021  1
  Al  Al37  1  0.905576  0.599470  0.704067  1
  Al  Al38  1  0.903136  0.976463  0.453256  1
  Al  Al39  1  0.451040  0.858730  0.727523  1
  Al  Al40  1  0.549311  0.882839  0.777883  1
  Al  Al41  1  0.651436  0.909909  0.826149  1
  Al  Al42  1  0.408564  0.977582  0.950707  1
  Al  Al43  1  0.904782  0.727940  0.951898  1
  O  O44  1  0.091723  0.030250  0.045005  1
  O  O45  1  0.296341  0.073537  0.148528  1
  O  O46  1  0.193004  0.311062  0.095345  1
  O  O47  1  0.720546  0.049364  0.093317  1
  O  O48  1  0.093898  0.522798  0.048258  1
  O  O49  1  0.091645  0.148932  0.300656  1
  O  O50  1  0.609032  0.274619  0.045189  1
  O  O51  1  0.563271  0.140675  0.218415  1
  O  O52  1  0.400796  0.350222  0.203270  1
  O  O53  1  0.909268  0.105675  0.195155  1
  O  O54  1  0.295629  0.574764  0.148001  1
  O  O55  1  0.275748  0.202251  0.406135  1
  O  O56  1  0.811880  0.333818  0.140535  1
  O  O57  1  0.192112  0.063124  0.593704  1
  O  O58  1  0.190321  0.815805  0.092941  1
  O  O59  1  0.191710  0.414824  0.359332  1
  O  O60  1  0.717283  0.546304  0.097124  1
  O  O61  1  0.702420  0.176306  0.351811  1
  O  O62  1  0.105573  0.273370  0.545052  1
  O  O63  1  0.096693  0.651887  0.296286  1
  O  O64  1  0.593865  0.392930  0.304806  1
  O  O65  1  0.594599  0.032019  0.545044  1
  O  O66  1  0.598611  0.777714  0.046035  1
  O  O67  1  0.500590  0.577318  0.281633  1
  O  O68  1  0.405401  0.467981  0.454956  1
  O  O69  1  0.406135  0.107070  0.695194  1
  O  O70  1  0.400688  0.854132  0.199724  1
  O  O71  1  0.902674  0.601587  0.201675  1
  O  O72  1  0.894427  0.226630  0.454949  1
  O  O73  1  0.297580  0.323694  0.648189  1
  O  O74  1  0.282182  0.700230  0.405591  1
  O  O75  1  0.807888  0.436877  0.406296  1
  O  O76  1  0.809807  0.835604  0.139862  1
  O  O77  1  0.808289  0.085176  0.640668  1
  O  O78  1  0.188120  0.166182  0.859465  1
  O  O79  1  0.189840  0.560648  0.596669  1
  O  O80  1  0.189052  0.914380  0.360360  1
  O  O81  1  0.724252  0.297749  0.593865  1
  O  O82  1  0.704658  0.675877  0.351632  1
  O  O83  1  0.093805  0.772883  0.548179  1
  O  O84  1  0.090732  0.394325  0.804845  1
  O  O85  1  0.599203  0.149778  0.796730  1
  O  O86  1  0.594652  0.899515  0.298347  1
  O  O87  1  0.601289  0.526194  0.546168  1
  O  O88  1  0.436729  0.359325  0.781584  1
  O  O89  1  0.390968  0.225382  0.954811  1
  O  O90  1  0.405348  0.600485  0.701653  1
  O  O91  1  0.398711  0.973806  0.453831  1
  O  O92  1  0.908356  0.351068  0.699344  1
  O  O93  1  0.906195  0.727117  0.451821  1
  O  O94  1  0.295342  0.824123  0.648368  1
  O  O95  1  0.279454  0.450636  0.906682  1
  O  O96  1  0.806996  0.188938  0.904655  1
  O  O97  1  0.810948  0.585620  0.639640  1
  O  O98  1  0.810160  0.939352  0.403331  1
  O  O99  1  0.190193  0.664397  0.860138  1
  O  O100  1  0.717818  0.799770  0.594409  1
  O  O101  1  0.703659  0.426463  0.851472  1
  O  O102  1  0.097326  0.898413  0.798326  1
  O  O103  1  0.599312  0.645868  0.800276  1
  O  O104  1  0.499410  0.922682  0.718367  1
  O  O105  1  0.401389  0.722286  0.953965  1
  O  O106  1  0.903307  0.848113  0.703714  1
  O  O107  1  0.908276  0.469750  0.954995  1
  O  O108  1  0.282717  0.953696  0.902875  1
  O  O109  1  0.809679  0.684195  0.907059  1
  O  O110  1  0.704371  0.925236  0.851999  1
  O  O111  1  0.906102  0.977202  0.951742  1
  Pr  Pr112  1  0.000000  0.250000  1.000000  1
  Pr  Pr113  1  0.499999  0.250000  0.500000  1
