# generated using pymatgen
data_Hf3Tl2(CuSe4)2
_symmetry_space_group_name_H-M   'P 1'
_cell_length_a   3.82185802
_cell_length_b   7.70729672
_cell_length_c   13.39510418
_cell_angle_alpha   82.06573367
_cell_angle_beta   81.78201786
_cell_angle_gamma   75.64207795
_symmetry_Int_Tables_number   1
_chemical_formula_structural   Hf3Tl2(CuSe4)2
_chemical_formula_sum   'Hf3 Tl2 Cu2 Se8'
_cell_volume   376.14771270
_cell_formula_units_Z   1
loop_
 _symmetry_equiv_pos_site_id
 _symmetry_equiv_pos_as_xyz
  1  'x, y, z'
loop_
 _atom_site_type_symbol
 _atom_site_label
 _atom_site_symmetry_multiplicity
 _atom_site_fract_x
 _atom_site_fract_y
 _atom_site_fract_z
 _atom_site_occupancy
  Hf  Hf0  1  0.344939  0.929952  0.380173  1
  Hf  Hf1  1  0.655061  0.070048  0.619827  1
  Hf  Hf2  1  0.500000  0.000000  0.000000  1
  Tl  Tl3  1  0.668572  0.464568  0.198373  1
  Tl  Tl4  1  0.331428  0.535432  0.801627  1
  Cu  Cu5  1  0.960271  0.883413  0.197979  1
  Cu  Cu6  1  0.039729  0.116587  0.802021  1
  Se  Se7  1  0.107402  0.745743  0.039606  1
  Se  Se8  1  0.980096  0.684981  0.355440  1
  Se  Se9  1  0.019904  0.315019  0.644560  1
  Se  Se10  1  0.295054  0.828077  0.581369  1
  Se  Se11  1  0.704946  0.171923  0.418631  1
  Se  Se12  1  0.642783  0.904341  0.809201  1
  Se  Se13  1  0.357217  0.095659  0.190799  1
  Se  Se14  1  0.892598  0.254257  0.960394  1
