# generated using pymatgen
data_BaNb2Bi2O9
_symmetry_space_group_name_H-M   'P 1'
_cell_length_a   5.76026499
_cell_length_b   5.72365262
_cell_length_c   13.05287189
_cell_angle_alpha   102.66491162
_cell_angle_beta   90.00000000
_cell_angle_gamma   90.00000000
_symmetry_Int_Tables_number   1
_chemical_formula_structural   BaNb2Bi2O9
_chemical_formula_sum   'Ba2 Nb4 Bi4 O18'
_cell_volume   419.87915133
_cell_formula_units_Z   2
loop_
 _symmetry_equiv_pos_site_id
 _symmetry_equiv_pos_as_xyz
  1  'x, y, z'
loop_
 _atom_site_type_symbol
 _atom_site_label
 _atom_site_symmetry_multiplicity
 _atom_site_fract_x
 _atom_site_fract_y
 _atom_site_fract_z
 _atom_site_occupancy
  Ba  Ba0  1  0.464792  0.248286  1.000000  1
  Ba  Ba1  1  0.964792  0.751714  0.000000  1
  Nb  Nb2  1  0.477139  0.833739  0.170892  1
  Nb  Nb3  1  0.977139  0.337153  0.170892  1
  Nb  Nb4  1  0.477139  0.662847  0.829108  1
  Nb  Nb5  1  0.977139  0.166261  0.829108  1
  Bi  Bi6  1  0.072794  0.924917  0.402831  1
  Bi  Bi7  1  0.572794  0.477913  0.402831  1
  Bi  Bi8  1  0.572794  0.075083  0.597169  1
  Bi  Bi9  1  0.072794  0.522087  0.597169  1
  O  O10  1  0.768480  0.766242  0.503015  1
  O  O11  1  0.200902  0.421471  0.849508  1
  O  O12  1  0.433486  0.546634  0.682065  1
  O  O13  1  0.700902  0.428038  0.849508  1
  O  O14  1  0.197090  0.080605  0.166215  1
  O  O15  1  0.197090  0.914389  0.833785  1
  O  O16  1  0.933486  0.135432  0.682065  1
  O  O17  1  0.933486  0.453366  0.317935  1
  O  O18  1  0.697090  0.085611  0.166215  1
  O  O19  1  0.697090  0.919395  0.833785  1
  O  O20  1  0.200902  0.571962  0.150492  1
  O  O21  1  0.700902  0.578529  0.150492  1
  O  O22  1  0.268480  0.233758  0.496985  1
  O  O23  1  0.768480  0.263227  0.496985  1
  O  O24  1  0.268480  0.736773  0.503015  1
  O  O25  1  0.433486  0.864568  0.317935  1
  O  O26  1  0.947426  0.235053  0.000000  1
  O  O27  1  0.447426  0.764947  1.000000  1
