# generated using pymatgen
data_KCoAu3(CN)6
_symmetry_space_group_name_H-M   'P 1'
_cell_length_a   7.05334151
_cell_length_b   7.05334172
_cell_length_c   7.37102959
_cell_angle_alpha   90.00000000
_cell_angle_beta   90.00000000
_cell_angle_gamma   119.99999906
_symmetry_Int_Tables_number   1
_chemical_formula_structural   KCoAu3(CN)6
_chemical_formula_sum   'K1 Co1 Au3 C6 N6'
_cell_volume   317.57669713
_cell_formula_units_Z   1
loop_
 _symmetry_equiv_pos_site_id
 _symmetry_equiv_pos_as_xyz
  1  'x, y, z'
loop_
 _atom_site_type_symbol
 _atom_site_label
 _atom_site_symmetry_multiplicity
 _atom_site_fract_x
 _atom_site_fract_y
 _atom_site_fract_z
 _atom_site_occupancy
  K  K0  1  0.333333  0.666667  0.500000  1
  Co  Co1  1  0.000000  0.000000  0.500000  1
  Au  Au2  1  0.506238  0.012476  0.000000  1
  Au  Au3  1  0.987524  0.493762  0.000000  1
  Au  Au4  1  0.506238  0.493762  0.000000  1
  C  C5  1  0.672895  0.007916  0.216961  1
  C  C6  1  0.335021  0.007916  0.783039  1
  C  C7  1  0.992084  0.664979  0.216961  1
  C  C8  1  0.335021  0.327105  0.216961  1
  C  C9  1  0.992084  0.327105  0.783039  1
  C  C10  1  0.672895  0.664979  0.783039  1
  N  N11  1  0.999219  0.774762  0.339315  1
  N  N12  1  0.775543  0.000781  0.339315  1
  N  N13  1  0.225238  0.224457  0.339315  1
  N  N14  1  0.775543  0.774762  0.660685  1
  N  N15  1  0.225238  0.000781  0.660685  1
  N  N16  1  0.999219  0.224457  0.660685  1
