# generated using pymatgen
data_Pr3(AgSn)4
_symmetry_space_group_name_H-M   'P 1'
_cell_length_a   3.73444174
_cell_length_b   8.91642817
_cell_length_c   10.30611931
_cell_angle_alpha   115.28117292
_cell_angle_beta   100.44625585
_cell_angle_gamma   90.02870584
_symmetry_Int_Tables_number   1
_chemical_formula_structural   Pr3(AgSn)4
_chemical_formula_sum   'Pr3 Ag4 Sn4'
_cell_volume   303.98657949
_cell_formula_units_Z   1
loop_
 _symmetry_equiv_pos_site_id
 _symmetry_equiv_pos_as_xyz
  1  'x, y, z'
loop_
 _atom_site_type_symbol
 _atom_site_label
 _atom_site_symmetry_multiplicity
 _atom_site_fract_x
 _atom_site_fract_y
 _atom_site_fract_z
 _atom_site_occupancy
  Pr  Pr0  1  0.170781  0.168926  0.341521  1
  Pr  Pr1  1  0.000000  0.500000  0.000000  1
  Pr  Pr2  1  0.829219  0.831074  0.658479  1
  Ag  Ag3  1  0.617505  0.401301  0.235247  1
  Ag  Ag4  1  0.381811  0.167300  0.764546  1
  Ag  Ag5  1  0.618189  0.832700  0.235454  1
  Ag  Ag6  1  0.382495  0.598699  0.764753  1
  Sn  Sn7  1  0.818110  0.319376  0.636590  1
  Sn  Sn8  1  0.999535  0.842816  0.000353  1
  Sn  Sn9  1  0.181890  0.680624  0.363410  1
  Sn  Sn10  1  0.000465  0.157184  0.999647  1
