# generated using pymatgen
data_CsV3(TeO6)2
_symmetry_space_group_name_H-M   'P 1'
_cell_length_a   7.27519083
_cell_length_b   7.27519091
_cell_length_c   11.86958073
_cell_angle_alpha   90.00000000
_cell_angle_beta   90.00000000
_cell_angle_gamma   119.99999554
_symmetry_Int_Tables_number   1
_chemical_formula_structural   CsV3(TeO6)2
_chemical_formula_sum   'Cs2 V6 Te4 O24'
_cell_volume   544.07004263
_cell_formula_units_Z   2
loop_
 _symmetry_equiv_pos_site_id
 _symmetry_equiv_pos_as_xyz
  1  'x, y, z'
loop_
 _atom_site_type_symbol
 _atom_site_label
 _atom_site_symmetry_multiplicity
 _atom_site_fract_x
 _atom_site_fract_y
 _atom_site_fract_z
 _atom_site_occupancy
  Cs  Cs0  1  0.666667  0.333333  0.514285  1
  Cs  Cs1  1  0.333333  0.666667  0.014285  1
  V  V2  1  0.870188  0.204204  0.835242  1
  V  V3  1  0.795796  0.665984  0.835242  1
  V  V4  1  0.665984  0.870188  0.335242  1
  V  V5  1  0.334016  0.129812  0.835242  1
  V  V6  1  0.204204  0.334016  0.335242  1
  V  V7  1  0.129812  0.795796  0.335242  1
  Te  Te8  1  0.333333  0.666667  0.574525  1
  Te  Te9  1  0.666667  0.333333  0.074525  1
  Te  Te10  1  0.000000  0.000000  0.601714  1
  Te  Te11  1  0.000000  0.000000  0.101714  1
  O  O12  1  0.188205  0.400430  0.500076  1
  O  O13  1  0.129531  0.882181  0.867116  1
  O  O14  1  0.856615  0.120880  0.681874  1
  O  O15  1  0.914938  0.454653  0.814507  1
  O  O16  1  0.879120  0.735736  0.681874  1
  O  O17  1  0.811795  0.599570  0.000076  1
  O  O18  1  0.400430  0.212226  0.000076  1
  O  O19  1  0.212226  0.811795  0.500076  1
  O  O20  1  0.787774  0.188205  0.000076  1
  O  O21  1  0.117819  0.247350  0.867116  1
  O  O22  1  0.085062  0.545347  0.314507  1
  O  O23  1  0.545347  0.460285  0.814507  1
  O  O24  1  0.752650  0.870469  0.867116  1
  O  O25  1  0.247350  0.129531  0.367116  1
  O  O26  1  0.454653  0.539715  0.314507  1
  O  O27  1  0.882181  0.752650  0.367116  1
  O  O28  1  0.539715  0.085062  0.814507  1
  O  O29  1  0.460285  0.914938  0.314507  1
  O  O30  1  0.143385  0.879120  0.181874  1
  O  O31  1  0.735736  0.856615  0.181874  1
  O  O32  1  0.264264  0.143385  0.681874  1
  O  O33  1  0.599570  0.787774  0.500076  1
  O  O34  1  0.120880  0.264264  0.181874  1
  O  O35  1  0.870469  0.117819  0.367116  1
