# generated using pymatgen
data_CsU6F25
_symmetry_space_group_name_H-M   'P 1'
_cell_length_a   8.22002125
_cell_length_b   8.22002143
_cell_length_c   16.67781694
_cell_angle_alpha   90.00000000
_cell_angle_beta   90.00000000
_cell_angle_gamma   119.99999925
_symmetry_Int_Tables_number   1
_chemical_formula_structural   CsU6F25
_chemical_formula_sum   'Cs2 U12 F50'
_cell_volume   975.92339137
_cell_formula_units_Z   2
loop_
 _symmetry_equiv_pos_site_id
 _symmetry_equiv_pos_as_xyz
  1  'x, y, z'
loop_
 _atom_site_type_symbol
 _atom_site_label
 _atom_site_symmetry_multiplicity
 _atom_site_fract_x
 _atom_site_fract_y
 _atom_site_fract_z
 _atom_site_occupancy
  Cs  Cs0  1  0.666667  0.333333  0.250000  1
  Cs  Cs1  1  0.333333  0.666667  0.750000  1
  U  U2  1  0.833431  0.166569  0.612373  1
  U  U3  1  0.833431  0.666861  0.887627  1
  U  U4  1  0.666861  0.833431  0.387627  1
  U  U5  1  0.166569  0.833431  0.387627  1
  U  U6  1  0.333139  0.166569  0.612373  1
  U  U7  1  0.333139  0.166569  0.887627  1
  U  U8  1  0.166569  0.833431  0.112373  1
  U  U9  1  0.166569  0.333139  0.112373  1
  U  U10  1  0.833431  0.666861  0.612373  1
  U  U11  1  0.166569  0.333139  0.387627  1
  U  U12  1  0.833431  0.166569  0.887627  1
  U  U13  1  0.666861  0.833431  0.112373  1
  F  F14  1  0.666667  0.333333  0.934494  1
  F  F15  1  0.724161  0.862080  0.658657  1
  F  F16  1  0.862080  0.724161  0.341343  1
  F  F17  1  0.482384  0.517616  0.355898  1
  F  F18  1  0.367873  0.183936  0.750000  1
  F  F19  1  0.137920  0.862080  0.841343  1
  F  F20  1  0.320670  0.000000  0.500000  1
  F  F21  1  0.000000  0.000000  0.927606  1
  F  F22  1  0.482384  0.964767  0.144102  1
  F  F23  1  0.333333  0.666667  0.434494  1
  F  F24  1  0.816064  0.632127  0.750000  1
  F  F25  1  0.320670  0.000000  0.000000  1
  F  F26  1  0.517616  0.035233  0.644102  1
  F  F27  1  0.000000  0.000000  0.427606  1
  F  F28  1  0.679330  0.000000  0.500000  1
  F  F29  1  0.862080  0.724161  0.158657  1
  F  F30  1  0.000000  0.000000  0.072394  1
  F  F31  1  0.816064  0.183936  0.750000  1
  F  F32  1  0.275839  0.137920  0.341343  1
  F  F33  1  0.183936  0.816064  0.250000  1
  F  F34  1  0.517616  0.482384  0.644102  1
  F  F35  1  0.964767  0.482384  0.855898  1
  F  F36  1  1.000000  0.320670  0.500000  1
  F  F37  1  0.137920  0.862080  0.658657  1
  F  F38  1  0.482384  0.517616  0.144102  1
  F  F39  1  0.035233  0.517616  0.355898  1
  F  F40  1  1.000000  0.320670  0.000000  1
  F  F41  1  0.333333  0.666667  0.065506  1
  F  F42  1  0.000000  0.000000  0.572394  1
  F  F43  1  0.183936  0.367873  0.250000  1
  F  F44  1  0.035233  0.517616  0.144102  1
  F  F45  1  0.862080  0.137920  0.341343  1
  F  F46  1  0.964767  0.482384  0.644102  1
  F  F47  1  0.517616  0.482384  0.855898  1
  F  F48  1  0.679330  0.679330  0.500000  1
  F  F49  1  0.000000  0.679330  0.000000  1
  F  F50  1  0.320670  0.320670  0.000000  1
  F  F51  1  0.137920  0.275839  0.841343  1
  F  F52  1  0.517616  0.035233  0.855898  1
  F  F53  1  0.482384  0.964767  0.355898  1
  F  F54  1  0.320670  0.320670  0.500000  1
  F  F55  1  0.679330  0.679330  0.000000  1
  F  F56  1  0.632127  0.816064  0.250000  1
  F  F57  1  0.862080  0.137920  0.158657  1
  F  F58  1  0.275839  0.137920  0.158657  1
  F  F59  1  0.137920  0.275839  0.658657  1
  F  F60  1  0.000000  0.679330  0.500000  1
  F  F61  1  0.666667  0.333333  0.565506  1
  F  F62  1  0.679330  0.000000  0.000000  1
  F  F63  1  0.724161  0.862080  0.841343  1
