# generated using pymatgen
data_Rb3Ti3(PO4)5
_symmetry_space_group_name_H-M   'P 1'
_cell_length_a   6.37505826
_cell_length_b   15.08531782
_cell_length_c   18.67948571
_cell_angle_alpha   90.00000000
_cell_angle_beta   90.00000000
_cell_angle_gamma   90.00000000
_symmetry_Int_Tables_number   1
_chemical_formula_structural   Rb3Ti3(PO4)5
_chemical_formula_sum   'Rb12 Ti12 P20 O80'
_cell_volume   1796.40203074
_cell_formula_units_Z   4
loop_
 _symmetry_equiv_pos_site_id
 _symmetry_equiv_pos_as_xyz
  1  'x, y, z'
loop_
 _atom_site_type_symbol
 _atom_site_label
 _atom_site_symmetry_multiplicity
 _atom_site_fract_x
 _atom_site_fract_y
 _atom_site_fract_z
 _atom_site_occupancy
  Rb  Rb0  1  0.633001  0.472225  0.150944  1
  Rb  Rb1  1  0.659530  0.750000  0.173356  1
  Rb  Rb2  1  0.366999  0.027775  0.650944  1
  Rb  Rb3  1  0.633001  0.527775  0.349056  1
  Rb  Rb4  1  0.366999  0.527775  0.849056  1
  Rb  Rb5  1  0.633001  0.027775  0.150944  1
  Rb  Rb6  1  0.633001  0.972225  0.349056  1
  Rb  Rb7  1  0.659530  0.250000  0.326644  1
  Rb  Rb8  1  0.340470  0.750000  0.673356  1
  Rb  Rb9  1  0.340470  0.250000  0.826644  1
  Rb  Rb10  1  0.366999  0.972225  0.849056  1
  Rb  Rb11  1  0.366999  0.472225  0.650944  1
  Ti  Ti12  1  0.254723  0.250000  0.146926  1
  Ti  Ti13  1  0.756419  0.368203  0.952883  1
  Ti  Ti14  1  0.756419  0.631797  0.547117  1
  Ti  Ti15  1  0.243581  0.131797  0.452883  1
  Ti  Ti16  1  0.756419  0.868203  0.547117  1
  Ti  Ti17  1  0.254723  0.750000  0.353074  1
  Ti  Ti18  1  0.243581  0.631797  0.047117  1
  Ti  Ti19  1  0.243581  0.368203  0.452883  1
  Ti  Ti20  1  0.745277  0.750000  0.853074  1
  Ti  Ti21  1  0.745277  0.250000  0.646926  1
  Ti  Ti22  1  0.756419  0.131797  0.952883  1
  Ti  Ti23  1  0.243581  0.868203  0.047117  1
  P  P24  1  0.745595  0.101031  0.504442  1
  P  P25  1  0.243066  0.250000  0.601621  1
  P  P26  1  0.745595  0.398969  0.504442  1
  P  P27  1  0.254405  0.601031  0.495558  1
  P  P28  1  0.146468  0.595899  0.224333  1
  P  P29  1  0.745595  0.601031  0.995558  1
  P  P30  1  0.146468  0.404101  0.275667  1
  P  P31  1  0.853532  0.904101  0.724333  1
  P  P32  1  0.853532  0.095899  0.775667  1
  P  P33  1  0.243066  0.750000  0.898379  1
  P  P34  1  0.745595  0.898969  0.995558  1
  P  P35  1  0.254405  0.898969  0.495558  1
  P  P36  1  0.853532  0.404101  0.775667  1
  P  P37  1  0.146468  0.904101  0.224333  1
  P  P38  1  0.254405  0.101031  0.004442  1
  P  P39  1  0.756934  0.250000  0.101621  1
  P  P40  1  0.254405  0.398969  0.004442  1
  P  P41  1  0.853532  0.595899  0.724333  1
  P  P42  1  0.756934  0.750000  0.398379  1
  P  P43  1  0.146468  0.095899  0.275667  1
  O  O44  1  0.744277  0.002037  0.522511  1
  O  O45  1  0.088471  0.098805  0.774912  1
  O  O46  1  0.753939  0.835577  0.443557  1
  O  O47  1  0.954925  0.250000  0.149589  1
  O  O48  1  0.255723  0.997963  0.477489  1
  O  O49  1  0.911529  0.401195  0.274912  1
  O  O50  1  0.261573  0.343341  0.074425  1
  O  O51  1  0.432994  0.250000  0.653272  1
  O  O52  1  0.748413  0.396594  0.850004  1
  O  O53  1  0.246061  0.335577  0.556443  1
  O  O54  1  0.059904  0.874698  0.541374  1
  O  O55  1  0.940096  0.374698  0.458626  1
  O  O56  1  0.246061  0.664423  0.943557  1
  O  O57  1  0.255723  0.497963  0.022511  1
  O  O58  1  0.251587  0.603406  0.149996  1
  O  O59  1  0.744277  0.502037  0.977489  1
  O  O60  1  0.738252  0.840617  0.775926  1
  O  O61  1  0.555673  0.374896  0.456018  1
  O  O62  1  0.251587  0.103406  0.350004  1
  O  O63  1  0.261748  0.659383  0.275926  1
  O  O64  1  0.261748  0.159383  0.224074  1
  O  O65  1  0.261573  0.843341  0.425575  1
  O  O66  1  0.432994  0.750000  0.846728  1
  O  O67  1  0.255723  0.502037  0.477489  1
  O  O68  1  0.236686  0.500000  0.250000  1
  O  O69  1  0.738252  0.659383  0.775926  1
  O  O70  1  0.738252  0.159383  0.724074  1
  O  O71  1  0.236686  0.000000  0.250000  1
  O  O72  1  0.251587  0.896594  0.149996  1
  O  O73  1  0.763314  0.500000  0.750000  1
  O  O74  1  0.088471  0.901195  0.725088  1
  O  O75  1  0.248625  0.750000  0.068495  1
  O  O76  1  0.246061  0.164423  0.556443  1
  O  O77  1  0.911529  0.598805  0.225088  1
  O  O78  1  0.744277  0.497963  0.522511  1
  O  O79  1  0.753939  0.335577  0.056443  1
  O  O80  1  0.940096  0.125302  0.458626  1
  O  O81  1  0.444327  0.625104  0.543982  1
  O  O82  1  0.059904  0.374698  0.958626  1
  O  O83  1  0.738427  0.156659  0.574425  1
  O  O84  1  0.753939  0.664423  0.443557  1
  O  O85  1  0.753939  0.164423  0.056443  1
  O  O86  1  0.444327  0.874896  0.543982  1
  O  O87  1  0.045075  0.750000  0.850411  1
  O  O88  1  0.954925  0.750000  0.350411  1
  O  O89  1  0.261573  0.656659  0.425575  1
  O  O90  1  0.555673  0.125104  0.456018  1
  O  O91  1  0.738427  0.843341  0.925575  1
  O  O92  1  0.567006  0.750000  0.346728  1
  O  O93  1  0.261748  0.340617  0.224074  1
  O  O94  1  0.751375  0.250000  0.931505  1
  O  O95  1  0.738427  0.343341  0.574425  1
  O  O96  1  0.059904  0.125302  0.958626  1
  O  O97  1  0.940096  0.625302  0.041374  1
  O  O98  1  0.059904  0.625302  0.541374  1
  O  O99  1  0.444327  0.125104  0.956018  1
  O  O100  1  0.763314  0.000000  0.750000  1
  O  O101  1  0.555673  0.625104  0.043982  1
  O  O102  1  0.261573  0.156659  0.074425  1
  O  O103  1  0.255723  0.002037  0.022511  1
  O  O104  1  0.444327  0.374896  0.956018  1
  O  O105  1  0.567006  0.250000  0.153272  1
  O  O106  1  0.248625  0.250000  0.431505  1
  O  O107  1  0.748413  0.603406  0.649996  1
  O  O108  1  0.261748  0.840617  0.275926  1
  O  O109  1  0.940096  0.874698  0.041374  1
  O  O110  1  0.744277  0.997963  0.977489  1
  O  O111  1  0.738252  0.340617  0.724074  1
  O  O112  1  0.251587  0.396594  0.350004  1
  O  O113  1  0.246061  0.835577  0.943557  1
  O  O114  1  0.045075  0.250000  0.649589  1
  O  O115  1  0.748413  0.896594  0.649996  1
  O  O116  1  0.555673  0.874896  0.043982  1
  O  O117  1  0.911529  0.901195  0.225088  1
  O  O118  1  0.751375  0.750000  0.568495  1
  O  O119  1  0.748413  0.103406  0.850004  1
  O  O120  1  0.088471  0.598805  0.725088  1
  O  O121  1  0.911529  0.098805  0.274912  1
  O  O122  1  0.738427  0.656659  0.925575  1
  O  O123  1  0.088471  0.401195  0.774912  1
