# generated using pymatgen
data_AsC4S4N4Cl2O2F5
_symmetry_space_group_name_H-M   'P 1'
_cell_length_a   11.24573198
_cell_length_b   12.01666814
_cell_length_c   12.99001407
_cell_angle_alpha   110.56553403
_cell_angle_beta   90.00000000
_cell_angle_gamma   90.00000000
_symmetry_Int_Tables_number   1
_chemical_formula_structural   AsC4S4N4Cl2O2F5
_chemical_formula_sum   'As4 C16 S16 N16 Cl8 O8 F20'
_cell_volume   1643.55028588
_cell_formula_units_Z   4
loop_
 _symmetry_equiv_pos_site_id
 _symmetry_equiv_pos_as_xyz
  1  'x, y, z'
loop_
 _atom_site_type_symbol
 _atom_site_label
 _atom_site_symmetry_multiplicity
 _atom_site_fract_x
 _atom_site_fract_y
 _atom_site_fract_z
 _atom_site_occupancy
  As  As0  1  0.251558  0.245513  0.690758  1
  As  As1  1  0.248442  0.745513  0.190758  1
  As  As2  1  0.748442  0.754487  0.309242  1
  As  As3  1  0.751558  0.254487  0.809242  1
  C  C4  1  0.565461  0.058907  0.792479  1
  C  C5  1  0.608404  0.212155  0.327392  1
  C  C6  1  0.012651  0.546437  0.785848  1
  C  C7  1  0.806399  0.786011  0.795903  1
  C  C8  1  0.306399  0.713989  0.704097  1
  C  C9  1  0.434539  0.941093  0.207521  1
  C  C10  1  0.108404  0.287845  0.172608  1
  C  C11  1  0.487349  0.046437  0.285848  1
  C  C12  1  0.891596  0.712155  0.827392  1
  C  C13  1  0.693601  0.286011  0.295903  1
  C  C14  1  0.987349  0.453563  0.214152  1
  C  C15  1  0.391596  0.787845  0.672608  1
  C  C16  1  0.512651  0.953563  0.714152  1
  C  C17  1  0.934539  0.558907  0.292479  1
  C  C18  1  0.193601  0.213989  0.204097  1
  C  C19  1  0.065461  0.441093  0.707521  1
  S  S20  1  0.313943  0.582307  0.507549  1
  S  S21  1  0.186057  0.082307  0.007549  1
  S  S22  1  0.648174  0.031234  0.608644  1
  S  S23  1  0.573594  0.272902  0.467910  1
  S  S24  1  0.073594  0.227098  0.032090  1
  S  S25  1  0.960336  0.055166  0.352237  1
  S  S26  1  0.851826  0.531234  0.108644  1
  S  S27  1  0.926406  0.772902  0.967910  1
  S  S28  1  0.426406  0.727098  0.532090  1
  S  S29  1  0.539664  0.555166  0.852237  1
  S  S30  1  0.686057  0.417693  0.492451  1
  S  S31  1  0.351826  0.968766  0.391356  1
  S  S32  1  0.813943  0.917693  0.992451  1
  S  S33  1  0.460336  0.444834  0.147763  1
  S  S34  1  0.039664  0.944834  0.647763  1
  S  S35  1  0.148174  0.468766  0.891356  1
  N  N36  1  0.142288  0.389671  0.755104  1
  N  N37  1  0.764996  0.883513  0.867458  1
  N  N38  1  0.065876  0.385839  0.244378  1
  N  N39  1  0.264996  0.616487  0.632542  1
  N  N40  1  0.434124  0.885839  0.744378  1
  N  N41  1  0.565876  0.114161  0.255622  1
  N  N42  1  0.947553  0.432594  0.111495  1
  N  N43  1  0.934124  0.614161  0.755622  1
  N  N44  1  0.052447  0.567406  0.888505  1
  N  N45  1  0.447553  0.067406  0.388505  1
  N  N46  1  0.642288  0.110329  0.744896  1
  N  N47  1  0.357712  0.889671  0.255104  1
  N  N48  1  0.552447  0.932594  0.611495  1
  N  N49  1  0.235004  0.116487  0.132542  1
  N  N50  1  0.857712  0.610329  0.244896  1
  N  N51  1  0.735004  0.383513  0.367458  1
  Cl  Cl52  1  0.237802  0.256237  0.338368  1
  Cl  Cl53  1  0.033450  0.392685  0.573053  1
  Cl  Cl54  1  0.262198  0.756237  0.838368  1
  Cl  Cl55  1  0.762198  0.743763  0.661632  1
  Cl  Cl56  1  0.533450  0.107315  0.926947  1
  Cl  Cl57  1  0.966550  0.607315  0.426947  1
  Cl  Cl58  1  0.466550  0.892685  0.073053  1
  Cl  Cl59  1  0.737802  0.243763  0.161632  1
  O  O60  1  0.473798  0.444207  0.258651  1
  O  O61  1  0.136692  0.876702  0.581785  1
  O  O62  1  0.973798  0.055793  0.241349  1
  O  O63  1  0.636692  0.623298  0.918215  1
  O  O64  1  0.026202  0.944207  0.758651  1
  O  O65  1  0.863308  0.123298  0.418215  1
  O  O66  1  0.363308  0.376702  0.081785  1
  O  O67  1  0.526202  0.555793  0.741349  1
  F  F68  1  0.194601  0.811935  0.098864  1
  F  F69  1  0.694600  0.688065  0.401136  1
  F  F70  1  0.355576  0.325869  0.791312  1
  F  F71  1  0.689043  0.311369  0.712782  1
  F  F72  1  0.805400  0.188065  0.901136  1
  F  F73  1  0.639290  0.328121  0.903547  1
  F  F74  1  0.144424  0.825869  0.291312  1
  F  F75  1  0.348652  0.123750  0.639139  1
  F  F76  1  0.310957  0.688631  0.287218  1
  F  F77  1  0.810957  0.811369  0.212782  1
  F  F78  1  0.305399  0.311935  0.598864  1
  F  F79  1  0.860710  0.828121  0.403547  1
  F  F80  1  0.139290  0.171879  0.596453  1
  F  F81  1  0.360710  0.671879  0.096453  1
  F  F82  1  0.651348  0.876250  0.360861  1
  F  F83  1  0.848652  0.376250  0.860861  1
  F  F84  1  0.189043  0.188631  0.787218  1
  F  F85  1  0.151348  0.623750  0.139139  1
  F  F86  1  0.644424  0.674131  0.208688  1
  F  F87  1  0.855576  0.174131  0.708688  1
