# generated using pymatgen
data_Rb2LiVS4
_symmetry_space_group_name_H-M   'P 1'
_cell_length_a   5.89337302
_cell_length_b   7.33931205
_cell_length_c   12.20133188
_cell_angle_alpha   84.43569583
_cell_angle_beta   76.02459528
_cell_angle_gamma   66.32841433
_symmetry_Int_Tables_number   1
_chemical_formula_structural   Rb2LiVS4
_chemical_formula_sum   'Rb4 Li2 V2 S8'
_cell_volume   469.03692628
_cell_formula_units_Z   2
loop_
 _symmetry_equiv_pos_site_id
 _symmetry_equiv_pos_as_xyz
  1  'x, y, z'
loop_
 _atom_site_type_symbol
 _atom_site_label
 _atom_site_symmetry_multiplicity
 _atom_site_fract_x
 _atom_site_fract_y
 _atom_site_fract_z
 _atom_site_occupancy
  Rb  Rb0  1  0.446681  0.750000  0.106638  1
  Rb  Rb1  1  0.196681  0.250000  0.606638  1
  Rb  Rb2  1  0.553319  0.250000  0.893362  1
  Rb  Rb3  1  0.803319  0.750000  0.393362  1
  Li  Li4  1  0.125000  0.750000  0.750000  1
  Li  Li5  1  0.875000  0.250000  0.250000  1
  V  V6  1  0.625000  0.750000  0.750000  1
  V  V7  1  0.375000  0.250000  0.250000  1
  S  S8  1  0.201800  0.063851  0.354214  1
  S  S9  1  0.798200  0.936149  0.645786  1
  S  S10  1  0.443986  0.436149  0.354214  1
  S  S11  1  0.265650  0.936149  0.854214  1
  S  S12  1  0.556014  0.563851  0.645786  1
  S  S13  1  0.880135  0.563851  0.854214  1
  S  S14  1  0.734350  0.063851  0.145786  1
  S  S15  1  0.119865  0.436149  0.145786  1
