# generated using pymatgen
data_FeBiO3
_symmetry_space_group_name_H-M   'P 1'
_cell_length_a   5.43064395
_cell_length_b   5.45852839
_cell_length_c   5.52404324
_cell_angle_alpha   66.90638596
_cell_angle_beta   67.50512861
_cell_angle_gamma   65.21539146
_symmetry_Int_Tables_number   1
_chemical_formula_structural   FeBiO3
_chemical_formula_sum   'Fe1 Bi1 O3'
_cell_volume   132.00542192
_cell_formula_units_Z   1
loop_
 _symmetry_equiv_pos_site_id
 _symmetry_equiv_pos_as_xyz
  1  'x, y, z'
loop_
 _atom_site_type_symbol
 _atom_site_label
 _atom_site_symmetry_multiplicity
 _atom_site_fract_x
 _atom_site_fract_y
 _atom_site_fract_z
 _atom_site_occupancy
  Fe  Fe0  1  0.271751  0.273533  0.283309  1
  Bi  Bi1  1  0.008204  0.039124  0.010625  1
  O  O2  1  0.009684  0.181800  0.598896  1
  O  O3  1  0.604299  1.004128  0.187857  1
  O  O4  1  0.220061  0.615416  0.033314  1
