# generated using pymatgen
data_KYP2O7
_symmetry_space_group_name_H-M   'P 1'
_cell_length_a   7.70089734
_cell_length_b   8.71626067
_cell_length_c   11.08135241
_cell_angle_alpha   90.00000000
_cell_angle_beta   90.00000000
_cell_angle_gamma   106.95318811
_symmetry_Int_Tables_number   1
_chemical_formula_structural   KYP2O7
_chemical_formula_sum   'K4 Y4 P8 O28'
_cell_volume   711.49024376
_cell_formula_units_Z   4
loop_
 _symmetry_equiv_pos_site_id
 _symmetry_equiv_pos_as_xyz
  1  'x, y, z'
loop_
 _atom_site_type_symbol
 _atom_site_label
 _atom_site_symmetry_multiplicity
 _atom_site_fract_x
 _atom_site_fract_y
 _atom_site_fract_z
 _atom_site_occupancy
  K  K0  1  0.818814  0.429312  0.821759  1
  K  K1  1  0.818814  0.929312  0.678241  1
  K  K2  1  0.181186  0.070688  0.321759  1
  K  K3  1  0.181186  0.570688  0.178241  1
  Y  Y4  1  0.231078  0.748686  0.595256  1
  Y  Y5  1  0.768922  0.751314  0.095256  1
  Y  Y6  1  0.231078  0.248686  0.904744  1
  Y  Y7  1  0.768922  0.251314  0.404744  1
  P  P8  1  0.871380  0.191751  0.103007  1
  P  P9  1  0.128620  0.308249  0.603007  1
  P  P10  1  0.871380  0.691751  0.396993  1
  P  P11  1  0.128620  0.808249  0.896993  1
  P  P12  1  0.555055  0.809717  0.356692  1
  P  P13  1  0.444945  0.690283  0.856692  1
  P  P14  1  0.444945  0.190283  0.643308  1
  P  P15  1  0.555055  0.309717  0.143308  1
  O  O16  1  0.366292  0.256761  0.085836  1
  O  O17  1  0.867439  0.016916  0.096276  1
  O  O18  1  0.068390  0.234803  0.727940  1
  O  O19  1  0.931610  0.265197  0.227940  1
  O  O20  1  0.867439  0.516916  0.403724  1
  O  O21  1  0.335738  0.304010  0.578851  1
  O  O22  1  0.660600  0.982499  0.386963  1
  O  O23  1  0.986645  0.792403  0.498363  1
  O  O24  1  0.013355  0.707597  0.998363  1
  O  O25  1  0.664262  0.695990  0.421149  1
  O  O26  1  0.366292  0.756761  0.414164  1
  O  O27  1  0.543089  0.269570  0.278299  1
  O  O28  1  0.013355  0.207597  0.501637  1
  O  O29  1  0.664262  0.195990  0.078851  1
  O  O30  1  0.931610  0.765197  0.272060  1
  O  O31  1  0.132561  0.983084  0.903724  1
  O  O32  1  0.335738  0.804010  0.921149  1
  O  O33  1  0.339400  0.517501  0.886963  1
  O  O34  1  0.633708  0.243239  0.585836  1
  O  O35  1  0.456911  0.730430  0.721701  1
  O  O36  1  0.132561  0.483084  0.596276  1
  O  O37  1  0.339400  0.017501  0.613037  1
  O  O38  1  0.633708  0.743239  0.914164  1
  O  O39  1  0.660600  0.482499  0.113037  1
  O  O40  1  0.986645  0.292403  0.001637  1
  O  O41  1  0.543089  0.769570  0.221701  1
  O  O42  1  0.068390  0.734803  0.772060  1
  O  O43  1  0.456911  0.230430  0.778299  1
