# generated using pymatgen
data_CaH8(NO5)2
_symmetry_space_group_name_H-M   'P 1'
_cell_length_a   6.31041513
_cell_length_b   9.30410342
_cell_length_c   14.51958484
_cell_angle_alpha   90.00000000
_cell_angle_beta   97.53757216
_cell_angle_gamma   90.00000000
_symmetry_Int_Tables_number   1
_chemical_formula_structural   CaH8(NO5)2
_chemical_formula_sum   'Ca4 H32 N8 O40'
_cell_volume   845.11855281
_cell_formula_units_Z   4
loop_
 _symmetry_equiv_pos_site_id
 _symmetry_equiv_pos_as_xyz
  1  'x, y, z'
loop_
 _atom_site_type_symbol
 _atom_site_label
 _atom_site_symmetry_multiplicity
 _atom_site_fract_x
 _atom_site_fract_y
 _atom_site_fract_z
 _atom_site_occupancy
  Ca  Ca0  1  0.548845  0.405094  0.364859  1
  Ca  Ca1  1  0.048845  0.094906  0.864859  1
  Ca  Ca2  1  0.451155  0.594906  0.635141  1
  Ca  Ca3  1  0.951155  0.905094  0.135141  1
  H  H4  1  0.644966  0.287025  0.888042  1
  H  H5  1  0.316597  0.366682  0.849692  1
  H  H6  1  0.151690  0.627942  0.068963  1
  H  H7  1  0.860460  0.613605  0.765215  1
  H  H8  1  0.639540  0.113605  0.734785  1
  H  H9  1  0.891990  0.583371  0.479650  1
  H  H10  1  0.686513  0.676999  0.046437  1
  H  H11  1  0.089231  0.384080  0.625108  1
  H  H12  1  0.848310  0.372058  0.931037  1
  H  H13  1  0.410769  0.884080  0.874892  1
  H  H14  1  0.348310  0.127942  0.431037  1
  H  H15  1  0.797819  0.449849  0.763397  1
  H  H16  1  0.313487  0.323001  0.953563  1
  H  H17  1  0.144966  0.212975  0.388042  1
  H  H18  1  0.183403  0.866682  0.650308  1
  H  H19  1  0.589231  0.115920  0.125108  1
  H  H20  1  0.855034  0.787025  0.611958  1
  H  H21  1  0.651690  0.872058  0.568963  1
  H  H22  1  0.355034  0.712975  0.111958  1
  H  H23  1  0.391990  0.916629  0.979650  1
  H  H24  1  0.360460  0.886395  0.265215  1
  H  H25  1  0.186513  0.823001  0.546437  1
  H  H26  1  0.683403  0.633318  0.150308  1
  H  H27  1  0.202181  0.550151  0.236603  1
  H  H28  1  0.702181  0.949849  0.736603  1
  H  H29  1  0.608010  0.083371  0.020350  1
  H  H30  1  0.108010  0.416629  0.520350  1
  H  H31  1  0.297819  0.050151  0.263397  1
  H  H32  1  0.910769  0.615920  0.374892  1
  H  H33  1  0.813487  0.176999  0.453563  1
  H  H34  1  0.816597  0.133318  0.349692  1
  H  H35  1  0.139540  0.386395  0.234785  1
  N  N36  1  0.618131  0.374832  0.164365  1
  N  N37  1  0.881869  0.874832  0.335635  1
  N  N38  1  0.381869  0.625168  0.835635  1
  N  N39  1  0.412959  0.735293  0.411392  1
  N  N40  1  0.912959  0.764707  0.911392  1
  N  N41  1  0.587041  0.264707  0.588608  1
  N  N42  1  0.118131  0.125168  0.664365  1
  N  N43  1  0.087041  0.235293  0.088608  1
  O  O44  1  0.867541  0.646990  0.946669  1
  O  O45  1  0.214936  0.462361  0.273999  1
  O  O46  1  0.629123  0.380875  0.079736  1
  O  O47  1  0.363591  0.957313  0.917421  1
  O  O48  1  0.456473  0.727100  0.329270  1
  O  O49  1  0.664670  0.717465  0.107243  1
  O  O50  1  0.132459  0.353010  0.053331  1
  O  O51  1  0.298973  0.199166  0.383488  1
  O  O52  1  0.052932  0.237107  0.703004  1
  O  O53  1  0.785064  0.537639  0.726001  1
  O  O54  1  0.164670  0.782535  0.607243  1
  O  O55  1  0.863591  0.542687  0.417421  1
  O  O56  1  0.083135  0.118946  0.040532  1
  O  O57  1  0.367541  0.853010  0.446669  1
  O  O58  1  0.129123  0.119125  0.579736  1
  O  O59  1  0.636409  0.042687  0.082579  1
  O  O60  1  0.171659  0.016826  0.717776  1
  O  O61  1  0.552932  0.262893  0.203004  1
  O  O62  1  0.583135  0.381054  0.540532  1
  O  O63  1  0.632459  0.146990  0.553331  1
  O  O64  1  0.714936  0.037639  0.773999  1
  O  O65  1  0.370877  0.619125  0.920264  1
  O  O66  1  0.947068  0.762893  0.296996  1
  O  O67  1  0.285064  0.962361  0.226001  1
  O  O68  1  0.201027  0.699166  0.116512  1
  O  O69  1  0.870877  0.880875  0.420264  1
  O  O70  1  0.798973  0.300834  0.883488  1
  O  O71  1  0.916865  0.881054  0.959468  1
  O  O72  1  0.956473  0.772900  0.829270  1
  O  O73  1  0.335330  0.282535  0.892757  1
  O  O74  1  0.136409  0.457313  0.582579  1
  O  O75  1  0.328341  0.516826  0.782224  1
  O  O76  1  0.671659  0.483174  0.217776  1
  O  O77  1  0.835330  0.217465  0.392757  1
  O  O78  1  0.043527  0.227100  0.170730  1
  O  O79  1  0.828341  0.983174  0.282224  1
  O  O80  1  0.447068  0.737107  0.796996  1
  O  O81  1  0.543527  0.272900  0.670730  1
  O  O82  1  0.416865  0.618946  0.459468  1
  O  O83  1  0.701027  0.800834  0.616512  1
