# generated using pymatgen
data_Ce(Ni5P2)2
_symmetry_space_group_name_H-M   'P 1'
_cell_length_a   3.63959830
_cell_length_b   9.21739593
_cell_length_c   21.95631390
_cell_angle_alpha   90.00000000
_cell_angle_beta   90.00000000
_cell_angle_gamma   90.00000000
_symmetry_Int_Tables_number   1
_chemical_formula_structural   Ce(Ni5P2)2
_chemical_formula_sum   'Ce4 Ni40 P16'
_cell_volume   736.58204364
_cell_formula_units_Z   4
loop_
 _symmetry_equiv_pos_site_id
 _symmetry_equiv_pos_as_xyz
  1  'x, y, z'
loop_
 _atom_site_type_symbol
 _atom_site_label
 _atom_site_symmetry_multiplicity
 _atom_site_fract_x
 _atom_site_fract_y
 _atom_site_fract_z
 _atom_site_occupancy
  Ce  Ce0  1  0.750000  0.298790  0.392433  1
  Ce  Ce1  1  0.250000  0.701210  0.607567  1
  Ce  Ce2  1  0.750000  0.798790  0.107567  1
  Ce  Ce3  1  0.250000  0.201210  0.892433  1
  Ni  Ni4  1  0.250000  0.583260  0.031491  1
  Ni  Ni5  1  0.250000  0.549805  0.917421  1
  Ni  Ni6  1  0.750000  0.673022  0.402739  1
  Ni  Ni7  1  0.750000  0.705577  0.829233  1
  Ni  Ni8  1  0.250000  0.794423  0.329233  1
  Ni  Ni9  1  0.750000  0.098360  0.202543  1
  Ni  Ni10  1  0.250000  0.083260  0.468509  1
  Ni  Ni11  1  0.250000  0.423128  0.278781  1
  Ni  Ni12  1  0.250000  0.294423  0.170767  1
  Ni  Ni13  1  0.250000  0.160179  0.284389  1
  Ni  Ni14  1  0.250000  0.826978  0.902739  1
  Ni  Ni15  1  0.750000  0.450195  0.082579  1
  Ni  Ni16  1  0.750000  0.464223  0.538073  1
  Ni  Ni17  1  0.250000  0.901640  0.797457  1
  Ni  Ni18  1  0.750000  0.076872  0.778781  1
  Ni  Ni19  1  0.750000  0.205577  0.670767  1
  Ni  Ni20  1  0.750000  0.598360  0.297457  1
  Ni  Ni21  1  0.250000  0.401640  0.702543  1
  Ni  Ni22  1  0.250000  0.519129  0.806354  1
  Ni  Ni23  1  0.750000  0.692301  0.968060  1
  Ni  Ni24  1  0.250000  0.807699  0.468060  1
  Ni  Ni25  1  0.750000  0.916740  0.531491  1
  Ni  Ni26  1  0.750000  0.173022  0.097261  1
  Ni  Ni27  1  0.250000  0.035777  0.038073  1
  Ni  Ni28  1  0.250000  0.660179  0.215611  1
  Ni  Ni29  1  0.750000  0.192301  0.531940  1
  Ni  Ni30  1  0.250000  0.923128  0.221219  1
  Ni  Ni31  1  0.750000  0.950195  0.417421  1
  Ni  Ni32  1  0.750000  0.980871  0.306354  1
  Ni  Ni33  1  0.250000  0.307699  0.031940  1
  Ni  Ni34  1  0.750000  0.964223  0.961927  1
  Ni  Ni35  1  0.250000  0.326978  0.597261  1
  Ni  Ni36  1  0.250000  0.535777  0.461927  1
  Ni  Ni37  1  0.750000  0.576872  0.721219  1
  Ni  Ni38  1  0.750000  0.339821  0.784389  1
  Ni  Ni39  1  0.750000  0.839821  0.715611  1
  Ni  Ni40  1  0.250000  0.049805  0.582579  1
  Ni  Ni41  1  0.750000  0.416740  0.968509  1
  Ni  Ni42  1  0.750000  0.480871  0.193646  1
  Ni  Ni43  1  0.250000  0.019129  0.693646  1
  P  P44  1  0.250000  0.561958  0.360861  1
  P  P45  1  0.250000  0.704892  0.743209  1
  P  P46  1  0.750000  0.938042  0.860861  1
  P  P47  1  0.750000  0.474834  0.868495  1
  P  P48  1  0.250000  0.814531  1.001014  1
  P  P49  1  0.750000  0.185469  -0.001014  1
  P  P50  1  0.750000  0.795108  0.243209  1
  P  P51  1  0.250000  0.025166  0.368495  1
  P  P52  1  0.250000  0.061958  0.139139  1
  P  P53  1  0.750000  0.295108  0.256791  1
  P  P54  1  0.750000  0.438042  0.639139  1
  P  P55  1  0.750000  0.685469  0.501014  1
  P  P56  1  0.250000  0.314531  0.498986  1
  P  P57  1  0.250000  0.204892  0.756791  1
  P  P58  1  0.250000  0.525166  0.131505  1
  P  P59  1  0.750000  0.974834  0.631505  1
