# generated using pymatgen
data_TlBiP2S7
_symmetry_space_group_name_H-M   'P 1'
_cell_length_a   9.19640125
_cell_length_b   9.76927854
_cell_length_c   12.62594442
_cell_angle_alpha   90.00000000
_cell_angle_beta   90.00000000
_cell_angle_gamma   90.44857302
_symmetry_Int_Tables_number   1
_chemical_formula_structural   TlBiP2S7
_chemical_formula_sum   'Tl4 Bi4 P8 S28'
_cell_volume   1134.30792719
_cell_formula_units_Z   4
loop_
 _symmetry_equiv_pos_site_id
 _symmetry_equiv_pos_as_xyz
  1  'x, y, z'
loop_
 _atom_site_type_symbol
 _atom_site_label
 _atom_site_symmetry_multiplicity
 _atom_site_fract_x
 _atom_site_fract_y
 _atom_site_fract_z
 _atom_site_occupancy
  Tl  Tl0  1  0.120109  0.117247  0.687919  1
  Tl  Tl1  1  0.379891  0.882753  0.187919  1
  Tl  Tl2  1  0.879891  0.882753  0.312081  1
  Tl  Tl3  1  0.620109  0.117247  0.812081  1
  Bi  Bi4  1  0.877500  0.655458  0.636888  1
  Bi  Bi5  1  0.122500  0.344542  0.363112  1
  Bi  Bi6  1  0.377500  0.655458  0.863112  1
  Bi  Bi7  1  0.622500  0.344542  0.136888  1
  P  P8  1  0.481317  0.224636  0.394141  1
  P  P9  1  0.018683  0.775364  0.894141  1
  P  P10  1  0.301159  0.320524  0.963723  1
  P  P11  1  0.198841  0.679476  0.463723  1
  P  P12  1  0.518683  0.775364  0.605859  1
  P  P13  1  0.801159  0.320524  0.536277  1
  P  P14  1  0.698841  0.679476  0.036277  1
  P  P15  1  0.981317  0.224636  0.105859  1
  S  S16  1  0.428603  0.406471  0.325812  1
  S  S17  1  0.347864  0.348529  0.808556  1
  S  S18  1  0.927583  0.170061  0.471433  1
  S  S19  1  0.204856  0.870621  0.944550  1
  S  S20  1  0.427583  0.170061  0.028567  1
  S  S21  1  0.110467  0.121352  0.208544  1
  S  S22  1  0.795144  0.129379  0.055450  1
  S  S23  1  0.072417  0.829939  0.528567  1
  S  S24  1  0.419145  0.751535  0.453121  1
  S  S25  1  0.183764  0.505884  0.552125  1
  S  S26  1  0.080855  0.248465  0.953121  1
  S  S27  1  0.152136  0.651471  0.308556  1
  S  S28  1  0.683764  0.505884  0.947875  1
  S  S29  1  0.847864  0.348529  0.691444  1
  S  S30  1  0.610467  0.121352  0.291456  1
  S  S31  1  0.928603  0.406471  0.174188  1
  S  S32  1  0.389533  0.878648  0.708544  1
  S  S33  1  0.919145  0.751535  0.046879  1
  S  S34  1  0.652136  0.651471  0.191444  1
  S  S35  1  0.889533  0.878648  0.791456  1
  S  S36  1  0.571397  0.593529  0.674188  1
  S  S37  1  0.580855  0.248465  0.546879  1
  S  S38  1  0.572417  0.829939  0.971433  1
  S  S39  1  0.816236  0.494116  0.447875  1
  S  S40  1  0.295144  0.129379  0.444550  1
  S  S41  1  0.704856  0.870621  0.555450  1
  S  S42  1  0.316236  0.494116  0.052125  1
  S  S43  1  0.071397  0.593529  0.825812  1
