# generated using pymatgen
data_Ba5Sr2Nd8(CuO5)5
_symmetry_space_group_name_H-M   'P 1'
_cell_length_a   5.84597021
_cell_length_b   6.79262658
_cell_length_c   33.95873122
_cell_angle_alpha   90.00000000
_cell_angle_beta   90.00000000
_cell_angle_gamma   90.00000000
_symmetry_Int_Tables_number   1
_chemical_formula_structural   Ba5Sr2Nd8(CuO5)5
_chemical_formula_sum   'Ba10 Sr4 Nd16 Cu10 O50'
_cell_volume   1348.48398725
_cell_formula_units_Z   2
loop_
 _symmetry_equiv_pos_site_id
 _symmetry_equiv_pos_as_xyz
  1  'x, y, z'
loop_
 _atom_site_type_symbol
 _atom_site_label
 _atom_site_symmetry_multiplicity
 _atom_site_fract_x
 _atom_site_fract_y
 _atom_site_fract_z
 _atom_site_occupancy
  Ba  Ba0  1  0.500000  0.503108  0.101427  1
  Ba  Ba1  1  0.500000  0.500000  0.300000  1
  Ba  Ba2  1  0.500000  0.496892  0.498573  1
  Ba  Ba3  1  0.500000  0.502192  0.699815  1
  Ba  Ba4  1  0.500000  0.497808  0.900185  1
  Ba  Ba5  1  0.500000  0.003108  0.998573  1
  Ba  Ba6  1  0.500000  0.002192  0.400185  1
  Ba  Ba7  1  0.500000  0.996892  0.601427  1
  Ba  Ba8  1  0.500000  0.997808  0.199815  1
  Ba  Ba9  1  0.500000  0.000000  0.800000  1
  Cu  Cu10  1  0.500000  0.004457  0.098824  1
  Cu  Cu11  1  0.500000  0.504457  0.001176  1
  Cu  Cu12  1  0.500000  0.000000  0.300000  1
  Cu  Cu13  1  0.500000  0.495737  0.200965  1
  Cu  Cu14  1  0.500000  0.995543  0.501176  1
  Cu  Cu15  1  0.500000  0.495543  0.598824  1
  Cu  Cu16  1  0.500000  0.004263  0.700965  1
  Cu  Cu17  1  0.500000  0.504263  0.399035  1
  Cu  Cu18  1  0.500000  0.500000  0.800000  1
  Cu  Cu19  1  0.500000  0.995737  0.899035  1
  Nd  Nd20  1  0.000000  0.325895  0.034373  1
  Nd  Nd21  1  0.000000  0.176344  0.135501  1
  Nd  Nd22  1  0.000000  0.825895  0.065627  1
  Nd  Nd23  1  0.000000  0.329236  0.234580  1
  Nd  Nd24  1  0.000000  0.173807  0.335125  1
  Nd  Nd25  1  0.000000  0.826193  0.264875  1
  Nd  Nd26  1  0.000000  0.670764  0.365420  1
  Nd  Nd27  1  0.000000  0.823656  0.464499  1
  Nd  Nd28  1  0.000000  0.323656  0.635501  1
  Nd  Nd29  1  0.000000  0.674105  0.565627  1
  Nd  Nd30  1  0.000000  0.170764  0.734580  1
  Nd  Nd31  1  0.000000  0.326193  0.835125  1
  Nd  Nd32  1  0.000000  0.673807  0.764875  1
  Nd  Nd33  1  0.000000  0.829236  0.865420  1
  Nd  Nd34  1  0.000000  0.676344  0.964499  1
  Nd  Nd35  1  0.000000  0.174105  0.534373  1
  O  O36  1  0.000000  0.992044  0.002272  1
  O  O37  1  0.000000  0.008476  0.201251  1
  O  O38  1  0.000000  0.991524  0.398749  1
  O  O39  1  0.000000  0.500000  0.300000  1
  O  O40  1  0.000000  0.507956  0.502272  1
  O  O41  1  0.000000  0.007956  0.597728  1
  O  O42  1  0.000000  0.000000  0.800000  1
  O  O43  1  0.000000  0.491524  0.701251  1
  O  O44  1  0.000000  0.508476  0.898749  1
  O  O45  1  0.263372  0.871306  0.125450  1
  O  O46  1  0.262413  0.638734  0.027982  1
  O  O47  1  0.257821  0.862552  0.327012  1
  O  O48  1  0.262413  0.861266  0.527982  1
  O  O49  1  0.264707  0.645912  0.426722  1
  O  O50  1  0.264707  0.854088  0.926722  1
  O  O51  1  0.264707  0.354088  0.173278  1
  O  O52  1  0.263476  0.631894  0.229355  1
  O  O53  1  0.263476  0.868106  0.729355  1
  O  O54  1  0.263372  0.628694  0.625450  1
  O  O55  1  0.263476  0.368106  0.370645  1
  O  O56  1  0.257821  0.637448  0.827012  1
  O  O57  1  0.257821  0.137448  0.272988  1
  O  O58  1  0.262413  0.361266  0.572018  1
  O  O59  1  0.262413  0.138734  0.072018  1
  O  O60  1  0.257821  0.362552  0.772988  1
  O  O61  1  0.263372  0.128694  0.474550  1
  O  O62  1  0.264707  0.145912  0.673278  1
  O  O63  1  0.263372  0.371306  0.974550  1
  O  O64  1  0.263476  0.131894  0.870645  1
  O  O65  1  0.735293  0.354088  0.173278  1
  O  O66  1  0.736628  0.871306  0.125450  1
  O  O67  1  0.737587  0.138734  0.072018  1
  O  O68  1  0.736524  0.368106  0.370645  1
  O  O69  1  0.737587  0.361266  0.572018  1
  O  O70  1  0.737587  0.638734  0.027982  1
  O  O71  1  0.736524  0.631894  0.229355  1
  O  O72  1  0.742179  0.862552  0.327012  1
  O  O73  1  0.737587  0.861266  0.527982  1
  O  O74  1  0.736524  0.868106  0.729355  1
  O  O75  1  0.742179  0.137448  0.272988  1
  O  O76  1  0.736628  0.128694  0.474550  1
  O  O77  1  0.735293  0.145912  0.673278  1
  O  O78  1  0.742179  0.362552  0.772988  1
  O  O79  1  0.736628  0.371306  0.974550  1
  O  O80  1  0.735293  0.645912  0.426722  1
  O  O81  1  0.736628  0.628694  0.625450  1
  O  O82  1  0.735293  0.854088  0.926722  1
  O  O83  1  0.736524  0.131894  0.870645  1
  O  O84  1  0.742179  0.637448  0.827012  1
  O  O85  1  0.000000  0.492044  0.097728  1
  Sr  Sr86  1  0.000000  0.673819  0.165664  1
  Sr  Sr87  1  0.000000  0.326181  0.434336  1
  Sr  Sr88  1  0.000000  0.826181  0.665664  1
  Sr  Sr89  1  0.000000  0.173819  0.934336  1
