# generated using pymatgen
data_Ni5(Mo3Se4)8
_symmetry_space_group_name_H-M   'P 1'
_cell_length_a   6.82447283
_cell_length_b   6.83109109
_cell_length_c   27.20205548
_cell_angle_alpha   91.59878813
_cell_angle_beta   90.93465514
_cell_angle_gamma   90.78463075
_symmetry_Int_Tables_number   1
_chemical_formula_structural   Ni5(Mo3Se4)8
_chemical_formula_sum   'Ni5 Mo24 Se32'
_cell_volume   1267.33228132
_cell_formula_units_Z   1
loop_
 _symmetry_equiv_pos_site_id
 _symmetry_equiv_pos_as_xyz
  1  'x, y, z'
loop_
 _atom_site_type_symbol
 _atom_site_label
 _atom_site_symmetry_multiplicity
 _atom_site_fract_x
 _atom_site_fract_y
 _atom_site_fract_z
 _atom_site_occupancy
  Mo  Mo0  1  0.242384  0.412209  0.888079  1
  Mo  Mo1  1  0.248602  0.412906  0.638388  1
  Mo  Mo2  1  0.217368  0.416713  0.384833  1
  Mo  Mo3  1  0.236662  0.416805  0.140088  1
  Mo  Mo4  1  0.428966  0.532371  0.807814  1
  Mo  Mo5  1  0.431786  0.536742  0.558411  1
  Mo  Mo6  1  0.462375  0.762221  0.894476  1
  Mo  Mo7  1  0.432072  0.554548  0.309292  1
  Mo  Mo8  1  0.467552  0.766091  0.645880  1
  Mo  Mo9  1  0.413255  0.541400  0.057363  1
  Mo  Mo10  1  0.449348  0.757781  0.396809  1
  Mo  Mo11  1  0.439006  0.767395  0.145596  1
  Mo  Mo12  1  0.555488  0.217338  0.853951  1
  Mo  Mo13  1  0.559408  0.217901  0.604755  1
  Mo  Mo14  1  0.586146  0.434346  0.940163  1
  Mo  Mo15  1  0.555849  0.239975  0.354494  1
  Mo  Mo16  1  0.592048  0.434250  0.690274  1
  Mo  Mo17  1  0.548532  0.229954  0.107672  1
  Mo  Mo18  1  0.573607  0.442536  0.441658  1
  Mo  Mo19  1  0.579200  0.454863  0.193235  1
  Mo  Mo20  1  0.777243  0.559105  0.861172  1
  Mo  Mo21  1  0.781807  0.562670  0.612129  1
  Mo  Mo22  1  0.787263  0.581309  0.366153  1
  Mo  Mo23  1  0.759034  0.580495  0.114242  1
  Ni  Ni24  1  0.065247  0.502587  0.291184  1
  Ni  Ni25  1  0.498569  0.160713  0.015337  1
  Ni  Ni26  1  0.939529  0.496262  0.460111  1
  Ni  Ni27  1  0.843144  0.928186  0.874406  1
  Ni  Ni28  1  0.845492  0.931471  0.625184  1
  Se  Se29  1  0.128993  0.736742  0.846948  1
  Se  Se30  1  0.133724  0.739690  0.598766  1
  Se  Se31  1  0.125763  0.758593  0.348507  1
  Se  Se32  1  0.119411  0.733480  0.094336  1
  Se  Se33  1  0.231458  0.214719  0.806333  1
  Se  Se34  1  0.266756  0.622182  0.967555  1
  Se  Se35  1  0.236847  0.216239  0.556977  1
  Se  Se36  1  0.275105  0.620879  0.718793  1
  Se  Se37  1  0.229370  0.207161  0.306456  1
  Se  Se38  1  0.262310  0.620401  0.472181  1
  Se  Se39  1  0.205660  0.229175  0.056118  1
  Se  Se40  1  0.251441  0.622467  0.221067  1
  Se  Se41  1  0.372318  0.111205  0.934416  1
  Se  Se42  1  0.384427  0.119836  0.685203  1
  Se  Se43  1  0.367583  0.128291  0.432934  1
  Se  Se44  1  0.380447  0.127194  0.187169  1
  Se  Se45  1  0.616326  0.863087  0.810906  1
  Se  Se46  1  0.618488  0.867265  0.561596  1
  Se  Se47  1  0.636050  0.870097  0.318336  1
  Se  Se48  1  0.601251  0.875203  0.063695  1
  Se  Se49  1  0.746584  0.356334  0.780865  1
  Se  Se50  1  0.774672  0.766177  0.947233  1
  Se  Se51  1  0.756933  0.369275  0.529911  1
  Se  Se52  1  0.779845  0.767576  0.698372  1
  Se  Se53  1  0.744012  0.376369  0.279796  1
  Se  Se54  1  0.775855  0.791478  0.444570  1
  Se  Se55  1  0.750497  0.388621  0.030894  1
  Se  Se56  1  0.762822  0.782049  0.194467  1
  Se  Se57  1  0.888937  0.250105  0.906410  1
  Se  Se58  1  0.895235  0.252612  0.656612  1
  Se  Se59  1  0.879528  0.239244  0.402705  1
  Se  Se60  1  0.871573  0.262713  0.156579  1
