# generated using pymatgen
data_NaZr2MnF11
_symmetry_space_group_name_H-M   'P 1'
_cell_length_a   5.82625143
_cell_length_b   5.82625143
_cell_length_c   7.94626760
_cell_angle_alpha   69.31428532
_cell_angle_beta   69.31428529
_cell_angle_gamma   72.98340752
_symmetry_Int_Tables_number   1
_chemical_formula_structural   NaZr2MnF11
_chemical_formula_sum   'Na1 Zr2 Mn1 F11'
_cell_volume   231.69677575
_cell_formula_units_Z   1
loop_
 _symmetry_equiv_pos_site_id
 _symmetry_equiv_pos_as_xyz
  1  'x, y, z'
loop_
 _atom_site_type_symbol
 _atom_site_label
 _atom_site_symmetry_multiplicity
 _atom_site_fract_x
 _atom_site_fract_y
 _atom_site_fract_z
 _atom_site_occupancy
  F  F0  1  0.802523  0.222009  0.693364  1
  F  F1  1  0.777991  0.197477  0.306636  1
  F  F2  1  0.197477  0.777991  0.306636  1
  F  F3  1  0.222009  0.802523  0.693364  1
  F  F4  1  0.500000  0.500000  0.500000  1
  F  F5  1  0.331014  0.668986  0.000000  1
  F  F6  1  0.668986  0.331014  0.000000  1
  F  F7  1  0.253731  0.253731  0.350793  1
  F  F8  1  0.746269  0.746269  0.649207  1
  F  F9  1  0.266476  0.266476  0.890920  1
  F  F10  1  0.733524  0.733524  0.109080  1
  Na  Na11  1  0.000000  0.000000  0.000000  1
  Mn  Mn12  1  0.000000  0.000000  0.500000  1
  Zr  Zr13  1  0.502604  0.502604  0.766643  1
  Zr  Zr14  1  0.497396  0.497396  0.233357  1
