# generated using pymatgen
data_Nd23Mg4Rh7
_symmetry_space_group_name_H-M   'P 1'
_cell_length_a   10.08008402
_cell_length_b   10.08008414
_cell_length_c   22.69994118
_cell_angle_alpha   90.00000000
_cell_angle_beta   90.00000000
_cell_angle_gamma   119.99999961
_symmetry_Int_Tables_number   1
_chemical_formula_structural   Nd23Mg4Rh7
_chemical_formula_sum   'Nd46 Mg8 Rh14'
_cell_volume   1997.48567978
_cell_formula_units_Z   2
loop_
 _symmetry_equiv_pos_site_id
 _symmetry_equiv_pos_as_xyz
  1  'x, y, z'
loop_
 _atom_site_type_symbol
 _atom_site_label
 _atom_site_symmetry_multiplicity
 _atom_site_fract_x
 _atom_site_fract_y
 _atom_site_fract_z
 _atom_site_occupancy
  Nd  Nd0  1  0.457886  0.915773  0.857918  1
  Nd  Nd1  1  0.000000  0.000000  0.999261  1
  Nd  Nd2  1  0.744271  0.872136  0.135812  1
  Nd  Nd3  1  0.872136  0.744271  0.635812  1
  Nd  Nd4  1  0.791863  0.208137  0.948711  1
  Nd  Nd5  1  0.208552  0.417105  0.720942  1
  Nd  Nd6  1  0.582895  0.791448  0.720942  1
  Nd  Nd7  1  0.542114  0.084227  0.357918  1
  Nd  Nd8  1  0.789367  0.578733  0.491835  1
  Nd  Nd9  1  0.540203  0.459797  0.085632  1
  Nd  Nd10  1  0.791448  0.582895  0.220942  1
  Nd  Nd11  1  0.416273  0.208137  0.948711  1
  Nd  Nd12  1  0.789367  0.210633  0.491835  1
  Nd  Nd13  1  0.210633  0.421267  0.991835  1
  Nd  Nd14  1  0.255729  0.127864  0.635812  1
  Nd  Nd15  1  0.457886  0.542114  0.857918  1
  Nd  Nd16  1  0.409859  0.204929  0.782608  1
  Nd  Nd17  1  0.791448  0.208552  0.220942  1
  Nd  Nd18  1  0.795071  0.204929  0.782608  1
  Nd  Nd19  1  0.210633  0.789367  0.991835  1
  Nd  Nd20  1  0.421267  0.210633  0.491835  1
  Nd  Nd21  1  0.583727  0.791863  0.448711  1
  Nd  Nd22  1  0.208137  0.416273  0.448711  1
  Nd  Nd23  1  0.127864  0.255729  0.135812  1
  Nd  Nd24  1  0.080405  0.540203  0.585632  1
  Nd  Nd25  1  0.666667  0.333333  0.644802  1
  Nd  Nd26  1  0.795071  0.590141  0.782608  1
  Nd  Nd27  1  0.872136  0.127864  0.635812  1
  Nd  Nd28  1  0.791863  0.583727  0.948711  1
  Nd  Nd29  1  0.578733  0.789367  0.991835  1
  Nd  Nd30  1  0.204929  0.795071  0.282608  1
  Nd  Nd31  1  0.459797  0.919595  0.585632  1
  Nd  Nd32  1  0.208552  0.791448  0.720942  1
  Nd  Nd33  1  0.417105  0.208552  0.220942  1
  Nd  Nd34  1  0.919595  0.459797  0.085632  1
  Nd  Nd35  1  0.127864  0.872136  0.135812  1
  Nd  Nd36  1  0.590141  0.795071  0.282608  1
  Nd  Nd37  1  0.459797  0.540203  0.585632  1
  Nd  Nd38  1  0.915773  0.457886  0.357918  1
  Nd  Nd39  1  0.000000  0.000000  0.499261  1
  Nd  Nd40  1  0.333333  0.666667  0.144802  1
  Nd  Nd41  1  0.084227  0.542114  0.857918  1
  Nd  Nd42  1  0.542114  0.457886  0.357918  1
  Nd  Nd43  1  0.540203  0.080405  0.085632  1
  Nd  Nd44  1  0.204929  0.409859  0.282608  1
  Nd  Nd45  1  0.208137  0.791863  0.448711  1
  Mg  Mg46  1  0.000000  0.000000  0.251097  1
  Mg  Mg47  1  0.106311  0.212622  0.863975  1
  Mg  Mg48  1  0.106311  0.893689  0.863975  1
  Mg  Mg49  1  0.893689  0.787378  0.363975  1
  Mg  Mg50  1  0.787378  0.893689  0.863975  1
  Mg  Mg51  1  0.212622  0.106311  0.363975  1
  Mg  Mg52  1  0.000000  0.000000  0.751097  1
  Mg  Mg53  1  0.893689  0.106311  0.363975  1
  Rh  Rh54  1  0.666667  0.333333  0.864241  1
  Rh  Rh55  1  0.521740  0.043479  0.710467  1
  Rh  Rh56  1  0.478260  0.521740  0.210467  1
  Rh  Rh57  1  0.043479  0.521740  0.210467  1
  Rh  Rh58  1  0.478260  0.956521  0.210467  1
  Rh  Rh59  1  0.143008  0.286016  0.564069  1
  Rh  Rh60  1  0.856992  0.713984  0.064069  1
  Rh  Rh61  1  0.856992  0.143008  0.064069  1
  Rh  Rh62  1  0.333333  0.666667  0.364241  1
  Rh  Rh63  1  0.956521  0.478260  0.710467  1
  Rh  Rh64  1  0.286016  0.143008  0.064069  1
  Rh  Rh65  1  0.521740  0.478260  0.710467  1
  Rh  Rh66  1  0.143008  0.856992  0.564069  1
  Rh  Rh67  1  0.713984  0.856992  0.564069  1
