# generated using pymatgen
data_AlPO4
_symmetry_space_group_name_H-M   'P 1'
_cell_length_a   8.59217838
_cell_length_b   9.90434389
_cell_length_c   14.12800221
_cell_angle_alpha   110.72555956
_cell_angle_beta   90.00000000
_cell_angle_gamma   90.00000000
_symmetry_Int_Tables_number   1
_chemical_formula_structural   AlPO4
_chemical_formula_sum   'Al10 P10 O40'
_cell_volume   1124.48664303
_cell_formula_units_Z   10
loop_
 _symmetry_equiv_pos_site_id
 _symmetry_equiv_pos_as_xyz
  1  'x, y, z'
loop_
 _atom_site_type_symbol
 _atom_site_label
 _atom_site_symmetry_multiplicity
 _atom_site_fract_x
 _atom_site_fract_y
 _atom_site_fract_z
 _atom_site_occupancy
  Al  Al0  1  0.638894  0.557355  0.124209  1
  Al  Al1  1  0.635806  0.720120  0.444613  1
  Al  Al2  1  0.638247  0.566980  0.730455  1
  Al  Al3  1  0.138247  0.433020  0.269545  1
  Al  Al4  1  0.633672  0.149586  0.731032  1
  Al  Al5  1  0.133672  0.850414  0.268968  1
  Al  Al6  1  0.135806  0.279880  0.555387  1
  Al  Al7  1  0.137234  0.821542  0.658769  1
  Al  Al8  1  0.138894  0.442645  0.875791  1
  Al  Al9  1  0.637234  0.178458  0.341231  1
  P  P10  1  0.016558  0.552647  0.107714  1
  P  P11  1  0.009204  0.721110  0.430990  1
  P  P12  1  0.508411  0.434309  0.289173  1
  P  P13  1  0.012494  0.148929  0.720098  1
  P  P14  1  0.008411  0.565691  0.710827  1
  P  P15  1  0.516558  0.447353  0.892286  1
  P  P16  1  0.010821  0.170998  0.322061  1
  P  P17  1  0.510821  0.829002  0.677939  1
  P  P18  1  0.509204  0.278890  0.569010  1
  P  P19  1  0.512494  0.851071  0.279902  1
  O  O20  1  0.557382  0.492113  0.004291  1
  O  O21  1  0.579612  -0.001111  0.291605  1
  O  O22  1  0.340472  0.459989  0.880858  1
  O  O23  1  0.072476  0.822640  0.379102  1
  O  O24  1  0.057382  0.507887  0.995709  1
  O  O25  1  0.101359  0.451351  0.152364  1
  O  O26  1  0.833878  0.529715  0.697815  1
  O  O27  1  0.055862  0.012378  0.267892  1
  O  O28  1  0.555862  0.987622  0.732108  1
  O  O29  1  0.096707  0.464809  0.617151  1
  O  O30  1  0.086546  0.261338  0.814296  1
  O  O31  1  0.572476  0.177360  0.620898  1
  O  O32  1  0.335958  0.246606  0.544862  1
  O  O33  1  0.067003  0.710175  0.162075  1
  O  O34  1  0.562550  0.777880  0.566871  1
  O  O35  1  0.836039  0.146436  0.734020  1
  O  O36  1  0.601013  0.252427  0.471238  1
  O  O37  1  0.526314  0.437937  0.638139  1
  O  O38  1  0.333878  0.470285  0.302185  1
  O  O39  1  0.026314  0.562063  0.361861  1
  O  O40  1  0.596707  0.535191  0.382849  1
  O  O41  1  0.567555  0.453852  0.192444  1
  O  O42  1  0.090657  0.260459  0.266560  1
  O  O43  1  0.067555  0.546148  0.807556  1
  O  O44  1  0.586546  0.738662  0.185704  1
  O  O45  1  0.590657  0.739541  0.733440  1
  O  O46  1  0.334537  0.811073  0.682752  1
  O  O47  1  0.101013  0.747573  0.528762  1
  O  O48  1  0.534243  0.276864  0.280107  1
  O  O49  1  0.079612  1.001111  0.708395  1
  O  O50  1  0.034243  0.723136  0.719893  1
  O  O51  1  0.834537  0.188927  0.317248  1
  O  O52  1  0.062550  0.222120  0.433129  1
  O  O53  1  0.567003  0.289825  0.837925  1
  O  O54  1  0.048496  0.184764  0.624782  1
  O  O55  1  0.548496  0.815236  0.375218  1
  O  O56  1  0.336039  0.853564  0.265980  1
  O  O57  1  0.835958  0.753394  0.455138  1
  O  O58  1  0.840472  0.540011  0.119142  1
  O  O59  1  0.601359  0.548649  0.847636  1
