# generated using pymatgen
data_K2Se(SO3)2
_symmetry_space_group_name_H-M   'P 1'
_cell_length_a   6.04970174
_cell_length_b   9.73691113
_cell_length_c   15.26240903
_cell_angle_alpha   105.51213810
_cell_angle_beta   90.00000000
_cell_angle_gamma   90.00000000
_symmetry_Int_Tables_number   1
_chemical_formula_structural   K2Se(SO3)2
_chemical_formula_sum   'K8 Se4 S8 O24'
_cell_volume   866.28989584
_cell_formula_units_Z   4
loop_
 _symmetry_equiv_pos_site_id
 _symmetry_equiv_pos_as_xyz
  1  'x, y, z'
loop_
 _atom_site_type_symbol
 _atom_site_label
 _atom_site_symmetry_multiplicity
 _atom_site_fract_x
 _atom_site_fract_y
 _atom_site_fract_z
 _atom_site_occupancy
  K  K0  1  0.278895  0.873880  0.320157  1
  K  K1  1  0.778895  0.626120  0.179843  1
  K  K2  1  0.264936  0.308112  0.531897  1
  K  K3  1  0.735064  0.691888  0.468103  1
  K  K4  1  0.721105  0.126120  0.679843  1
  K  K5  1  0.764936  0.191888  0.968103  1
  K  K6  1  0.221105  0.373880  0.820157  1
  K  K7  1  0.235064  0.808112  0.031897  1
  Se  Se8  1  0.331095  0.829753  0.702965  1
  Se  Se9  1  0.668905  0.170247  0.297035  1
  Se  Se10  1  0.831095  0.670247  0.797035  1
  Se  Se11  1  0.168905  0.329753  0.202965  1
  S  S12  1  0.710369  0.570291  0.909660  1
  S  S13  1  0.260218  0.019449  0.827338  1
  S  S14  1  0.210369  0.929709  0.590340  1
  S  S15  1  0.739782  0.980551  0.172662  1
  S  S16  1  0.789631  0.070291  0.409660  1
  S  S17  1  0.239782  0.519449  0.327338  1
  S  S18  1  0.289631  0.429709  0.090340  1
  S  S19  1  0.760218  0.480551  0.672662  1
  O  O20  1  0.234814  0.453188  0.402763  1
  O  O21  1  0.043991  0.080330  0.813444  1
  O  O22  1  0.557140  0.878608  0.170084  1
  O  O23  1  0.728065  0.918668  0.379485  1
  O  O24  1  0.665332  0.154482  0.488430  1
  O  O25  1  0.456009  0.580330  0.313444  1
  O  O26  1  0.771935  0.418668  0.879485  1
  O  O27  1  0.734814  0.046812  0.097237  1
  O  O28  1  0.271935  0.081332  0.620515  1
  O  O29  1  0.470141  0.592335  0.918212  1
  O  O30  1  0.543991  0.419670  0.686556  1
  O  O31  1  0.057140  0.621392  0.329916  1
  O  O32  1  0.165332  0.345518  0.011570  1
  O  O33  1  0.956009  0.919670  0.186556  1
  O  O34  1  0.265186  0.953188  0.902763  1
  O  O35  1  0.970141  0.907665  0.581788  1
  O  O36  1  0.029859  0.092335  0.418212  1
  O  O37  1  0.765186  0.546812  0.597237  1
  O  O38  1  0.529859  0.407665  0.081788  1
  O  O39  1  0.942860  0.378608  0.670084  1
  O  O40  1  0.228065  0.581332  0.120515  1
  O  O41  1  0.834668  0.654482  0.988430  1
  O  O42  1  0.334668  0.845518  0.511570  1
  O  O43  1  0.442860  0.121392  0.829916  1
