# generated using pymatgen
data_BaMo2(PO4)4
_symmetry_space_group_name_H-M   'P 1'
_cell_length_a   8.04205685
_cell_length_b   8.13904994
_cell_length_c   9.75611743
_cell_angle_alpha   91.71403637
_cell_angle_beta   90.00000000
_cell_angle_gamma   90.00000000
_symmetry_Int_Tables_number   1
_chemical_formula_structural   BaMo2(PO4)4
_chemical_formula_sum   'Ba2 Mo4 P8 O32'
_cell_volume   638.29803571
_cell_formula_units_Z   2
loop_
 _symmetry_equiv_pos_site_id
 _symmetry_equiv_pos_as_xyz
  1  'x, y, z'
loop_
 _atom_site_type_symbol
 _atom_site_label
 _atom_site_symmetry_multiplicity
 _atom_site_fract_x
 _atom_site_fract_y
 _atom_site_fract_z
 _atom_site_occupancy
  Ba  Ba0  1  0.500000  0.500000  0.500000  1
  Ba  Ba1  1  0.000000  0.000000  0.000000  1
  Mo  Mo2  1  0.224055  0.544631  0.162938  1
  Mo  Mo3  1  0.775945  0.455369  0.837062  1
  Mo  Mo4  1  0.275945  0.044631  0.662938  1
  Mo  Mo5  1  0.724055  0.955369  0.337062  1
  P  P6  1  0.103139  0.674802  0.709448  1
  P  P7  1  0.603139  0.825198  0.790552  1
  P  P8  1  0.396861  0.174802  0.209448  1
  P  P9  1  0.907743  0.220890  0.566203  1
  P  P10  1  0.407743  0.279110  0.933797  1
  P  P11  1  0.896861  0.325198  0.290552  1
  P  P12  1  0.092257  0.779110  0.433797  1
  P  P13  1  0.592257  0.720890  0.066203  1
  O  O14  1  0.750588  0.432086  0.322661  1
  O  O15  1  0.998879  0.296984  0.436237  1
  O  O16  1  0.804614  0.358257  0.638961  1
  O  O17  1  0.501121  0.796984  0.936237  1
  O  O18  1  0.876742  0.300559  0.919264  1
  O  O19  1  0.249412  0.567914  0.677339  1
  O  O20  1  0.304614  0.141743  0.861039  1
  O  O21  1  0.250588  0.067914  0.177339  1
  O  O22  1  0.026678  0.394684  0.191942  1
  O  O23  1  0.623258  0.800559  0.419264  1
  O  O24  1  0.376742  0.199441  0.580736  1
  O  O25  1  0.123258  0.699441  0.080736  1
  O  O26  1  0.143057  0.852237  0.763375  1
  O  O27  1  0.195386  0.641743  0.361039  1
  O  O28  1  0.287311  0.411664  0.988283  1
  O  O29  1  0.526678  0.105316  0.308058  1
  O  O30  1  0.856943  0.147763  0.236625  1
  O  O31  1  0.356943  0.352237  0.263375  1
  O  O32  1  0.043124  0.158344  0.660942  1
  O  O33  1  0.749412  0.932086  0.822661  1
  O  O34  1  0.973322  0.605316  0.808058  1
  O  O35  1  0.956876  0.841656  0.339058  1
  O  O36  1  0.212689  0.911664  0.488283  1
  O  O37  1  0.787311  0.088336  0.511717  1
  O  O38  1  0.498879  0.203016  0.063763  1
  O  O39  1  0.001121  0.703016  0.563763  1
  O  O40  1  0.643057  0.647763  0.736625  1
  O  O41  1  0.456876  0.658344  0.160942  1
  O  O42  1  0.473322  0.894684  0.691942  1
  O  O43  1  0.695386  0.858257  0.138961  1
  O  O44  1  0.543124  0.341656  0.839058  1
  O  O45  1  0.712689  0.588336  0.011717  1
