# generated using pymatgen
data_NaTa4O8
_symmetry_space_group_name_H-M   'P 1'
_cell_length_a   13.06582977
_cell_length_b   18.15697854
_cell_length_c   16.68112413
_cell_angle_alpha   23.26077484
_cell_angle_beta   38.46827196
_cell_angle_gamma   44.00229466
_symmetry_Int_Tables_number   1
_chemical_formula_structural   NaTa4O8
_chemical_formula_sum   'Na6 Ta24 O48'
_cell_volume   972.20616131
_cell_formula_units_Z   6
loop_
 _symmetry_equiv_pos_site_id
 _symmetry_equiv_pos_as_xyz
  1  'x, y, z'
loop_
 _atom_site_type_symbol
 _atom_site_label
 _atom_site_symmetry_multiplicity
 _atom_site_fract_x
 _atom_site_fract_y
 _atom_site_fract_z
 _atom_site_occupancy
  Na  Na0  1  0.382021  0.000000  0.500038  1
  Na  Na1  1  0.614996  0.000000  0.500089  1
  Na  Na2  1  0.349653  0.500000  0.500199  1
  Na  Na3  1  0.900347  0.000000  0.499801  1
  Na  Na4  1  0.635004  0.500000  0.499911  1
  Na  Na5  1  0.867979  0.500000  0.499962  1
  O  O6  1  0.024437  0.307998  0.056467  1
  O  O7  1  0.179465  0.000000  0.320083  1
  O  O8  1  0.248759  0.311926  0.050072  1
  O  O9  1  0.425188  0.000000  0.327626  1
  O  O10  1  0.252715  0.307912  0.327297  1
  O  O11  1  0.523180  0.307992  0.056939  1
  O  O12  1  0.169704  0.500000  0.327763  1
  O  O13  1  0.676622  0.000000  0.322403  1
  O  O14  1  0.475850  0.307334  0.327621  1
  O  O15  1  0.001241  0.188074  0.949928  1
  O  O16  1  0.001241  0.811926  0.326077  1
  O  O17  1  0.745951  0.307193  0.057852  1
  O  O18  1  0.277196  0.811980  0.050276  1
  O  O19  1  0.277196  0.188020  0.674235  1
  O  O20  1  0.070535  0.500000  0.679917  1
  O  O21  1  0.430341  0.500000  0.320174  1
  O  O22  1  0.917281  0.000000  0.333953  1
  O  O23  1  0.225563  0.807998  0.327538  1
  O  O24  1  0.225563  0.192002  0.943533  1
  O  O25  1  0.496956  0.192120  0.672239  1
  O  O26  1  0.496956  0.807880  0.056478  1
  O  O27  1  0.024437  0.692002  0.672462  1
  O  O28  1  0.753044  0.307880  0.327761  1
  O  O29  1  0.332719  0.500000  0.666047  1
  O  O30  1  0.665254  0.500000  0.333820  1
  O  O31  1  0.248759  0.688074  0.673923  1
  O  O32  1  0.972804  0.311980  0.325765  1
  O  O33  1  0.504049  0.807193  0.327762  1
  O  O34  1  0.504049  0.192807  0.942148  1
  O  O35  1  0.774150  0.192666  0.672379  1
  O  O36  1  0.774150  0.807334  0.057710  1
  O  O37  1  0.080296  0.000000  0.672237  1
  O  O38  1  0.573378  0.500000  0.677597  1
  O  O39  1  0.928599  0.500000  0.322303  1
  O  O40  1  0.726820  0.807992  0.327076  1
  O  O41  1  0.726820  0.192008  0.943061  1
  O  O42  1  0.252715  0.692088  0.943121  1
  O  O43  1  0.997285  0.192088  0.672703  1
  O  O44  1  0.997285  0.807912  0.056879  1
  O  O45  1  0.523180  0.692008  0.672924  1
  O  O46  1  0.321401  0.000000  0.677697  1
  O  O47  1  0.824812  0.500000  0.672374  1
  O  O48  1  0.475850  0.692666  0.942290  1
  O  O49  1  0.745951  0.692807  0.672238  1
  O  O50  1  0.584746  0.000000  0.666180  1
  O  O51  1  0.753044  0.692120  0.943522  1
  O  O52  1  0.819659  0.000000  0.679826  1
  O  O53  1  0.972804  0.688020  0.949724  1
  Ta  Ta54  1  0.103344  0.000000  0.000107  1
  Ta  Ta55  1  0.398456  0.000000  0.999935  1
  Ta  Ta56  1  0.601372  0.000000  0.000021  1
  Ta  Ta57  1  0.146656  0.500000  0.999893  1
  Ta  Ta58  1  0.031766  0.267848  0.449317  1
  Ta  Ta59  1  0.466362  0.267867  0.014879  1
  Ta  Ta60  1  0.351303  0.500000  0.000063  1
  Ta  Ta61  1  0.898697  0.000000  0.999937  1
  Ta  Ta62  1  0.218234  0.232152  0.550683  1
  Ta  Ta63  1  0.218234  0.767848  0.014987  1
  Ta  Ta64  1  0.648628  0.500000  0.999979  1
  Ta  Ta65  1  0.530667  0.269664  0.449283  1
  Ta  Ta66  1  0.968624  0.269653  0.011479  1
  Ta  Ta67  1  0.851544  0.500000  0.000065  1
  Ta  Ta68  1  0.281376  0.230347  0.988521  1
  Ta  Ta69  1  0.281376  0.769653  0.449214  1
  Ta  Ta70  1  0.719333  0.769664  0.011389  1
  Ta  Ta71  1  0.719333  0.230336  0.550717  1
  Ta  Ta72  1  0.031766  0.732152  0.985013  1
  Ta  Ta73  1  0.466362  0.732133  0.550614  1
  Ta  Ta74  1  0.783638  0.232133  0.985121  1
  Ta  Ta75  1  0.783638  0.767867  0.449386  1
  Ta  Ta76  1  0.530667  0.730336  0.988611  1
  Ta  Ta77  1  0.968624  0.730347  0.550786  1
