# generated using pymatgen
data_Ca13Y6F43
_symmetry_space_group_name_H-M   'P 1'
_cell_length_a   10.38899330
_cell_length_b   10.38899359
_cell_length_c   10.38899323
_cell_angle_alpha   110.64248797
_cell_angle_beta   110.64248855
_cell_angle_gamma   110.64248486
_symmetry_Int_Tables_number   1
_chemical_formula_structural   Ca13Y6F43
_chemical_formula_sum   'Ca13 Y6 F43'
_cell_volume   823.62138688
_cell_formula_units_Z   1
loop_
 _symmetry_equiv_pos_site_id
 _symmetry_equiv_pos_as_xyz
  1  'x, y, z'
loop_
 _atom_site_type_symbol
 _atom_site_label
 _atom_site_symmetry_multiplicity
 _atom_site_fract_x
 _atom_site_fract_y
 _atom_site_fract_z
 _atom_site_occupancy
  Ca  Ca0  1  0.082935  0.567683  0.873760  1
  Ca  Ca1  1  0.136889  0.930030  0.444460  1
  Ca  Ca2  1  0.238111  0.663559  0.607426  1
  Ca  Ca3  1  0.341653  0.399354  0.764605  1
  Ca  Ca4  1  0.399354  0.764605  0.341653  1
  Ca  Ca5  1  0.444460  0.136889  0.930030  1
  Ca  Ca6  1  0.536289  0.536289  0.536289  1
  Ca  Ca7  1  0.567683  0.873760  0.082935  1
  Ca  Ca8  1  0.607426  0.238111  0.663559  1
  Ca  Ca9  1  0.663559  0.607426  0.238111  1
  Ca  Ca10  1  0.764605  0.341653  0.399354  1
  Ca  Ca11  1  0.873760  0.082935  0.567683  1
  Ca  Ca12  1  0.930030  0.444460  0.136889  1
  F  F13  1  0.192640  0.890400  0.923238  1
  F  F14  1  0.016027  0.596278  0.642847  1
  F  F15  1  0.187194  0.876338  0.659329  1
  F  F16  1  0.126653  0.350063  0.814401  1
  F  F17  1  0.077970  0.799377  0.094611  1
  F  F18  1  0.165663  0.698922  0.377376  1
  F  F19  1  0.306644  0.625048  0.831230  1
  F  F20  1  0.094611  0.077970  0.799377  1
  F  F21  1  0.092619  0.160831  0.531579  1
  F  F22  1  0.478018  0.912324  0.848827  1
  F  F23  1  0.372177  0.987090  0.411108  1
  F  F24  1  0.283697  0.438076  0.539700  1
  F  F25  1  0.127676  0.363363  0.223413  1
  F  F26  1  0.411108  0.372177  0.987090  1
  F  F27  1  0.160831  0.531579  0.092619  1
  F  F28  1  0.450693  0.733815  0.563661  1
  F  F29  1  0.350063  0.814401  0.126653  1
  F  F30  1  0.223413  0.127676  0.363363  1
  F  F31  1  0.377376  0.165663  0.698922  1
  F  F32  1  0.620216  0.739888  0.820421  1
  F  F33  1  0.438076  0.539700  0.283697  1
  F  F34  1  0.563661  0.450693  0.733815  1
  F  F35  1  0.363363  0.223413  0.127676  1
  F  F36  1  0.625048  0.831230  0.306644  1
  F  F37  1  0.739888  0.820421  0.620216  1
  F  F38  1  0.659329  0.187194  0.876338  1
  F  F39  1  0.917506  0.917506  0.917506  1
  F  F40  1  0.539700  0.283697  0.438076  1
  F  F41  1  0.848827  0.478018  0.912324  1
  F  F42  1  0.596278  0.642847  0.016027  1
  F  F43  1  0.820421  0.620216  0.739888  1
  F  F44  1  0.733815  0.563661  0.450693  1
  F  F45  1  0.642847  0.016027  0.596278  1
  F  F46  1  0.531579  0.092619  0.160831  1
  F  F47  1  0.912324  0.848827  0.478018  1
  F  F48  1  0.890400  0.923238  0.192640  1
  F  F49  1  0.698922  0.377376  0.165663  1
  F  F50  1  0.831230  0.306644  0.625048  1
  F  F51  1  0.923238  0.192640  0.890400  1
  F  F52  1  0.876338  0.659329  0.187194  1
  F  F53  1  0.814401  0.126653  0.350063  1
  F  F54  1  0.987090  0.411108  0.372177  1
  F  F55  1  0.799377  0.094611  0.077970  1
  Y  Y56  1  0.036684  0.197665  0.309266  1
  Y  Y57  1  0.698764  0.967998  0.809221  1
  Y  Y58  1  0.197665  0.309266  0.036684  1
  Y  Y59  1  0.809221  0.698764  0.967998  1
  Y  Y60  1  0.309266  0.036684  0.197665  1
  Y  Y61  1  0.967998  0.809221  0.698764  1
