# generated using pymatgen
data_Sc6C2I11
_symmetry_space_group_name_H-M   'P 1'
_cell_length_a   9.32546686
_cell_length_b   10.47131239
_cell_length_c   14.61058941
_cell_angle_alpha   90.85585843
_cell_angle_beta   75.47166678
_cell_angle_gamma   69.52854179
_symmetry_Int_Tables_number   1
_chemical_formula_structural   Sc6C2I11
_chemical_formula_sum   'Sc12 C4 I22'
_cell_volume   1285.56082453
_cell_formula_units_Z   2
loop_
 _symmetry_equiv_pos_site_id
 _symmetry_equiv_pos_as_xyz
  1  'x, y, z'
loop_
 _atom_site_type_symbol
 _atom_site_label
 _atom_site_symmetry_multiplicity
 _atom_site_fract_x
 _atom_site_fract_y
 _atom_site_fract_z
 _atom_site_occupancy
  I  I0  1  0.386692  0.687268  0.730147  1
  I  I1  1  0.613308  0.312732  0.269853  1
  I  I2  1  0.133667  0.444425  0.850196  1
  I  I3  1  0.866333  0.555575  0.149804  1
  I  I4  1  0.626082  0.619795  0.938536  1
  I  I5  1  0.373918  0.380205  0.061464  1
  I  I6  1  0.120947  0.794689  0.518188  1
  I  I7  1  0.879053  0.205311  0.481812  1
  I  I8  1  0.618410  0.968882  0.610027  1
  I  I9  1  0.381590  0.031118  0.389973  1
  I  I10  1  0.117973  0.129759  0.693740  1
  I  I11  1  0.882027  0.870241  0.306260  1
  I  I12  1  0.138827  0.476928  0.345110  1
  I  I13  1  0.861173  0.523072  0.654890  1
  I  I14  1  0.609555  0.634063  0.429648  1
  I  I15  1  0.390445  0.365937  0.570352  1
  I  I16  1  0.148143  0.776186  0.024568  1
  I  I17  1  0.851857  0.223814  0.975432  1
  I  I18  1  0.616626  0.938781  0.106963  1
  I  I19  1  0.383374  0.061219  0.893037  1
  I  I20  1  0.130338  0.105204  0.186891  1
  I  I21  1  0.869662  0.894796  0.813109  1
  Sc  Sc22  1  0.389645  0.519335  0.879864  1
  Sc  Sc23  1  0.610355  0.480665  0.120136  1
  Sc  Sc24  1  0.436365  0.223132  0.735248  1
  Sc  Sc25  1  0.563635  0.776868  0.264752  1
  Sc  Sc26  1  0.623698  0.413446  0.646680  1
  Sc  Sc27  1  0.376302  0.586554  0.353320  1
  Sc  Sc28  1  0.823467  0.345241  0.796325  1
  Sc  Sc29  1  0.176533  0.654759  0.203675  1
  Sc  Sc30  1  0.631172  0.161281  0.888439  1
  Sc  Sc31  1  0.368828  0.838719  0.111561  1
  Sc  Sc32  1  0.856659  0.056357  0.652086  1
  Sc  Sc33  1  0.143341  0.943643  0.347914  1
  C  C34  1  0.432369  0.653840  0.201308  1
  C  C35  1  0.567631  0.346160  0.798693  1
  C  C36  1  0.314095  0.769783  0.261634  1
  C  C37  1  0.685905  0.230217  0.738366  1
