# generated using pymatgen
data_K6Na3AlSb4
_symmetry_space_group_name_H-M   'P 1'
_cell_length_a   10.29181457
_cell_length_b   10.29181431
_cell_length_c   10.59554668
_cell_angle_alpha   90.00000000
_cell_angle_beta   90.00000000
_cell_angle_gamma   120.00000088
_symmetry_Int_Tables_number   1
_chemical_formula_structural   K6Na3AlSb4
_chemical_formula_sum   'K12 Na6 Al2 Sb8'
_cell_volume   971.93649908
_cell_formula_units_Z   2
loop_
 _symmetry_equiv_pos_site_id
 _symmetry_equiv_pos_as_xyz
  1  'x, y, z'
loop_
 _atom_site_type_symbol
 _atom_site_label
 _atom_site_symmetry_multiplicity
 _atom_site_fract_x
 _atom_site_fract_y
 _atom_site_fract_z
 _atom_site_occupancy
  K  K0  1  0.207384  0.414767  0.542120  1
  K  K1  1  0.792616  0.207384  0.042120  1
  K  K2  1  0.414767  0.207384  0.042120  1
  K  K3  1  0.585233  0.792616  0.542120  1
  K  K4  1  0.207384  0.792616  0.542120  1
  K  K5  1  0.792616  0.585233  0.457880  1
  K  K6  1  0.792616  0.207384  0.457880  1
  K  K7  1  0.792616  0.585233  0.042120  1
  K  K8  1  0.414767  0.207384  0.457880  1
  K  K9  1  0.585233  0.792616  0.957880  1
  K  K10  1  0.207384  0.414767  0.957880  1
  K  K11  1  0.207384  0.792616  0.957880  1
  Al  Al12  1  0.333333  0.666667  0.250000  1
  Al  Al13  1  0.666667  0.333333  0.750000  1
  Sb  Sb14  1  0.481600  0.518400  0.250000  1
  Sb  Sb15  1  0.963201  0.481600  0.750000  1
  Sb  Sb16  1  0.518400  0.036799  0.750000  1
  Sb  Sb17  1  0.481600  0.963201  0.250000  1
  Sb  Sb18  1  0.036799  0.518400  0.250000  1
  Sb  Sb19  1  0.518400  0.481600  0.750000  1
  Sb  Sb20  1  0.000000  0.000000  0.000000  1
  Sb  Sb21  1  0.000000  0.000000  0.500000  1
  Na  Na22  1  0.115907  0.231815  0.250000  1
  Na  Na23  1  0.884093  0.115907  0.750000  1
  Na  Na24  1  0.231815  0.115907  0.750000  1
  Na  Na25  1  0.768185  0.884093  0.250000  1
  Na  Na26  1  0.115907  0.884093  0.250000  1
  Na  Na27  1  0.884093  0.768185  0.750000  1
