# generated using pymatgen
data_Er6I7
_symmetry_space_group_name_H-M   'P 1'
_cell_length_a   3.95072249
_cell_length_b   11.21498750
_cell_length_c   11.57823519
_cell_angle_alpha   66.32332122
_cell_angle_beta   80.17671601
_cell_angle_gamma   79.85523565
_symmetry_Int_Tables_number   1
_chemical_formula_structural   Er6I7
_chemical_formula_sum   'Er6 I7'
_cell_volume   459.62686244
_cell_formula_units_Z   1
loop_
 _symmetry_equiv_pos_site_id
 _symmetry_equiv_pos_as_xyz
  1  'x, y, z'
loop_
 _atom_site_type_symbol
 _atom_site_label
 _atom_site_symmetry_multiplicity
 _atom_site_fract_x
 _atom_site_fract_y
 _atom_site_fract_z
 _atom_site_occupancy
  Er  Er0  1  0.867698  0.711426  0.553179  1
  Er  Er1  1  0.687713  1.000514  0.624059  1
  Er  Er2  1  0.236645  0.720795  0.805915  1
  Er  Er3  1  0.312287  -0.000514  0.375941  1
  Er  Er4  1  0.763355  0.279205  0.194085  1
  Er  Er5  1  0.132302  0.288575  0.446821  1
  I  I6  1  0.386739  0.158484  0.068038  1
  I  I7  1  0.834527  0.496410  0.834535  1
  I  I8  1  0.165473  0.503590  0.165464  1
  I  I9  1  0.613261  0.841516  0.931962  1
  I  I10  1  0.946515  0.836810  0.270161  1
  I  I11  1  0.500000  0.500000  0.500000  1
  I  I12  1  0.053485  0.163190  0.729839  1
