# generated using pymatgen
data_K4Pt2(SO4)5
_symmetry_space_group_name_H-M   'P 1'
_cell_length_a   9.96628539
_cell_length_b   13.64958688
_cell_length_c   15.17121672
_cell_angle_alpha   101.35519234
_cell_angle_beta   96.01724299
_cell_angle_gamma   102.43534018
_symmetry_Int_Tables_number   1
_chemical_formula_structural   K4Pt2(SO4)5
_chemical_formula_sum   'K16 Pt8 S20 O80'
_cell_volume   1952.45637081
_cell_formula_units_Z   4
loop_
 _symmetry_equiv_pos_site_id
 _symmetry_equiv_pos_as_xyz
  1  'x, y, z'
loop_
 _atom_site_type_symbol
 _atom_site_label
 _atom_site_symmetry_multiplicity
 _atom_site_fract_x
 _atom_site_fract_y
 _atom_site_fract_z
 _atom_site_occupancy
  K  K0  1  0.138075  0.687754  0.275469  1
  K  K1  1  0.044579  0.622474  0.938868  1
  K  K2  1  0.418012  0.890148  0.057439  1
  K  K3  1  0.880714  0.955714  0.686585  1
  K  K4  1  0.371509  0.418185  0.655797  1
  K  K5  1  0.330324  0.795786  0.685418  1
  K  K6  1  0.628491  0.581815  0.344203  1
  K  K7  1  0.861925  0.312246  0.724531  1
  K  K8  1  0.762968  0.849009  0.272316  1
  K  K9  1  0.581988  0.109852  0.942561  1
  K  K10  1  0.955421  0.377526  0.061132  1
  K  K11  1  0.119286  0.044286  0.313415  1
  K  K12  1  0.690638  0.653127  0.691636  1
  K  K13  1  0.237032  0.150991  0.727684  1
  K  K14  1  0.669676  0.204214  0.314582  1
  K  K15  1  0.309362  0.346873  0.308364  1
  Pt  Pt16  1  0.989477  0.585689  0.484607  1
  Pt  Pt17  1  0.618149  0.058777  0.504549  1
  Pt  Pt18  1  0.381851  0.941223  0.495451  1
  Pt  Pt19  1  0.514113  0.585129  0.976762  1
  Pt  Pt20  1  0.894882  0.930647  0.956746  1
  Pt  Pt21  1  0.105118  0.069353  0.043254  1
  Pt  Pt22  1  0.010523  0.414311  0.515393  1
  Pt  Pt23  1  0.485887  0.414871  0.023238  1
  S  S24  1  0.572815  0.790504  0.877270  1
  S  S25  1  0.949123  0.413499  0.307851  1
  S  S26  1  0.640510  0.428082  0.855290  1
  S  S27  1  0.377541  0.170601  0.492493  1
  S  S28  1  0.534037  0.050217  0.692825  1
  S  S29  1  0.234948  0.421628  0.886314  1
  S  S30  1  0.427185  0.209496  0.122730  1
  S  S31  1  0.765052  0.578372  0.113686  1
  S  S32  1  0.465963  0.949783  0.307175  1
  S  S33  1  0.931597  0.142601  0.898196  1
  S  S34  1  0.359490  0.571918  0.144710  1
  S  S35  1  0.291855  0.551998  0.490588  1
  S  S36  1  0.160983  0.930792  0.868524  1
  S  S37  1  0.050877  0.586501  0.692149  1
  S  S38  1  0.958975  0.166713  0.530778  1
  S  S39  1  0.839017  0.069208  0.131476  1
  S  S40  1  0.622459  0.829399  0.507507  1
  S  S41  1  0.041025  0.833287  0.469222  1
  S  S42  1  0.068403  0.857399  0.101804  1
  S  S43  1  0.708145  0.448002  0.509412  1
  O  O44  1  0.282827  0.370356  0.962071  1
  O  O45  1  0.578762  0.524326  0.858667  1
  O  O46  1  0.353069  0.601221  0.584506  1
  O  O47  1  0.983501  0.122147  0.609913  1
  O  O48  1  0.421238  0.475674  0.141333  1
  O  O49  1  0.084987  0.482859  0.649431  1
  O  O50  1  0.006086  0.885879  0.553316  1
  O  O51  1  0.503557  0.720979  0.790284  1
  O  O52  1  0.793806  0.055443  0.217373  1
  O  O53  1  0.812365  0.391508  0.546568  1
  O  O54  1  0.939187  0.347006  0.380596  1
  O  O55  1  0.034178  0.177831  0.988484  1
  O  O56  1  0.998655  0.902371  0.848878  1
  O  O57  1  0.505392  0.120189  0.769957  1
  O  O58  1  0.494608  0.879811  0.230043  1
  O  O59  1  0.152153  0.781985  0.101655  1
  O  O60  1  0.965822  0.822169  0.011516  1
  O  O61  1  0.463449  0.109706  0.104499  1
  O  O62  1  0.463727  0.257566  0.043108  1
  O  O63  1  0.599184  0.970659  0.714021  1
  O  O64  1  0.610051  0.999509  0.368730  1
  O  O65  1  0.496443  0.279021  0.209716  1
  O  O66  1  0.271113  0.195653  0.126375  1
  O  O67  1  0.374953  0.216532  0.586955  1
  O  O68  1  0.207815  0.038775  0.934574  1
  O  O69  1  0.808510  0.176566  0.515839  1
  O  O70  1  0.995006  0.871616  0.179548  1
  O  O71  1  0.838710  0.360029  0.233098  1
  O  O72  1  0.785394  0.457441  0.898175  1
  O  O73  1  0.792185  0.961225  0.065426  1
  O  O74  1  0.705958  0.943775  0.531821  1
  O  O75  1  0.400816  0.029341  0.285979  1
  O  O76  1  0.001345  0.097629  0.151122  1
  O  O77  1  0.625047  0.783468  0.413045  1
  O  O78  1  0.528652  0.172094  0.475231  1
  O  O79  1  0.214606  0.542559  0.101825  1
  O  O80  1  0.449713  0.644571  0.095155  1
  O  O81  1  0.536551  0.890294  0.895501  1
  O  O82  1  0.609886  0.456894  0.572961  1
  O  O83  1  0.171009  0.960325  0.100000  1
  O  O84  1  0.060813  0.652994  0.619404  1
  O  O85  1  0.790546  0.560967  0.514151  1
  O  O86  1  0.004994  0.128384  0.820452  1
  O  O87  1  0.319260  0.219772  0.426163  1
  O  O88  1  0.374608  0.882070  0.359997  1
  O  O89  1  0.646931  0.398779  0.415494  1
  O  O90  1  0.471348  0.827906  0.524769  1
  O  O91  1  0.728887  0.804347  0.873625  1
  O  O92  1  0.625392  0.117930  0.640003  1
  O  O93  1  0.383145  0.624230  0.240282  1
  O  O94  1  0.993914  0.114121  0.446684  1
  O  O95  1  0.735767  0.629766  0.200759  1
  O  O96  1  0.389949  0.000491  0.631270  1
  O  O97  1  0.828991  0.039675  0.900000  1
  O  O98  1  0.088119  0.433636  0.282900  1
  O  O99  1  0.550287  0.355429  0.904845  1
  O  O100  1  0.390114  0.543107  0.427039  1
  O  O101  1  0.915013  0.517141  0.350569  1
  O  O102  1  0.536273  0.742434  0.956892  1
  O  O103  1  0.043883  0.279088  0.560889  1
  O  O104  1  0.209726  0.854325  0.908364  1
  O  O105  1  0.616855  0.375770  0.759718  1
  O  O106  1  0.688034  0.462648  0.087976  1
  O  O107  1  0.912145  0.581505  0.112039  1
  O  O108  1  0.294042  0.056225  0.468179  1
  O  O109  1  0.087855  0.418495  0.887961  1
  O  O110  1  0.311966  0.537352  0.912024  1
  O  O111  1  0.209454  0.439033  0.485849  1
  O  O112  1  0.956117  0.720912  0.439111  1
  O  O113  1  0.680740  0.780228  0.573837  1
  O  O114  1  0.790274  0.145675  0.091636  1
  O  O115  1  0.191490  0.823434  0.484161  1
  O  O116  1  0.187635  0.608492  0.453432  1
  O  O117  1  0.016499  0.877853  0.390087  1
  O  O118  1  0.161290  0.639971  0.766902  1
  O  O119  1  0.264233  0.370234  0.799241  1
  O  O120  1  0.911881  0.566364  0.717100  1
  O  O121  1  0.847847  0.218015  0.898345  1
  O  O122  1  0.206194  0.944557  0.782627  1
  O  O123  1  0.717173  0.629644  0.037929  1
