# generated using pymatgen
data_KBa4Au(CO)4
_symmetry_space_group_name_H-M   'P 1'
_cell_length_a   6.16181971
_cell_length_b   6.16181995
_cell_length_c   8.90956826
_cell_angle_alpha   110.23050850
_cell_angle_beta   110.23050934
_cell_angle_gamma   89.99999890
_symmetry_Int_Tables_number   1
_chemical_formula_structural   KBa4Au(CO)4
_chemical_formula_sum   'K1 Ba4 Au1 C4 O4'
_cell_volume   295.06894524
_cell_formula_units_Z   1
loop_
 _symmetry_equiv_pos_site_id
 _symmetry_equiv_pos_as_xyz
  1  'x, y, z'
loop_
 _atom_site_type_symbol
 _atom_site_label
 _atom_site_symmetry_multiplicity
 _atom_site_fract_x
 _atom_site_fract_y
 _atom_site_fract_z
 _atom_site_occupancy
  K  K0  1  0.500000  0.500000  0.000000  1
  Ba  Ba1  1  0.618016  0.118016  0.236033  1
  Ba  Ba2  1  0.381984  0.881984  0.763967  1
  Ba  Ba3  1  0.118016  0.618016  0.236033  1
  Ba  Ba4  1  0.881984  0.381984  0.763967  1
  Au  Au5  1  0.000000  0.000000  0.000000  1
  C  C6  1  0.309128  0.309128  0.618257  1
  C  C7  1  0.690872  0.690872  0.381743  1
  C  C8  1  0.227414  0.227414  0.454828  1
  C  C9  1  0.772586  0.772586  0.545172  1
  O  O10  1  0.770405  0.770405  1.000000  1
  O  O11  1  0.770405  0.229595  0.000000  1
  O  O12  1  0.229595  0.770405  1.000000  1
  O  O13  1  0.229595  0.229595  0.000000  1
