# generated using pymatgen
data_Ca2MgSi2O7
_symmetry_space_group_name_H-M   'P 1'
_cell_length_a   7.81410969
_cell_length_b   9.22347018
_cell_length_c   9.37605812
_cell_angle_alpha   115.13826437
_cell_angle_beta   90.00000000
_cell_angle_gamma   90.00000000
_symmetry_Int_Tables_number   1
_chemical_formula_structural   Ca2MgSi2O7
_chemical_formula_sum   'Ca8 Mg4 Si8 O28'
_cell_volume   611.75793388
_cell_formula_units_Z   4
loop_
 _symmetry_equiv_pos_site_id
 _symmetry_equiv_pos_as_xyz
  1  'x, y, z'
loop_
 _atom_site_type_symbol
 _atom_site_label
 _atom_site_symmetry_multiplicity
 _atom_site_fract_x
 _atom_site_fract_y
 _atom_site_fract_z
 _atom_site_occupancy
  Ca  Ca0  1  0.443835  0.720319  0.801166  1
  Ca  Ca1  1  0.281995  0.456963  0.026169  1
  Ca  Ca2  1  0.218005  0.956963  0.526169  1
  Ca  Ca3  1  0.943835  0.779681  0.698834  1
  Ca  Ca4  1  0.556165  0.279681  0.198834  1
  Ca  Ca5  1  0.056165  0.220319  0.301166  1
  Ca  Ca6  1  0.781995  0.043037  0.473831  1
  Ca  Ca7  1  0.718005  0.543037  0.973831  1
  Mg  Mg8  1  0.103437  0.828726  0.112665  1
  Mg  Mg9  1  0.396563  0.328726  0.612665  1
  Mg  Mg10  1  0.896563  0.171274  0.887335  1
  Mg  Mg11  1  0.603437  0.671274  0.387335  1
  Si  Si12  1  0.728730  0.469723  0.583004  1
  Si  Si13  1  0.039953  0.371790  0.711514  1
  Si  Si14  1  0.271270  0.530277  0.416996  1
  Si  Si15  1  0.539953  0.128210  0.788486  1
  Si  Si16  1  0.228730  0.030277  0.916996  1
  Si  Si17  1  0.960047  0.628210  0.288486  1
  Si  Si18  1  0.771270  0.969723  0.083004  1
  Si  Si19  1  0.460047  0.871790  0.211514  1
  O  O20  1  0.272533  0.952094  0.274535  1
  O  O21  1  0.437558  0.136338  0.640339  1
  O  O22  1  0.928512  0.499428  0.659376  1
  O  O23  1  0.571488  -0.000572  0.159376  1
  O  O24  1  0.428512  1.000572  0.840624  1
  O  O25  1  0.951531  0.801797  0.444345  1
  O  O26  1  0.937558  0.363662  0.859661  1
  O  O27  1  0.906030  0.970269  0.218344  1
  O  O28  1  0.548469  0.301797  0.944345  1
  O  O29  1  0.687491  0.636620  0.567454  1
  O  O30  1  0.406030  0.529731  0.281656  1
  O  O31  1  0.451531  0.698203  0.055655  1
  O  O32  1  0.093970  0.029731  0.781656  1
  O  O33  1  0.227467  0.452094  0.774535  1
  O  O34  1  0.062442  0.636338  0.140339  1
  O  O35  1  0.722027  0.300619  0.426769  1
  O  O36  1  0.048469  0.198203  0.555655  1
  O  O37  1  0.222027  0.199381  0.073231  1
  O  O38  1  0.727467  0.047906  0.725465  1
  O  O39  1  0.071488  0.500572  0.340624  1
  O  O40  1  0.777973  0.800619  0.926769  1
  O  O41  1  0.312509  0.363380  0.432546  1
  O  O42  1  0.772533  0.547906  0.225465  1
  O  O43  1  0.562442  0.863662  0.359661  1
  O  O44  1  0.187491  0.863380  0.932546  1
  O  O45  1  0.812509  0.136620  0.067454  1
  O  O46  1  0.277973  0.699381  0.573231  1
  O  O47  1  0.593970  0.470269  0.718344  1
