# generated using pymatgen
data_SrSm2Nb2O9
_symmetry_space_group_name_H-M   'P 1'
_cell_length_a   5.60580868
_cell_length_b   5.66322475
_cell_length_c   12.95737935
_cell_angle_alpha   90.00000000
_cell_angle_beta   102.49282099
_cell_angle_gamma   90.00000000
_symmetry_Int_Tables_number   1
_chemical_formula_structural   SrSm2Nb2O9
_chemical_formula_sum   'Sr2 Sm4 Nb4 O18'
_cell_volume   401.61767371
_cell_formula_units_Z   2
loop_
 _symmetry_equiv_pos_site_id
 _symmetry_equiv_pos_as_xyz
  1  'x, y, z'
loop_
 _atom_site_type_symbol
 _atom_site_label
 _atom_site_symmetry_multiplicity
 _atom_site_fract_x
 _atom_site_fract_y
 _atom_site_fract_z
 _atom_site_occupancy
  Sr  Sr0  1  0.247765  0.124658  1.000000  1
  Sr  Sr1  1  0.752235  0.624658  0.000000  1
  Sm  Sm2  1  0.989223  0.486181  0.409680  1
  Sm  Sm3  1  0.010777  -0.013819  0.590320  1
  Sm  Sm4  1  0.420457  -0.013819  0.409680  1
  Sm  Sm5  1  0.579543  0.486181  0.590320  1
  Nb  Nb6  1  0.162440  0.609674  0.832285  1
  Nb  Nb7  1  0.837560  0.109674  0.167715  1
  Nb  Nb8  1  0.669844  0.109674  0.832285  1
  Nb  Nb9  1  0.330156  0.609674  0.167715  1
  O  O10  1  0.311029  0.583399  0.000000  1
  O  O11  1  0.688971  0.083399  1.000000  1
  O  O12  1  -0.015055  0.612736  0.690441  1
  O  O13  1  1.015055  1.112736  0.309559  1
  O  O14  1  0.705496  1.112736  0.690441  1
  O  O15  1  0.294504  0.612736  0.309559  1
  O  O16  1  0.254715  0.244525  0.517757  1
  O  O17  1  0.745285  0.744525  0.482243  1
  O  O18  1  0.263042  0.744525  0.517757  1
  O  O19  1  0.736958  0.244525  0.482243  1
  O  O20  1  0.914124  0.363251  0.871617  1
  O  O21  1  0.085876  0.863251  0.128383  1
  O  O22  1  0.957493  0.863251  0.871617  1
  O  O23  1  0.042507  0.363251  0.128383  1
  O  O24  1  0.565185  0.314661  0.181047  1
  O  O25  1  0.434815  0.814661  0.818953  1
  O  O26  1  0.615862  0.814661  0.181047  1
  O  O27  1  0.384138  0.314661  0.818953  1
