# generated using pymatgen
data_K5V3F14
_symmetry_space_group_name_H-M   'P 1'
_cell_length_a   7.79513225
_cell_length_b   7.79513225
_cell_length_c   11.89316061
_cell_angle_alpha   90.00000000
_cell_angle_beta   90.00000000
_cell_angle_gamma   90.00000000
_symmetry_Int_Tables_number   1
_chemical_formula_structural   K5V3F14
_chemical_formula_sum   'K10 V6 F28'
_cell_volume   722.67704357
_cell_formula_units_Z   2
loop_
 _symmetry_equiv_pos_site_id
 _symmetry_equiv_pos_as_xyz
  1  'x, y, z'
loop_
 _atom_site_type_symbol
 _atom_site_label
 _atom_site_symmetry_multiplicity
 _atom_site_fract_x
 _atom_site_fract_y
 _atom_site_fract_z
 _atom_site_occupancy
  F  F0  1  0.500000  0.500000  0.835597  1
  F  F1  1  0.000000  0.000000  0.664403  1
  F  F2  1  0.500000  0.500000  0.164403  1
  F  F3  1  0.000000  0.000000  0.335597  1
  F  F4  1  0.427796  0.746317  0.000000  1
  F  F5  1  0.572204  0.253683  0.000000  1
  F  F6  1  0.246317  0.927796  0.500000  1
  F  F7  1  0.746317  0.572204  0.000000  1
  F  F8  1  0.253683  0.427796  0.000000  1
  F  F9  1  0.072204  0.246317  0.500000  1
  F  F10  1  0.927796  0.753683  0.500000  1
  F  F11  1  0.753683  0.072204  0.500000  1
  F  F12  1  0.674700  0.959587  0.885443  1
  F  F13  1  0.325300  0.040413  0.885443  1
  F  F14  1  0.459587  0.174700  0.614557  1
  F  F15  1  0.959587  0.325300  0.885443  1
  F  F16  1  0.459587  0.174700  0.385443  1
  F  F17  1  0.825300  0.459587  0.385443  1
  F  F18  1  0.174700  0.540413  0.385443  1
  F  F19  1  0.959587  0.325300  0.114557  1
  F  F20  1  0.040413  0.674700  0.114557  1
  F  F21  1  0.540413  0.825300  0.385443  1
  F  F22  1  0.674700  0.959587  0.114557  1
  F  F23  1  0.325300  0.040413  0.114557  1
  F  F24  1  0.540413  0.825300  0.614557  1
  F  F25  1  0.174700  0.540413  0.614557  1
  F  F26  1  0.825300  0.459587  0.614557  1
  F  F27  1  0.040413  0.674700  0.885443  1
  K  K28  1  0.218430  0.281570  0.750000  1
  K  K29  1  0.718430  0.218430  0.750000  1
  K  K30  1  0.281570  0.781570  0.750000  1
  K  K31  1  0.781570  0.718430  0.750000  1
  K  K32  1  0.781570  0.718430  0.250000  1
  K  K33  1  0.281570  0.781570  0.250000  1
  K  K34  1  0.718430  0.218430  0.250000  1
  K  K35  1  0.218430  0.281570  0.250000  1
  K  K36  1  0.000000  0.000000  0.000000  1
  K  K37  1  0.500000  0.500000  0.500000  1
  V  V38  1  0.500000  0.500000  0.000000  1
  V  V39  1  0.000000  0.000000  0.500000  1
  V  V40  1  0.500000  0.000000  0.000000  1
  V  V41  1  0.000000  0.500000  0.000000  1
  V  V42  1  0.000000  0.500000  0.500000  1
  V  V43  1  0.500000  0.000000  0.500000  1
