# generated using pymatgen
data_Eu(ErS2)2
_symmetry_space_group_name_H-M   'P 1'
_cell_length_a   3.94289710
_cell_length_b   11.88883294
_cell_length_c   14.20438450
_cell_angle_alpha   90.00000000
_cell_angle_beta   90.00000000
_cell_angle_gamma   90.00000000
_symmetry_Int_Tables_number   1
_chemical_formula_structural   Eu(ErS2)2
_chemical_formula_sum   'Eu4 Er8 S16'
_cell_volume   665.85104766
_cell_formula_units_Z   4
loop_
 _symmetry_equiv_pos_site_id
 _symmetry_equiv_pos_as_xyz
  1  'x, y, z'
loop_
 _atom_site_type_symbol
 _atom_site_label
 _atom_site_symmetry_multiplicity
 _atom_site_fract_x
 _atom_site_fract_y
 _atom_site_fract_z
 _atom_site_occupancy
  Eu  Eu0  1  0.750000  0.242159  0.337829  1
  Eu  Eu1  1  0.250000  0.757841  0.662171  1
  Eu  Eu2  1  0.750000  0.742159  0.162171  1
  Eu  Eu3  1  0.250000  0.257841  0.837829  1
  Er  Er4  1  0.750000  0.581129  0.899756  1
  Er  Er5  1  0.250000  0.418872  0.100244  1
  Er  Er6  1  0.750000  0.081129  0.600244  1
  Er  Er7  1  0.250000  0.918871  0.399756  1
  Er  Er8  1  0.750000  0.567064  0.389558  1
  Er  Er9  1  0.250000  0.432936  0.610442  1
  Er  Er10  1  0.750000  0.067064  0.110442  1
  Er  Er11  1  0.250000  0.932936  0.889558  1
  S  S12  1  0.750000  0.868935  0.528256  1
  S  S13  1  0.250000  0.131065  0.471744  1
  S  S14  1  0.750000  0.368935  0.971744  1
  S  S15  1  0.250000  0.631065  0.028256  1
  S  S16  1  0.750000  0.977148  0.284152  1
  S  S17  1  0.250000  0.022852  0.715848  1
  S  S18  1  0.750000  0.477148  0.215848  1
  S  S19  1  0.250000  0.522852  0.784152  1
  S  S20  1  0.750000  0.587824  0.578883  1
  S  S21  1  0.250000  0.412176  0.421117  1
  S  S22  1  0.750000  0.087824  0.921117  1
  S  S23  1  0.250000  0.912176  0.078883  1
  S  S24  1  0.750000  0.792604  0.824346  1
  S  S25  1  0.250000  0.207396  0.175654  1
  S  S26  1  0.750000  0.292604  0.675654  1
  S  S27  1  0.250000  0.707396  0.324346  1
