# generated using pymatgen
data_K2(MoSe6)3
_symmetry_space_group_name_H-M   'P 1'
_cell_length_a   10.62706323
_cell_length_b   10.86356679
_cell_length_c   12.89827951
_cell_angle_alpha   90.00000000
_cell_angle_beta   90.00000000
_cell_angle_gamma   116.70302233
_symmetry_Int_Tables_number   1
_chemical_formula_structural   K2(MoSe6)3
_chemical_formula_sum   'K4 Mo6 Se36'
_cell_volume   1330.26450710
_cell_formula_units_Z   2
loop_
 _symmetry_equiv_pos_site_id
 _symmetry_equiv_pos_as_xyz
  1  'x, y, z'
loop_
 _atom_site_type_symbol
 _atom_site_label
 _atom_site_symmetry_multiplicity
 _atom_site_fract_x
 _atom_site_fract_y
 _atom_site_fract_z
 _atom_site_occupancy
  Mo  Mo0  1  0.088278  0.487881  0.768807  1
  Mo  Mo1  1  0.911722  0.512119  0.268807  1
  Mo  Mo2  1  0.242186  0.337979  0.761311  1
  Mo  Mo3  1  0.757814  0.662021  0.261311  1
  Mo  Mo4  1  0.947487  0.200332  0.749505  1
  Mo  Mo5  1  0.052513  0.799668  0.249505  1
  Se  Se6  1  0.102273  0.362173  0.610125  1
  Se  Se7  1  0.897727  0.637827  0.110125  1
  Se  Se8  1  0.089076  0.719331  0.843514  1
  Se  Se9  1  0.910924  0.280669  0.343514  1
  Se  Se10  1  0.105281  0.701266  0.661826  1
  Se  Se11  1  0.894719  0.298734  0.161826  1
  Se  Se12  1  0.110930  0.315950  0.087685  1
  Se  Se13  1  0.889070  0.684050  0.587685  1
  Se  Se14  1  0.905818  0.333905  0.899427  1
  Se  Se15  1  0.094182  0.666095  0.399427  1
  Se  Se16  1  0.814657  0.357838  0.738424  1
  Se  Se17  1  0.185343  0.642162  0.238424  1
  Se  Se18  1  0.106077  0.073864  0.718562  1
  Se  Se19  1  0.893923  0.926136  0.218562  1
  Se  Se20  1  0.091654  0.149037  0.889881  1
  Se  Se21  1  0.908346  0.850963  0.389881  1
  Se  Se22  1  0.259553  0.501620  0.912879  1
  Se  Se23  1  0.740447  0.498380  0.412879  1
  Se  Se24  1  0.366916  0.608811  0.750792  1
  Se  Se25  1  0.633084  0.391189  0.250792  1
  Se  Se26  1  0.830574  0.105095  0.567508  1
  Se  Se27  1  0.169426  0.894905  0.067508  1
  Se  Se28  1  0.589682  0.930950  0.571503  1
  Se  Se29  1  0.410318  0.069050  0.071503  1
  Se  Se30  1  0.436014  0.297220  0.034926  1
  Se  Se31  1  0.563986  0.702780  0.534926  1
  Se  Se32  1  0.467222  0.329648  0.848540  1
  Se  Se33  1  0.532778  0.670352  0.348540  1
  Se  Se34  1  0.721631  0.971253  0.809059  1
  Se  Se35  1  0.278369  0.028747  0.309059  1
  Se  Se36  1  0.761056  0.985693  0.995161  1
  Se  Se37  1  0.238944  0.014307  0.495161  1
  Se  Se38  1  0.452320  0.166386  0.576140  1
  Se  Se39  1  0.547680  0.833614  0.076140  1
  Se  Se40  1  0.440471  0.375863  0.620053  1
  Se  Se41  1  0.559529  0.624137  0.120053  1
  K  K42  1  0.263666  0.336200  0.346010  1
  K  K43  1  0.736334  0.663800  0.846010  1
  K  K44  1  0.417145  0.997139  0.812963  1
  K  K45  1  0.582855  0.002861  0.312963  1
