# generated using pymatgen
data_Pr3Si2Cl3O7
_symmetry_space_group_name_H-M   'P 1'
_cell_length_a   5.36168837
_cell_length_b   8.00399044
_cell_length_c   12.21945354
_cell_angle_alpha   90.00000000
_cell_angle_beta   90.00000000
_cell_angle_gamma   110.57718694
_symmetry_Int_Tables_number   1
_chemical_formula_structural   Pr3Si2Cl3O7
_chemical_formula_sum   'Pr6 Si4 Cl6 O14'
_cell_volume   490.93991484
_cell_formula_units_Z   2
loop_
 _symmetry_equiv_pos_site_id
 _symmetry_equiv_pos_as_xyz
  1  'x, y, z'
loop_
 _atom_site_type_symbol
 _atom_site_label
 _atom_site_symmetry_multiplicity
 _atom_site_fract_x
 _atom_site_fract_y
 _atom_site_fract_z
 _atom_site_occupancy
  Pr  Pr0  1  0.324862  0.530623  0.897537  1
  Pr  Pr1  1  0.611643  0.079339  0.875863  1
  Pr  Pr2  1  0.388357  0.920661  0.375863  1
  Pr  Pr3  1  0.149690  0.202750  0.621805  1
  Pr  Pr4  1  0.850310  0.797250  0.121805  1
  Pr  Pr5  1  0.675138  0.469377  0.397537  1
  Si  Si6  1  0.930512  0.817459  0.823678  1
  Si  Si7  1  0.276013  0.564375  0.211282  1
  Si  Si8  1  0.069487  0.182541  0.323678  1
  Si  Si9  1  0.723987  0.435625  0.711282  1
  Cl  Cl10  1  0.212297  0.557170  0.494758  1
  Cl  Cl11  1  0.875098  0.832398  0.491141  1
  Cl  Cl12  1  0.520187  0.008089  0.117914  1
  Cl  Cl13  1  0.787703  0.442830  0.994757  1
  Cl  Cl14  1  0.479813  0.991911  0.617914  1
  Cl  Cl15  1  0.124902  0.167602  0.991141  1
  O  O16  1  0.370711  0.597594  0.084903  1
  O  O17  1  0.276732  0.196568  0.427071  1
  O  O18  1  0.976779  0.378532  0.747856  1
  O  O19  1  0.781417  0.191562  0.360582  1
  O  O20  1  0.060664  1.000842  0.262049  1
  O  O21  1  0.541388  0.693406  0.280057  1
  O  O22  1  0.458612  0.306594  0.780057  1
  O  O23  1  0.244578  0.361133  0.251524  1
  O  O24  1  0.023221  0.621468  0.247856  1
  O  O25  1  0.755422  0.638867  0.751524  1
  O  O26  1  0.723268  0.803432  0.927071  1
  O  O27  1  0.218583  0.808438  0.860582  1
  O  O28  1  0.939336  -0.000842  0.762049  1
  O  O29  1  0.629289  0.402406  0.584903  1
