# generated using pymatgen
data_U(CoB)4
_symmetry_space_group_name_H-M   'P 1'
_cell_length_a   5.00051860
_cell_length_b   5.00051860
_cell_length_c   6.98143730
_cell_angle_alpha   90.00000000
_cell_angle_beta   90.00000000
_cell_angle_gamma   90.00000000
_symmetry_Int_Tables_number   1
_chemical_formula_structural   U(CoB)4
_chemical_formula_sum   'U2 Co8 B8'
_cell_volume   174.57214011
_cell_formula_units_Z   2
loop_
 _symmetry_equiv_pos_site_id
 _symmetry_equiv_pos_as_xyz
  1  'x, y, z'
loop_
 _atom_site_type_symbol
 _atom_site_label
 _atom_site_symmetry_multiplicity
 _atom_site_fract_x
 _atom_site_fract_y
 _atom_site_fract_z
 _atom_site_occupancy
  U  U0  1  0.750000  0.250000  0.250000  1
  U  U1  1  0.250000  0.750000  0.750000  1
  Co  Co2  1  0.250000  0.003650  0.391224  1
  Co  Co3  1  0.496350  0.250000  0.891224  1
  Co  Co4  1  0.003650  0.250000  0.891224  1
  Co  Co5  1  0.750000  0.996350  0.608776  1
  Co  Co6  1  0.750000  0.503650  0.608776  1
  Co  Co7  1  0.250000  0.496350  0.391224  1
  Co  Co8  1  0.503650  0.750000  0.108776  1
  Co  Co9  1  0.996350  0.750000  0.108776  1
  B  B10  1  0.250000  0.076203  0.094868  1
  B  B11  1  0.423797  0.250000  0.594868  1
  B  B12  1  0.076203  0.250000  0.594868  1
  B  B13  1  0.750000  0.923797  0.905132  1
  B  B14  1  0.750000  0.576203  0.905132  1
  B  B15  1  0.250000  0.423797  0.094868  1
  B  B16  1  0.576203  0.750000  0.405132  1
  B  B17  1  0.923797  0.750000  0.405132  1
