# generated using pymatgen
data_VINCl3
_symmetry_space_group_name_H-M   'P 1'
_cell_length_a   6.08440288
_cell_length_b   7.70580249
_cell_length_c   8.58777689
_cell_angle_alpha   63.58328566
_cell_angle_beta   85.98072760
_cell_angle_gamma   72.21882268
_symmetry_Int_Tables_number   1
_chemical_formula_structural   VINCl3
_chemical_formula_sum   'V2 I2 N2 Cl6'
_cell_volume   342.34833784
_cell_formula_units_Z   2
loop_
 _symmetry_equiv_pos_site_id
 _symmetry_equiv_pos_as_xyz
  1  'x, y, z'
loop_
 _atom_site_type_symbol
 _atom_site_label
 _atom_site_symmetry_multiplicity
 _atom_site_fract_x
 _atom_site_fract_y
 _atom_site_fract_z
 _atom_site_occupancy
  V  V0  1  0.748668  0.520837  0.855888  1
  V  V1  1  0.251332  0.479163  0.144112  1
  I  I2  1  0.713528  0.181237  0.685511  1
  I  I3  1  0.286472  0.818763  0.314489  1
  N  N4  1  0.708878  0.397301  0.751296  1
  N  N5  1  0.291122  0.602699  0.248704  1
  Cl  Cl6  1  0.868916  0.662168  0.067606  1
  Cl  Cl7  1  0.774412  0.808823  0.625495  1
  Cl  Cl8  1  0.131084  0.337832  0.932394  1
  Cl  Cl9  1  0.644639  0.286215  0.131531  1
  Cl  Cl10  1  0.225588  0.191177  0.374505  1
  Cl  Cl11  1  0.355361  0.713785  0.868469  1
