# generated using pymatgen
data_Co(RhO2)2
_symmetry_space_group_name_H-M   'P 1'
_cell_length_a   6.10349783
_cell_length_b   6.10859210
_cell_length_c   6.10584306
_cell_angle_alpha   60.01484588
_cell_angle_beta   59.98729030
_cell_angle_gamma   59.88872356
_symmetry_Int_Tables_number   1
_chemical_formula_structural   Co(RhO2)2
_chemical_formula_sum   'Co2 Rh4 O8'
_cell_volume   160.83884589
_cell_formula_units_Z   2
loop_
 _symmetry_equiv_pos_site_id
 _symmetry_equiv_pos_as_xyz
  1  'x, y, z'
loop_
 _atom_site_type_symbol
 _atom_site_label
 _atom_site_symmetry_multiplicity
 _atom_site_fract_x
 _atom_site_fract_y
 _atom_site_fract_z
 _atom_site_occupancy
  Co  Co0  1  0.125252  0.124996  0.124876  1
  Co  Co1  1  0.874744  0.875005  0.875126  1
  Rh  Rh2  1  0.500004  0.500001  0.999992  1
  Rh  Rh3  1  0.500002  0.999992  0.500004  1
  Rh  Rh4  1  0.500003  0.500003  0.500002  1
  Rh  Rh5  1  0.999993  0.500004  0.500001  1
  O  O6  1  0.739904  0.739943  0.740677  1
  O  O7  1  0.740583  0.279562  0.739927  1
  O  O8  1  0.739902  0.739945  0.279477  1
  O  O9  1  0.260091  0.260051  0.720538  1
  O  O10  1  0.260092  0.260050  0.259320  1
  O  O11  1  0.279722  0.740547  0.739865  1
  O  O12  1  0.259417  0.720453  0.260065  1
  O  O13  1  0.720293  0.259448  0.260130  1
