# generated using pymatgen
data_GdH6C4NO9
_symmetry_space_group_name_H-M   'P 1'
_cell_length_a   6.15088059
_cell_length_b   7.95256049
_cell_length_c   9.54488336
_cell_angle_alpha   90.40774015
_cell_angle_beta   90.00000000
_cell_angle_gamma   90.00000000
_symmetry_Int_Tables_number   1
_chemical_formula_structural   GdH6C4NO9
_chemical_formula_sum   'Gd2 H12 C8 N2 O18'
_cell_volume   466.87853324
_cell_formula_units_Z   2
loop_
 _symmetry_equiv_pos_site_id
 _symmetry_equiv_pos_as_xyz
  1  'x, y, z'
loop_
 _atom_site_type_symbol
 _atom_site_label
 _atom_site_symmetry_multiplicity
 _atom_site_fract_x
 _atom_site_fract_y
 _atom_site_fract_z
 _atom_site_occupancy
  Gd  Gd0  1  0.396320  0.250000  0.750000  1
  Gd  Gd1  1  0.603680  0.750000  0.250000  1
  H  H2  1  0.080291  0.662110  0.697446  1
  H  H3  1  0.914724  0.225301  0.830272  1
  H  H4  1  0.114556  0.311796  0.178514  1
  H  H5  1  0.914724  0.274699  0.669728  1
  H  H6  1  0.080291  0.837890  0.802554  1
  H  H7  1  0.085276  0.774699  0.169728  1
  H  H8  1  0.885444  0.811796  0.678514  1
  H  H9  1  0.085276  0.725301  0.330272  1
  H  H10  1  0.919709  0.162110  0.197446  1
  H  H11  1  0.919709  0.337890  0.302554  1
  H  H12  1  0.114556  0.188204  0.321486  1
  H  H13  1  0.885444  0.688204  0.821486  1
  C  C14  1  0.595578  0.537124  0.957493  1
  C  C15  1  0.595578  0.962876  0.542507  1
  C  C16  1  0.389618  0.953698  0.986802  1
  C  C17  1  0.610382  0.046302  0.013198  1
  C  C18  1  0.610382  0.453698  0.486802  1
  C  C19  1  0.389618  0.546302  0.513198  1
  C  C20  1  0.404422  0.037124  0.457493  1
  C  C21  1  0.404422  0.462876  0.042507  1
  N  N22  1  0.983495  0.750000  0.750000  1
  N  N23  1  0.016505  0.250000  0.250000  1
  O  O24  1  0.611162  0.493475  0.830229  1
  O  O25  1  0.277150  0.000100  0.882694  1
  O  O26  1  0.660904  0.162399  0.929226  1
  O  O27  1  0.722850  0.999900  0.117306  1
  O  O28  1  0.723336  0.637597  0.020554  1
  O  O29  1  0.388838  0.993475  0.330229  1
  O  O30  1  0.276664  0.137597  0.520554  1
  O  O31  1  0.339096  0.837601  0.070774  1
  O  O32  1  0.339096  0.662399  0.429226  1
  O  O33  1  0.276664  0.362403  0.979446  1
  O  O34  1  0.722850  0.500100  0.382694  1
  O  O35  1  0.660904  0.337601  0.570774  1
  O  O36  1  0.611162  0.006525  0.669771  1
  O  O37  1  0.277150  0.499900  0.617306  1
  O  O38  1  0.009576  0.250000  0.750000  1
  O  O39  1  0.990424  0.750000  0.250000  1
  O  O40  1  0.388838  0.506525  0.169771  1
  O  O41  1  0.723336  0.862403  0.479446  1
