# generated using pymatgen
data_Al(PO3)3
_symmetry_space_group_name_H-M   'P 1'
_cell_length_a   11.09026265
_cell_length_b   11.09026284
_cell_length_c   9.32589588
_cell_angle_alpha   90.00000000
_cell_angle_beta   90.00000000
_cell_angle_gamma   119.99999941
_symmetry_Int_Tables_number   1
_chemical_formula_structural   Al(PO3)3
_chemical_formula_sum   'Al6 P18 O54'
_cell_volume   993.35588116
_cell_formula_units_Z   6
loop_
 _symmetry_equiv_pos_site_id
 _symmetry_equiv_pos_as_xyz
  1  'x, y, z'
loop_
 _atom_site_type_symbol
 _atom_site_label
 _atom_site_symmetry_multiplicity
 _atom_site_fract_x
 _atom_site_fract_y
 _atom_site_fract_z
 _atom_site_occupancy
  Al  Al0  1  0.333333  0.666667  0.001980  1
  Al  Al1  1  0.666667  0.333333  0.498020  1
  Al  Al2  1  0.666667  0.333333  0.998020  1
  Al  Al3  1  0.333333  0.666667  0.501980  1
  Al  Al4  1  0.000000  0.000000  0.500000  1
  Al  Al5  1  0.000000  0.000000  0.000000  1
  P  P6  1  1.000000  0.204016  0.250000  1
  P  P7  1  0.795984  0.000000  0.750000  1
  P  P8  1  0.158997  0.712472  0.256666  1
  P  P9  1  0.204016  0.204016  0.750000  1
  P  P10  1  0.712472  0.553475  0.743334  1
  P  P11  1  0.841003  0.553475  0.243334  1
  P  P12  1  0.158997  0.446525  0.756666  1
  P  P13  1  0.446525  0.287528  0.243334  1
  P  P14  1  0.795984  0.795984  0.250000  1
  P  P15  1  0.204016  0.000000  0.250000  1
  P  P16  1  0.446525  0.158997  0.743334  1
  P  P17  1  0.000000  0.795984  0.750000  1
  P  P18  1  0.553475  0.841003  0.256666  1
  P  P19  1  0.712472  0.158997  0.243334  1
  P  P20  1  0.287528  0.841003  0.756666  1
  P  P21  1  0.287528  0.446525  0.256666  1
  P  P22  1  0.553475  0.712472  0.756666  1
  P  P23  1  0.841003  0.287528  0.743334  1
  O  O24  1  0.182551  0.535572  0.886050  1
  O  O25  1  0.535572  0.353021  0.113950  1
  O  O26  1  0.483517  0.682988  0.613709  1
  O  O27  1  0.882587  0.844678  0.383603  1
  O  O28  1  0.317012  0.800529  0.613709  1
  O  O29  1  0.674992  0.000000  0.250000  1
  O  O30  1  0.764145  0.122559  0.715373  1
  O  O31  1  0.844678  0.882587  0.116397  1
  O  O32  1  0.182551  0.646979  0.386050  1
  O  O33  1  0.464428  0.646979  0.886050  1
  O  O34  1  0.483517  0.800529  0.113709  1
  O  O35  1  0.199471  0.516483  0.613709  1
  O  O36  1  0.037909  0.155322  0.116397  1
  O  O37  1  0.358414  0.122559  0.215373  1
  O  O38  1  0.516483  0.199471  0.886291  1
  O  O39  1  0.535572  0.182551  0.613950  1
  O  O40  1  0.325008  0.000000  0.750000  1
  O  O41  1  0.317012  0.516483  0.113709  1
  O  O42  1  0.674992  0.674992  0.750000  1
  O  O43  1  0.877441  0.641586  0.715373  1
  O  O44  1  0.155322  0.037909  0.383603  1
  O  O45  1  0.800529  0.317012  0.886291  1
  O  O46  1  0.122559  0.358414  0.284627  1
  O  O47  1  0.000000  0.674992  0.250000  1
  O  O48  1  0.646979  0.182551  0.113950  1
  O  O49  1  0.358414  0.235855  0.715373  1
  O  O50  1  0.817449  0.353021  0.613950  1
  O  O51  1  0.877441  0.235855  0.215373  1
  O  O52  1  0.817449  0.464428  0.113950  1
  O  O53  1  0.646979  0.464428  0.613950  1
  O  O54  1  0.962091  0.117413  0.383603  1
  O  O55  1  0.353021  0.817449  0.886050  1
  O  O56  1  0.353021  0.535572  0.386050  1
  O  O57  1  0.235855  0.877441  0.284627  1
  O  O58  1  0.037909  0.882587  0.616397  1
  O  O59  1  0.516483  0.317012  0.386291  1
  O  O60  1  0.464428  0.817449  0.386050  1
  O  O61  1  0.800529  0.483517  0.386291  1
  O  O62  1  0.641586  0.877441  0.784627  1
  O  O63  1  0.764145  0.641586  0.215373  1
  O  O64  1  0.325008  0.325008  0.250000  1
  O  O65  1  0.682988  0.199471  0.386291  1
  O  O66  1  0.117413  0.962091  0.116397  1
  O  O67  1  1.000000  0.325008  0.750000  1
  O  O68  1  0.641586  0.764145  0.284627  1
  O  O69  1  0.155322  0.117413  0.883603  1
  O  O70  1  0.235855  0.358414  0.784627  1
  O  O71  1  0.844678  0.962091  0.616397  1
  O  O72  1  0.122559  0.764145  0.784627  1
  O  O73  1  0.199471  0.682988  0.113709  1
  O  O74  1  0.117413  0.155322  0.616397  1
  O  O75  1  0.882587  0.037909  0.883603  1
  O  O76  1  0.962091  0.844678  0.883603  1
  O  O77  1  0.682988  0.483517  0.886291  1
