# generated using pymatgen
data_Cu3B4Pb2O11
_symmetry_space_group_name_H-M   'P 1'
_cell_length_a   4.78361266
_cell_length_b   6.87475152
_cell_length_c   14.90415345
_cell_angle_alpha   96.62005029
_cell_angle_beta   90.00000000
_cell_angle_gamma   90.00000000
_symmetry_Int_Tables_number   1
_chemical_formula_structural   Cu3B4Pb2O11
_chemical_formula_sum   'Cu6 B8 Pb4 O22'
_cell_volume   486.87218406
_cell_formula_units_Z   2
loop_
 _symmetry_equiv_pos_site_id
 _symmetry_equiv_pos_as_xyz
  1  'x, y, z'
loop_
 _atom_site_type_symbol
 _atom_site_label
 _atom_site_symmetry_multiplicity
 _atom_site_fract_x
 _atom_site_fract_y
 _atom_site_fract_z
 _atom_site_occupancy
  Cu  Cu0  1  0.521478  0.652721  0.441535  1
  Cu  Cu1  1  0.478522  0.347279  0.558465  1
  Cu  Cu2  1  0.521478  0.847279  0.058465  1
  Cu  Cu3  1  0.000000  0.000000  0.500000  1
  Cu  Cu4  1  0.000000  0.500000  0.000000  1
  Cu  Cu5  1  0.478522  0.152721  0.941535  1
  B  B6  1  0.945407  0.632554  0.596674  1
  B  B7  1  0.988570  0.200233  0.839221  1
  B  B8  1  0.945407  0.867446  0.903326  1
  B  B9  1  0.011430  0.700233  0.339221  1
  B  B10  1  0.011430  0.799767  0.160779  1
  B  B11  1  0.988570  0.299767  0.660779  1
  B  B12  1  0.054593  0.367446  0.403326  1
  B  B13  1  0.054593  0.132554  0.096674  1
  Pb  Pb14  1  0.421104  0.983557  0.691976  1
  Pb  Pb15  1  0.421104  0.516443  0.808024  1
  Pb  Pb16  1  0.578896  0.483557  0.191976  1
  Pb  Pb17  1  0.578896  0.016443  0.308024  1
  O  O18  1  0.301056  0.749907  0.150813  1
  O  O19  1  0.932644  0.311092  0.089756  1
  O  O20  1  0.825129  0.681564  0.092324  1
  O  O21  1  0.174871  0.318436  0.907676  1
  O  O22  1  0.709602  0.574336  0.547722  1
  O  O23  1  0.948226  0.486972  0.341184  1
  O  O24  1  0.932644  0.188908  0.410244  1
  O  O25  1  0.709602  0.925664  0.952278  1
  O  O26  1  0.290398  0.074336  0.047722  1
  O  O27  1  0.889953  0.750000  0.250000  1
  O  O28  1  0.290398  0.425664  0.452278  1
  O  O29  1  0.051774  0.513028  0.658816  1
  O  O30  1  0.174871  0.181564  0.592324  1
  O  O31  1  0.067356  0.811092  0.589756  1
  O  O32  1  0.698944  0.249907  0.650813  1
  O  O33  1  0.948226  0.013028  0.158816  1
  O  O34  1  0.067356  0.688908  0.910244  1
  O  O35  1  0.051774  0.986972  0.841184  1
  O  O36  1  0.110047  0.250000  0.750000  1
  O  O37  1  0.825129  0.818436  0.407676  1
  O  O38  1  0.301056  0.750093  0.349187  1
  O  O39  1  0.698944  0.250093  0.849187  1
