# generated using pymatgen
data_LuPO4
_symmetry_space_group_name_H-M   'P 1'
_cell_length_a   4.77948459
_cell_length_b   4.77948490
_cell_length_c   6.47586803
_cell_angle_alpha   111.65535368
_cell_angle_beta   111.65535534
_cell_angle_gamma   90.00000728
_symmetry_Int_Tables_number   1
_chemical_formula_structural   LuPO4
_chemical_formula_sum   'Lu2 P2 O8'
_cell_volume   126.18850131
_cell_formula_units_Z   2
loop_
 _symmetry_equiv_pos_site_id
 _symmetry_equiv_pos_as_xyz
  1  'x, y, z'
loop_
 _atom_site_type_symbol
 _atom_site_label
 _atom_site_symmetry_multiplicity
 _atom_site_fract_x
 _atom_site_fract_y
 _atom_site_fract_z
 _atom_site_occupancy
  Lu  Lu0  1  0.375000  0.125000  0.750000  1
  Lu  Lu1  1  0.625000  0.875000  0.250000  1
  P  P2  1  0.875000  0.625000  0.750000  1
  P  P3  1  0.125000  0.375000  0.250000  1
  O  O4  1  0.067363  0.693786  0.398838  1
  O  O5  1  0.668525  0.794948  0.601162  1
  O  O6  1  0.331475  0.205052  0.398838  1
  O  O7  1  0.705052  0.567363  0.898838  1
  O  O8  1  0.806214  0.168525  0.101162  1
  O  O9  1  0.193786  0.831475  0.898838  1
  O  O10  1  0.294948  0.432637  0.101162  1
  O  O11  1  0.932637  0.306214  0.601162  1
