# generated using pymatgen
data_Mg2SiO4
_symmetry_space_group_name_H-M   'P 1'
_cell_length_a   5.77495330
_cell_length_b   5.77495361
_cell_length_c   29.05060511
_cell_angle_alpha   60.20002115
_cell_angle_beta   60.20001929
_cell_angle_gamma   59.99999524
_symmetry_Int_Tables_number   1
_chemical_formula_structural   Mg2SiO4
_chemical_formula_sum   'Mg20 Si10 O40'
_cell_volume   687.13734977
_cell_formula_units_Z   10
loop_
 _symmetry_equiv_pos_site_id
 _symmetry_equiv_pos_as_xyz
  1  'x, y, z'
loop_
 _atom_site_type_symbol
 _atom_site_label
 _atom_site_symmetry_multiplicity
 _atom_site_fract_x
 _atom_site_fract_y
 _atom_site_fract_z
 _atom_site_occupancy
  Mg  Mg0  1  0.265505  0.265505  0.040697  1
  Mg  Mg1  1  0.130553  0.620533  0.125676  1
  Mg  Mg2  1  0.620533  0.130553  0.125676  1
  Mg  Mg3  1  0.253260  0.253260  0.248044  1
  Mg  Mg4  1  0.620533  0.620533  0.125676  1
  Mg  Mg5  1  0.124415  0.617598  0.328078  1
  Mg  Mg6  1  0.617598  0.124415  0.328078  1
  Mg  Mg7  1  0.617598  0.617598  0.328078  1
  Mg  Mg8  1  0.123640  0.622635  0.526218  1
  Mg  Mg9  1  0.622635  0.123640  0.526218  1
  Mg  Mg10  1  0.622823  0.622823  0.426306  1
  Mg  Mg11  1  0.622635  0.622635  0.526218  1
  Mg  Mg12  1  0.125413  0.625615  0.724672  1
  Mg  Mg13  1  0.625615  0.125413  0.724672  1
  Mg  Mg14  1  0.624192  0.624192  0.625485  1
  Mg  Mg15  1  0.625615  0.625615  0.724672  1
  Mg  Mg16  1  0.131255  0.629954  0.921767  1
  Mg  Mg17  1  0.625526  0.625526  0.824685  1
  Mg  Mg18  1  0.629954  0.131255  0.921767  1
  Mg  Mg19  1  0.629954  0.629954  0.921767  1
  O  O20  1  0.402627  0.402627  0.069658  1
  O  O21  1  0.402627  0.846457  0.069658  1
  O  O22  1  0.384214  0.384214  0.169471  1
  O  O23  1  0.358581  0.867535  0.181270  1
  O  O24  1  0.399456  0.399456  0.273255  1
  O  O25  1  0.846457  0.402627  0.069658  1
  O  O26  1  0.877070  0.877070  0.073758  1
  O  O27  1  0.867535  0.358581  0.181270  1
  O  O28  1  0.362515  0.362515  0.382491  1
  O  O29  1  0.399456  0.834811  0.273255  1
  O  O30  1  0.354728  0.882684  0.375981  1
  O  O31  1  0.368084  0.368084  0.474899  1
  O  O32  1  0.834811  0.399456  0.273255  1
  O  O33  1  0.867535  0.867535  0.181270  1
  O  O34  1  0.875160  0.875160  0.274904  1
  O  O35  1  0.882684  0.354728  0.375981  1
  O  O36  1  0.368084  0.889338  0.474899  1
  O  O37  1  0.368510  0.368510  0.578894  1
  O  O38  1  0.356797  0.881149  0.576181  1
  O  O39  1  0.370112  0.370112  0.673105  1
  O  O40  1  0.889338  0.368084  0.474899  1
  O  O41  1  0.882684  0.882684  0.375981  1
  O  O42  1  0.881149  0.356797  0.576181  1
  O  O43  1  0.880968  0.880968  0.471419  1
  O  O44  1  0.370112  0.894252  0.673105  1
  O  O45  1  0.374262  0.374262  0.775443  1
  O  O46  1  0.358403  0.883032  0.775107  1
  O  O47  1  0.371721  0.371721  0.870526  1
  O  O48  1  0.894252  0.370112  0.673105  1
  O  O49  1  0.881149  0.881149  0.576181  1
  O  O50  1  0.883032  0.358403  0.775107  1
  O  O51  1  0.882010  0.882010  0.670794  1
  O  O52  1  0.371721  0.903929  0.870526  1
  O  O53  1  0.397863  0.397863  0.961282  1
  O  O54  1  0.362402  0.869337  0.979785  1
  O  O55  1  0.903929  0.371721  0.870526  1
  O  O56  1  0.883032  0.883032  0.775107  1
  O  O57  1  0.883442  0.883442  0.869935  1
  O  O58  1  0.869337  0.362402  0.979785  1
  O  O59  1  0.869337  0.869337  0.979785  1
  Si  Si60  1  0.994251  0.994251  0.003450  1
  Si  Si61  1  0.991129  0.991129  0.205322  1
  Si  Si62  1  0.610080  0.610080  0.033952  1
  Si  Si63  1  0.998216  0.998216  0.401071  1
  Si  Si64  1  0.606534  0.606534  0.236079  1
  Si  Si65  1  0.246052  0.246052  0.452369  1
  Si  Si66  1  0.250110  0.250110  0.649934  1
  Si  Si67  1  1.001767  1.001767  0.798940  1
  Si  Si68  1  0.255966  0.255966  0.846421  1
  Si  Si69  1  0.999458  0.999458  0.600325  1
