# generated using pymatgen
data_YH18C3S3(O2F)9
_symmetry_space_group_name_H-M   'P 1'
_cell_length_a   13.78254118
_cell_length_b   13.78254076
_cell_length_c   7.54792850
_cell_angle_alpha   90.00000000
_cell_angle_beta   90.00000000
_cell_angle_gamma   120.00000098
_symmetry_Int_Tables_number   1
_chemical_formula_structural   YH18C3S3(O2F)9
_chemical_formula_sum   'Y2 H36 C6 S6 O36 F18'
_cell_volume   1241.70088097
_cell_formula_units_Z   2
loop_
 _symmetry_equiv_pos_site_id
 _symmetry_equiv_pos_as_xyz
  1  'x, y, z'
loop_
 _atom_site_type_symbol
 _atom_site_label
 _atom_site_symmetry_multiplicity
 _atom_site_fract_x
 _atom_site_fract_y
 _atom_site_fract_z
 _atom_site_occupancy
  Y  Y0  1  0.333333  0.666667  0.250000  1
  Y  Y1  1  0.666667  0.333333  0.750000  1
  O  O2  1  0.351291  0.489324  0.250000  1
  O  O3  1  0.861967  0.351291  0.750000  1
  O  O4  1  0.489324  0.138033  0.750000  1
  O  O5  1  0.510676  0.861967  0.250000  1
  O  O6  1  0.138033  0.648709  0.250000  1
  O  O7  1  0.648709  0.510676  0.750000  1
  H  H8  1  0.356849  0.450781  0.144566  1
  H  H9  1  0.906068  0.356849  0.644566  1
  H  H10  1  0.450781  0.093932  0.644566  1
  H  H11  1  0.549219  0.906068  0.144566  1
  H  H12  1  0.093932  0.643151  0.144566  1
  H  H13  1  0.643151  0.549219  0.644566  1
  H  H14  1  0.643151  0.549219  0.855434  1
  H  H15  1  0.093932  0.643151  0.355434  1
  H  H16  1  0.549219  0.906068  0.355434  1
  H  H17  1  0.450781  0.093932  0.855434  1
  H  H18  1  0.906068  0.356849  0.855434  1
  H  H19  1  0.356849  0.450781  0.355434  1
  O  O20  1  0.209737  0.544204  0.471132  1
  O  O21  1  0.665532  0.209737  0.971132  1
  O  O22  1  0.544204  0.334468  0.971132  1
  O  O23  1  0.455796  0.665532  0.471132  1
  O  O24  1  0.334468  0.790263  0.471132  1
  O  O25  1  0.790263  0.455796  0.971132  1
  O  O26  1  0.790263  0.455796  0.528868  1
  O  O27  1  0.334468  0.790263  0.028868  1
  O  O28  1  0.455796  0.665532  0.028868  1
  O  O29  1  0.544204  0.334468  0.528868  1
  O  O30  1  0.665532  0.209737  0.528868  1
  O  O31  1  0.209737  0.544204  0.028868  1
  H  H32  1  0.233201  0.510856  0.565863  1
  H  H33  1  0.722345  0.233201  0.065863  1
  H  H34  1  0.510856  0.277655  0.065863  1
  H  H35  1  0.489144  0.722345  0.565863  1
  H  H36  1  0.277655  0.766799  0.565863  1
  H  H37  1  0.766799  0.489144  0.065863  1
  H  H38  1  0.766799  0.489144  0.434137  1
  H  H39  1  0.277655  0.766799  0.934137  1
  H  H40  1  0.489144  0.722345  0.934137  1
  H  H41  1  0.510856  0.277655  0.434137  1
  H  H42  1  0.722345  0.233201  0.434137  1
  H  H43  1  0.233201  0.510856  0.934137  1
  H  H44  1  0.130400  0.490544  0.445801  1
  H  H45  1  0.639856  0.130400  0.945801  1
  H  H46  1  0.490544  0.360144  0.945801  1
  H  H47  1  0.509456  0.639856  0.445801  1
  H  H48  1  0.360144  0.869600  0.445801  1
  H  H49  1  0.869600  0.509456  0.945801  1
  H  H50  1  0.869600  0.509456  0.554199  1
  H  H51  1  0.360144  0.869600  0.054199  1
  H  H52  1  0.509456  0.639856  0.054199  1
  H  H53  1  0.490544  0.360144  0.554199  1
  H  H54  1  0.639856  0.130400  0.554199  1
  H  H55  1  0.130400  0.490544  0.054199  1
  S  S56  1  0.317101  0.384290  0.750000  1
  S  S57  1  0.932812  0.317101  0.250000  1
  S  S58  1  0.384290  0.067188  0.250000  1
  S  S59  1  0.615710  0.932812  0.750000  1
  S  S60  1  0.067188  0.682899  0.750000  1
  S  S61  1  0.682899  0.615710  0.250000  1
  O  O62  1  0.257611  0.447853  0.750000  1
  O  O63  1  0.809758  0.257611  0.250000  1
  O  O64  1  0.447853  0.190242  0.250000  1
  O  O65  1  0.552147  0.809758  0.750000  1
  O  O66  1  0.190242  0.742389  0.750000  1
  O  O67  1  0.742389  0.552147  0.250000  1
  O  O68  1  0.378762  0.395749  0.586114  1
  O  O69  1  0.983013  0.378762  0.086114  1
  O  O70  1  0.395749  0.016987  0.086114  1
  O  O71  1  0.604251  0.983013  0.586114  1
  O  O72  1  0.016987  0.621238  0.586114  1
  O  O73  1  0.621238  0.604251  0.086114  1
  O  O74  1  0.621238  0.604251  0.413886  1
  O  O75  1  0.016987  0.621238  0.913886  1
  O  O76  1  0.604251  0.983013  0.913886  1
  O  O77  1  0.395749  0.016987  0.413886  1
  O  O78  1  0.983013  0.378762  0.413886  1
  O  O79  1  0.378762  0.395749  0.913886  1
  C  C80  1  0.201517  0.234977  0.750000  1
  C  C81  1  0.966540  0.201517  0.250000  1
  C  C82  1  0.234977  0.033460  0.250000  1
  C  C83  1  0.765023  0.966540  0.750000  1
  C  C84  1  0.033460  0.798483  0.750000  1
  C  C85  1  0.798483  0.765023  0.250000  1
  F  F86  1  0.245034  0.166172  0.750000  1
  F  F87  1  0.078863  0.245034  0.250000  1
  F  F88  1  0.166172  0.921137  0.250000  1
  F  F89  1  0.833828  0.078863  0.750000  1
  F  F90  1  0.921137  0.754966  0.750000  1
  F  F91  1  0.754966  0.833828  0.250000  1
  F  F92  1  0.136885  0.213984  0.604505  1
  F  F93  1  0.922901  0.136885  0.104505  1
  F  F94  1  0.213984  0.077099  0.104505  1
  F  F95  1  0.786016  0.922901  0.604505  1
  F  F96  1  0.077099  0.863115  0.604505  1
  F  F97  1  0.863115  0.786016  0.104505  1
  F  F98  1  0.863115  0.786016  0.395495  1
  F  F99  1  0.077099  0.863115  0.895495  1
  F  F100  1  0.786016  0.922901  0.895495  1
  F  F101  1  0.213984  0.077099  0.395495  1
  F  F102  1  0.922901  0.136885  0.395495  1
  F  F103  1  0.136885  0.213984  0.895495  1
