# generated using pymatgen
data_Ti3Al2NiC
_symmetry_space_group_name_H-M   'P 1'
_cell_length_a   8.10155614
_cell_length_b   8.10155621
_cell_length_c   8.10155606
_cell_angle_alpha   59.99999652
_cell_angle_beta   59.99999624
_cell_angle_gamma   59.99999777
_symmetry_Int_Tables_number   1
_chemical_formula_structural   Ti3Al2NiC
_chemical_formula_sum   'Ti12 Al8 Ni4 C4'
_cell_volume   376.00213219
_cell_formula_units_Z   4
loop_
 _symmetry_equiv_pos_site_id
 _symmetry_equiv_pos_as_xyz
  1  'x, y, z'
loop_
 _atom_site_type_symbol
 _atom_site_label
 _atom_site_symmetry_multiplicity
 _atom_site_fract_x
 _atom_site_fract_y
 _atom_site_fract_z
 _atom_site_occupancy
  Al  Al0  1  0.707902  0.707902  0.707902  1
  Al  Al1  1  0.292098  0.292098  0.623707  1
  Al  Al2  1  0.623707  0.292098  0.292098  1
  Al  Al3  1  0.292098  0.623707  0.292098  1
  Al  Al4  1  0.376293  0.707902  0.707902  1
  Al  Al5  1  0.707902  0.376293  0.707902  1
  Al  Al6  1  0.707902  0.707902  0.376293  1
  Al  Al7  1  0.292098  0.292098  0.292098  1
  Ni  Ni8  1  0.500000  0.500000  0.500000  1
  Ni  Ni9  1  0.500000  0.500000  0.000000  1
  Ni  Ni10  1  0.000000  0.500000  0.500000  1
  Ni  Ni11  1  0.500000  0.000000  0.500000  1
  Ti  Ti12  1  0.686038  0.063962  0.063962  1
  Ti  Ti13  1  0.936038  0.936038  0.313962  1
  Ti  Ti14  1  0.313962  0.313962  0.936038  1
  Ti  Ti15  1  0.936038  0.313962  0.313962  1
  Ti  Ti16  1  0.936038  0.313962  0.936038  1
  Ti  Ti17  1  0.313962  0.936038  0.313962  1
  Ti  Ti18  1  0.063962  0.686038  0.063962  1
  Ti  Ti19  1  0.063962  0.063962  0.686038  1
  Ti  Ti20  1  0.686038  0.686038  0.063962  1
  Ti  Ti21  1  0.686038  0.063962  0.686038  1
  Ti  Ti22  1  0.313962  0.936038  0.936038  1
  Ti  Ti23  1  0.063962  0.686038  0.686038  1
  C  C24  1  0.000000  0.000000  0.000000  1
  C  C25  1  0.000000  0.000000  0.500000  1
  C  C26  1  0.500000  0.000000  0.000000  1
  C  C27  1  0.000000  0.500000  0.000000  1
