# generated using pymatgen
data_CaTa2Bi2O9
_symmetry_space_group_name_H-M   'P 1'
_cell_length_a   3.78607838
_cell_length_b   3.78605265
_cell_length_c   13.46661507
_cell_angle_alpha   98.07488349
_cell_angle_beta   98.00473648
_cell_angle_gamma   89.99120170
_symmetry_Int_Tables_number   1
_chemical_formula_structural   CaTa2Bi2O9
_chemical_formula_sum   'Ca1 Ta2 Bi2 O9'
_cell_volume   189.22126903
_cell_formula_units_Z   1
loop_
 _symmetry_equiv_pos_site_id
 _symmetry_equiv_pos_as_xyz
  1  'x, y, z'
loop_
 _atom_site_type_symbol
 _atom_site_label
 _atom_site_symmetry_multiplicity
 _atom_site_fract_x
 _atom_site_fract_y
 _atom_site_fract_z
 _atom_site_occupancy
  Ca  Ca0  1  0.500000  0.500000  0.000000  1
  Ta  Ta1  1  0.921272  0.920641  0.840924  1
  Ta  Ta2  1  0.078728  0.079359  0.159076  1
  Bi  Bi3  1  0.201441  0.201183  0.400025  1
  Bi  Bi4  1  0.798559  0.798817  0.599975  1
  O  O5  1  0.935048  0.434987  0.869634  1
  O  O6  1  0.347051  0.347448  0.690139  1
  O  O7  1  0.249922  0.750090  0.499999  1
  O  O8  1  0.750078  0.249910  0.500001  1
  O  O9  1  0.435282  0.935165  0.869634  1
  O  O10  1  0.064952  0.565013  0.130366  1
  O  O11  1  0.564718  0.064835  0.130366  1
  O  O12  1  0.652949  0.652552  0.309861  1
  O  O13  1  0.000000  0.000000  0.000000  1
