# generated using pymatgen
data_MoPO5
_symmetry_space_group_name_H-M   'P 1'
_cell_length_a   4.63142585
_cell_length_b   6.28262811
_cell_length_c   6.28262811
_cell_angle_alpha   90.00000000
_cell_angle_beta   90.00000000
_cell_angle_gamma   90.00000000
_symmetry_Int_Tables_number   1
_chemical_formula_structural   MoPO5
_chemical_formula_sum   'Mo2 P2 O10'
_cell_volume   182.80893625
_cell_formula_units_Z   2
loop_
 _symmetry_equiv_pos_site_id
 _symmetry_equiv_pos_as_xyz
  1  'x, y, z'
loop_
 _atom_site_type_symbol
 _atom_site_label
 _atom_site_symmetry_multiplicity
 _atom_site_fract_x
 _atom_site_fract_y
 _atom_site_fract_z
 _atom_site_occupancy
  O  O0  1  0.693615  0.804056  0.442274  1
  O  O1  1  0.693615  0.057726  0.804056  1
  O  O2  1  0.693615  0.442274  0.695944  1
  O  O3  1  0.693615  0.695944  0.057726  1
  O  O4  1  0.840936  0.250000  0.250000  1
  O  O5  1  0.159064  0.750000  0.750000  1
  O  O6  1  0.306385  0.304056  0.942274  1
  O  O7  1  0.306385  0.557726  0.304056  1
  O  O8  1  0.306385  0.942274  0.195944  1
  O  O9  1  0.306385  0.195944  0.557726  1
  P  P10  1  0.500000  0.750000  0.250000  1
  P  P11  1  0.500000  0.250000  0.750000  1
  Mo  Mo12  1  0.791070  0.750000  0.750000  1
  Mo  Mo13  1  0.208930  0.250000  0.250000  1
