# generated using pymatgen
data_H3CS
_symmetry_space_group_name_H-M   'P 1'
_cell_length_a   5.36854078
_cell_length_b   7.00677340
_cell_length_c   15.29296660
_cell_angle_alpha   90.00000000
_cell_angle_beta   90.00000000
_cell_angle_gamma   107.22783417
_symmetry_Int_Tables_number   1
_chemical_formula_structural   H3CS
_chemical_formula_sum   'H24 C8 S8'
_cell_volume   549.45312051
_cell_formula_units_Z   8
loop_
 _symmetry_equiv_pos_site_id
 _symmetry_equiv_pos_as_xyz
  1  'x, y, z'
loop_
 _atom_site_type_symbol
 _atom_site_label
 _atom_site_symmetry_multiplicity
 _atom_site_fract_x
 _atom_site_fract_y
 _atom_site_fract_z
 _atom_site_occupancy
  H  H0  1  0.536018  0.452924  0.281875  1
  H  H1  1  0.672966  0.568833  0.382506  1
  H  H2  1  0.284284  0.665912  0.647447  1
  H  H3  1  0.536018  0.952924  0.218125  1
  H  H4  1  0.475966  0.423062  0.108877  1
  H  H5  1  0.792992  0.652474  0.966585  1
  H  H6  1  0.463982  0.047076  0.781875  1
  H  H7  1  0.475966  0.923062  0.391123  1
  H  H8  1  0.672966  0.068833  0.117494  1
  H  H9  1  0.207008  0.347526  0.033415  1
  H  H10  1  0.327034  0.931167  0.882506  1
  H  H11  1  0.207008  0.847526  0.466585  1
  H  H12  1  0.327034  0.431167  0.617494  1
  H  H13  1  0.792992  0.152474  0.533415  1
  H  H14  1  0.524034  0.576938  0.891123  1
  H  H15  1  0.463982  0.547076  0.718125  1
  H  H16  1  0.813663  0.269099  0.638674  1
  H  H17  1  0.813663  0.769099  0.861326  1
  H  H18  1  0.186337  0.730901  0.361326  1
  H  H19  1  0.715716  0.334088  0.352553  1
  H  H20  1  0.524034  0.076938  0.608877  1
  H  H21  1  0.715716  0.834088  0.147447  1
  H  H22  1  0.186337  0.230901  0.138674  1
  H  H23  1  0.284284  0.165912  0.852553  1
  C  C24  1  0.418503  0.574580  0.650312  1
  C  C25  1  0.737192  0.628215  0.897627  1
  C  C26  1  0.418503  0.074580  0.849688  1
  C  C27  1  0.262808  0.371785  0.102373  1
  C  C28  1  0.581497  0.425420  0.349688  1
  C  C29  1  0.737192  0.128215  0.602373  1
  C  C30  1  0.262808  0.871785  0.397627  1
  C  C31  1  0.581497  0.925420  0.150312  1
  S  S32  1  0.715433  0.188648  0.910883  1
  S  S33  1  0.883358  0.951687  0.652394  1
  S  S34  1  0.284567  0.311352  0.410883  1
  S  S35  1  0.116642  0.048313  0.347606  1
  S  S36  1  0.116642  0.548313  0.152394  1
  S  S37  1  0.883358  0.451687  0.847606  1
  S  S38  1  0.715433  0.688648  0.589117  1
  S  S39  1  0.284567  0.811352  0.089117  1
