# generated using pymatgen
data_BaNaZr2F11
_symmetry_space_group_name_H-M   'P 1'
_cell_length_a   8.37980574
_cell_length_b   8.37980571
_cell_length_c   13.38273067
_cell_angle_alpha   108.24510881
_cell_angle_beta   108.24510872
_cell_angle_gamma   90.00000193
_symmetry_Int_Tables_number   1
_chemical_formula_structural   BaNaZr2F11
_chemical_formula_sum   'Ba4 Na4 Zr8 F44'
_cell_volume   842.61546725
_cell_formula_units_Z   4
loop_
 _symmetry_equiv_pos_site_id
 _symmetry_equiv_pos_as_xyz
  1  'x, y, z'
loop_
 _atom_site_type_symbol
 _atom_site_label
 _atom_site_symmetry_multiplicity
 _atom_site_fract_x
 _atom_site_fract_y
 _atom_site_fract_z
 _atom_site_occupancy
  Ba  Ba0  1  0.713147  0.463147  0.926293  1
  Ba  Ba1  1  0.286853  0.536853  0.073706  1
  Ba  Ba2  1  0.463147  0.713147  0.426293  1
  Ba  Ba3  1  0.536853  0.286853  0.573707  1
  Na  Na4  1  0.990142  0.240142  0.480284  1
  Na  Na5  1  0.240142  0.990142  0.980284  1
  Na  Na6  1  0.009858  0.759858  0.519716  1
  Na  Na7  1  0.759858  0.009858  0.019716  1
  Zr  Zr8  1  0.160792  0.987610  0.251009  1
  Zr  Zr9  1  0.409783  0.736601  0.748991  1
  Zr  Zr10  1  0.012390  0.409783  0.248991  1
  Zr  Zr11  1  0.736601  0.839208  0.248991  1
  Zr  Zr12  1  0.839208  0.012390  0.748991  1
  Zr  Zr13  1  0.987610  0.590217  0.751009  1
  Zr  Zr14  1  0.263399  0.160792  0.751009  1
  Zr  Zr15  1  0.590217  0.263399  0.251009  1
  F  F16  1  0.751460  0.284933  0.147557  1
  F  F17  1  0.339682  0.015638  0.406612  1
  F  F18  1  0.660318  0.984362  0.593388  1
  F  F19  1  0.814108  0.132196  0.902414  1
  F  F20  1  0.588306  0.770218  0.902414  1
  F  F21  1  0.993353  0.970444  0.347584  1
  F  F22  1  0.229782  0.185892  0.597586  1
  F  F23  1  0.015638  0.566930  0.906612  1
  F  F24  1  0.145769  0.622860  0.652416  1
  F  F25  1  0.377140  0.993353  0.847584  1
  F  F26  1  0.862625  0.751460  0.647557  1
  F  F27  1  0.814095  0.255244  0.748766  1
  F  F28  1  0.103903  0.137375  0.852443  1
  F  F29  1  0.984362  0.433070  0.093388  1
  F  F30  1  0.970444  0.854231  0.847584  1
  F  F31  1  0.770218  0.814108  0.402414  1
  F  F32  1  0.744756  0.565329  0.751234  1
  F  F33  1  0.854231  0.377140  0.347584  1
  F  F34  1  0.185905  0.744756  0.251234  1
  F  F35  1  0.873222  0.623222  0.246443  1
  F  F36  1  0.132196  0.588306  0.402414  1
  F  F37  1  0.390974  0.339682  0.906612  1
  F  F38  1  0.565329  0.506478  0.251234  1
  F  F39  1  0.506478  0.185905  0.751234  1
  F  F40  1  0.185892  0.867804  0.097586  1
  F  F41  1  0.493522  0.814095  0.248766  1
  F  F42  1  0.896097  0.862625  0.147557  1
  F  F43  1  0.006647  0.029556  0.652416  1
  F  F44  1  0.029556  0.145769  0.152416  1
  F  F45  1  0.623222  0.873222  0.746443  1
  F  F46  1  0.126778  0.376778  0.753557  1
  F  F47  1  0.609026  0.660318  0.093388  1
  F  F48  1  0.715067  0.103903  0.352443  1
  F  F49  1  0.434671  0.493522  0.748766  1
  F  F50  1  0.137375  0.248540  0.352443  1
  F  F51  1  0.376778  0.126778  0.253557  1
  F  F52  1  0.255244  0.434671  0.248766  1
  F  F53  1  0.433070  0.609026  0.593388  1
  F  F54  1  0.248540  0.715067  0.852443  1
  F  F55  1  0.411694  0.229782  0.097586  1
  F  F56  1  0.566930  0.390974  0.406612  1
  F  F57  1  0.284933  0.896097  0.647557  1
  F  F58  1  0.867804  0.411694  0.597586  1
  F  F59  1  0.622860  0.006647  0.152416  1
