# generated using pymatgen
data_RbPr(MoO4)2
_symmetry_space_group_name_H-M   'P 1'
_cell_length_a   6.43377170
_cell_length_b   6.48064850
_cell_length_c   9.75163059
_cell_angle_alpha   90.00000000
_cell_angle_beta   90.00000000
_cell_angle_gamma   90.00000000
_symmetry_Int_Tables_number   1
_chemical_formula_structural   RbPr(MoO4)2
_chemical_formula_sum   'Rb2 Pr2 Mo4 O16'
_cell_volume   406.59436341
_cell_formula_units_Z   2
loop_
 _symmetry_equiv_pos_site_id
 _symmetry_equiv_pos_as_xyz
  1  'x, y, z'
loop_
 _atom_site_type_symbol
 _atom_site_label
 _atom_site_symmetry_multiplicity
 _atom_site_fract_x
 _atom_site_fract_y
 _atom_site_fract_z
 _atom_site_occupancy
  Rb  Rb0  1  0.250000  0.250000  0.250000  1
  Rb  Rb1  1  0.750000  0.750000  0.750000  1
  Pr  Pr2  1  0.250000  0.250000  0.750000  1
  Pr  Pr3  1  0.750000  0.750000  0.250000  1
  Mo  Mo4  1  0.750000  0.250000  0.498430  1
  Mo  Mo5  1  0.250000  0.750000  0.998430  1
  Mo  Mo6  1  0.250000  0.750000  0.501570  1
  Mo  Mo7  1  0.750000  0.250000  0.001570  1
  O  O8  1  0.446136  0.858666  0.391611  1
  O  O9  1  0.639299  0.055740  0.111428  1
  O  O10  1  0.946136  0.141334  0.891611  1
  O  O11  1  0.553864  0.141334  0.608389  1
  O  O12  1  0.360701  0.555740  0.611428  1
  O  O13  1  0.053864  0.858666  0.108389  1
  O  O14  1  0.446136  0.641334  0.108389  1
  O  O15  1  0.360701  0.944260  0.888572  1
  O  O16  1  0.553864  0.358666  0.891611  1
  O  O17  1  0.139299  0.944260  0.611428  1
  O  O18  1  0.053864  0.641334  0.391611  1
  O  O19  1  0.860701  0.444260  0.111428  1
  O  O20  1  0.860701  0.055740  0.388572  1
  O  O21  1  0.139299  0.555740  0.888572  1
  O  O22  1  0.946136  0.358666  0.608389  1
  O  O23  1  0.639299  0.444260  0.388572  1
