# generated using pymatgen
data_KAl11O17
_symmetry_space_group_name_H-M   'P 1'
_cell_length_a   23.88871663
_cell_length_b   23.20832449
_cell_length_c   23.22931014
_cell_angle_alpha   13.97506697
_cell_angle_beta   13.67912880
_cell_angle_gamma   13.70746791
_symmetry_Int_Tables_number   1
_chemical_formula_structural   KAl11O17
_chemical_formula_sum   'K2 Al22 O34'
_cell_volume   636.32646056
_cell_formula_units_Z   2
loop_
 _symmetry_equiv_pos_site_id
 _symmetry_equiv_pos_as_xyz
  1  'x, y, z'
loop_
 _atom_site_type_symbol
 _atom_site_label
 _atom_site_symmetry_multiplicity
 _atom_site_fract_x
 _atom_site_fract_y
 _atom_site_fract_z
 _atom_site_occupancy
  Al  Al0  1  0.000674  0.000632  0.998651  1
  Al  Al1  1  0.198324  0.097421  0.097696  1
  Al  Al2  1  0.499508  0.999263  0.000984  1
  Al  Al3  1  0.203753  0.592743  0.097776  1
  Al  Al4  1  0.203792  0.097987  0.592416  1
  Al  Al5  1  0.698471  0.098025  0.097776  1
  Al  Al6  1  0.325152  0.350068  0.349697  1
  Al  Al7  1  0.277163  0.452213  0.445675  1
  Al  Al8  1  0.225911  0.550938  0.548177  1
  Al  Al9  1  0.703981  0.591763  0.097696  1
  Al  Al10  1  0.703029  0.098163  0.593941  1
  Al  Al11  1  0.174913  0.649641  0.650174  1
  Al  Al12  1  0.824991  0.349652  0.350017  1
  Al  Al13  1  0.297389  0.902916  0.405223  1
  Al  Al14  1  0.297444  0.404772  0.903212  1
  Al  Al15  1  0.775080  0.450275  0.449839  1
  Al  Al16  1  0.724795  0.549793  0.550410  1
  Al  Al17  1  0.675147  0.650028  0.649706  1
  Al  Al18  1  0.300151  0.904156  0.902089  1
  Al  Al19  1  0.798394  0.902749  0.403213  1
  Al  Al20  1  0.797760  0.406548  0.902089  1
  Al  Al21  1  0.799344  0.902871  0.903212  1
  K  K22  1  0.085672  0.830066  0.828656  1
  K  K23  1  0.664399  0.912352  0.671202  1
  O  O24  1  0.169347  0.189582  0.190305  1
  O  O25  1  0.453655  0.093804  0.092689  1
  O  O26  1  0.050247  0.402337  0.403490  1
  O  O27  1  0.351744  0.296955  0.296512  1
  O  O28  1  0.140837  0.190504  0.718325  1
  O  O29  1  0.140570  0.719218  0.189454  1
  O  O30  1  0.669975  0.189813  0.189454  1
  O  O31  1  0.456527  0.093794  0.594018  1
  O  O32  1  0.455507  0.600141  0.088985  1
  O  O33  1  0.953189  0.093680  0.093622  1
  O  O34  1  0.246854  0.496857  0.506291  1
  O  O35  1  0.047562  0.403923  0.904876  1
  O  O36  1  0.043658  0.907452  0.404559  1
  O  O37  1  0.551783  0.399328  0.404559  1
  O  O38  1  0.360332  0.280112  0.810342  1
  O  O39  1  0.359396  0.809728  0.281209  1
  O  O40  1  0.851760  0.296803  0.296479  1
  O  O41  1  0.148219  0.703001  0.703561  1
  O  O42  1  0.640348  0.718581  0.190305  1
  O  O43  1  0.640609  0.189957  0.718782  1
  O  O44  1  0.447343  0.599056  0.598082  1
  O  O45  1  0.954575  0.091824  0.598082  1
  O  O46  1  0.954205  0.598575  0.091591  1
  O  O47  1  0.750035  0.500060  0.499930  1
  O  O48  1  0.046417  0.905963  0.907165  1
  O  O49  1  0.546631  0.402806  0.906738  1
  O  O50  1  0.546263  0.906321  0.403490  1
  O  O51  1  0.329830  0.810811  0.810101  1
  O  O52  1  0.860069  0.280571  0.810101  1
  O  O53  1  0.859826  0.810493  0.280349  1
  O  O54  1  0.648606  0.703485  0.702788  1
  O  O55  1  0.949455  0.600866  0.594018  1
  O  O56  1  0.546581  0.905918  0.906838  1
  O  O57  1  0.829327  0.811117  0.810342  1
