# generated using pymatgen
data_NaAg(CN)2
_symmetry_space_group_name_H-M   'P 1'
_cell_length_a   3.81782013
_cell_length_b   3.84354998
_cell_length_c   17.64199847
_cell_angle_alpha   88.71636474
_cell_angle_beta   90.00000000
_cell_angle_gamma   119.77880046
_symmetry_Int_Tables_number   1
_chemical_formula_structural   NaAg(CN)2
_chemical_formula_sum   'Na2 Ag2 C4 N4'
_cell_volume   224.61844623
_cell_formula_units_Z   2
loop_
 _symmetry_equiv_pos_site_id
 _symmetry_equiv_pos_as_xyz
  1  'x, y, z'
loop_
 _atom_site_type_symbol
 _atom_site_label
 _atom_site_symmetry_multiplicity
 _atom_site_fract_x
 _atom_site_fract_y
 _atom_site_fract_z
 _atom_site_occupancy
  Na  Na0  1  0.952545  0.000000  0.250000  1
  Na  Na1  1  0.047455  0.000000  0.750000  1
  Ag  Ag2  1  0.000000  0.500000  0.500000  1
  Ag  Ag3  1  0.500000  0.500000  0.000000  1
  C  C4  1  0.585345  0.393893  0.111081  1
  C  C5  1  0.191452  0.606107  0.388919  1
  C  C6  1  0.414655  0.606107  0.888919  1
  C  C7  1  0.808548  0.393893  0.611081  1
  N  N8  1  0.630771  0.338090  0.175107  1
  N  N9  1  0.369229  0.661910  0.824893  1
  N  N10  1  0.707319  0.338090  0.675107  1
  N  N11  1  0.292681  0.661910  0.324893  1
