# generated using pymatgen
data_Hg7(Sb2Br3)2
_symmetry_space_group_name_H-M   'P 1'
_cell_length_a   13.27304672
_cell_length_b   13.30816992
_cell_length_c   26.56652858
_cell_angle_alpha   89.42591368
_cell_angle_beta   90.00000000
_cell_angle_gamma   90.00000000
_symmetry_Int_Tables_number   1
_chemical_formula_structural   Hg7(Sb2Br3)2
_chemical_formula_sum   'Hg56 Sb32 Br48'
_cell_volume   4692.47501581
_cell_formula_units_Z   8
loop_
 _symmetry_equiv_pos_site_id
 _symmetry_equiv_pos_as_xyz
  1  'x, y, z'
loop_
 _atom_site_type_symbol
 _atom_site_label
 _atom_site_symmetry_multiplicity
 _atom_site_fract_x
 _atom_site_fract_y
 _atom_site_fract_z
 _atom_site_occupancy
  Br  Br0  1  0.046988  0.961823  0.397495  1
  Br  Br1  1  0.044980  0.959118  0.894513  1
  Br  Br2  1  0.057563  0.545160  0.127987  1
  Br  Br3  1  0.045569  0.541223  0.645834  1
  Br  Br4  1  0.040851  0.276983  0.222483  1
  Br  Br5  1  0.041117  0.290812  0.726771  1
  Br  Br6  1  0.042337  0.212130  0.477760  1
  Br  Br7  1  0.039016  0.206856  0.976157  1
  Br  Br8  1  0.210485  0.956175  0.521242  1
  Br  Br9  1  0.226122  0.553878  0.272696  1
  Br  Br10  1  0.205445  0.950367  0.018923  1
  Br  Br11  1  0.208336  0.545471  0.769943  1
  Br  Br12  1  0.273878  0.053878  0.272696  1
  Br  Br13  1  0.291664  0.045471  0.769943  1
  Br  Br14  1  0.294555  0.450367  0.018923  1
  Br  Br15  1  0.289515  0.456175  0.521242  1
  Br  Br16  1  0.459149  0.776983  0.222483  1
  Br  Br17  1  0.457663  0.712130  0.477760  1
  Br  Br18  1  0.458883  0.790812  0.726771  1
  Br  Br19  1  0.460984  0.706856  0.976157  1
  Br  Br20  1  0.442437  0.045160  0.127987  1
  Br  Br21  1  0.454431  0.041223  0.645834  1
  Br  Br22  1  0.453012  0.461823  0.397495  1
  Br  Br23  1  0.455020  0.459118  0.894513  1
  Br  Br24  1  0.546988  0.538177  0.102505  1
  Br  Br25  1  0.544980  0.540882  0.605487  1
  Br  Br26  1  0.557563  0.954840  0.372013  1
  Br  Br27  1  0.545569  0.958777  0.854166  1
  Br  Br28  1  0.540851  0.223017  0.277517  1
  Br  Br29  1  0.542337  0.287870  0.022240  1
  Br  Br30  1  0.541117  0.209188  0.773229  1
  Br  Br31  1  0.539016  0.293144  0.523843  1
  Br  Br32  1  0.705445  0.549633  0.481077  1
  Br  Br33  1  0.710485  0.543825  0.978758  1
  Br  Br34  1  0.726122  0.946122  0.227304  1
  Br  Br35  1  0.708336  0.954529  0.730057  1
  Br  Br36  1  0.794555  0.049633  0.481077  1
  Br  Br37  1  0.773878  0.446122  0.227304  1
  Br  Br38  1  0.789515  0.043825  0.978758  1
  Br  Br39  1  0.791664  0.454529  0.730057  1
  Br  Br40  1  0.959149  0.723017  0.277517  1
  Br  Br41  1  0.960984  0.793144  0.523843  1
  Br  Br42  1  0.957663  0.787870  0.022240  1
  Br  Br43  1  0.958883  0.709188  0.773229  1
  Br  Br44  1  0.942437  0.454840  0.372013  1
  Br  Br45  1  0.953012  0.038177  0.102505  1
  Br  Br46  1  0.954431  0.458777  0.854166  1
  Br  Br47  1  0.955020  0.040882  0.605487  1
  Hg  Hg48  1  0.997773  0.996654  -0.000514  1
  Hg  Hg49  1  0.000000  0.000000  0.250000  1
  Hg  Hg50  1  0.002227  0.003346  0.500514  1
  Hg  Hg51  1  0.000000  0.500000  0.750000  1
  Hg  Hg52  1  0.043078  0.335496  0.118332  1
  Hg  Hg53  1  0.040802  0.319414  0.611103  1
  Hg  Hg54  1  0.041477  0.179410  0.361720  1
  Hg  Hg55  1  0.041403  0.181579  0.861780  1
  Hg  Hg56  1  0.177855  0.719155  0.022771  1
  Hg  Hg57  1  0.179150  0.728106  0.520354  1
  Hg  Hg58  1  0.168928  0.763699  0.270264  1
  Hg  Hg59  1  0.180550  0.774506  0.771062  1
  Hg  Hg60  1  0.221022  0.463124  0.407621  1
  Hg  Hg61  1  0.226129  0.456076  0.910244  1
  Hg  Hg62  1  0.233908  0.044869  0.168261  1
  Hg  Hg63  1  0.223437  0.040181  0.658519  1
  Hg  Hg64  1  0.278978  0.963124  0.407621  1
  Hg  Hg65  1  0.266092  0.544869  0.168261  1
  Hg  Hg66  1  0.273871  0.956076  0.910244  1
  Hg  Hg67  1  0.276563  0.540181  0.658519  1
  Hg  Hg68  1  0.331072  0.263699  0.270264  1
  Hg  Hg69  1  0.319450  0.274506  0.771062  1
  Hg  Hg70  1  0.322145  0.219155  0.022771  1
  Hg  Hg71  1  0.320850  0.228106  0.520354  1
  Hg  Hg72  1  0.458523  0.679410  0.361720  1
  Hg  Hg73  1  0.458597  0.681579  0.861780  1
  Hg  Hg74  1  0.459198  0.819414  0.611103  1
  Hg  Hg75  1  0.456922  0.835496  0.118332  1
  Hg  Hg76  1  0.500000  0.500000  0.250000  1
  Hg  Hg77  1  0.502227  0.496654  -0.000514  1
  Hg  Hg78  1  0.500000  0.000000  0.750000  1
  Hg  Hg79  1  0.497773  0.503346  0.500514  1
  Hg  Hg80  1  0.540802  0.180586  0.888897  1
  Hg  Hg81  1  0.543078  0.164504  0.381668  1
  Hg  Hg82  1  0.541477  0.320590  0.138280  1
  Hg  Hg83  1  0.541403  0.318421  0.638220  1
  Hg  Hg84  1  0.677855  0.780845  0.477229  1
  Hg  Hg85  1  0.679150  0.771894  0.979646  1
  Hg  Hg86  1  0.668928  0.736301  0.229736  1
  Hg  Hg87  1  0.680550  0.725494  0.728938  1
  Hg  Hg88  1  0.733908  0.455131  0.331739  1
  Hg  Hg89  1  0.721022  0.036876  0.092379  1
  Hg  Hg90  1  0.723437  0.459819  0.841481  1
  Hg  Hg91  1  0.726129  0.043924  0.589756  1
  Hg  Hg92  1  0.766092  0.955131  0.331739  1
  Hg  Hg93  1  0.776563  0.959819  0.841481  1
  Hg  Hg94  1  0.778978  0.536876  0.092379  1
  Hg  Hg95  1  0.773871  0.543924  0.589756  1
  Hg  Hg96  1  0.831072  0.236301  0.229736  1
  Hg  Hg97  1  0.819450  0.225494  0.728938  1
  Hg  Hg98  1  0.822145  0.280845  0.477229  1
  Hg  Hg99  1  0.820850  0.271894  0.979646  1
  Hg  Hg100  1  0.958523  0.820590  0.138280  1
  Hg  Hg101  1  0.956922  0.664504  0.381668  1
  Hg  Hg102  1  0.959198  0.680586  0.888897  1
  Hg  Hg103  1  0.958597  0.818421  0.638220  1
  Sb  Sb104  1  0.150138  0.655917  0.424185  1
  Sb  Sb105  1  0.150261  0.646360  0.926152  1
  Sb  Sb106  1  0.152452  0.850657  0.174785  1
  Sb  Sb107  1  0.150594  0.848610  0.674844  1
  Sb  Sb108  1  0.223725  0.225513  0.114543  1
  Sb  Sb109  1  0.226931  0.227406  0.613204  1
  Sb  Sb110  1  0.226549  0.276714  0.361584  1
  Sb  Sb111  1  0.228380  0.271071  0.864365  1
  Sb  Sb112  1  0.273451  0.776714  0.361584  1
  Sb  Sb113  1  0.271620  0.771071  0.864365  1
  Sb  Sb114  1  0.276275  0.725513  0.114543  1
  Sb  Sb115  1  0.273069  0.727406  0.613204  1
  Sb  Sb116  1  0.347548  0.350657  0.174785  1
  Sb  Sb117  1  0.349862  0.155917  0.424185  1
  Sb  Sb118  1  0.349406  0.348610  0.674844  1
  Sb  Sb119  1  0.349739  0.146360  0.926152  1
  Sb  Sb120  1  0.652452  0.649343  0.325215  1
  Sb  Sb121  1  0.650138  0.844083  0.075815  1
  Sb  Sb122  1  0.650594  0.651390  0.825156  1
  Sb  Sb123  1  0.650261  0.853640  0.573848  1
  Sb  Sb124  1  0.723725  0.274487  0.385457  1
  Sb  Sb125  1  0.726931  0.272594  0.886796  1
  Sb  Sb126  1  0.726549  0.223286  0.138416  1
  Sb  Sb127  1  0.728380  0.228929  0.635635  1
  Sb  Sb128  1  0.773451  0.723286  0.138416  1
  Sb  Sb129  1  0.771620  0.728929  0.635635  1
  Sb  Sb130  1  0.776275  0.774487  0.385457  1
  Sb  Sb131  1  0.773069  0.772594  0.886796  1
  Sb  Sb132  1  0.847548  0.149343  0.325215  1
  Sb  Sb133  1  0.849406  0.151390  0.825156  1
  Sb  Sb134  1  0.849862  0.344083  0.075815  1
  Sb  Sb135  1  0.849739  0.353640  0.573848  1
