# generated using pymatgen
data_CrP(HO)5
_symmetry_space_group_name_H-M   'P 1'
_cell_length_a   6.82201250
_cell_length_b   7.63530129
_cell_length_c   9.33281817
_cell_angle_alpha   90.00000000
_cell_angle_beta   90.00000000
_cell_angle_gamma   90.00000000
_symmetry_Int_Tables_number   1
_chemical_formula_structural   CrP(HO)5
_chemical_formula_sum   'Cr4 P4 H20 O20'
_cell_volume   486.12896063
_cell_formula_units_Z   4
loop_
 _symmetry_equiv_pos_site_id
 _symmetry_equiv_pos_as_xyz
  1  'x, y, z'
loop_
 _atom_site_type_symbol
 _atom_site_label
 _atom_site_symmetry_multiplicity
 _atom_site_fract_x
 _atom_site_fract_y
 _atom_site_fract_z
 _atom_site_occupancy
  Cr  Cr0  1  0.476315  0.782518  0.844575  1
  Cr  Cr1  1  0.976315  0.217482  0.655425  1
  Cr  Cr2  1  0.023685  0.282518  0.155425  1
  Cr  Cr3  1  0.523685  0.717482  0.344574  1
  P  P4  1  0.731448  0.429007  0.900217  1
  P  P5  1  0.231448  0.570993  0.599783  1
  P  P6  1  0.768552  0.929007  0.099783  1
  P  P7  1  0.268552  0.070993  0.400217  1
  O  O8  1  0.743930  0.277444  0.790662  1
  O  O9  1  0.243930  0.722556  0.709338  1
  O  O10  1  0.756070  0.777444  0.209338  1
  O  O11  1  0.256070  0.222556  0.290662  1
  O  O12  1  0.531254  0.522423  0.893156  1
  O  O13  1  0.031254  0.477577  0.606844  1
  O  O14  1  0.968746  0.022423  0.106844  1
  O  O15  1  0.468746  0.977577  0.393156  1
  O  O16  1  0.769969  0.366098  0.055298  1
  O  O17  1  0.269969  0.633902  0.444702  1
  O  O18  1  0.730031  0.866098  0.944702  1
  O  O19  1  0.230031  0.133902  0.555298  1
  O  O20  1  0.442431  0.046196  0.780119  1
  O  O21  1  0.942431  0.953804  0.719881  1
  O  O22  1  0.057569  0.546196  0.219881  1
  O  O23  1  0.557569  0.453804  0.280119  1
  O  O24  1  0.718386  0.697066  0.556926  1
  O  O25  1  0.218386  0.302934  0.943074  1
  O  O26  1  0.781614  0.197066  0.443074  1
  O  O27  1  0.281614  0.802934  0.056926  1
  H  H28  1  0.879073  0.549610  0.864058  1
  H  H29  1  0.379073  0.450390  0.635942  1
  H  H30  1  0.620927  0.049610  0.135942  1
  H  H31  1  0.120927  0.950390  0.364058  1
  H  H32  1  0.558770  0.126837  0.784281  1
  H  H33  1  0.058770  0.873163  0.715719  1
  H  H34  1  0.941230  0.626837  0.215719  1
  H  H35  1  0.441230  0.373163  0.284281  1
  H  H36  1  0.372575  0.070543  0.686788  1
  H  H37  1  0.872575  0.929457  0.813212  1
  H  H38  1  0.127425  0.570543  0.313212  1
  H  H39  1  0.627425  0.429457  0.186788  1
  H  H40  1  0.776646  0.805741  0.594193  1
  H  H41  1  0.276646  0.194259  0.905807  1
  H  H42  1  0.723354  0.305741  0.405807  1
  H  H43  1  0.223354  0.694259  0.094193  1
  H  H44  1  0.825086  0.609417  0.570262  1
  H  H45  1  0.325086  0.390583  0.929738  1
  H  H46  1  0.674914  0.109417  0.429738  1
  H  H47  1  0.174914  0.890583  0.070262  1
