# generated using pymatgen
data_K4WS3O14
_symmetry_space_group_name_H-M   'P 1'
_cell_length_a   9.65999834
_cell_length_b   10.46213044
_cell_length_c   14.28316953
_cell_angle_alpha   90.00000000
_cell_angle_beta   90.00000000
_cell_angle_gamma   91.21557547
_symmetry_Int_Tables_number   1
_chemical_formula_structural   K4WS3O14
_chemical_formula_sum   'K16 W4 S12 O56'
_cell_volume   1443.19171010
_cell_formula_units_Z   4
loop_
 _symmetry_equiv_pos_site_id
 _symmetry_equiv_pos_as_xyz
  1  'x, y, z'
loop_
 _atom_site_type_symbol
 _atom_site_label
 _atom_site_symmetry_multiplicity
 _atom_site_fract_x
 _atom_site_fract_y
 _atom_site_fract_z
 _atom_site_occupancy
  K  K0  1  0.506276  0.200134  0.505316  1
  K  K1  1  0.178524  0.165464  0.674069  1
  K  K2  1  0.752081  0.228732  0.780265  1
  K  K3  1  0.747919  0.271268  0.280265  1
  K  K4  1  0.791627  0.525326  0.541392  1
  K  K5  1  0.993724  0.299866  0.005316  1
  K  K6  1  0.708373  0.974674  0.041392  1
  K  K7  1  0.247919  0.771268  0.219735  1
  K  K8  1  0.291627  0.025326  0.958608  1
  K  K9  1  0.208373  0.474674  0.458608  1
  K  K10  1  0.252081  0.728732  0.719735  1
  K  K11  1  0.321476  0.334536  0.174069  1
  K  K12  1  0.678524  0.665464  0.825931  1
  K  K13  1  0.493724  0.799866  0.494684  1
  K  K14  1  0.006276  0.700134  0.994684  1
  K  K15  1  0.821476  0.834536  0.325931  1
  W  W16  1  0.333651  0.416203  0.877881  1
  W  W17  1  0.833651  0.916203  0.622119  1
  W  W18  1  0.166349  0.083797  0.377881  1
  W  W19  1  0.666349  0.583797  0.122119  1
  S  S20  1  0.974280  0.952865  0.844183  1
  S  S21  1  0.913717  0.206382  0.502733  1
  S  S22  1  0.977191  0.522018  0.219498  1
  S  S23  1  0.525720  0.547135  0.344183  1
  S  S24  1  0.413717  0.706382  0.997267  1
  S  S25  1  0.586283  0.293618  0.002733  1
  S  S26  1  0.522809  0.977982  0.719498  1
  S  S27  1  0.025720  0.047135  0.155817  1
  S  S28  1  0.022809  0.477982  0.780502  1
  S  S29  1  0.086283  0.793618  0.497267  1
  S  S30  1  0.474280  0.452865  0.655817  1
  S  S31  1  0.477191  0.022018  0.280502  1
  O  O32  1  0.016502  0.556044  0.695908  1
  O  O33  1  0.765159  0.903911  0.507216  1
  O  O34  1  0.094922  0.881501  0.413960  1
  O  O35  1  0.053827  0.013853  0.260279  1
  O  O36  1  0.512158  0.423380  0.392680  1
  O  O37  1  0.357201  0.374289  0.619571  1
  O  O38  1  0.394465  0.618211  0.346112  1
  O  O39  1  0.929058  0.518585  0.855691  1
  O  O40  1  0.857201  0.874289  0.880429  1
  O  O41  1  0.483498  0.943956  0.195908  1
  O  O42  1  0.709333  0.736171  0.166409  1
  O  O43  1  0.011692  0.339956  0.763970  1
  O  O44  1  0.010536  0.311135  0.523991  1
  O  O45  1  0.946173  0.986147  0.739721  1
  O  O46  1  0.488308  0.160044  0.263970  1
  O  O47  1  0.983498  0.443956  0.304092  1
  O  O48  1  0.734841  0.596089  0.007216  1
  O  O49  1  0.723215  0.250739  0.974309  1
  O  O50  1  0.223215  0.750739  0.525691  1
  O  O51  1  0.105535  0.881789  0.846112  1
  O  O52  1  0.070942  0.481415  0.144309  1
  O  O53  1  0.967694  0.126763  0.418954  1
  O  O54  1  0.989464  0.688865  0.476009  1
  O  O55  1  0.988308  0.660044  0.236030  1
  O  O56  1  0.234841  0.096089  0.492784  1
  O  O57  1  0.012158  0.923380  0.107320  1
  O  O58  1  0.776785  0.249261  0.474309  1
  O  O59  1  0.594922  0.381501  0.086040  1
  O  O60  1  0.324879  0.991604  0.321357  1
  O  O61  1  0.510536  0.811135  0.976009  1
  O  O62  1  0.553827  0.513853  0.239721  1
  O  O63  1  0.675121  0.008396  0.678643  1
  O  O64  1  0.824879  0.491604  0.178643  1
  O  O65  1  0.987842  0.076620  0.892680  1
  O  O66  1  0.487842  0.576620  0.607320  1
  O  O67  1  0.209333  0.236171  0.333591  1
  O  O68  1  0.276785  0.749261  0.025691  1
  O  O69  1  0.290667  0.263829  0.833591  1
  O  O70  1  0.032306  0.873237  0.581046  1
  O  O71  1  0.790667  0.763829  0.666409  1
  O  O72  1  0.429058  0.018585  0.644309  1
  O  O73  1  0.265159  0.403911  0.992784  1
  O  O74  1  0.642799  0.625711  0.380429  1
  O  O75  1  0.446173  0.486147  0.760279  1
  O  O76  1  0.905078  0.118499  0.586040  1
  O  O77  1  0.516502  0.056044  0.804092  1
  O  O78  1  0.467694  0.626763  0.081046  1
  O  O79  1  0.894465  0.118211  0.153888  1
  O  O80  1  0.511692  0.839956  0.736030  1
  O  O81  1  0.605535  0.381789  0.653888  1
  O  O82  1  0.532306  0.373237  0.918954  1
  O  O83  1  0.489464  0.188865  0.023991  1
  O  O84  1  0.405078  0.618499  0.913960  1
  O  O85  1  0.175121  0.508396  0.821357  1
  O  O86  1  0.570942  0.981415  0.355691  1
  O  O87  1  0.142799  0.125711  0.119571  1
