# generated using pymatgen
data_Pr2Co3Ge5
_symmetry_space_group_name_H-M   'P 1'
_cell_length_a   5.93920075
_cell_length_b   8.27710087
_cell_length_c   8.27710095
_cell_angle_alpha   73.08062107
_cell_angle_beta   68.97513877
_cell_angle_gamma   68.97513830
_symmetry_Int_Tables_number   1
_chemical_formula_structural   Pr2Co3Ge5
_chemical_formula_sum   'Pr4 Co6 Ge10'
_cell_volume   348.31629960
_cell_formula_units_Z   2
loop_
 _symmetry_equiv_pos_site_id
 _symmetry_equiv_pos_as_xyz
  1  'x, y, z'
loop_
 _atom_site_type_symbol
 _atom_site_label
 _atom_site_symmetry_multiplicity
 _atom_site_fract_x
 _atom_site_fract_y
 _atom_site_fract_z
 _atom_site_occupancy
  Pr  Pr0  1  0.866658  0.871509  0.395175  1
  Pr  Pr1  1  0.133342  0.128491  0.604825  1
  Pr  Pr2  1  0.633342  0.604825  0.128491  1
  Pr  Pr3  1  0.366658  0.395175  0.871509  1
  Co  Co4  1  0.635645  0.255340  0.473371  1
  Co  Co5  1  0.364355  0.744660  0.526629  1
  Co  Co6  1  0.864355  0.526629  0.744660  1
  Co  Co7  1  0.135645  0.473371  0.255340  1
  Co  Co8  1  0.750000  0.000000  0.000000  1
  Co  Co9  1  0.250000  0.000000  0.000000  1
  Ge  Ge10  1  0.514100  0.235900  0.235900  1
  Ge  Ge11  1  0.985900  0.764100  0.764100  1
  Ge  Ge12  1  0.485900  0.764100  0.764100  1
  Ge  Ge13  1  0.014100  0.235900  0.235900  1
  Ge  Ge14  1  0.598614  0.057257  0.745515  1
  Ge  Ge15  1  0.401386  0.942743  0.254485  1
  Ge  Ge16  1  0.901386  0.254485  0.942743  1
  Ge  Ge17  1  0.098614  0.745515  0.057257  1
  Ge  Ge18  1  0.750000  0.500000  0.500000  1
  Ge  Ge19  1  0.250000  0.500000  0.500000  1
