# generated using pymatgen
data_SbN9
_symmetry_space_group_name_H-M   'P 1'
_cell_length_a   8.10634324
_cell_length_b   8.10634345
_cell_length_c   8.10634337
_cell_angle_alpha   53.63096994
_cell_angle_beta   53.63096902
_cell_angle_gamma   53.63096907
_symmetry_Int_Tables_number   1
_chemical_formula_structural   SbN9
_chemical_formula_sum   'Sb2 N18'
_cell_volume   320.55945504
_cell_formula_units_Z   2
loop_
 _symmetry_equiv_pos_site_id
 _symmetry_equiv_pos_as_xyz
  1  'x, y, z'
loop_
 _atom_site_type_symbol
 _atom_site_label
 _atom_site_symmetry_multiplicity
 _atom_site_fract_x
 _atom_site_fract_y
 _atom_site_fract_z
 _atom_site_occupancy
  Sb  Sb0  1  0.686979  0.686979  0.686979  1
  Sb  Sb1  1  0.313021  0.313021  0.313021  1
  N  N2  1  0.630616  0.382057  0.866611  1
  N  N3  1  0.866611  0.630616  0.382057  1
  N  N4  1  0.382057  0.866611  0.630616  1
  N  N5  1  0.369384  0.617943  0.133389  1
  N  N6  1  0.133389  0.369384  0.617943  1
  N  N7  1  0.617943  0.133389  0.369384  1
  N  N8  1  0.730364  0.265187  0.761602  1
  N  N9  1  0.761602  0.730364  0.265187  1
  N  N10  1  0.265187  0.761602  0.730364  1
  N  N11  1  0.269636  0.734813  0.238398  1
  N  N12  1  0.238398  0.269636  0.734813  1
  N  N13  1  0.734813  0.238398  0.269636  1
  N  N14  1  0.822581  0.152392  0.667024  1
  N  N15  1  0.667024  0.822581  0.152392  1
  N  N16  1  0.152392  0.667024  0.822581  1
  N  N17  1  0.177419  0.847608  0.332976  1
  N  N18  1  0.332976  0.177419  0.847608  1
  N  N19  1  0.847608  0.332976  0.177419  1
