# generated using pymatgen
data_Ba11(OsO6)4
_symmetry_space_group_name_H-M   'P 1'
_cell_length_a   12.21513986
_cell_length_b   12.21514004
_cell_length_c   12.21513942
_cell_angle_alpha   91.94190903
_cell_angle_beta   118.88524507
_cell_angle_gamma   118.88524250
_symmetry_Int_Tables_number   1
_chemical_formula_structural   Ba11(OsO6)4
_chemical_formula_sum   'Ba22 Os8 O48'
_cell_volume   1309.68606137
_cell_formula_units_Z   2
loop_
 _symmetry_equiv_pos_site_id
 _symmetry_equiv_pos_as_xyz
  1  'x, y, z'
loop_
 _atom_site_type_symbol
 _atom_site_label
 _atom_site_symmetry_multiplicity
 _atom_site_fract_x
 _atom_site_fract_y
 _atom_site_fract_z
 _atom_site_occupancy
  Ba  Ba0  1  0.015787  0.760272  0.691430  1
  Ba  Ba1  1  0.778111  0.427379  0.121148  1
  Ba  Ba2  1  0.568842  0.244485  0.260272  1
  Ba  Ba3  1  0.693769  0.621148  0.343037  1
  Ba  Ba4  1  0.221889  0.572621  0.878852  1
  Ba  Ba5  1  0.068842  0.808570  0.324357  1
  Ba  Ba6  1  0.250000  0.610986  0.360986  1
  Ba  Ba7  1  0.250000  0.139014  0.889014  1
  Ba  Ba8  1  0.750000  0.860986  0.110986  1
  Ba  Ba9  1  0.931158  0.191430  0.675643  1
  Ba  Ba10  1  0.306231  0.378852  0.656963  1
  Ba  Ba11  1  0.984213  0.239728  0.308570  1
  Ba  Ba12  1  0.484213  0.175643  0.744485  1
  Ba  Ba13  1  0.278111  0.156963  0.350732  1
  Ba  Ba14  1  0.250000  0.375000  0.125000  1
  Ba  Ba15  1  0.721889  0.843037  0.649268  1
  Ba  Ba16  1  0.431158  0.755515  0.739728  1
  Ba  Ba17  1  0.193769  0.850732  0.072621  1
  Ba  Ba18  1  0.750000  0.389014  0.639014  1
  Ba  Ba19  1  0.750000  0.625000  0.875000  1
  Ba  Ba20  1  0.515787  0.824357  0.255515  1
  Ba  Ba21  1  0.806231  0.149268  0.927379  1
  Os  Os22  1  0.500000  0.000000  0.500000  1
  Os  Os23  1  0.500000  0.000000  0.000000  1
  Os  Os24  1  0.500000  0.500000  0.000000  1
  Os  Os25  1  0.000000  0.500000  0.500000  1
  Os  Os26  1  0.000000  0.000000  0.500000  1
  Os  Os27  1  0.500000  0.500000  0.500000  1
  Os  Os28  1  0.000000  0.500000  0.000000  1
  Os  Os29  1  0.000000  0.000000  0.000000  1
  O  O30  1  0.995569  0.109061  0.888143  1
  O  O31  1  0.496990  0.397004  0.373004  1
  O  O32  1  0.839249  0.511757  0.477923  1
  O  O33  1  0.533834  0.172508  0.011757  1
  O  O34  1  0.779082  0.388143  0.892573  1
  O  O35  1  0.773735  0.897270  0.900261  1
  O  O36  1  0.004431  0.890939  0.111857  1
  O  O37  1  0.213823  0.114828  0.637466  1
  O  O38  1  0.351698  0.007847  0.509050  1
  O  O39  1  0.220918  0.611857  0.107427  1
  O  O40  1  0.975999  0.873004  0.876014  1
  O  O41  1  0.660751  0.138674  0.672508  1
  O  O42  1  0.851698  0.342648  0.343851  1
  O  O43  1  0.001203  0.843851  0.492153  1
  O  O44  1  0.504431  0.392573  0.113491  1
  O  O45  1  0.226265  0.102730  0.099739  1
  O  O46  1  0.024001  0.126996  0.123986  1
  O  O47  1  0.501203  0.009050  0.157352  1
  O  O48  1  0.477362  0.862534  0.576357  1
  O  O49  1  0.996990  0.623986  0.099986  1
  O  O50  1  0.279082  0.386509  0.390939  1
  O  O51  1  0.498797  0.990950  0.842648  1
  O  O52  1  0.495569  0.607427  0.886509  1
  O  O53  1  0.003010  0.376014  0.900014  1
  O  O54  1  0.466166  0.827492  0.988243  1
  O  O55  1  0.148302  0.657352  0.656149  1
  O  O56  1  0.033834  0.022077  0.361326  1
  O  O57  1  0.977362  0.401005  0.614828  1
  O  O58  1  0.273735  0.373474  0.876465  1
  O  O59  1  0.524001  0.400014  0.897004  1
  O  O60  1  0.720918  0.613491  0.609061  1
  O  O61  1  0.475999  0.599986  0.102996  1
  O  O62  1  0.502991  0.376465  0.602730  1
  O  O63  1  0.503010  0.602996  0.626996  1
  O  O64  1  0.997009  0.599739  0.873474  1
  O  O65  1  0.497009  0.623535  0.397270  1
  O  O66  1  0.786177  0.885172  0.362534  1
  O  O67  1  0.726265  0.626526  0.123535  1
  O  O68  1  0.522638  0.137466  0.423643  1
  O  O69  1  0.022638  0.598995  0.385172  1
  O  O70  1  0.339249  0.861326  0.327492  1
  O  O71  1  0.160751  0.488243  0.522077  1
  O  O72  1  0.998797  0.156149  0.507847  1
  O  O73  1  0.648302  0.992153  0.490950  1
  O  O74  1  0.002991  0.400261  0.126526  1
  O  O75  1  0.286177  0.923643  0.901005  1
  O  O76  1  0.966166  0.977923  0.638674  1
  O  O77  1  0.713823  0.076357  0.098995  1
