# generated using pymatgen
data_PrSClO4
_symmetry_space_group_name_H-M   'P 1'
_cell_length_a   6.76942436
_cell_length_b   8.14617356
_cell_length_c   8.57855872
_cell_angle_alpha   90.00000000
_cell_angle_beta   112.24040521
_cell_angle_gamma   90.00000000
_symmetry_Int_Tables_number   1
_chemical_formula_structural   PrSClO4
_chemical_formula_sum   'Pr4 S4 Cl4 O16'
_cell_volume   437.86970907
_cell_formula_units_Z   4
loop_
 _symmetry_equiv_pos_site_id
 _symmetry_equiv_pos_as_xyz
  1  'x, y, z'
loop_
 _atom_site_type_symbol
 _atom_site_label
 _atom_site_symmetry_multiplicity
 _atom_site_fract_x
 _atom_site_fract_y
 _atom_site_fract_z
 _atom_site_occupancy
  Pr  Pr0  1  0.888392  0.307965  0.270701  1
  Pr  Pr1  1  0.111608  0.692035  0.729299  1
  Pr  Pr2  1  0.388392  0.192035  0.770701  1
  Pr  Pr3  1  0.611608  0.807965  0.229299  1
  S  S4  1  0.709250  0.581210  0.932122  1
  S  S5  1  0.290750  0.418790  0.067878  1
  S  S6  1  0.790750  0.081210  0.567878  1
  S  S7  1  0.209250  0.918790  0.432122  1
  Cl  Cl8  1  0.256804  0.463213  0.530276  1
  Cl  Cl9  1  0.756804  0.036787  0.030276  1
  Cl  Cl10  1  0.243196  0.963213  0.969724  1
  Cl  Cl11  1  0.743196  0.536787  0.469724  1
  O  O12  1  0.634169  0.151090  0.629087  1
  O  O13  1  0.512327  0.683067  0.877803  1
  O  O14  1  0.365831  0.848910  0.370913  1
  O  O15  1  0.297521  0.913639  0.623744  1
  O  O16  1  0.165152  0.092968  0.381508  1
  O  O17  1  0.012327  0.816933  0.377803  1
  O  O18  1  0.797521  0.586361  0.123744  1
  O  O19  1  0.987673  0.183067  0.622197  1
  O  O20  1  0.134169  0.348910  0.129087  1
  O  O21  1  0.665152  0.407032  0.881508  1
  O  O22  1  0.334848  0.592968  0.118492  1
  O  O23  1  0.865831  0.651090  0.870913  1
  O  O24  1  0.702479  0.086361  0.376256  1
  O  O25  1  0.487673  0.316933  0.122197  1
  O  O26  1  0.202479  0.413639  0.876256  1
  O  O27  1  0.834848  0.907032  0.618492  1
