# generated using pymatgen
data_CaFeSbAs2O7
_symmetry_space_group_name_H-M   'P 1'
_cell_length_a   10.91781816
_cell_length_b   12.84812518
_cell_length_c   12.84812517
_cell_angle_alpha   79.59978454
_cell_angle_beta   64.85694573
_cell_angle_gamma   64.85694590
_symmetry_Int_Tables_number   1
_chemical_formula_structural   CaFeSbAs2O7
_chemical_formula_sum   'Ca8 Fe8 Sb8 As16 O56'
_cell_volume   1476.90389147
_cell_formula_units_Z   8
loop_
 _symmetry_equiv_pos_site_id
 _symmetry_equiv_pos_as_xyz
  1  'x, y, z'
loop_
 _atom_site_type_symbol
 _atom_site_label
 _atom_site_symmetry_multiplicity
 _atom_site_fract_x
 _atom_site_fract_y
 _atom_site_fract_z
 _atom_site_occupancy
  Ca  Ca0  1  0.173235  0.410084  0.289361  1
  Ca  Ca1  1  0.083319  0.289361  0.089916  1
  Ca  Ca2  1  0.537404  0.789361  0.589916  1
  Ca  Ca3  1  0.916681  0.710639  0.910084  1
  Ca  Ca4  1  0.826765  0.589916  0.710639  1
  Ca  Ca5  1  0.127320  0.910084  0.789361  1
  Ca  Ca6  1  0.462596  0.210639  0.410084  1
  Ca  Ca7  1  0.872680  0.089916  0.210639  1
  Fe  Fe8  1  0.734717  0.495359  0.521618  1
  Fe  Fe9  1  0.751694  0.004641  0.978382  1
  Fe  Fe10  1  0.743665  0.021618  0.504641  1
  Fe  Fe11  1  0.730076  0.521618  0.004641  1
  Fe  Fe12  1  0.256335  0.978382  0.495359  1
  Fe  Fe13  1  0.265283  0.504641  0.478382  1
  Fe  Fe14  1  0.269924  0.478382  0.995359  1
  Fe  Fe15  1  0.248306  0.995359  0.021618  1
  Sb  Sb16  1  0.310123  0.601110  0.749008  1
  Sb  Sb17  1  0.660242  0.898890  0.750992  1
  Sb  Sb18  1  0.689877  0.398890  0.250992  1
  Sb  Sb19  1  0.940868  0.249008  0.398890  1
  Sb  Sb20  1  0.339758  0.101110  0.249008  1
  Sb  Sb21  1  0.059132  0.750992  0.601110  1
  Sb  Sb22  1  0.588766  0.250992  0.101110  1
  Sb  Sb23  1  0.411234  0.749008  0.898890  1
  As  As24  1  0.644816  0.416377  0.818977  1
  As  As25  1  0.901910  0.581639  0.211173  1
  As  As26  1  0.305278  0.081639  0.711173  1
  As  As27  1  0.463793  0.681023  0.416377  1
  As  As28  1  0.113083  0.288827  0.581639  1
  As  As29  1  0.880170  0.083623  0.681023  1
  As  As30  1  0.438807  0.181023  0.916377  1
  As  As31  1  0.886917  0.711173  0.418361  1
  As  As32  1  0.561193  0.818977  0.083623  1
  As  As33  1  0.119830  0.916377  0.318977  1
  As  As34  1  0.098090  0.418361  0.788827  1
  As  As35  1  0.983549  0.211173  0.918361  1
  As  As36  1  0.355184  0.583623  0.181023  1
  As  As37  1  0.694722  0.918361  0.288827  1
  As  As38  1  0.016451  0.788827  0.081639  1
  As  As39  1  0.536207  0.318977  0.583623  1
  O  O40  1  0.957790  0.869657  0.972155  1
  O  O41  1  0.105164  0.113845  0.793580  1
  O  O42  1  0.672757  0.903858  0.588943  1
  O  O43  1  0.130965  0.980432  0.180071  1
  O  O44  1  0.076615  0.588943  0.596142  1
  O  O45  1  0.738300  0.088943  0.096142  1
  O  O46  1  0.447975  0.490512  0.857357  1
  O  O47  1  0.708532  0.480432  0.680071  1
  O  O48  1  0.116300  0.735557  0.734210  1
  O  O49  1  0.311036  0.319929  0.980432  1
  O  O50  1  0.648143  0.265790  0.235557  1
  O  O51  1  0.388603  0.819929  0.480432  1
  O  O52  1  0.894836  0.886155  0.206420  1
  O  O53  1  0.261700  0.911057  0.903858  1
  O  O54  1  0.929946  0.527845  0.869657  1
  O  O55  1  0.071269  0.988243  0.615545  1
  O  O56  1  0.987412  0.613845  0.293580  1
  O  O57  1  0.204156  0.990512  0.357357  1
  O  O58  1  0.070054  0.472155  0.130343  1
  O  O59  1  0.042210  0.130343  0.027845  1
  O  O60  1  0.561513  0.142643  0.990512  1
  O  O61  1  0.012588  0.386155  0.706420  1
  O  O62  1  0.869035  0.019568  0.819929  1
  O  O63  1  0.200398  0.369657  0.472155  1
  O  O64  1  0.324943  0.488243  0.115545  1
  O  O65  1  0.351857  0.734210  0.764443  1
  O  O66  1  0.586067  0.764443  0.765790  1
  O  O67  1  0.559512  0.615545  0.511757  1
  O  O68  1  0.149490  0.234210  0.264443  1
  O  O69  1  0.898744  0.706420  0.113845  1
  O  O70  1  0.883700  0.264443  0.265790  1
  O  O71  1  0.438487  0.857357  0.009488  1
  O  O72  1  0.440488  0.384455  0.488243  1
  O  O73  1  0.719008  0.793580  0.386155  1
  O  O74  1  0.611397  0.180071  0.519568  1
  O  O75  1  0.694668  0.357357  0.509488  1
  O  O76  1  0.327243  0.096142  0.411057  1
  O  O77  1  0.313186  0.115545  0.011757  1
  O  O78  1  0.686814  0.884455  0.988243  1
  O  O79  1  0.834442  0.403858  0.088943  1
  O  O80  1  0.552025  0.509488  0.142643  1
  O  O81  1  0.165558  0.596142  0.911057  1
  O  O82  1  0.850510  0.765790  0.735557  1
  O  O83  1  0.305332  0.642643  0.490512  1
  O  O84  1  0.928731  0.011757  0.384455  1
  O  O85  1  0.799602  0.630343  0.527845  1
  O  O86  1  0.675057  0.511757  0.884455  1
  O  O87  1  0.280992  0.206420  0.613845  1
  O  O88  1  0.291468  0.519568  0.319929  1
  O  O89  1  0.795844  0.009488  0.642643  1
  O  O90  1  0.327447  0.972155  0.630343  1
  O  O91  1  0.672553  0.027845  0.369657  1
  O  O92  1  0.923385  0.411057  0.403858  1
  O  O93  1  0.101256  0.293580  0.886155  1
  O  O94  1  0.413933  0.235557  0.234210  1
  O  O95  1  0.688964  0.680071  0.019568  1
