# generated using pymatgen
data_K2NiH12(C2O7)2
_symmetry_space_group_name_H-M   'P 1'
_cell_length_a   6.83107284
_cell_length_b   8.71140094
_cell_length_c   12.10614649
_cell_angle_alpha   102.16164457
_cell_angle_beta   90.00000000
_cell_angle_gamma   90.00000000
_symmetry_Int_Tables_number   1
_chemical_formula_structural   K2NiH12(C2O7)2
_chemical_formula_sum   'K4 Ni2 H24 C8 O28'
_cell_volume   704.24698540
_cell_formula_units_Z   2
loop_
 _symmetry_equiv_pos_site_id
 _symmetry_equiv_pos_as_xyz
  1  'x, y, z'
loop_
 _atom_site_type_symbol
 _atom_site_label
 _atom_site_symmetry_multiplicity
 _atom_site_fract_x
 _atom_site_fract_y
 _atom_site_fract_z
 _atom_site_occupancy
  K  K0  1  0.654996  0.559079  0.879188  1
  K  K1  1  0.154997  0.940921  0.620812  1
  K  K2  1  0.845004  0.059079  0.379188  1
  K  K3  1  0.345004  0.440921  0.120812  1
  Ni  Ni4  1  0.000000  0.000000  0.000000  1
  Ni  Ni5  1  0.500000  0.500000  0.500000  1
  H  H6  1  0.914489  0.398500  0.343183  1
  H  H7  1  0.284547  0.092818  0.882218  1
  H  H8  1  0.088482  0.422555  0.851967  1
  H  H9  1  0.585511  0.898500  0.843183  1
  H  H10  1  0.715453  0.907182  0.117782  1
  H  H11  1  0.215453  0.592818  0.382218  1
  H  H12  1  0.588482  0.077445  0.648033  1
  H  H13  1  0.411518  0.922555  0.351967  1
  H  H14  1  0.414489  0.101500  0.156817  1
  H  H15  1  0.590204  0.326375  0.648540  1
  H  H16  1  0.491131  0.820405  0.235109  1
  H  H17  1  0.013425  0.710422  0.770946  1
  H  H18  1  0.090204  0.173625  0.851460  1
  H  H19  1  0.513425  0.789578  0.729054  1
  H  H20  1  0.986575  0.289578  0.229054  1
  H  H21  1  0.909796  0.826375  0.148540  1
  H  H22  1  0.991131  0.679595  0.264891  1
  H  H23  1  0.085511  0.601500  0.656817  1
  H  H24  1  0.008869  0.320405  0.735109  1
  H  H25  1  0.508869  0.179595  0.764891  1
  H  H26  1  0.911518  0.577445  0.148033  1
  H  H27  1  0.784547  0.407182  0.617782  1
  H  H28  1  0.486575  0.210422  0.270946  1
  H  H29  1  0.409796  0.673625  0.351460  1
  C  C30  1  0.320004  0.816433  0.044394  1
  C  C31  1  0.311575  0.202397  0.458349  1
  C  C32  1  0.179996  0.316433  0.544394  1
  C  C33  1  0.811575  0.297603  0.041651  1
  C  C34  1  0.820004  0.683567  0.455606  1
  C  C35  1  0.688425  0.797603  0.541651  1
  C  C36  1  0.188425  0.702397  0.958349  1
  C  C37  1  0.679996  0.183567  0.955606  1
  O  O38  1  0.466376  0.262669  0.425307  1
  O  O39  1  0.533624  0.737331  0.574693  1
  O  O40  1  0.994826  0.688075  0.688450  1
  O  O41  1  0.497039  0.164775  0.681764  1
  O  O42  1  0.527958  0.236690  0.917724  1
  O  O43  1  0.740031  0.938855  0.571166  1
  O  O44  1  0.645528  0.428740  0.635653  1
  O  O45  1  0.259969  0.061145  0.428834  1
  O  O46  1  0.354472  0.571260  0.364347  1
  O  O47  1  0.759969  0.438854  0.071166  1
  O  O48  1  0.002961  0.664775  0.181764  1
  O  O49  1  0.972042  0.736690  0.417724  1
  O  O50  1  0.966376  0.237331  0.074693  1
  O  O51  1  0.997039  0.335225  0.818236  1
  O  O52  1  0.033624  0.762669  0.925307  1
  O  O53  1  0.854472  0.928740  0.135653  1
  O  O54  1  0.145528  0.071260  0.864347  1
  O  O55  1  0.739331  0.041571  0.928144  1
  O  O56  1  0.472042  0.763310  0.082276  1
  O  O57  1  0.240031  0.561145  0.928834  1
  O  O58  1  0.260669  0.958429  0.071856  1
  O  O59  1  0.760669  0.541571  0.428144  1
  O  O60  1  0.505174  0.188075  0.188450  1
  O  O61  1  0.027958  0.263310  0.582276  1
  O  O62  1  0.502961  0.835225  0.318236  1
  O  O63  1  0.239331  0.458429  0.571856  1
  O  O64  1  0.494826  0.811925  0.811550  1
  O  O65  1  0.005174  0.311925  0.311550  1
