# generated using pymatgen
data_Pu(SeO3)2
_symmetry_space_group_name_H-M   'P 1'
_cell_length_a   7.09987518
_cell_length_b   7.37404920
_cell_length_c   10.82509160
_cell_angle_alpha   90.00000000
_cell_angle_beta   90.00000000
_cell_angle_gamma   106.43600359
_symmetry_Int_Tables_number   1
_chemical_formula_structural   Pu(SeO3)2
_chemical_formula_sum   'Pu4 Se8 O24'
_cell_volume   543.58652529
_cell_formula_units_Z   4
loop_
 _symmetry_equiv_pos_site_id
 _symmetry_equiv_pos_as_xyz
  1  'x, y, z'
loop_
 _atom_site_type_symbol
 _atom_site_label
 _atom_site_symmetry_multiplicity
 _atom_site_fract_x
 _atom_site_fract_y
 _atom_site_fract_z
 _atom_site_occupancy
  Pu  Pu0  1  0.245546  0.494334  0.595797  1
  Pu  Pu1  1  0.745546  0.994334  0.904203  1
  Pu  Pu2  1  0.254454  0.005666  0.095797  1
  Pu  Pu3  1  0.754454  0.505666  0.404203  1
  Se  Se4  1  0.735895  0.929757  0.214707  1
  Se  Se5  1  0.214915  0.932919  0.426685  1
  Se  Se6  1  0.764105  0.570243  0.714707  1
  Se  Se7  1  0.285085  0.567081  0.926685  1
  Se  Se8  1  0.785085  0.067081  0.573315  1
  Se  Se9  1  0.235895  0.429757  0.285293  1
  Se  Se10  1  0.714915  0.432919  0.073315  1
  Se  Se11  1  0.264105  0.070243  0.785293  1
  O  O12  1  0.194363  0.608755  0.783355  1
  O  O13  1  0.094605  0.083678  0.903325  1
  O  O14  1  0.694363  0.108755  0.716645  1
  O  O15  1  0.805637  0.391245  0.216645  1
  O  O16  1  0.068784  0.454858  0.398842  1
  O  O17  1  0.646584  0.698324  0.256798  1
  O  O18  1  0.530289  0.685332  0.907650  1
  O  O19  1  0.309999  0.785623  0.519478  1
  O  O20  1  0.690001  0.214377  0.480522  1
  O  O21  1  0.431216  0.045142  0.898842  1
  O  O22  1  0.469711  0.314668  0.092350  1
  O  O23  1  0.405395  0.416322  0.403325  1
  O  O24  1  0.905395  0.916322  0.096675  1
  O  O25  1  0.353416  0.301676  0.743202  1
  O  O26  1  0.305637  0.891245  0.283355  1
  O  O27  1  0.030289  0.185332  0.592350  1
  O  O28  1  0.809999  0.285623  0.980522  1
  O  O29  1  0.146584  0.198324  0.243202  1
  O  O30  1  0.853416  0.801676  0.756798  1
  O  O31  1  0.190001  0.714377  0.019478  1
  O  O32  1  0.969711  0.814668  0.407650  1
  O  O33  1  0.931216  0.545142  0.601158  1
  O  O34  1  0.568784  0.954858  0.101158  1
  O  O35  1  0.594605  0.583678  0.596675  1
