# generated using pymatgen
data_TlV3(CrS4)2
_symmetry_space_group_name_H-M   'P 1'
_cell_length_a   3.35365016
_cell_length_b   8.78428370
_cell_length_c   8.81732932
_cell_angle_alpha   102.68963485
_cell_angle_beta   100.95706765
_cell_angle_gamma   90.00170945
_symmetry_Int_Tables_number   1
_chemical_formula_structural   TlV3(CrS4)2
_chemical_formula_sum   'Tl1 V3 Cr2 S8'
_cell_volume   248.55218216
_cell_formula_units_Z   1
loop_
 _symmetry_equiv_pos_site_id
 _symmetry_equiv_pos_as_xyz
  1  'x, y, z'
loop_
 _atom_site_type_symbol
 _atom_site_label
 _atom_site_symmetry_multiplicity
 _atom_site_fract_x
 _atom_site_fract_y
 _atom_site_fract_z
 _atom_site_occupancy
  Tl  Tl0  1  0.000000  0.000000  0.000000  1
  V  V1  1  0.146305  0.486830  0.292602  1
  V  V2  1  0.853695  0.513169  0.707398  1
  V  V3  1  0.500000  0.500000  0.000000  1
  Cr  Cr4  1  0.204515  0.830978  0.409060  1
  Cr  Cr5  1  0.795485  0.169022  0.590940  1
  S  S6  1  0.071561  0.670477  0.143100  1
  S  S7  1  0.330061  0.008329  0.660179  1
  S  S8  1  0.262090  0.351423  0.524018  1
  S  S9  1  0.414147  0.681570  0.828288  1
  S  S10  1  0.585853  0.318430  0.171712  1
  S  S11  1  0.928439  0.329523  0.856900  1
  S  S12  1  0.737910  0.648577  0.475982  1
  S  S13  1  0.669939  0.991671  0.339821  1
