# generated using pymatgen
data_Ta2SnO6
_symmetry_space_group_name_H-M   'P 1'
_cell_length_a   4.92316070
_cell_length_b   5.62191598
_cell_length_c   9.05766850
_cell_angle_alpha   91.37980911
_cell_angle_beta   105.77934137
_cell_angle_gamma   89.99595381
_symmetry_Int_Tables_number   1
_chemical_formula_structural   Ta2SnO6
_chemical_formula_sum   'Ta4 Sn2 O12'
_cell_volume   241.17192301
_cell_formula_units_Z   2
loop_
 _symmetry_equiv_pos_site_id
 _symmetry_equiv_pos_as_xyz
  1  'x, y, z'
loop_
 _atom_site_type_symbol
 _atom_site_label
 _atom_site_symmetry_multiplicity
 _atom_site_fract_x
 _atom_site_fract_y
 _atom_site_fract_z
 _atom_site_occupancy
  Ta  Ta0  1  0.413763  0.163268  0.339126  1
  Ta  Ta1  1  0.925289  0.663256  0.339134  1
  Ta  Ta2  1  0.073309  0.334774  0.658087  1
  Ta  Ta3  1  0.584858  0.834768  0.658092  1
  Sn  Sn4  1  0.229108  0.736677  0.997691  1
  Sn  Sn5  1  0.768466  0.236757  0.997486  1
  O  O6  1  0.391562  0.575259  0.712121  1
  O  O7  1  0.601936  0.429201  0.288106  1
  O  O8  1  0.158179  0.352664  0.437604  1
  O  O9  1  0.320668  0.075256  0.712124  1
  O  O10  1  0.989157  0.594415  0.146154  1
  O  O11  1  0.008968  0.399579  0.853357  1
  O  O12  1  0.156886  0.094412  0.146137  1
  O  O13  1  0.840106  0.646438  0.562046  1
  O  O14  1  0.844505  0.899570  0.853382  1
  O  O15  1  0.279390  0.852673  0.437597  1
  O  O16  1  0.721978  0.146438  0.562053  1
  O  O17  1  0.686072  0.929195  0.288105  1
