# generated using pymatgen
data_Cu4Te5(ClO3)4
_symmetry_space_group_name_H-M   'P 1'
_cell_length_a   6.39636775
_cell_length_b   11.56670741
_cell_length_c   11.56670741
_cell_angle_alpha   90.00000000
_cell_angle_beta   90.00000000
_cell_angle_gamma   90.00000000
_symmetry_Int_Tables_number   1
_chemical_formula_structural   Cu4Te5(ClO3)4
_chemical_formula_sum   'Cu8 Te10 Cl8 O24'
_cell_volume   855.76185590
_cell_formula_units_Z   2
loop_
 _symmetry_equiv_pos_site_id
 _symmetry_equiv_pos_as_xyz
  1  'x, y, z'
loop_
 _atom_site_type_symbol
 _atom_site_label
 _atom_site_symmetry_multiplicity
 _atom_site_fract_x
 _atom_site_fract_y
 _atom_site_fract_z
 _atom_site_occupancy
  Cu  Cu0  1  0.350046  0.755272  0.406914  1
  Cu  Cu1  1  0.649954  0.593086  0.255272  1
  Cu  Cu2  1  0.649954  0.906914  0.244728  1
  Cu  Cu3  1  0.350046  0.093086  0.755272  1
  Cu  Cu4  1  0.350046  0.744728  0.093086  1
  Cu  Cu5  1  0.649954  0.244728  0.593086  1
  Cu  Cu6  1  0.649954  0.255272  0.906914  1
  Cu  Cu7  1  0.350046  0.406914  0.744728  1
  Te  Te8  1  0.871036  0.823167  0.479246  1
  Te  Te9  1  0.367059  0.250000  0.250000  1
  Te  Te10  1  0.632941  0.750000  0.750000  1
  Te  Te11  1  0.871036  0.676833  0.020754  1
  Te  Te12  1  0.128964  0.176833  0.520754  1
  Te  Te13  1  0.128964  0.323167  0.979246  1
  Te  Te14  1  0.871036  0.020754  0.823167  1
  Te  Te15  1  0.871036  0.479246  0.676833  1
  Te  Te16  1  0.128964  0.979246  0.176833  1
  Te  Te17  1  0.128964  0.520754  0.323167  1
  Cl  Cl18  1  0.327301  0.553694  0.617419  1
  Cl  Cl19  1  0.327301  0.946306  0.882581  1
  Cl  Cl20  1  0.327301  0.617419  0.946306  1
  Cl  Cl21  1  0.672699  0.117419  0.446306  1
  Cl  Cl22  1  0.672699  0.382581  0.053694  1
  Cl  Cl23  1  0.672699  0.446306  0.382581  1
  Cl  Cl24  1  0.327301  0.882581  0.553694  1
  Cl  Cl25  1  0.672699  0.053694  0.117419  1
  O  O26  1  0.941044  0.577000  0.208481  1
  O  O27  1  0.768771  0.596085  0.787660  1
  O  O28  1  0.644605  0.786019  0.372064  1
  O  O29  1  0.355395  0.213981  0.627936  1
  O  O30  1  0.231229  0.403915  0.212340  1
  O  O31  1  0.941044  0.291519  0.577000  1
  O  O32  1  0.941044  0.208481  0.923000  1
  O  O33  1  0.941044  0.923000  0.291519  1
  O  O34  1  0.355395  0.627936  0.286019  1
  O  O35  1  0.231229  0.287660  0.403915  1
  O  O36  1  0.644605  0.713981  0.127936  1
  O  O37  1  0.768771  0.712340  0.596085  1
  O  O38  1  0.231229  0.212340  0.096085  1
  O  O39  1  0.058956  0.077000  0.708481  1
  O  O40  1  0.058956  0.423000  0.791519  1
  O  O41  1  0.231229  0.096085  0.287660  1
  O  O42  1  0.768771  0.903915  0.712340  1
  O  O43  1  0.768771  0.787660  0.903915  1
  O  O44  1  0.644605  0.127936  0.786019  1
  O  O45  1  0.355395  0.286019  0.872064  1
  O  O46  1  0.058956  0.791519  0.077000  1
  O  O47  1  0.355395  0.872064  0.213981  1
  O  O48  1  0.644605  0.372064  0.713981  1
  O  O49  1  0.058956  0.708481  0.423000  1
