# generated using pymatgen
data_KDy(PO3)4
_symmetry_space_group_name_H-M   'P 1'
_cell_length_a   8.98774963
_cell_length_b   10.42920157
_cell_length_c   10.96245217
_cell_angle_alpha   106.42988096
_cell_angle_beta   90.00000000
_cell_angle_gamma   90.00000000
_symmetry_Int_Tables_number   1
_chemical_formula_structural   KDy(PO3)4
_chemical_formula_sum   'K4 Dy4 P16 O48'
_cell_volume   985.60701264
_cell_formula_units_Z   4
loop_
 _symmetry_equiv_pos_site_id
 _symmetry_equiv_pos_as_xyz
  1  'x, y, z'
loop_
 _atom_site_type_symbol
 _atom_site_label
 _atom_site_symmetry_multiplicity
 _atom_site_fract_x
 _atom_site_fract_y
 _atom_site_fract_z
 _atom_site_occupancy
  Dy  Dy0  1  0.773876  0.000581  0.815157  1
  Dy  Dy1  1  0.273876  0.499419  0.684843  1
  Dy  Dy2  1  0.226124  0.999419  0.184843  1
  Dy  Dy3  1  0.726124  0.500581  0.315157  1
  K  K4  1  0.432083  0.295621  0.039805  1
  K  K5  1  0.932083  0.204379  0.460195  1
  K  K6  1  0.567917  0.704379  0.960195  1
  K  K7  1  0.067917  0.795621  0.539805  1
  P  P8  1  0.025452  0.251477  0.774371  1
  P  P9  1  0.525452  0.248523  0.725629  1
  P  P10  1  0.974548  0.748523  0.225629  1
  P  P11  1  0.474548  0.751477  0.274371  1
  P  P12  1  0.890331  0.322791  0.021845  1
  P  P13  1  0.390331  0.177209  0.478155  1
  P  P14  1  0.109669  0.677209  0.978155  1
  P  P15  1  0.609669  0.822791  0.521845  1
  P  P16  1  0.091033  0.351941  0.242753  1
  P  P17  1  0.591033  0.148059  0.257247  1
  P  P18  1  0.908967  0.648059  0.757247  1
  P  P19  1  0.408967  0.851941  0.742753  1
  P  P20  1  0.328846  0.540256  0.363435  1
  P  P21  1  0.828846  0.959744  0.136565  1
  P  P22  1  0.671154  0.459744  0.636565  1
  P  P23  1  0.171154  0.040256  0.863435  1
  O  O24  1  0.593404  0.169819  0.806494  1
  O  O25  1  0.093404  0.330181  0.693506  1
  O  O26  1  0.406596  0.830181  0.193506  1
  O  O27  1  0.906596  0.669819  0.306494  1
  O  O28  1  0.914944  0.144473  0.711797  1
  O  O29  1  0.414944  0.355527  0.788203  1
  O  O30  1  0.085056  0.855527  0.288203  1
  O  O31  1  0.585056  0.644473  0.211797  1
  O  O32  1  0.952973  0.359300  0.897272  1
  O  O33  1  0.452973  0.140700  0.602728  1
  O  O34  1  0.047027  0.640700  0.102728  1
  O  O35  1  0.547027  0.859300  0.397272  1
  O  O36  1  0.158229  0.185791  0.837829  1
  O  O37  1  0.658229  0.314209  0.662171  1
  O  O38  1  0.841771  0.814209  0.162171  1
  O  O39  1  0.341771  0.685791  0.337829  1
  O  O40  1  0.834544  0.181885  0.980808  1
  O  O41  1  0.334544  0.318115  0.519192  1
  O  O42  1  0.165456  0.818115  0.019192  1
  O  O43  1  0.665456  0.681885  0.480808  1
  O  O44  1  0.788020  0.431244  0.094948  1
  O  O45  1  0.288020  0.068756  0.405052  1
  O  O46  1  0.211980  0.568756  0.905052  1
  O  O47  1  0.711980  0.931244  0.594948  1
  O  O48  1  0.047308  0.328077  0.096088  1
  O  O49  1  0.547308  0.171923  0.403912  1
  O  O50  1  0.952692  0.671923  0.903912  1
  O  O51  1  0.452692  0.828077  0.596088  1
  O  O52  1  0.675065  0.266290  0.241805  1
  O  O53  1  0.175065  0.233710  0.258195  1
  O  O54  1  0.324935  0.733710  0.758195  1
  O  O55  1  0.824935  0.766290  0.741805  1
  O  O56  1  0.958243  0.399417  0.326543  1
  O  O57  1  0.458243  0.100583  0.173457  1
  O  O58  1  0.041757  0.600583  0.673457  1
  O  O59  1  0.541757  0.899417  0.826543  1
  O  O60  1  0.207708  0.473697  0.253931  1
  O  O61  1  0.707708  0.026303  0.246069  1
  O  O62  1  0.792292  0.526303  0.746069  1
  O  O63  1  0.292292  0.973697  0.753931  1
  O  O64  1  0.260458  0.564776  0.492562  1
  O  O65  1  0.760458  0.935224  0.007438  1
  O  O66  1  0.739542  0.435224  0.507438  1
  O  O67  1  0.239542  0.064776  0.992562  1
  O  O68  1  0.470862  0.463168  0.328370  1
  O  O69  1  0.970862  0.036832  0.171630  1
  O  O70  1  0.529138  0.536832  0.671630  1
  O  O71  1  0.029138  0.963168  0.828370  1
