# generated using pymatgen
data_Yb2(CN2)3
_symmetry_space_group_name_H-M   'P 1'
_cell_length_a   11.04958760
_cell_length_b   11.04958756
_cell_length_c   11.04958700
_cell_angle_alpha   33.71963301
_cell_angle_beta   33.71963328
_cell_angle_gamma   33.71963319
_symmetry_Int_Tables_number   1
_chemical_formula_structural   Yb2(CN2)3
_chemical_formula_sum   'Yb4 C6 N12'
_cell_volume   370.41270511
_cell_formula_units_Z   2
loop_
 _symmetry_equiv_pos_site_id
 _symmetry_equiv_pos_as_xyz
  1  'x, y, z'
loop_
 _atom_site_type_symbol
 _atom_site_label
 _atom_site_symmetry_multiplicity
 _atom_site_fract_x
 _atom_site_fract_y
 _atom_site_fract_z
 _atom_site_occupancy
  Yb  Yb0  1  0.164511  0.164511  0.164511  1
  Yb  Yb1  1  0.664511  0.664511  0.664511  1
  Yb  Yb2  1  0.835489  0.835489  0.835489  1
  Yb  Yb3  1  0.335489  0.335489  0.335489  1
  C  C4  1  0.048440  0.750000  0.451560  1
  C  C5  1  0.750000  0.451560  0.048440  1
  C  C6  1  0.548440  0.951560  0.250000  1
  C  C7  1  0.951560  0.250000  0.548440  1
  C  C8  1  0.250000  0.548440  0.951560  1
  C  C9  1  0.451560  0.048440  0.750000  1
  N  N10  1  0.848604  0.461267  0.053830  1
  N  N11  1  0.651396  0.446170  0.038733  1
  N  N12  1  0.038733  0.651396  0.446170  1
  N  N13  1  0.538733  0.946170  0.151396  1
  N  N14  1  0.446170  0.038733  0.651396  1
  N  N15  1  0.553830  0.961267  0.348604  1
  N  N16  1  0.961267  0.348604  0.553830  1
  N  N17  1  0.151396  0.538733  0.946170  1
  N  N18  1  0.946170  0.151396  0.538733  1
  N  N19  1  0.348604  0.553830  0.961267  1
  N  N20  1  0.461267  0.053830  0.848604  1
  N  N21  1  0.053830  0.848604  0.461267  1
