# generated using pymatgen
data_NbSe2SN2ClF6
_symmetry_space_group_name_H-M   'P 1'
_cell_length_a   8.54365698
_cell_length_b   10.67769711
_cell_length_c   12.61182814
_cell_angle_alpha   108.38141984
_cell_angle_beta   90.00000000
_cell_angle_gamma   90.00000000
_symmetry_Int_Tables_number   1
_chemical_formula_structural   NbSe2SN2ClF6
_chemical_formula_sum   'Nb4 Se8 S4 N8 Cl4 F24'
_cell_volume   1091.83179313
_cell_formula_units_Z   4
loop_
 _symmetry_equiv_pos_site_id
 _symmetry_equiv_pos_as_xyz
  1  'x, y, z'
loop_
 _atom_site_type_symbol
 _atom_site_label
 _atom_site_symmetry_multiplicity
 _atom_site_fract_x
 _atom_site_fract_y
 _atom_site_fract_z
 _atom_site_occupancy
  Nb  Nb0  1  0.808890  0.912931  0.677892  1
  Nb  Nb1  1  0.191110  0.087069  0.322108  1
  Nb  Nb2  1  0.308890  0.587069  0.822108  1
  Nb  Nb3  1  0.691110  0.412931  0.177892  1
  Se  Se4  1  0.823165  0.721029  0.022650  1
  Se  Se5  1  0.904191  0.316808  0.635977  1
  Se  Se6  1  0.404191  0.183193  0.864023  1
  Se  Se7  1  0.323165  0.778971  0.477350  1
  Se  Se8  1  0.676835  0.221029  0.522650  1
  Se  Se9  1  0.095809  0.683192  0.364023  1
  Se  Se10  1  0.595809  0.816808  0.135977  1
  Se  Se11  1  0.176835  0.278971  0.977350  1
  S  S12  1  0.770682  -0.001041  0.049954  1
  S  S13  1  0.270682  0.501041  0.450046  1
  S  S14  1  0.729318  0.498959  0.549954  1
  S  S15  1  0.229318  1.001041  0.950046  1
  N  N16  1  0.881711  0.470894  0.610990  1
  N  N17  1  0.375905  0.625394  0.496032  1
  N  N18  1  0.118289  0.529106  0.389010  1
  N  N19  1  0.618289  0.970894  0.110990  1
  N  N20  1  0.124095  0.125394  0.996032  1
  N  N21  1  0.381711  0.029106  0.889010  1
  N  N22  1  0.624095  0.374606  0.503968  1
  N  N23  1  0.875905  0.874606  0.003968  1
  Cl  Cl24  1  0.187708  0.639491  0.186965  1
  Cl  Cl25  1  0.312292  0.139491  0.686965  1
  Cl  Cl26  1  0.687708  0.860509  0.313035  1
  Cl  Cl27  1  0.812292  0.360509  0.813035  1
  F  F28  1  0.346706  0.452345  0.897640  1
  F  F29  1  0.236644  0.217292  0.251313  1
  F  F30  1  0.510582  0.546203  0.751667  1
  F  F31  1  0.989418  0.046203  0.251667  1
  F  F32  1  0.714811  0.048557  0.801485  1
  F  F33  1  0.405617  0.721972  0.947168  1
  F  F34  1  0.285189  0.951443  0.198515  1
  F  F35  1  0.905617  0.778028  0.552832  1
  F  F36  1  0.609179  0.880836  0.600124  1
  F  F37  1  0.846706  0.047655  0.602360  1
  F  F38  1  0.390821  0.119164  0.399876  1
  F  F39  1  0.263356  0.717292  0.751313  1
  F  F40  1  0.653294  0.547655  0.102360  1
  F  F41  1  0.010582  0.953797  0.748333  1
  F  F42  1  0.890821  0.380836  0.100124  1
  F  F43  1  0.214811  0.451443  0.698515  1
  F  F44  1  0.763356  0.782708  0.748687  1
  F  F45  1  0.153294  0.952345  0.397640  1
  F  F46  1  0.489418  0.453797  0.248333  1
  F  F47  1  0.094383  0.221972  0.447168  1
  F  F48  1  0.109179  0.619164  0.899876  1
  F  F49  1  0.736644  0.282708  0.248687  1
  F  F50  1  0.594383  0.278028  0.052832  1
  F  F51  1  0.785189  0.548557  0.301485  1
