# generated using pymatgen
data_K2S2NO7
_symmetry_space_group_name_H-M   'P 1'
_cell_length_a   7.39479400
_cell_length_b   7.21181613
_cell_length_c   7.71838044
_cell_angle_alpha   81.51902995
_cell_angle_beta   67.87746517
_cell_angle_gamma   82.39827177
_symmetry_Int_Tables_number   1
_chemical_formula_structural   K2S2NO7
_chemical_formula_sum   'K4 S4 N2 O14'
_cell_volume   375.82205691
_cell_formula_units_Z   2
loop_
 _symmetry_equiv_pos_site_id
 _symmetry_equiv_pos_as_xyz
  1  'x, y, z'
loop_
 _atom_site_type_symbol
 _atom_site_label
 _atom_site_symmetry_multiplicity
 _atom_site_fract_x
 _atom_site_fract_y
 _atom_site_fract_z
 _atom_site_occupancy
  K  K0  1  0.150493  0.306517  0.339749  1
  K  K1  1  0.278229  0.806824  0.924255  1
  K  K2  1  0.849507  0.693483  0.660251  1
  K  K3  1  0.721771  0.193176  0.075745  1
  S  S4  1  0.259403  0.356773  0.829241  1
  S  S5  1  0.308046  0.818185  0.374830  1
  S  S6  1  0.691954  0.181815  0.625170  1
  S  S7  1  0.740597  0.643227  0.170759  1
  N  N8  1  0.475051  0.338463  0.608693  1
  N  N9  1  0.524949  0.661537  0.391307  1
  O  O10  1  0.169468  0.178545  0.877568  1
  O  O11  1  0.782795  0.112004  0.441366  1
  O  O12  1  0.392411  0.962308  0.219687  1
  O  O13  1  0.650960  0.603047  0.042208  1
  O  O14  1  0.858770  0.485713  0.226340  1
  O  O15  1  0.445193  0.355400  0.456498  1
  O  O16  1  0.217205  0.887996  0.558634  1
  O  O17  1  0.830532  0.821455  0.122432  1
  O  O18  1  0.191234  0.694901  0.332433  1
  O  O19  1  0.141230  0.514287  0.773660  1
  O  O20  1  0.349040  0.396953  0.957792  1
  O  O21  1  0.554807  0.644600  0.543502  1
  O  O22  1  0.607589  0.037692  0.780313  1
  O  O23  1  0.808766  0.305099  0.667567  1
