# generated using pymatgen
data_Na4Sn3O8
_symmetry_space_group_name_H-M   'P 1'
_cell_length_a   9.35391867
_cell_length_b   9.35391867
_cell_length_c   9.35391867
_cell_angle_alpha   90.00000000
_cell_angle_beta   90.00000000
_cell_angle_gamma   90.00000000
_symmetry_Int_Tables_number   1
_chemical_formula_structural   Na4Sn3O8
_chemical_formula_sum   'Na16 Sn12 O32'
_cell_volume   818.42854558
_cell_formula_units_Z   4
loop_
 _symmetry_equiv_pos_site_id
 _symmetry_equiv_pos_as_xyz
  1  'x, y, z'
loop_
 _atom_site_type_symbol
 _atom_site_label
 _atom_site_symmetry_multiplicity
 _atom_site_fract_x
 _atom_site_fract_y
 _atom_site_fract_z
 _atom_site_occupancy
  Na  Na0  1  0.105890  0.875000  0.644110  1
  Na  Na1  1  0.125000  0.144110  0.394110  1
  Na  Na2  1  0.125000  0.375000  0.625000  1
  Na  Na3  1  0.144110  0.394110  0.125000  1
  Na  Na4  1  0.355890  0.605890  0.625000  1
  Na  Na5  1  0.375000  0.625000  0.125000  1
  Na  Na6  1  0.375000  0.855890  0.894110  1
  Na  Na7  1  0.394110  0.125000  0.144110  1
  Na  Na8  1  0.605890  0.625000  0.355890  1
  Na  Na9  1  0.625000  0.125000  0.375000  1
  Na  Na10  1  0.625000  0.355890  0.605890  1
  Na  Na11  1  0.644110  0.105890  0.875000  1
  Na  Na12  1  0.855890  0.894110  0.375000  1
  Na  Na13  1  0.875000  0.644110  0.105890  1
  Na  Na14  1  0.875000  0.875000  0.875000  1
  Na  Na15  1  0.894110  0.375000  0.855890  1
  O  O16  1  0.090847  0.634155  0.595956  1
  O  O17  1  0.095956  0.409153  0.365845  1
  O  O18  1  0.115845  0.659153  0.154044  1
  O  O19  1  0.119387  0.119387  0.119387  1
  O  O20  1  0.130613  0.869387  0.369387  1
  O  O21  1  0.134155  0.904044  0.909153  1
  O  O22  1  0.154044  0.115845  0.659153  1
  O  O23  1  0.159153  0.345956  0.884155  1
  O  O24  1  0.340847  0.654044  0.384155  1
  O  O25  1  0.345956  0.884155  0.159153  1
  O  O26  1  0.365845  0.095956  0.409153  1
  O  O27  1  0.369387  0.130613  0.869387  1
  O  O28  1  0.380613  0.880613  0.619387  1
  O  O29  1  0.384155  0.340847  0.654044  1
  O  O30  1  0.404044  0.590847  0.865845  1
  O  O31  1  0.409153  0.365845  0.095956  1
  O  O32  1  0.590847  0.865845  0.404044  1
  O  O33  1  0.595956  0.090847  0.634155  1
  O  O34  1  0.615845  0.840847  0.845956  1
  O  O35  1  0.619387  0.380613  0.880613  1
  O  O36  1  0.630613  0.630613  0.630613  1
  O  O37  1  0.634155  0.595956  0.090847  1
  O  O38  1  0.654044  0.384155  0.340847  1
  O  O39  1  0.659153  0.154044  0.115845  1
  O  O40  1  0.840847  0.845956  0.615845  1
  O  O41  1  0.845956  0.615845  0.840847  1
  O  O42  1  0.865845  0.404044  0.590847  1
  O  O43  1  0.869387  0.369387  0.130613  1
  O  O44  1  0.880613  0.619387  0.380613  1
  O  O45  1  0.884155  0.159153  0.345956  1
  O  O46  1  0.904044  0.909153  0.134155  1
  O  O47  1  0.909153  0.134155  0.904044  1
  Sn  Sn48  1  0.117528  0.632472  0.375000  1
  Sn  Sn49  1  0.125000  0.882472  0.132472  1
  Sn  Sn50  1  0.132472  0.125000  0.882472  1
  Sn  Sn51  1  0.367528  0.875000  0.382472  1
  Sn  Sn52  1  0.375000  0.117528  0.632472  1
  Sn  Sn53  1  0.382472  0.367528  0.875000  1
  Sn  Sn54  1  0.617528  0.867528  0.625000  1
  Sn  Sn55  1  0.625000  0.617528  0.867528  1
  Sn  Sn56  1  0.632472  0.375000  0.117528  1
  Sn  Sn57  1  0.867528  0.625000  0.617528  1
  Sn  Sn58  1  0.875000  0.382472  0.367528  1
  Sn  Sn59  1  0.882472  0.132472  0.125000  1
