# generated using pymatgen
data_Sr(PO3)2
_symmetry_space_group_name_H-M   'P 1'
_cell_length_a   4.55874952
_cell_length_b   10.51745398
_cell_length_c   11.06983115
_cell_angle_alpha   90.00000000
_cell_angle_beta   90.00000000
_cell_angle_gamma   91.54000429
_symmetry_Int_Tables_number   1
_chemical_formula_structural   Sr(PO3)2
_chemical_formula_sum   'Sr4 P8 O24'
_cell_volume   530.56726768
_cell_formula_units_Z   4
loop_
 _symmetry_equiv_pos_site_id
 _symmetry_equiv_pos_as_xyz
  1  'x, y, z'
loop_
 _atom_site_type_symbol
 _atom_site_label
 _atom_site_symmetry_multiplicity
 _atom_site_fract_x
 _atom_site_fract_y
 _atom_site_fract_z
 _atom_site_occupancy
  Sr  Sr0  1  0.968322  0.985349  0.807383  1
  Sr  Sr1  1  0.031678  0.014651  0.192617  1
  Sr  Sr2  1  0.968322  0.485349  0.692617  1
  Sr  Sr3  1  0.031678  0.514651  0.307383  1
  P  P4  1  0.563447  0.793360  0.349364  1
  P  P5  1  0.436553  0.206640  0.650636  1
  P  P6  1  0.069108  0.283551  0.986711  1
  P  P7  1  0.930892  0.716449  0.013289  1
  P  P8  1  0.436553  0.706640  0.849364  1
  P  P9  1  0.930892  0.216449  0.486711  1
  P  P10  1  0.069108  0.783551  0.513289  1
  P  P11  1  0.563447  0.293360  0.150636  1
  O  O12  1  0.103202  0.669236  0.890703  1
  O  O13  1  0.958046  0.359891  0.484618  1
  O  O14  1  0.041954  0.640109  0.515382  1
  O  O15  1  0.499363  0.386554  0.249442  1
  O  O16  1  0.958046  0.859891  0.015382  1
  O  O17  1  0.016168  0.142545  0.378898  1
  O  O18  1  0.500637  0.113446  0.749442  1
  O  O19  1  0.392720  0.331029  0.027541  1
  O  O20  1  0.896798  0.330764  0.109297  1
  O  O21  1  0.500637  0.613446  0.750558  1
  O  O22  1  0.530977  0.652682  0.327757  1
  O  O23  1  0.041954  0.140109  0.984618  1
  O  O24  1  0.469023  0.847318  0.827757  1
  O  O25  1  0.983832  0.857455  0.621102  1
  O  O26  1  0.103202  0.169236  0.609297  1
  O  O27  1  0.392720  0.831029  0.472459  1
  O  O28  1  0.983832  0.357455  0.878898  1
  O  O29  1  0.469023  0.347318  0.672243  1
  O  O30  1  0.896798  0.830764  0.390703  1
  O  O31  1  0.607280  0.668971  0.972459  1
  O  O32  1  0.499363  0.886554  0.250558  1
  O  O33  1  0.607280  0.168971  0.527541  1
  O  O34  1  0.016168  0.642545  0.121102  1
  O  O35  1  0.530977  0.152682  0.172243  1
