# generated using pymatgen
data_K3IrCl6
_symmetry_space_group_name_H-M   'P 1'
_cell_length_a   7.59373911
_cell_length_b   12.12582798
_cell_length_c   12.74652170
_cell_angle_alpha   108.24561998
_cell_angle_beta   90.00000000
_cell_angle_gamma   90.00000000
_symmetry_Int_Tables_number   1
_chemical_formula_structural   K3IrCl6
_chemical_formula_sum   'K12 Ir4 Cl24'
_cell_volume   1114.69422207
_cell_formula_units_Z   4
loop_
 _symmetry_equiv_pos_site_id
 _symmetry_equiv_pos_as_xyz
  1  'x, y, z'
loop_
 _atom_site_type_symbol
 _atom_site_label
 _atom_site_symmetry_multiplicity
 _atom_site_fract_x
 _atom_site_fract_y
 _atom_site_fract_z
 _atom_site_occupancy
  Ir  Ir0  1  0.000000  0.000000  0.000000  1
  Ir  Ir1  1  0.500000  0.500000  0.000000  1
  Ir  Ir2  1  0.000000  0.500000  0.500000  1
  Ir  Ir3  1  0.500000  0.000000  0.500000  1
  Cl  Cl4  1  0.001869  0.380388  0.616064  1
  Cl  Cl5  1  0.501869  0.119612  0.383936  1
  Cl  Cl6  1  0.998131  0.619612  0.383936  1
  Cl  Cl7  1  0.498131  0.880388  0.616064  1
  Cl  Cl8  1  0.185998  0.360832  0.377264  1
  Cl  Cl9  1  0.685998  0.139168  0.622736  1
  Cl  Cl10  1  0.814002  0.639168  0.622736  1
  Cl  Cl11  1  0.314002  0.860832  0.377264  1
  Cl  Cl12  1  0.744000  0.400803  0.408167  1
  Cl  Cl13  1  0.244000  0.099197  0.591833  1
  Cl  Cl14  1  0.256000  0.599197  0.591833  1
  Cl  Cl15  1  0.756000  0.900803  0.408167  1
  Cl  Cl16  1  0.796534  0.101460  0.138911  1
  Cl  Cl17  1  0.296534  0.398540  0.861089  1
  Cl  Cl18  1  0.203466  0.898540  0.861089  1
  Cl  Cl19  1  0.703466  0.601460  0.138911  1
  Cl  Cl20  1  0.191091  0.994672  0.146248  1
  Cl  Cl21  1  0.691091  0.505328  0.853752  1
  Cl  Cl22  1  0.808909  0.005328  0.853752  1
  Cl  Cl23  1  0.308909  0.494672  0.146248  1
  Cl  Cl24  1  0.129177  0.178543  -0.000118  1
  Cl  Cl25  1  0.629177  0.321457  1.000118  1
  Cl  Cl26  1  0.870823  0.821457  1.000118  1
  Cl  Cl27  1  0.370823  0.678543  -0.000118  1
  K  K28  1  0.065677  0.613521  0.818251  1
  K  K29  1  0.565677  0.886479  0.181749  1
  K  K30  1  0.934323  0.386479  0.181749  1
  K  K31  1  0.434323  0.113521  0.818251  1
  K  K32  1  0.930825  0.265220  0.817316  1
  K  K33  1  0.430825  0.234780  0.182684  1
  K  K34  1  0.069175  0.734780  0.182684  1
  K  K35  1  0.569175  0.765220  0.817316  1
  K  K36  1  0.460180  0.358335  0.597744  1
  K  K37  1  0.960180  0.141665  0.402256  1
  K  K38  1  0.539820  0.641665  0.402256  1
  K  K39  1  0.039820  0.858335  0.597744  1
