# generated using pymatgen
data_Ba2UCu2S5
_symmetry_space_group_name_H-M   'P 1'
_cell_length_a   4.07365249
_cell_length_b   7.15756264
_cell_length_c   9.09166577
_cell_angle_alpha   69.37461937
_cell_angle_beta   77.01534958
_cell_angle_gamma   73.45118282
_symmetry_Int_Tables_number   1
_chemical_formula_structural   Ba2UCu2S5
_chemical_formula_sum   'Ba2 U1 Cu2 S5'
_cell_volume   235.52554917
_cell_formula_units_Z   1
loop_
 _symmetry_equiv_pos_site_id
 _symmetry_equiv_pos_as_xyz
  1  'x, y, z'
loop_
 _atom_site_type_symbol
 _atom_site_label
 _atom_site_symmetry_multiplicity
 _atom_site_fract_x
 _atom_site_fract_y
 _atom_site_fract_z
 _atom_site_occupancy
  Ba  Ba0  1  0.823854  0.651790  0.700600  1
  Ba  Ba1  1  0.176146  0.348210  0.299400  1
  U  U2  1  0.000000  0.000000  0.000000  1
  Cu  Cu3  1  0.446380  0.810585  0.296638  1
  Cu  Cu4  1  0.553620  0.189415  0.703362  1
  S  S5  1  0.610303  0.716134  0.063466  1
  S  S6  1  0.855819  0.982699  0.305518  1
  S  S7  1  0.389697  0.283866  0.936534  1
  S  S8  1  0.500000  0.500000  0.500000  1
  S  S9  1  0.144181  0.017301  0.694482  1
