# generated using pymatgen
data_Ag6GeSO8
_symmetry_space_group_name_H-M   'P 1'
_cell_length_a   7.12351515
_cell_length_b   7.12349701
_cell_length_c   10.54721691
_cell_angle_alpha   109.73696759
_cell_angle_beta   109.73733410
_cell_angle_gamma   89.99063861
_symmetry_Int_Tables_number   1
_chemical_formula_structural   Ag6GeSO8
_chemical_formula_sum   'Ag12 Ge2 S2 O16'
_cell_volume   470.23963296
_cell_formula_units_Z   2
loop_
 _symmetry_equiv_pos_site_id
 _symmetry_equiv_pos_as_xyz
  1  'x, y, z'
loop_
 _atom_site_type_symbol
 _atom_site_label
 _atom_site_symmetry_multiplicity
 _atom_site_fract_x
 _atom_site_fract_y
 _atom_site_fract_z
 _atom_site_occupancy
  Ag  Ag0  1  0.793089  0.500126  0.500075  1
  Ag  Ag1  1  0.361006  0.611031  0.222009  1
  Ag  Ag2  1  0.206969  0.999928  0.499999  1
  Ag  Ag3  1  0.638994  0.388969  0.777991  1
  Ag  Ag4  1  0.499925  0.706969  -0.000002  1
  Ag  Ag5  1  0.793031  0.000072  0.500001  1
  Ag  Ag6  1  0.000126  0.293090  0.000075  1
  Ag  Ag7  1  0.999874  0.706910  0.999925  1
  Ag  Ag8  1  0.500075  0.293031  1.000002  1
  Ag  Ag9  1  0.206911  0.499874  0.499925  1
  Ag  Ag10  1  0.888970  0.138996  0.277992  1
  Ag  Ag11  1  0.111030  0.861004  0.722008  1
  Ge  Ge12  1  0.125085  0.374910  0.750000  1
  Ge  Ge13  1  0.874915  0.625090  0.250000  1
  S  S14  1  0.625061  0.874940  0.749998  1
  S  S15  1  0.374939  0.125060  0.250002  1
  O  O16  1  0.156440  0.078382  0.156738  1
  O  O17  1  0.820234  0.777255  0.140624  1
  O  O18  1  0.421635  -0.000194  0.343295  1
  O  O19  1  0.136468  0.679670  0.359317  1
  O  O20  1  0.578365  1.000194  0.656705  1
  O  O21  1  0.863532  0.320330  0.640683  1
  O  O22  1  0.277251  0.320235  0.640626  1
  O  O23  1  0.179666  0.636464  0.859315  1
  O  O24  1  0.421619  0.343561  0.343263  1
  O  O25  1  0.820334  0.363536  0.140685  1
  O  O26  1  0.578381  0.656439  0.656737  1
  O  O27  1  0.722749  0.679765  0.359374  1
  O  O28  1  0.843560  0.921618  0.843262  1
  O  O29  1  0.500194  0.078366  0.156706  1
  O  O30  1  0.179766  0.222745  0.859376  1
  O  O31  1  0.499806  0.921635  0.843294  1
