# generated using pymatgen
data_NaLaMgWO6
_symmetry_space_group_name_H-M   'P 1'
_cell_length_a   5.60353039
_cell_length_b   5.60353308
_cell_length_c   8.01979938
_cell_angle_alpha   90.00000000
_cell_angle_beta   90.00088857
_cell_angle_gamma   90.00000000
_symmetry_Int_Tables_number   1
_chemical_formula_structural   NaLaMgWO6
_chemical_formula_sum   'Na2 La2 Mg2 W2 O12'
_cell_volume   251.81823493
_cell_formula_units_Z   2
loop_
 _symmetry_equiv_pos_site_id
 _symmetry_equiv_pos_as_xyz
  1  'x, y, z'
loop_
 _atom_site_type_symbol
 _atom_site_label
 _atom_site_symmetry_multiplicity
 _atom_site_fract_x
 _atom_site_fract_y
 _atom_site_fract_z
 _atom_site_occupancy
  Na  Na0  1  0.250006  0.750000  0.500003  1
  Na  Na1  1  0.749994  0.250000  0.499997  1
  La  La2  1  0.250100  0.750000  0.000005  1
  La  La3  1  0.749900  0.250000  0.999995  1
  Mg  Mg4  1  0.250010  0.250000  0.255204  1
  Mg  Mg5  1  0.749990  0.750000  0.744796  1
  W  W6  1  0.249973  0.250000  0.743055  1
  W  W7  1  0.750027  0.750000  0.256945  1
  O  O8  1  0.493450  0.006536  0.770423  1
  O  O9  1  0.506550  0.993464  0.229577  1
  O  O10  1  0.249991  0.250000  0.996460  1
  O  O11  1  0.493450  0.493464  0.770423  1
  O  O12  1  0.250039  0.250000  0.509926  1
  O  O13  1  0.750009  0.750000  0.003540  1
  O  O14  1  0.506550  0.506536  0.229577  1
  O  O15  1  0.006524  0.006538  0.770375  1
  O  O16  1  0.749961  0.750000  0.490074  1
  O  O17  1  0.006524  0.493462  0.770375  1
  O  O18  1  0.993476  0.506538  0.229625  1
  O  O19  1  0.993476  0.993462  0.229625  1
