# generated using pymatgen
data_Cs4Ni3F10
_symmetry_space_group_name_H-M   'P 1'
_cell_length_a   6.23597657
_cell_length_b   7.94742807
_cell_length_c   13.93144978
_cell_angle_alpha   90.00000000
_cell_angle_beta   90.00000000
_cell_angle_gamma   113.09935154
_symmetry_Int_Tables_number   1
_chemical_formula_structural   Cs4Ni3F10
_chemical_formula_sum   'Cs8 Ni6 F20'
_cell_volume   635.08674192
_cell_formula_units_Z   2
loop_
 _symmetry_equiv_pos_site_id
 _symmetry_equiv_pos_as_xyz
  1  'x, y, z'
loop_
 _atom_site_type_symbol
 _atom_site_label
 _atom_site_symmetry_multiplicity
 _atom_site_fract_x
 _atom_site_fract_y
 _atom_site_fract_z
 _atom_site_occupancy
  F  F0  1  0.811347  0.197214  0.460884  1
  F  F1  1  0.614132  0.802786  0.539116  1
  F  F2  1  0.688653  0.802786  0.960884  1
  F  F3  1  0.885868  0.197214  0.039116  1
  F  F4  1  0.188653  0.802786  0.539116  1
  F  F5  1  0.385868  0.197214  0.460884  1
  F  F6  1  0.311347  0.197214  0.039116  1
  F  F7  1  0.114132  0.802786  0.960884  1
  F  F8  1  0.526704  0.053409  0.643493  1
  F  F9  1  0.473296  0.946591  0.356507  1
  F  F10  1  0.973296  0.946591  0.143493  1
  F  F11  1  0.026704  0.053409  0.856507  1
  F  F12  1  0.248617  0.497235  0.650897  1
  F  F13  1  0.751383  0.502765  0.349103  1
  F  F14  1  0.138736  0.777473  0.750000  1
  F  F15  1  0.361264  0.222527  0.250000  1
  F  F16  1  0.861264  0.222527  0.250000  1
  F  F17  1  0.638736  0.777473  0.750000  1
  F  F18  1  0.748617  0.497235  0.849103  1
  F  F19  1  0.251383  0.502765  0.150897  1
  Ni  Ni20  1  0.382769  0.765538  0.654265  1
  Ni  Ni21  1  0.617231  0.234462  0.345735  1
  Ni  Ni22  1  0.117231  0.234462  0.154265  1
  Ni  Ni23  1  0.882769  0.765538  0.845735  1
  Ni  Ni24  1  0.500000  0.000000  0.500000  1
  Ni  Ni25  1  0.000000  0.000000  0.000000  1
  Cs  Cs26  1  0.746131  0.492262  0.612900  1
  Cs  Cs27  1  0.253869  0.507738  0.387100  1
  Cs  Cs28  1  0.753869  0.507738  0.112900  1
  Cs  Cs29  1  0.246131  0.492262  0.887100  1
  Cs  Cs30  1  0.047184  0.094368  0.639031  1
  Cs  Cs31  1  0.952816  0.905632  0.360969  1
  Cs  Cs32  1  0.452816  0.905632  0.139031  1
  Cs  Cs33  1  0.547184  0.094368  0.860969  1
