# generated using pymatgen
data_K2SrV3O9
_symmetry_space_group_name_H-M   'P 1'
_cell_length_a   5.50595658
_cell_length_b   10.43419650
_cell_length_c   16.36834290
_cell_angle_alpha   90.00000000
_cell_angle_beta   90.00000000
_cell_angle_gamma   90.00000000
_symmetry_Int_Tables_number   1
_chemical_formula_structural   K2SrV3O9
_chemical_formula_sum   'K8 Sr4 V12 O36'
_cell_volume   940.36511140
_cell_formula_units_Z   4
loop_
 _symmetry_equiv_pos_site_id
 _symmetry_equiv_pos_as_xyz
  1  'x, y, z'
loop_
 _atom_site_type_symbol
 _atom_site_label
 _atom_site_symmetry_multiplicity
 _atom_site_fract_x
 _atom_site_fract_y
 _atom_site_fract_z
 _atom_site_occupancy
  K  K0  1  0.250000  0.028573  0.568154  1
  K  K1  1  0.750000  0.971427  0.431846  1
  K  K2  1  0.250000  0.528573  0.931846  1
  K  K3  1  0.750000  0.471427  0.068154  1
  K  K4  1  0.250000  0.971381  0.288636  1
  K  K5  1  0.250000  0.471381  0.211364  1
  K  K6  1  0.750000  0.528619  0.788636  1
  K  K7  1  0.750000  0.028619  0.711364  1
  Sr  Sr8  1  0.250000  0.966610  0.884401  1
  Sr  Sr9  1  0.750000  0.533390  0.384401  1
  Sr  Sr10  1  0.750000  0.033390  0.115599  1
  Sr  Sr11  1  0.250000  0.466610  0.615599  1
  V  V12  1  0.750000  0.708764  0.594175  1
  V  V13  1  0.250000  0.791236  0.094175  1
  V  V14  1  0.750000  0.208764  0.905825  1
  V  V15  1  0.750000  0.309809  0.542975  1
  V  V16  1  0.750000  0.748802  0.227566  1
  V  V17  1  0.750000  0.809809  0.957025  1
  V  V18  1  0.250000  0.190191  0.042975  1
  V  V19  1  0.250000  0.251198  0.772434  1
  V  V20  1  0.250000  0.291236  0.405825  1
  V  V21  1  0.250000  0.690191  0.457025  1
  V  V22  1  0.750000  0.248802  0.272434  1
  V  V23  1  0.250000  0.751198  0.727566  1
  O  O24  1  0.997769  0.673186  0.679306  1
  O  O25  1  0.497769  0.326814  0.320694  1
  O  O26  1  0.510348  0.640625  0.514290  1
  O  O27  1  0.750000  0.585489  0.218445  1
  O  O28  1  0.497769  0.826814  0.179306  1
  O  O29  1  0.750000  0.903175  0.870121  1
  O  O30  1  0.250000  0.226030  0.669744  1
  O  O31  1  0.502231  0.173186  0.820694  1
  O  O32  1  0.250000  0.633406  0.082008  1
  O  O33  1  0.250000  0.133406  0.417992  1
  O  O34  1  0.750000  0.866594  0.582008  1
  O  O35  1  0.250000  0.914511  0.718445  1
  O  O36  1  0.250000  0.349894  0.059989  1
  O  O37  1  0.489652  0.859375  0.014290  1
  O  O38  1  0.997769  0.173186  0.820694  1
  O  O39  1  0.750000  0.273970  0.169744  1
  O  O40  1  0.750000  0.366594  0.917992  1
  O  O41  1  0.750000  0.085489  0.281555  1
  O  O42  1  0.250000  0.596825  0.370121  1
  O  O43  1  0.002231  0.326814  0.320694  1
  O  O44  1  0.250000  0.726030  0.830256  1
  O  O45  1  0.250000  0.849894  0.440011  1
  O  O46  1  0.250000  0.096825  0.129879  1
  O  O47  1  0.750000  0.773970  0.330256  1
  O  O48  1  0.989652  0.640625  0.514290  1
  O  O49  1  0.502231  0.673186  0.679306  1
  O  O50  1  0.010348  0.359375  0.485710  1
  O  O51  1  0.989652  0.140625  0.985710  1
  O  O52  1  0.250000  0.414511  0.781555  1
  O  O53  1  0.002231  0.826814  0.179306  1
  O  O54  1  0.750000  0.150106  0.559989  1
  O  O55  1  0.489652  0.359375  0.485710  1
  O  O56  1  0.510348  0.140625  0.985710  1
  O  O57  1  0.750000  0.650106  0.940011  1
  O  O58  1  0.750000  0.403175  0.629879  1
  O  O59  1  0.010348  0.859375  0.014290  1
