# generated using pymatgen
data_KCS(OF)3
_symmetry_space_group_name_H-M   'P 1'
_cell_length_a   6.07477417
_cell_length_b   10.98370915
_cell_length_c   14.74226529
_cell_angle_alpha   111.16141772
_cell_angle_beta   90.00000000
_cell_angle_gamma   90.00000000
_symmetry_Int_Tables_number   1
_chemical_formula_structural   KCS(OF)3
_chemical_formula_sum   'K6 C6 S6 O18 F18'
_cell_volume   917.32551927
_cell_formula_units_Z   6
loop_
 _symmetry_equiv_pos_site_id
 _symmetry_equiv_pos_as_xyz
  1  'x, y, z'
loop_
 _atom_site_type_symbol
 _atom_site_label
 _atom_site_symmetry_multiplicity
 _atom_site_fract_x
 _atom_site_fract_y
 _atom_site_fract_z
 _atom_site_occupancy
  K  K0  1  0.777459  0.564922  0.663557  1
  K  K1  1  0.273544  0.191380  0.014278  1
  K  K2  1  0.773544  0.808620  0.985722  1
  K  K3  1  0.277459  0.435078  0.336443  1
  K  K4  1  0.280648  0.468270  0.841648  1
  K  K5  1  0.780648  0.531730  0.158352  1
  C  C6  1  0.788409  0.179699  0.281931  1
  C  C7  1  0.817590  0.174601  0.805258  1
  C  C8  1  0.239779  0.168304  0.534085  1
  C  C9  1  0.317590  0.825399  0.194742  1
  C  C10  1  0.288409  0.820301  0.718069  1
  C  C11  1  0.739779  0.831696  0.465915  1
  S  S12  1  0.776373  0.209722  0.165088  1
  S  S13  1  0.279559  0.660200  0.099232  1
  S  S14  1  0.276373  0.790278  0.834912  1
  S  S15  1  0.779559  0.339800  0.900768  1
  S  S16  1  0.764296  0.649795  0.415979  1
  S  S17  1  0.264296  0.350205  0.584021  1
  O  O18  1  0.588902  0.608169  0.342571  1
  O  O19  1  0.573047  0.328635  0.948583  1
  O  O20  1  0.729675  0.612725  0.500359  1
  O  O21  1  0.073047  0.671365  0.051417  1
  O  O22  1  0.568960  0.281009  0.171773  1
  O  O23  1  0.984207  0.624916  0.372931  1
  O  O24  1  0.281839  0.919520  0.911368  1
  O  O25  1  0.973087  0.289658  0.169770  1
  O  O26  1  0.976800  0.353293  0.961219  1
  O  O27  1  0.088902  0.391831  0.657429  1
  O  O28  1  0.229675  0.387275  0.499641  1
  O  O29  1  0.068960  0.718991  0.828227  1
  O  O30  1  0.770851  0.429478  0.848135  1
  O  O31  1  0.781839  0.080480  0.088632  1
  O  O32  1  0.473087  0.710342  0.830230  1
  O  O33  1  0.476800  0.646707  0.038781  1
  O  O34  1  0.270851  0.570522  0.151865  1
  O  O35  1  0.484207  0.375084  0.627069  1
  F  F36  1  0.785906  0.881612  0.396424  1
  F  F37  1  0.125768  0.901474  0.713964  1
  F  F38  1  0.032725  0.132729  0.501250  1
  F  F39  1  0.285906  0.118388  0.603576  1
  F  F40  1  0.381862  0.116101  0.459144  1
  F  F41  1  0.881862  0.883899  0.540856  1
  F  F42  1  0.790156  0.081286  0.845358  1
  F  F43  1  0.025501  0.164180  0.769627  1
  F  F44  1  0.764937  0.294722  0.357951  1
  F  F45  1  0.290156  0.918714  0.154642  1
  F  F46  1  0.625768  0.098526  0.286036  1
  F  F47  1  0.484820  0.873167  0.709561  1
  F  F48  1  0.984820  0.126833  0.290439  1
  F  F49  1  0.532725  0.867271  0.498750  1
  F  F50  1  0.264937  0.705278  0.642049  1
  F  F51  1  0.173495  0.847968  0.268196  1
  F  F52  1  0.525501  0.835820  0.230373  1
  F  F53  1  0.673495  0.152032  0.731804  1
