# generated using pymatgen
data_Ho4Mo4O11
_symmetry_space_group_name_H-M   'P 1'
_cell_length_a   5.71006985
_cell_length_b   10.75330997
_cell_length_c   15.94873265
_cell_angle_alpha   90.00000000
_cell_angle_beta   90.00000000
_cell_angle_gamma   90.00000000
_symmetry_Int_Tables_number   1
_chemical_formula_structural   Ho4Mo4O11
_chemical_formula_sum   'Ho16 Mo16 O44'
_cell_volume   979.28649119
_cell_formula_units_Z   4
loop_
 _symmetry_equiv_pos_site_id
 _symmetry_equiv_pos_as_xyz
  1  'x, y, z'
loop_
 _atom_site_type_symbol
 _atom_site_label
 _atom_site_symmetry_multiplicity
 _atom_site_fract_x
 _atom_site_fract_y
 _atom_site_fract_z
 _atom_site_occupancy
  O  O0  1  0.245429  0.000000  0.000000  1
  O  O1  1  0.754571  0.500000  0.500000  1
  O  O2  1  0.754571  0.000000  0.000000  1
  O  O3  1  0.245429  0.500000  0.500000  1
  O  O4  1  0.000000  0.232054  0.523857  1
  O  O5  1  0.000000  0.767946  0.476143  1
  O  O6  1  0.000000  0.732054  0.976143  1
  O  O7  1  0.000000  0.267946  0.023857  1
  O  O8  1  0.000000  0.048798  0.654438  1
  O  O9  1  0.000000  0.951202  0.345562  1
  O  O10  1  0.000000  0.548798  0.845562  1
  O  O11  1  0.000000  0.451202  0.154438  1
  O  O12  1  0.500000  0.247389  0.513875  1
  O  O13  1  0.500000  0.752611  0.486125  1
  O  O14  1  0.500000  0.747389  0.986125  1
  O  O15  1  0.500000  0.252611  0.013875  1
  O  O16  1  0.500000  0.041486  0.667236  1
  O  O17  1  0.500000  0.958514  0.332764  1
  O  O18  1  0.758678  0.312870  0.862058  1
  O  O19  1  0.500000  0.541486  0.832764  1
  O  O20  1  0.246957  0.959295  0.172339  1
  O  O21  1  0.246957  0.040705  0.827661  1
  O  O22  1  0.753043  0.459295  0.327661  1
  O  O23  1  0.753043  0.540705  0.672339  1
  O  O24  1  0.753043  0.040705  0.827661  1
  O  O25  1  0.753043  0.959295  0.172339  1
  O  O26  1  0.246957  0.540705  0.672339  1
  O  O27  1  0.246957  0.459295  0.327661  1
  O  O28  1  0.241322  0.687130  0.137942  1
  O  O29  1  0.241322  0.312870  0.862058  1
  O  O30  1  0.758678  0.187130  0.362058  1
  O  O31  1  0.758678  0.812870  0.637942  1
  O  O32  1  0.264115  0.223759  0.175015  1
  O  O33  1  0.264115  0.776241  0.824985  1
  O  O34  1  0.735885  0.723759  0.324985  1
  O  O35  1  0.735885  0.276241  0.675015  1
  O  O36  1  0.735885  0.776241  0.824985  1
  O  O37  1  0.735885  0.223759  0.175015  1
  O  O38  1  0.264115  0.276241  0.675015  1
  O  O39  1  0.264115  0.723759  0.324985  1
  O  O40  1  0.241322  0.187130  0.362058  1
  O  O41  1  0.241322  0.812870  0.637942  1
  O  O42  1  0.758678  0.687130  0.137942  1
  O  O43  1  0.500000  0.458514  0.167236  1
  Mo  Mo44  1  0.000000  0.916858  0.559904  1
  Mo  Mo45  1  0.000000  0.083142  0.440096  1
  Mo  Mo46  1  0.000000  0.416858  0.940096  1
  Mo  Mo47  1  0.000000  0.583142  0.059904  1
  Mo  Mo48  1  0.500000  0.907666  0.569008  1
  Mo  Mo49  1  0.500000  0.092334  0.430992  1
  Mo  Mo50  1  0.500000  0.407666  0.930992  1
  Mo  Mo51  1  0.500000  0.592334  0.069008  1
  Mo  Mo52  1  0.274481  0.865333  0.414782  1
  Mo  Mo53  1  0.274481  0.134667  0.585218  1
  Mo  Mo54  1  0.725519  0.365333  0.085218  1
  Mo  Mo55  1  0.725519  0.634667  0.914782  1
  Mo  Mo56  1  0.725519  0.134667  0.585218  1
  Mo  Mo57  1  0.725519  0.865333  0.414782  1
  Mo  Mo58  1  0.274481  0.634667  0.914782  1
  Mo  Mo59  1  0.274481  0.365333  0.085218  1
  Ho  Ho60  1  0.000000  0.615782  0.576567  1
  Ho  Ho61  1  0.000000  0.384218  0.423433  1
  Ho  Ho62  1  0.000000  0.115782  0.923433  1
  Ho  Ho63  1  0.000000  0.884218  0.076567  1
  Ho  Ho64  1  0.000000  0.404027  0.736302  1
  Ho  Ho65  1  0.000000  0.595973  0.263698  1
  Ho  Ho66  1  0.000000  0.904027  0.763698  1
  Ho  Ho67  1  0.000000  0.095973  0.236302  1
  Ho  Ho68  1  0.500000  0.423068  0.599020  1
  Ho  Ho69  1  0.500000  0.576932  0.400980  1
  Ho  Ho70  1  0.500000  0.923068  0.900980  1
  Ho  Ho71  1  0.500000  0.076932  0.099020  1
  Ho  Ho72  1  0.500000  0.185195  0.776896  1
  Ho  Ho73  1  0.500000  0.814805  0.223104  1
  Ho  Ho74  1  0.500000  0.685195  0.723104  1
  Ho  Ho75  1  0.500000  0.314805  0.276896  1
