# generated using pymatgen
data_KH5S2O9
_symmetry_space_group_name_H-M   'P 1'
_cell_length_a   7.49136829
_cell_length_b   8.59882600
_cell_length_c   13.70490176
_cell_angle_alpha   90.00000000
_cell_angle_beta   90.00000000
_cell_angle_gamma   107.30374382
_symmetry_Int_Tables_number   1
_chemical_formula_structural   KH5S2O9
_chemical_formula_sum   'K4 H20 S8 O36'
_cell_volume   842.87267783
_cell_formula_units_Z   4
loop_
 _symmetry_equiv_pos_site_id
 _symmetry_equiv_pos_as_xyz
  1  'x, y, z'
loop_
 _atom_site_type_symbol
 _atom_site_label
 _atom_site_symmetry_multiplicity
 _atom_site_fract_x
 _atom_site_fract_y
 _atom_site_fract_z
 _atom_site_occupancy
  K  K0  1  0.095344  0.775359  0.468293  1
  K  K1  1  0.904656  0.724641  0.968293  1
  K  K2  1  0.904656  0.224641  0.531707  1
  K  K3  1  0.095344  0.275359  0.031707  1
  S  S4  1  0.596616  0.754127  0.475222  1
  S  S5  1  0.403384  0.745873  0.975222  1
  S  S6  1  0.403384  0.245873  0.524778  1
  S  S7  1  0.596616  0.254127  0.024778  1
  S  S8  1  0.008991  0.122177  0.798253  1
  S  S9  1  0.991009  0.377823  0.298253  1
  S  S10  1  0.991009  0.877823  0.201747  1
  S  S11  1  0.008991  0.622177  0.701747  1
  O  O12  1  0.745064  0.901903  0.495590  1
  O  O13  1  0.254936  0.598097  0.995590  1
  O  O14  1  0.254936  0.098097  0.504410  1
  O  O15  1  0.745064  0.401903  0.004410  1
  O  O16  1  0.496687  0.677716  0.566112  1
  O  O17  1  0.503313  0.822284  0.066112  1
  O  O18  1  0.503313  0.322284  0.433888  1
  O  O19  1  0.496687  0.177716  0.933888  1
  O  O20  1  0.460176  0.769300  0.401147  1
  O  O21  1  0.539824  0.730700  0.901147  1
  O  O22  1  0.539824  0.230700  0.598853  1
  O  O23  1  0.460176  0.269300  0.098853  1
  O  O24  1  0.701491  0.633133  0.433683  1
  O  O25  1  0.298509  0.866867  0.933683  1
  O  O26  1  0.298509  0.366867  0.566317  1
  O  O27  1  0.701491  0.133133  0.066317  1
  O  O28  1  0.081950  0.294445  0.825725  1
  O  O29  1  0.918050  0.205555  0.325725  1
  O  O30  1  0.918050  0.705555  0.174275  1
  O  O31  1  0.081950  0.794445  0.674275  1
  O  O32  1  0.943798  0.017779  0.882663  1
  O  O33  1  0.056202  0.482221  0.382663  1
  O  O34  1  0.056202  0.982221  0.117337  1
  O  O35  1  0.943798  0.517779  0.617337  1
  O  O36  1  0.864372  0.094535  0.720429  1
  O  O37  1  0.135628  0.405465  0.220429  1
  O  O38  1  0.135628  0.905465  0.279571  1
  O  O39  1  0.864372  0.594535  0.779571  1
  O  O40  1  0.184283  0.083389  0.752506  1
  O  O41  1  0.815717  0.416611  0.252506  1
  O  O42  1  0.815717  0.916611  0.247494  1
  O  O43  1  0.184283  0.583389  0.747494  1
  O  O44  1  0.566468  0.857784  0.728536  1
  O  O45  1  0.433532  0.642216  0.228536  1
  O  O46  1  0.433532  0.142216  0.271464  1
  O  O47  1  0.566468  0.357784  0.771464  1
  H  H48  1  0.621766  0.514435  0.432699  1
  H  H49  1  0.378234  0.985565  0.932699  1
  H  H50  1  0.378234  0.485565  0.567301  1
  H  H51  1  0.621766  0.014435  0.067301  1
  H  H52  1  0.147237  0.967949  0.725557  1
  H  H53  1  0.852763  0.532051  0.225557  1
  H  H54  1  0.852763  0.032051  0.274443  1
  H  H55  1  0.147237  0.467949  0.774443  1
  H  H56  1  0.549105  0.796973  0.793755  1
  H  H57  1  0.450895  0.703027  0.293755  1
  H  H58  1  0.450895  0.203027  0.206245  1
  H  H59  1  0.549105  0.296973  0.706245  1
  H  H60  1  0.542585  0.784193  0.669301  1
  H  H61  1  0.457415  0.715807  0.169301  1
  H  H62  1  0.457415  0.215807  0.330699  1
  H  H63  1  0.542585  0.284193  0.830699  1
  H  H64  1  0.693682  0.950136  0.725506  1
  H  H65  1  0.306318  0.549864  0.225506  1
  H  H66  1  0.306318  0.049864  0.274494  1
  H  H67  1  0.693682  0.450136  0.774494  1
