# generated using pymatgen
data_K3Mo12PO40
_symmetry_space_group_name_H-M   'P 1'
_cell_length_a   11.92757714
_cell_length_b   11.92757714
_cell_length_c   11.92757714
_cell_angle_alpha   90.00000000
_cell_angle_beta   90.00000000
_cell_angle_gamma   90.00000000
_symmetry_Int_Tables_number   1
_chemical_formula_structural   K3Mo12PO40
_chemical_formula_sum   'K6 Mo24 P2 O80'
_cell_volume   1696.90176716
_cell_formula_units_Z   2
loop_
 _symmetry_equiv_pos_site_id
 _symmetry_equiv_pos_as_xyz
  1  'x, y, z'
loop_
 _atom_site_type_symbol
 _atom_site_label
 _atom_site_symmetry_multiplicity
 _atom_site_fract_x
 _atom_site_fract_y
 _atom_site_fract_z
 _atom_site_occupancy
  K  K0  1  0.750000  0.750000  0.250000  1
  K  K1  1  0.750000  0.250000  0.250000  1
  K  K2  1  0.750000  0.250000  0.750000  1
  K  K3  1  0.250000  0.750000  0.750000  1
  K  K4  1  0.250000  0.750000  0.250000  1
  K  K5  1  0.250000  0.250000  0.750000  1
  Mo  Mo6  1  0.757914  0.964253  0.535747  1
  Mo  Mo7  1  0.464253  0.242086  0.035747  1
  Mo  Mo8  1  0.035747  0.035747  0.257914  1
  Mo  Mo9  1  0.742086  0.964253  0.964253  1
  Mo  Mo10  1  0.464253  0.257914  0.464253  1
  Mo  Mo11  1  0.535747  0.964253  0.757914  1
  Mo  Mo12  1  0.535747  0.535747  0.742086  1
  Mo  Mo13  1  0.035747  0.464253  0.242086  1
  Mo  Mo14  1  0.964253  0.964253  0.742086  1
  Mo  Mo15  1  0.757914  0.535747  0.964253  1
  Mo  Mo16  1  0.964253  0.742086  0.964253  1
  Mo  Mo17  1  0.964253  0.757914  0.535747  1
  Mo  Mo18  1  0.464253  0.035747  0.242086  1
  Mo  Mo19  1  0.742086  0.535747  0.535747  1
  Mo  Mo20  1  0.242086  0.464253  0.035747  1
  Mo  Mo21  1  0.035747  0.242086  0.464253  1
  Mo  Mo22  1  0.257914  0.464253  0.464253  1
  Mo  Mo23  1  0.257914  0.035747  0.035747  1
  Mo  Mo24  1  0.535747  0.757914  0.964253  1
  Mo  Mo25  1  0.035747  0.257914  0.035747  1
  Mo  Mo26  1  0.964253  0.535747  0.757914  1
  Mo  Mo27  1  0.535747  0.742086  0.535747  1
  Mo  Mo28  1  0.464253  0.464253  0.257914  1
  Mo  Mo29  1  0.242086  0.035747  0.464253  1
  P  P30  1  0.750000  0.750000  0.750000  1
  P  P31  1  0.250000  0.250000  0.250000  1
  O  O32  1  0.625606  0.465585  0.625606  1
  O  O33  1  0.534415  0.125606  0.125606  1
  O  O34  1  0.734162  0.435495  0.064505  1
  O  O35  1  0.625606  0.034415  0.874394  1
  O  O36  1  0.125606  0.125606  0.534415  1
  O  O37  1  0.435495  0.435495  0.765838  1
  O  O38  1  0.495346  0.651727  0.848273  1
  O  O39  1  0.151727  0.995346  0.151727  1
  O  O40  1  0.465585  0.874394  0.874394  1
  O  O41  1  0.564505  0.234162  0.564505  1
  O  O42  1  0.935495  0.265838  0.564505  1
  O  O43  1  0.374394  0.965585  0.125606  1
  O  O44  1  0.874394  0.034415  0.625606  1
  O  O45  1  0.651727  0.495346  0.848273  1
  O  O46  1  0.675127  0.675127  0.675127  1
  O  O47  1  0.504654  0.348273  0.151727  1
  O  O48  1  0.651727  0.848273  0.495346  1
  O  O49  1  0.175127  0.175127  0.324873  1
  O  O50  1  0.765838  0.435495  0.435495  1
  O  O51  1  0.265838  0.935495  0.564505  1
  O  O52  1  0.625606  0.625606  0.465585  1
  O  O53  1  0.348273  0.995346  0.348273  1
  O  O54  1  0.034415  0.625606  0.874394  1
  O  O55  1  0.824873  0.824873  0.675127  1
  O  O56  1  0.348273  0.504654  0.151727  1
  O  O57  1  0.675127  0.824873  0.824873  1
  O  O58  1  0.965585  0.125606  0.374394  1
  O  O59  1  0.064505  0.064505  0.765838  1
  O  O60  1  0.465585  0.625606  0.625606  1
  O  O61  1  0.824873  0.675127  0.824873  1
  O  O62  1  0.151727  0.504654  0.348273  1
  O  O63  1  0.125606  0.534415  0.125606  1
  O  O64  1  0.348273  0.348273  0.995346  1
  O  O65  1  0.625606  0.874394  0.034415  1
  O  O66  1  0.848273  0.004654  0.848273  1
  O  O67  1  0.435495  0.064505  0.734162  1
  O  O68  1  0.064505  0.765838  0.064505  1
  O  O69  1  0.651727  0.651727  0.004654  1
  O  O70  1  0.848273  0.651727  0.495346  1
  O  O71  1  0.435495  0.765838  0.435495  1
  O  O72  1  0.495346  0.848273  0.651727  1
  O  O73  1  0.151727  0.348273  0.504654  1
  O  O74  1  0.374394  0.534415  0.374394  1
  O  O75  1  0.034415  0.874394  0.625606  1
  O  O76  1  0.935495  0.564505  0.265838  1
  O  O77  1  0.965585  0.374394  0.125606  1
  O  O78  1  0.734162  0.064505  0.435495  1
  O  O79  1  0.125606  0.965585  0.374394  1
  O  O80  1  0.234162  0.935495  0.935495  1
  O  O81  1  0.435495  0.734162  0.064505  1
  O  O82  1  0.265838  0.564505  0.935495  1
  O  O83  1  0.374394  0.125606  0.965585  1
  O  O84  1  0.874394  0.874394  0.465585  1
  O  O85  1  0.151727  0.151727  0.995346  1
  O  O86  1  0.374394  0.374394  0.534415  1
  O  O87  1  0.765838  0.064505  0.064505  1
  O  O88  1  0.324873  0.324873  0.324873  1
  O  O89  1  0.324873  0.175127  0.175127  1
  O  O90  1  0.064505  0.734162  0.435495  1
  O  O91  1  0.874394  0.465585  0.874394  1
  O  O92  1  0.348273  0.151727  0.504654  1
  O  O93  1  0.125606  0.374394  0.965585  1
  O  O94  1  0.004654  0.848273  0.848273  1
  O  O95  1  0.234162  0.564505  0.564505  1
  O  O96  1  0.564505  0.935495  0.265838  1
  O  O97  1  0.995346  0.348273  0.348273  1
  O  O98  1  0.651727  0.004654  0.651727  1
  O  O99  1  0.534415  0.374394  0.374394  1
  O  O100  1  0.848273  0.495346  0.651727  1
  O  O101  1  0.874394  0.625606  0.034415  1
  O  O102  1  0.848273  0.848273  0.004654  1
  O  O103  1  0.935495  0.234162  0.935495  1
  O  O104  1  0.935495  0.935495  0.234162  1
  O  O105  1  0.064505  0.435495  0.734162  1
  O  O106  1  0.504654  0.151727  0.348273  1
  O  O107  1  0.004654  0.651727  0.651727  1
  O  O108  1  0.995346  0.151727  0.151727  1
  O  O109  1  0.175127  0.324873  0.175127  1
  O  O110  1  0.564505  0.564505  0.234162  1
  O  O111  1  0.564505  0.265838  0.935495  1
