# generated using pymatgen
data_Cs2NaFe(CN)6
_symmetry_space_group_name_H-M   'P 1'
_cell_length_a   7.62823720
_cell_length_b   7.78050933
_cell_length_c   10.95818653
_cell_angle_alpha   90.00000000
_cell_angle_beta   90.06546532
_cell_angle_gamma   90.00000000
_symmetry_Int_Tables_number   1
_chemical_formula_structural   Cs2NaFe(CN)6
_chemical_formula_sum   'Cs4 Na2 Fe2 C12 N12'
_cell_volume   650.38515789
_cell_formula_units_Z   2
loop_
 _symmetry_equiv_pos_site_id
 _symmetry_equiv_pos_as_xyz
  1  'x, y, z'
loop_
 _atom_site_type_symbol
 _atom_site_label
 _atom_site_symmetry_multiplicity
 _atom_site_fract_x
 _atom_site_fract_y
 _atom_site_fract_z
 _atom_site_occupancy
  Cs  Cs0  1  0.991437  0.541554  0.750041  1
  Cs  Cs1  1  0.508563  0.041554  0.749959  1
  Cs  Cs2  1  0.008563  0.458446  0.249959  1
  Cs  Cs3  1  0.491437  0.958446  0.250041  1
  Fe  Fe4  1  0.500000  0.500000  0.500000  1
  Fe  Fe5  1  0.000000  0.000000  0.000000  1
  Na  Na6  1  0.500000  0.500000  0.000000  1
  Na  Na7  1  0.000000  0.000000  0.500000  1
  N  N8  1  0.431177  0.485506  0.777398  1
  N  N9  1  0.068823  0.985506  0.722602  1
  N  N10  1  0.568823  0.514494  0.222602  1
  N  N11  1  0.931177  0.014494  0.277398  1
  N  N12  1  0.670673  0.773634  0.967407  1
  N  N13  1  0.829327  0.273634  0.532593  1
  N  N14  1  0.329327  0.226366  0.032593  1
  N  N15  1  0.170673  0.726366  0.467407  1
  N  N16  1  0.226794  0.675532  0.038450  1
  N  N17  1  0.273206  0.175532  0.461550  1
  N  N18  1  0.773206  0.324468  0.961550  1
  N  N19  1  0.726794  0.824468  0.538450  1
  C  C20  1  0.457986  0.491996  0.671676  1
  C  C21  1  0.042014  0.991996  0.828324  1
  C  C22  1  0.542014  0.508004  0.328324  1
  C  C23  1  0.957986  0.008004  0.171676  1
  C  C24  1  0.796610  0.859379  0.980228  1
  C  C25  1  0.703390  0.359379  0.519772  1
  C  C26  1  0.203390  0.140621  0.019772  1
  C  C27  1  0.296610  0.640621  0.480228  1
  C  C28  1  0.140549  0.799210  0.023075  1
  C  C29  1  0.359451  0.299210  0.476925  1
  C  C30  1  0.859451  0.200790  0.976925  1
  C  C31  1  0.640549  0.700790  0.523075  1
