# generated using pymatgen
data_MoP3Pb2O11
_symmetry_space_group_name_H-M   'P 1'
_cell_length_a   6.65140415
_cell_length_b   7.20454801
_cell_length_c   20.37909573
_cell_angle_alpha   90.00000000
_cell_angle_beta   99.09512029
_cell_angle_gamma   90.00000000
_symmetry_Int_Tables_number   1
_chemical_formula_structural   MoP3Pb2O11
_chemical_formula_sum   'Mo4 P12 Pb8 O44'
_cell_volume   964.29542155
_cell_formula_units_Z   4
loop_
 _symmetry_equiv_pos_site_id
 _symmetry_equiv_pos_as_xyz
  1  'x, y, z'
loop_
 _atom_site_type_symbol
 _atom_site_label
 _atom_site_symmetry_multiplicity
 _atom_site_fract_x
 _atom_site_fract_y
 _atom_site_fract_z
 _atom_site_occupancy
  Mo  Mo0  1  0.172387  0.129689  0.122395  1
  Mo  Mo1  1  0.672387  0.370311  0.622395  1
  Mo  Mo2  1  0.827613  0.870311  0.877605  1
  Mo  Mo3  1  0.327613  0.629689  0.377605  1
  P  P4  1  0.090756  0.966848  0.273358  1
  P  P5  1  0.340984  0.855472  0.911276  1
  P  P6  1  0.159016  0.355472  0.588724  1
  P  P7  1  0.639196  0.307511  0.454861  1
  P  P8  1  0.840984  0.644528  0.411276  1
  P  P9  1  0.409244  0.466848  0.226642  1
  P  P10  1  0.860804  0.807511  0.045139  1
  P  P11  1  0.590756  0.533152  0.773358  1
  P  P12  1  0.909244  0.033152  0.726642  1
  P  P13  1  0.139196  0.192489  0.954861  1
  P  P14  1  0.659016  0.144528  0.088724  1
  P  P15  1  0.360804  0.692489  0.545139  1
  Pb  Pb16  1  0.602127  0.981789  0.271332  1
  Pb  Pb17  1  0.897873  0.481789  0.228668  1
  Pb  Pb18  1  0.402449  0.618435  0.075783  1
  Pb  Pb19  1  0.097551  0.118435  0.424217  1
  Pb  Pb20  1  0.902449  0.881565  0.575783  1
  Pb  Pb21  1  0.397873  0.018211  0.728668  1
  Pb  Pb22  1  0.597551  0.381565  0.924217  1
  Pb  Pb23  1  0.102127  0.518211  0.771332  1
  O  O24  1  0.274163  0.515753  0.279887  1
  O  O25  1  0.763552  0.671902  0.087900  1
  O  O26  1  0.865821  0.739271  0.974167  1
  O  O27  1  0.736448  0.171902  0.412100  1
  O  O28  1  0.482401  0.360344  0.797222  1
  O  O29  1  0.365821  0.760729  0.474167  1
  O  O30  1  0.577404  0.313253  0.047902  1
  O  O31  1  0.422596  0.686747  0.952098  1
  O  O32  1  0.134179  0.260729  0.025833  1
  O  O33  1  0.922596  0.813253  0.452098  1
  O  O34  1  0.225837  0.015753  0.220113  1
  O  O35  1  0.517599  0.639656  0.202779  1
  O  O36  1  0.745675  0.602003  0.835195  1
  O  O37  1  0.072397  0.178806  0.751990  1
  O  O38  1  0.754325  0.102003  0.664805  1
  O  O39  1  0.641255  0.682600  0.363165  1
  O  O40  1  0.717327  0.994280  0.035383  1
  O  O41  1  0.141255  0.817400  0.863165  1
  O  O42  1  0.634179  0.239271  0.525833  1
  O  O43  1  0.496124  0.055492  0.125387  1
  O  O44  1  0.858745  0.182600  0.136835  1
  O  O45  1  0.254325  0.397997  0.164805  1
  O  O46  1  0.217327  0.505720  0.535383  1
  O  O47  1  0.017599  0.860344  0.702778  1
  O  O48  1  0.774163  0.984247  0.779887  1
  O  O49  1  0.075089  0.867389  0.079179  1
  O  O50  1  0.725837  0.484247  0.720113  1
  O  O51  1  0.003876  0.555492  0.374613  1
  O  O52  1  0.927603  0.821194  0.248010  1
  O  O53  1  0.924911  0.132611  0.920821  1
  O  O54  1  0.572397  0.321194  0.251990  1
  O  O55  1  0.982401  0.139656  0.297222  1
  O  O56  1  0.424911  0.367389  0.420821  1
  O  O57  1  0.782673  0.494280  0.464617  1
  O  O58  1  0.282673  0.005720  0.964617  1
  O  O59  1  0.503876  0.944508  0.874613  1
  O  O60  1  0.358745  0.317400  0.636835  1
  O  O61  1  0.077404  0.186747  0.547902  1
  O  O62  1  0.263552  0.828098  0.587900  1
  O  O63  1  0.427603  0.678806  0.748010  1
  O  O64  1  0.575089  0.632611  0.579179  1
  O  O65  1  0.996124  0.444508  0.625387  1
  O  O66  1  0.236448  0.328098  0.912100  1
  O  O67  1  0.245675  0.897997  0.335195  1
