# generated using pymatgen
data_Ba8Nb7S24
_symmetry_space_group_name_H-M   'P 1'
_cell_length_a   27.64873235
_cell_length_b   11.97098836
_cell_length_c   9.03978044
_cell_angle_alpha   90.00000000
_cell_angle_beta   40.03838028
_cell_angle_gamma   90.00000000
_symmetry_Int_Tables_number   1
_chemical_formula_structural   Ba8Nb7S24
_chemical_formula_sum   'Ba16 Nb14 S48'
_cell_volume   1924.76218782
_cell_formula_units_Z   2
loop_
 _symmetry_equiv_pos_site_id
 _symmetry_equiv_pos_as_xyz
  1  'x, y, z'
loop_
 _atom_site_type_symbol
 _atom_site_label
 _atom_site_symmetry_multiplicity
 _atom_site_fract_x
 _atom_site_fract_y
 _atom_site_fract_z
 _atom_site_occupancy
  Ba  Ba0  1  0.060226  0.164250  0.251329  1
  Ba  Ba1  1  0.064117  0.331708  0.749184  1
  Ba  Ba2  1  0.189774  0.664250  0.248671  1
  Ba  Ba3  1  0.312492  0.172712  0.248001  1
  Ba  Ba4  1  0.185883  0.831708  0.750816  1
  Ba  Ba5  1  0.313162  0.338496  0.750770  1
  Ba  Ba6  1  0.436838  0.661504  0.249230  1
  Ba  Ba7  1  0.564117  0.168292  0.249184  1
  Ba  Ba8  1  0.437508  0.827288  0.751999  1
  Ba  Ba9  1  0.685883  0.668292  0.250816  1
  Ba  Ba10  1  0.560226  0.335750  0.751329  1
  Ba  Ba11  1  0.689774  0.835750  0.748671  1
  Ba  Ba12  1  0.813162  0.161504  0.250770  1
  Ba  Ba13  1  0.812492  0.327288  0.748001  1
  Ba  Ba14  1  0.937508  0.672712  0.251999  1
  Ba  Ba15  1  0.936838  0.838496  0.749230  1
  Nb  Nb16  1  0.985301  0.000006  0.059565  1
  Nb  Nb17  1  0.127844  0.499994  0.989128  1
  Nb  Nb18  1  0.122156  -0.000006  0.510872  1
  Nb  Nb19  1  0.250379  1.000234  -0.002067  1
  Nb  Nb20  1  0.264699  0.500006  0.440435  1
  Nb  Nb21  1  0.375000  0.000000  0.500000  1
  Nb  Nb22  1  0.499621  -0.000234  1.002067  1
  Nb  Nb23  1  0.622156  0.500006  0.010872  1
  Nb  Nb24  1  0.485301  0.499994  0.559565  1
  Nb  Nb25  1  0.764699  0.999994  0.940435  1
  Nb  Nb26  1  0.627844  1.000006  0.489128  1
  Nb  Nb27  1  0.750379  0.499766  0.497933  1
  Nb  Nb28  1  0.875000  0.500000  0.000000  1
  Nb  Nb29  1  -0.000379  0.500234  0.502067  1
  S  S30  1  0.005795  0.913336  0.235942  1
  S  S31  1  0.061163  0.669251  0.257546  1
  S  S32  1  0.125799  0.914134  0.244394  1
  S  S33  1  0.000686  0.585816  0.752916  1
  S  S34  1  0.124201  0.414134  0.255606  1
  S  S35  1  0.064088  0.832684  0.743395  1
  S  S36  1  0.188837  0.169251  0.242454  1
  S  S37  1  0.244205  0.413336  0.264058  1
  S  S38  1  0.122976  0.583456  0.756751  1
  S  S39  1  0.127024  0.083456  0.743249  1
  S  S40  1  0.253375  0.916333  0.241071  1
  S  S41  1  0.185912  0.332684  0.756605  1
  S  S42  1  0.308719  0.672912  0.265144  1
  S  S43  1  0.249314  0.085816  0.747084  1
  S  S44  1  0.372914  0.915963  0.252844  1
  S  S45  1  0.248365  0.583956  0.756645  1
  S  S46  1  0.373430  0.413354  0.266357  1
  S  S47  1  0.437409  0.170276  0.252676  1
  S  S48  1  0.312591  0.829724  0.747324  1
  S  S49  1  0.501635  0.416044  0.243355  1
  S  S50  1  0.376570  0.586646  0.733643  1
  S  S51  1  0.377086  0.084037  0.747156  1
  S  S52  1  0.500686  0.914184  0.252916  1
  S  S53  1  0.441281  0.327088  0.734856  1
  S  S54  1  0.564088  0.667316  0.243395  1
  S  S55  1  0.622976  0.916544  0.256751  1
  S  S56  1  0.496625  0.083667  0.758929  1
  S  S57  1  0.627024  0.416544  0.243249  1
  S  S58  1  0.505795  0.586664  0.735942  1
  S  S59  1  0.685912  0.167316  0.256605  1
  S  S60  1  0.561163  0.830749  0.757546  1
  S  S61  1  0.749314  0.414184  0.247084  1
  S  S62  1  0.625799  0.585866  0.744394  1
  S  S63  1  0.624201  0.085866  0.755606  1
  S  S64  1  0.748365  0.916044  0.256645  1
  S  S65  1  0.812591  0.670276  0.247324  1
  S  S66  1  0.688837  0.330749  0.742454  1
  S  S67  1  0.744205  0.086664  0.764058  1
  S  S68  1  0.876570  0.913354  0.233643  1
  S  S69  1  0.877086  0.415963  0.247156  1
  S  S70  1  0.753375  0.583667  0.741071  1
  S  S71  1  0.941281  0.172912  0.234856  1
  S  S72  1  0.808719  0.827088  0.765144  1
  S  S73  1  0.996625  0.416333  0.258929  1
  S  S74  1  0.872914  0.584037  0.752844  1
  S  S75  1  0.873430  0.086646  0.766357  1
  S  S76  1  0.937409  0.329724  0.752676  1
  S  S77  1  0.001635  0.083956  0.743355  1
