# generated using pymatgen
data_Fe(SbO2)2
_symmetry_space_group_name_H-M   'P 1'
_cell_length_a   6.00502242
_cell_length_b   8.50567385
_cell_length_c   8.50567385
_cell_angle_alpha   90.00000000
_cell_angle_beta   90.00000000
_cell_angle_gamma   90.00000000
_symmetry_Int_Tables_number   1
_chemical_formula_structural   Fe(SbO2)2
_chemical_formula_sum   'Fe4 Sb8 O16'
_cell_volume   434.44228030
_cell_formula_units_Z   4
loop_
 _symmetry_equiv_pos_site_id
 _symmetry_equiv_pos_as_xyz
  1  'x, y, z'
loop_
 _atom_site_type_symbol
 _atom_site_label
 _atom_site_symmetry_multiplicity
 _atom_site_fract_x
 _atom_site_fract_y
 _atom_site_fract_z
 _atom_site_occupancy
  O  O0  1  0.500000  0.869398  0.401366  1
  O  O1  1  0.500000  0.130602  0.598634  1
  O  O2  1  0.000000  0.401366  0.130602  1
  O  O3  1  0.000000  0.598634  0.869398  1
  O  O4  1  0.000000  0.901366  0.369398  1
  O  O5  1  0.500000  0.630602  0.901366  1
  O  O6  1  0.500000  0.369398  0.098634  1
  O  O7  1  0.000000  0.098634  0.630602  1
  O  O8  1  0.750000  0.678358  0.178358  1
  O  O9  1  0.250000  0.821642  0.678358  1
  O  O10  1  0.250000  0.178358  0.321642  1
  O  O11  1  0.750000  0.321642  0.821642  1
  O  O12  1  0.250000  0.678358  0.178358  1
  O  O13  1  0.750000  0.821642  0.678358  1
  O  O14  1  0.750000  0.178358  0.321642  1
  O  O15  1  0.250000  0.321642  0.821642  1
  Fe  Fe16  1  0.250000  0.000000  0.500000  1
  Fe  Fe17  1  0.750000  0.500000  0.000000  1
  Fe  Fe18  1  0.750000  0.000000  0.500000  1
  Fe  Fe19  1  0.250000  0.500000  0.000000  1
  Sb  Sb20  1  0.000000  0.828214  0.837281  1
  Sb  Sb21  1  0.500000  0.162719  0.828214  1
  Sb  Sb22  1  0.500000  0.837281  0.171786  1
  Sb  Sb23  1  0.000000  0.171786  0.162719  1
  Sb  Sb24  1  0.000000  0.671786  0.337281  1
  Sb  Sb25  1  0.000000  0.328214  0.662719  1
  Sb  Sb26  1  0.500000  0.662719  0.671786  1
  Sb  Sb27  1  0.500000  0.337281  0.328214  1
