# generated using pymatgen
data_CuP(HO)5
_symmetry_space_group_name_H-M   'P 1'
_cell_length_a   6.71423768
_cell_length_b   7.42437071
_cell_length_c   9.07861841
_cell_angle_alpha   90.00000000
_cell_angle_beta   90.00000000
_cell_angle_gamma   90.00000000
_symmetry_Int_Tables_number   1
_chemical_formula_structural   CuP(HO)5
_chemical_formula_sum   'Cu4 P4 H20 O20'
_cell_volume   452.55995444
_cell_formula_units_Z   4
loop_
 _symmetry_equiv_pos_site_id
 _symmetry_equiv_pos_as_xyz
  1  'x, y, z'
loop_
 _atom_site_type_symbol
 _atom_site_label
 _atom_site_symmetry_multiplicity
 _atom_site_fract_x
 _atom_site_fract_y
 _atom_site_fract_z
 _atom_site_occupancy
  Cu  Cu0  1  0.265684  0.029072  0.095394  1
  Cu  Cu1  1  0.765684  0.470928  0.904606  1
  Cu  Cu2  1  0.734316  0.529072  0.404606  1
  Cu  Cu3  1  0.234316  0.970928  0.595394  1
  P  P4  1  0.013373  0.678284  0.148835  1
  P  P5  1  0.513373  0.821716  0.851165  1
  P  P6  1  0.986627  0.178284  0.351165  1
  P  P7  1  0.486627  0.321716  0.648835  1
  O  O8  1  0.984726  0.609867  0.309288  1
  O  O9  1  0.484726  0.890133  0.690712  1
  O  O10  1  0.015274  0.109867  0.190712  1
  O  O11  1  0.515274  0.390133  0.809288  1
  O  O12  1  0.218737  0.772499  0.140194  1
  O  O13  1  0.718737  0.727501  0.859806  1
  O  O14  1  0.781263  0.272499  0.359806  1
  O  O15  1  0.281263  0.227501  0.640194  1
  O  O16  1  -0.001408  0.524070  0.034411  1
  O  O17  1  0.498592  0.975930  0.965589  1
  O  O18  1  1.001408  0.024070  0.465589  1
  O  O19  1  0.501408  0.475930  0.534411  1
  O  O20  1  0.301940  0.287925  0.037434  1
  O  O21  1  0.801940  0.212075  0.962566  1
  O  O22  1  0.698060  0.787925  0.462566  1
  O  O23  1  0.198060  0.712075  0.537434  1
  H  H24  1  0.179718  0.366536  0.037038  1
  H  H25  1  0.679718  0.133464  0.962962  1
  H  H26  1  0.820282  0.866536  0.462962  1
  H  H27  1  0.320282  0.633464  0.537038  1
  H  H28  1  0.373675  0.311797  0.941698  1
  H  H29  1  0.873675  0.188203  0.058302  1
  H  H30  1  0.626325  0.811797  0.558302  1
  H  H31  1  0.126325  0.688203  0.441698  1
  O  O32  1  0.454599  0.051363  0.312997  1
  O  O33  1  0.954599  0.448637  0.687003  1
  O  O34  1  0.545401  0.551363  0.187003  1
  O  O35  1  0.045401  0.948637  0.812997  1
  H  H36  1  0.519715  0.937603  0.340274  1
  H  H37  1  0.019715  0.562397  0.659726  1
  H  H38  1  0.480285  0.437603  0.159726  1
  H  H39  1  0.980285  0.062397  0.840274  1
  H  H40  1  0.563026  0.141101  0.324570  1
  H  H41  1  0.063026  0.358899  0.675430  1
  H  H42  1  0.436974  0.641101  0.175430  1
  H  H43  1  0.936974  0.858899  0.824570  1
  H  H44  1  0.863274  0.803124  0.116585  1
  H  H45  1  0.363274  0.696876  0.883415  1
  H  H46  1  0.136726  0.303124  0.383415  1
  H  H47  1  0.636726  0.196876  0.616585  1
