# generated using pymatgen
data_Na3Eu(CO3)3
_symmetry_space_group_name_H-M   'P 1'
_cell_length_a   6.68036022
_cell_length_b   6.68036026
_cell_length_c   10.14457392
_cell_angle_alpha   90.00000000
_cell_angle_beta   90.00000000
_cell_angle_gamma   113.62829685
_symmetry_Int_Tables_number   1
_chemical_formula_structural   Na3Eu(CO3)3
_chemical_formula_sum   'Na6 Eu2 C6 O18'
_cell_volume   414.76989206
_cell_formula_units_Z   2
loop_
 _symmetry_equiv_pos_site_id
 _symmetry_equiv_pos_as_xyz
  1  'x, y, z'
loop_
 _atom_site_type_symbol
 _atom_site_label
 _atom_site_symmetry_multiplicity
 _atom_site_fract_x
 _atom_site_fract_y
 _atom_site_fract_z
 _atom_site_occupancy
  Eu  Eu0  1  0.226861  0.772682  0.250000  1
  Eu  Eu1  1  0.772682  0.226861  0.750000  1
  Na  Na2  1  0.404751  0.371236  0.250000  1
  Na  Na3  1  0.065651  0.065651  0.500000  1
  Na  Na4  1  0.209277  0.797363  0.750000  1
  Na  Na5  1  0.371236  0.404751  0.750000  1
  Na  Na6  1  0.065651  0.065651  0.000000  1
  Na  Na7  1  0.797363  0.209277  0.250000  1
  C  C8  1  0.759308  0.781702  0.750000  1
  C  C9  1  0.781702  0.759308  0.250000  1
  C  C10  1  0.124999  0.528963  0.499019  1
  C  C11  1  0.528963  0.124999  0.500981  1
  C  C12  1  0.528963  0.124999  0.999019  1
  C  C13  1  0.124999  0.528963  0.000981  1
  O  O14  1  0.107233  0.432640  0.611893  1
  O  O15  1  0.437290  0.154693  0.891520  1
  O  O16  1  0.118520  0.718941  0.490750  1
  O  O17  1  0.154693  0.437290  0.108480  1
  O  O18  1  0.577354  0.806889  0.750000  1
  O  O19  1  0.806889  0.577354  0.250000  1
  O  O20  1  0.718941  0.118520  0.990750  1
  O  O21  1  0.432640  0.107233  0.388107  1
  O  O22  1  0.943277  0.958194  0.750000  1
  O  O23  1  0.958194  0.943277  0.250000  1
  O  O24  1  0.154693  0.437290  0.391520  1
  O  O25  1  0.432640  0.107233  0.111893  1
  O  O26  1  0.763964  0.590882  0.750000  1
  O  O27  1  0.718941  0.118520  0.509250  1
  O  O28  1  0.590882  0.763964  0.250000  1
  O  O29  1  0.107233  0.432640  0.888107  1
  O  O30  1  0.118520  0.718941  0.009250  1
  O  O31  1  0.437290  0.154693  0.608480  1
