# generated using pymatgen
data_YbPr11Se16
_symmetry_space_group_name_H-M   'P 1'
_cell_length_a   31.15849820
_cell_length_b   8.99712755
_cell_length_c   9.00292870
_cell_angle_alpha   90.00000000
_cell_angle_beta   54.69846677
_cell_angle_gamma   54.72459978
_symmetry_Int_Tables_number   1
_chemical_formula_structural   YbPr11Se16
_chemical_formula_sum   'Yb2 Pr22 Se32'
_cell_volume   1455.41442122
_cell_formula_units_Z   2
loop_
 _symmetry_equiv_pos_site_id
 _symmetry_equiv_pos_as_xyz
  1  'x, y, z'
loop_
 _atom_site_type_symbol
 _atom_site_label
 _atom_site_symmetry_multiplicity
 _atom_site_fract_x
 _atom_site_fract_y
 _atom_site_fract_z
 _atom_site_occupancy
  Yb  Yb0  1  0.375000  0.750000  0.874821  1
  Yb  Yb1  1  0.875000  0.250000  0.625179  1
  Pr  Pr2  1  0.999396  0.377826  0.251501  1
  Pr  Pr3  1  0.999424  0.126996  0.749635  1
  Pr  Pr4  1  0.062442  0.625029  0.375563  1
  Pr  Pr5  1  0.125986  0.247438  0.620376  1
  Pr  Pr6  1  0.250604  0.375412  0.248499  1
  Pr  Pr7  1  0.187558  0.874795  0.124437  1
  Pr  Pr8  1  0.124014  0.751384  0.879624  1
  Pr  Pr9  1  0.250576  0.124691  0.750365  1
  Pr  Pr10  1  0.312408  0.625679  0.374099  1
  Pr  Pr11  1  0.375000  0.250000  0.627484  1
  Pr  Pr12  1  0.437592  0.874321  0.123732  1
  Pr  Pr13  1  0.499424  0.375309  0.252670  1
  Pr  Pr14  1  0.499396  0.124588  0.750913  1
  Pr  Pr15  1  0.562442  0.625205  0.374671  1
  Pr  Pr16  1  0.624014  0.252562  0.624321  1
  Pr  Pr17  1  0.750576  0.373004  0.247330  1
  Pr  Pr18  1  0.687558  0.874971  0.125329  1
  Pr  Pr19  1  0.625986  0.748616  0.875679  1
  Pr  Pr20  1  0.750604  0.122174  0.749087  1
  Pr  Pr21  1  0.812408  0.624688  0.376268  1
  Pr  Pr22  1  0.937592  0.875312  0.125901  1
  Pr  Pr23  1  0.875000  0.750000  0.872516  1
  Se  Se24  1  0.036697  0.001148  0.351019  1
  Se  Se25  1  0.087350  0.499517  0.000508  1
  Se  Se26  1  0.037361  0.350097  0.500729  1
  Se  Se27  1  0.213303  0.147935  0.148981  1
  Se  Se28  1  0.212639  0.499542  0.999271  1
  Se  Se29  1  0.087904  0.648583  0.649482  1
  Se  Se30  1  0.162096  0.000199  0.850518  1
  Se  Se31  1  0.287394  0.000384  0.352014  1
  Se  Se32  1  0.162650  0.848918  0.499492  1
  Se  Se33  1  0.337831  0.502249  0.998267  1
  Se  Se34  1  0.287479  0.351519  0.499952  1
  Se  Se35  1  0.462521  0.148481  0.149868  1
  Se  Se36  1  0.462606  0.499616  0.001591  1
  Se  Se37  1  0.337770  0.649244  0.648369  1
  Se  Se38  1  0.412169  0.997751  0.849589  1
  Se  Se39  1  0.537361  0.000458  0.349825  1
  Se  Se40  1  0.412230  0.850756  0.499450  1
  Se  Se41  1  0.587904  0.499801  0.998901  1
  Se  Se42  1  0.536697  0.352065  0.502194  1
  Se  Se43  1  0.712639  0.149903  0.150175  1
  Se  Se44  1  0.713303  0.498852  0.997806  1
  Se  Se45  1  0.587350  0.651082  0.650092  1
  Se  Se46  1  0.662650  0.000483  0.849908  1
  Se  Se47  1  0.787479  0.998566  0.350132  1
  Se  Se48  1  0.662096  0.851417  0.501099  1
  Se  Se49  1  0.837770  0.499676  0.000550  1
  Se  Se50  1  0.787394  0.350039  0.498409  1
  Se  Se51  1  0.962606  0.149961  0.147986  1
  Se  Se52  1  0.962521  0.501434  0.000048  1
  Se  Se53  1  0.912230  0.000324  0.851631  1
  Se  Se54  1  0.837831  0.646428  0.650411  1
  Se  Se55  1  0.912169  0.853572  0.501733  1
