# generated using pymatgen
data_La4C2Br5
_symmetry_space_group_name_H-M   'P 1'
_cell_length_a   4.04925400
_cell_length_b   8.36672333
_cell_length_c   10.40103388
_cell_angle_alpha   113.71251368
_cell_angle_beta   101.24125581
_cell_angle_gamma   89.99815848
_symmetry_Int_Tables_number   1
_chemical_formula_structural   La4C2Br5
_chemical_formula_sum   'La4 C2 Br5'
_cell_volume   315.23034773
_cell_formula_units_Z   1
loop_
 _symmetry_equiv_pos_site_id
 _symmetry_equiv_pos_as_xyz
  1  'x, y, z'
loop_
 _atom_site_type_symbol
 _atom_site_label
 _atom_site_symmetry_multiplicity
 _atom_site_fract_x
 _atom_site_fract_y
 _atom_site_fract_z
 _atom_site_occupancy
  La  La0  1  0.999967  0.704151  1.000012  1
  La  La1  1  0.338042  0.337989  0.676084  1
  La  La2  1  0.000033  0.295849  -0.000012  1
  La  La3  1  0.661958  0.662011  0.323916  1
  C  C4  1  0.538176  0.538059  0.076135  1
  C  C5  1  0.461824  0.461941  0.923865  1
  Br  Br6  1  0.164308  0.938856  0.329053  1
  Br  Br7  1  0.164327  0.390355  0.328952  1
  Br  Br8  1  0.835673  0.609645  0.671048  1
  Br  Br9  1  0.835692  0.061144  0.670947  1
  Br  Br10  1  0.500000  0.000000  0.000000  1
