# generated using pymatgen
data_CsLi(B3O5)2
_symmetry_space_group_name_H-M   'P 1'
_cell_length_a   8.76991323
_cell_length_b   8.76991324
_cell_length_c   8.76991324
_cell_angle_alpha   105.56431918
_cell_angle_beta   105.56431912
_cell_angle_gamma   117.60414069
_symmetry_Int_Tables_number   1
_chemical_formula_structural   CsLi(B3O5)2
_chemical_formula_sum   'Cs2 Li2 B12 O20'
_cell_volume   511.28562691
_cell_formula_units_Z   2
loop_
 _symmetry_equiv_pos_site_id
 _symmetry_equiv_pos_as_xyz
  1  'x, y, z'
loop_
 _atom_site_type_symbol
 _atom_site_label
 _atom_site_symmetry_multiplicity
 _atom_site_fract_x
 _atom_site_fract_y
 _atom_site_fract_z
 _atom_site_occupancy
  Li  Li0  1  0.250000  0.750000  0.500000  1
  Li  Li1  1  0.500000  0.500000  0.000000  1
  B  B2  1  0.411589  0.792155  0.081637  1
  B  B3  1  0.039482  0.457845  0.119434  1
  B  B4  1  0.710518  0.329952  0.918363  1
  B  B5  1  0.670048  0.588411  0.380566  1
  B  B6  1  0.338411  0.920048  0.880566  1
  B  B7  1  0.207845  0.289482  0.619434  1
  B  B8  1  0.875000  0.601876  0.226876  1
  B  B9  1  0.398124  0.625000  0.273124  1
  B  B10  1  0.351876  0.125000  0.726876  1
  B  B11  1  0.375000  0.648124  0.773124  1
  B  B12  1  0.079952  0.960518  0.418363  1
  B  B13  1  0.542155  0.661589  0.581637  1
  O  O14  1  0.943874  0.801977  0.257343  1
  O  O15  1  0.326362  0.284053  0.753417  1
  O  O16  1  0.427055  0.673638  0.957691  1
  O  O17  1  0.715947  0.469364  0.042309  1
  O  O18  1  0.034053  0.576362  0.253417  1
  O  O19  1  0.322945  0.780636  0.746583  1
  O  O20  1  0.423638  0.677055  0.457691  1
  O  O21  1  0.219364  0.965947  0.542309  1
  O  O22  1  0.313469  0.056126  0.858104  1
  O  O23  1  0.198023  0.455365  0.141896  1
  O  O24  1  0.551977  0.193874  0.757343  1
  O  O25  1  0.806126  0.563469  0.358104  1
  O  O26  1  0.205365  0.448023  0.641896  1
  O  O27  1  0.436531  0.794635  0.242657  1
  O  O28  1  0.875000  0.327489  0.952489  1
  O  O29  1  0.672511  0.625000  0.547511  1
  O  O30  1  0.077489  0.125000  0.452489  1
  O  O31  1  0.375000  0.922511  0.047511  1
  O  O32  1  0.530636  0.572945  0.246583  1
  O  O33  1  0.544635  0.686531  0.742657  1
  Cs  Cs34  1  0.750000  0.250000  0.500000  1
  Cs  Cs35  1  0.000000  0.000000  0.000000  1
