# generated using pymatgen
data_Na2TiFe5(Si3O10)2
_symmetry_space_group_name_H-M   'P 1'
_cell_length_a   9.06055528
_cell_length_b   9.84188719
_cell_length_c   10.54993102
_cell_angle_alpha   64.97742142
_cell_angle_beta   83.20729984
_cell_angle_gamma   65.76261984
_symmetry_Int_Tables_number   1
_chemical_formula_structural   Na2TiFe5(Si3O10)2
_chemical_formula_sum   'Na4 Ti2 Fe10 Si12 O40'
_cell_volume   775.57935774
_cell_formula_units_Z   2
loop_
 _symmetry_equiv_pos_site_id
 _symmetry_equiv_pos_as_xyz
  1  'x, y, z'
loop_
 _atom_site_type_symbol
 _atom_site_label
 _atom_site_symmetry_multiplicity
 _atom_site_fract_x
 _atom_site_fract_y
 _atom_site_fract_z
 _atom_site_occupancy
  Na  Na0  1  0.370681  0.385694  0.950633  1
  Na  Na1  1  0.629320  0.614306  0.049367  1
  Na  Na2  1  0.613851  0.631735  0.577741  1
  Na  Na3  1  0.386149  0.368265  0.422259  1
  Ti  Ti4  1  0.742224  0.743461  0.253610  1
  Ti  Ti5  1  0.257776  0.256539  0.746390  1
  Fe  Fe6  1  0.178547  0.147567  0.531325  1
  Fe  Fe7  1  0.152016  0.180257  0.053549  1
  Fe  Fe8  1  0.051255  0.061200  0.842328  1
  Fe  Fe9  1  0.821453  0.852433  0.468675  1
  Fe  Fe10  1  0.933363  0.942584  0.652695  1
  Fe  Fe11  1  0.500000  0.000000  0.000000  1
  Fe  Fe12  1  0.847984  0.819743  0.946451  1
  Fe  Fe13  1  0.066637  0.057416  0.347305  1
  Fe  Fe14  1  0.948745  0.938800  0.157672  1
  Fe  Fe15  1  0.000000  0.500000  0.500000  1
  Si  Si16  1  0.775773  0.336375  0.941445  1
  Si  Si17  1  0.949307  0.558768  0.793230  1
  Si  Si18  1  0.445733  0.055426  0.295458  1
  Si  Si19  1  0.050693  0.441232  0.206770  1
  Si  Si20  1  0.345785  0.763957  0.249950  1
  Si  Si21  1  0.241389  0.658702  0.550650  1
  Si  Si22  1  0.329286  0.767215  0.755444  1
  Si  Si23  1  0.554267  0.944574  0.704542  1
  Si  Si24  1  0.758611  0.341298  0.449350  1
  Si  Si25  1  0.224227  0.663625  0.058555  1
  Si  Si26  1  0.654215  0.236043  0.750050  1
  Si  Si27  1  0.670714  0.232785  0.244556  1
  O  O28  1  0.125063  0.397711  0.850820  1
  O  O29  1  0.369465  0.674906  0.423194  1
  O  O30  1  0.820177  0.068452  0.792672  1
  O  O31  1  0.297904  0.045972  0.398558  1
  O  O32  1  0.262762  0.078724  0.908480  1
  O  O33  1  0.179823  0.931548  0.207328  1
  O  O34  1  0.737238  0.921276  0.091520  1
  O  O35  1  0.491626  0.804969  0.703625  1
  O  O36  1  0.604216  0.876924  0.359960  1
  O  O37  1  0.882867  0.607774  0.635206  1
  O  O38  1  0.920214  0.738225  0.330541  1
  O  O39  1  0.063704  0.833032  0.009678  1
  O  O40  1  0.936296  0.166968  0.990322  1
  O  O41  1  0.649890  0.337637  0.070455  1
  O  O42  1  0.320842  0.636400  0.195798  1
  O  O43  1  0.813447  0.498414  0.901204  1
  O  O44  1  0.163741  0.931230  0.710033  1
  O  O45  1  0.925446  0.173771  0.491859  1
  O  O46  1  0.874937  0.602289  0.149180  1
  O  O47  1  0.391923  0.120237  0.129752  1
  O  O48  1  0.630535  0.325094  0.576806  1
  O  O49  1  0.395784  0.123076  0.640040  1
  O  O50  1  0.702096  0.954028  0.601442  1
  O  O51  1  0.186553  0.501586  0.098796  1
  O  O52  1  0.484406  0.225946  0.814690  1
  O  O53  1  0.350110  0.662363  0.929545  1
  O  O54  1  0.079786  0.261775  0.669459  1
  O  O55  1  0.773919  0.512439  0.416867  1
  O  O56  1  0.226081  0.487561  0.583133  1
  O  O57  1  0.836259  0.068770  0.289967  1
  O  O58  1  0.074554  0.826229  0.508141  1
  O  O59  1  0.508374  0.195031  0.296375  1
  O  O60  1  0.336651  0.640337  0.687748  1
  O  O61  1  0.117133  0.392226  0.364794  1
  O  O62  1  0.608077  0.879763  0.870248  1
  O  O63  1  0.042195  0.287825  0.188313  1
  O  O64  1  0.957805  0.712175  0.811687  1
  O  O65  1  0.679158  0.363600  0.804202  1
  O  O66  1  0.515594  0.774054  0.185310  1
  O  O67  1  0.663349  0.359663  0.312252  1
