# generated using pymatgen
data_KVH6SO9
_symmetry_space_group_name_H-M   'P 1'
_cell_length_a   6.27936807
_cell_length_b   6.62291843
_cell_length_c   9.94999109
_cell_angle_alpha   90.00000000
_cell_angle_beta   90.00000000
_cell_angle_gamma   107.11298067
_symmetry_Int_Tables_number   1
_chemical_formula_structural   KVH6SO9
_chemical_formula_sum   'K2 V2 H12 S2 O18'
_cell_volume   395.47734441
_cell_formula_units_Z   2
loop_
 _symmetry_equiv_pos_site_id
 _symmetry_equiv_pos_as_xyz
  1  'x, y, z'
loop_
 _atom_site_type_symbol
 _atom_site_label
 _atom_site_symmetry_multiplicity
 _atom_site_fract_x
 _atom_site_fract_y
 _atom_site_fract_z
 _atom_site_occupancy
  K  K0  1  0.699915  0.187085  0.153141  1
  K  K1  1  0.300085  0.812915  0.653141  1
  V  V2  1  0.388416  0.622338  0.002474  1
  V  V3  1  0.611584  0.377662  0.502474  1
  H  H4  1  0.237357  0.306744  0.216038  1
  H  H5  1  0.800417  0.820367  0.582465  1
  H  H6  1  0.536173  0.662768  0.266335  1
  H  H7  1  0.463827  0.337232  0.766335  1
  H  H8  1  0.969504  0.686826  0.356003  1
  H  H9  1  0.030496  0.313174  0.856003  1
  H  H10  1  0.112785  0.922868  0.351942  1
  H  H11  1  0.762643  0.693256  0.716038  1
  H  H12  1  0.686030  0.258470  0.766532  1
  H  H13  1  0.199583  0.179633  0.082465  1
  H  H14  1  0.313970  0.741530  0.266532  1
  H  H15  1  0.887215  0.077132  0.851942  1
  S  S16  1  0.924737  0.736594  0.002520  1
  S  S17  1  0.075263  0.263406  0.502520  1
  O  O18  1  0.969228  0.930888  0.081302  1
  O  O19  1  0.071945  0.605401  0.049651  1
  O  O20  1  0.928055  0.394599  0.549651  1
  O  O21  1  0.463314  0.863658  0.940966  1
  O  O22  1  0.306392  0.409935  0.533099  1
  O  O23  1  0.050771  0.222254  0.356877  1
  O  O24  1  0.030772  0.069112  0.581303  1
  O  O25  1  0.444076  0.729608  0.209733  1
  O  O26  1  0.300177  0.307187  0.124842  1
  O  O27  1  0.536686  0.136342  0.440966  1
  O  O28  1  0.693608  0.590065  0.033099  1
  O  O29  1  0.949229  0.777746  0.856877  1
  O  O30  1  0.875506  0.220112  0.864851  1
  O  O31  1  0.322581  0.465042  0.865728  1
  O  O32  1  0.124494  0.779888  0.364851  1
  O  O33  1  0.555924  0.270392  0.709733  1
  O  O34  1  0.699823  0.692813  0.624842  1
  O  O35  1  0.677419  0.534958  0.365728  1
