# generated using pymatgen
data_Tb3CrSe6
_symmetry_space_group_name_H-M   'P 1'
_cell_length_a   3.95626131
_cell_length_b   13.99726751
_cell_length_c   16.79928913
_cell_angle_alpha   90.00000000
_cell_angle_beta   90.00000000
_cell_angle_gamma   90.00000000
_symmetry_Int_Tables_number   1
_chemical_formula_structural   Tb3CrSe6
_chemical_formula_sum   'Tb12 Cr4 Se24'
_cell_volume   930.29167891
_cell_formula_units_Z   4
loop_
 _symmetry_equiv_pos_site_id
 _symmetry_equiv_pos_as_xyz
  1  'x, y, z'
loop_
 _atom_site_type_symbol
 _atom_site_label
 _atom_site_symmetry_multiplicity
 _atom_site_fract_x
 _atom_site_fract_y
 _atom_site_fract_z
 _atom_site_occupancy
  Tb  Tb0  1  0.000000  0.319964  0.148209  1
  Tb  Tb1  1  0.000000  0.680036  0.851791  1
  Tb  Tb2  1  0.500000  0.819964  0.351791  1
  Tb  Tb3  1  0.500000  0.180036  0.648209  1
  Tb  Tb4  1  0.000000  0.551618  0.278249  1
  Tb  Tb5  1  0.000000  0.448382  0.721751  1
  Tb  Tb6  1  0.500000  0.051618  0.221751  1
  Tb  Tb7  1  0.500000  0.948382  0.778249  1
  Tb  Tb8  1  0.000000  0.757738  0.096397  1
  Tb  Tb9  1  0.000000  0.242262  0.903603  1
  Tb  Tb10  1  0.500000  0.257738  0.403603  1
  Tb  Tb11  1  0.500000  0.742262  0.596397  1
  Se  Se12  1  0.000000  0.103239  0.755492  1
  Se  Se13  1  0.000000  0.896761  0.244508  1
  Se  Se14  1  0.500000  0.603239  0.744508  1
  Se  Se15  1  0.500000  0.396761  0.255492  1
  Se  Se16  1  0.000000  0.121349  0.108008  1
  Se  Se17  1  0.000000  0.878651  0.891992  1
  Se  Se18  1  0.500000  0.621349  0.391992  1
  Se  Se19  1  0.500000  0.378651  0.608008  1
  Se  Se20  1  0.000000  0.189692  0.289931  1
  Se  Se21  1  0.000000  0.810308  0.710069  1
  Se  Se22  1  0.500000  0.689692  0.210069  1
  Se  Se23  1  0.500000  0.310308  0.789931  1
  Se  Se24  1  0.000000  0.180683  0.520474  1
  Se  Se25  1  0.000000  0.819317  0.479526  1
  Se  Se26  1  0.500000  0.680683  0.979526  1
  Se  Se27  1  0.500000  0.319317  0.020474  1
  Se  Se28  1  0.000000  0.419282  0.423215  1
  Se  Se29  1  0.000000  0.580718  0.576785  1
  Se  Se30  1  0.500000  0.919282  0.076785  1
  Se  Se31  1  0.500000  0.080718  0.923215  1
  Se  Se32  1  0.000000  0.523221  0.097753  1
  Se  Se33  1  0.000000  0.476779  0.902247  1
  Se  Se34  1  0.500000  0.023221  0.402247  1
  Se  Se35  1  0.500000  0.976779  0.597753  1
  Cr  Cr36  1  0.000000  0.000000  0.500000  1
  Cr  Cr37  1  0.500000  0.500000  0.000000  1
  Cr  Cr38  1  0.000000  0.000000  0.000000  1
  Cr  Cr39  1  0.500000  0.500000  0.500000  1
