# generated using pymatgen
data_K2PuCl6
_symmetry_space_group_name_H-M   'P 1'
_cell_length_a   7.45740993
_cell_length_b   7.44392011
_cell_length_c   10.45073229
_cell_angle_alpha   90.00000000
_cell_angle_beta   90.24838331
_cell_angle_gamma   90.00000000
_symmetry_Int_Tables_number   1
_chemical_formula_structural   K2PuCl6
_chemical_formula_sum   'K4 Pu2 Cl12'
_cell_volume   580.13940117
_cell_formula_units_Z   2
loop_
 _symmetry_equiv_pos_site_id
 _symmetry_equiv_pos_as_xyz
  1  'x, y, z'
loop_
 _atom_site_type_symbol
 _atom_site_label
 _atom_site_symmetry_multiplicity
 _atom_site_fract_x
 _atom_site_fract_y
 _atom_site_fract_z
 _atom_site_occupancy
  K  K0  1  0.490802  0.000000  0.272651  1
  K  K1  1  0.509198  0.000000  0.727349  1
  K  K2  1  0.990820  0.500000  0.772603  1
  K  K3  1  0.009180  0.500000  0.227397  1
  Pu  Pu4  1  0.000000  0.000000  0.000000  1
  Pu  Pu5  1  0.500000  0.500000  0.500000  1
  Cl  Cl6  1  0.009317  0.000000  0.247666  1
  Cl  Cl7  1  0.990683  0.000000  0.752334  1
  Cl  Cl8  1  0.509314  0.500000  0.747654  1
  Cl  Cl9  1  0.490686  0.500000  0.252346  1
  Cl  Cl10  1  0.241711  0.250007  0.997380  1
  Cl  Cl11  1  0.758289  0.250007  0.002620  1
  Cl  Cl12  1  0.758289  0.749993  0.002620  1
  Cl  Cl13  1  0.241711  0.749993  0.997380  1
  Cl  Cl14  1  0.741720  0.749997  0.497378  1
  Cl  Cl15  1  0.258280  0.749997  0.502622  1
  Cl  Cl16  1  0.258280  0.250003  0.502622  1
  Cl  Cl17  1  0.741720  0.250003  0.497378  1
