# generated using pymatgen
data_CaSiO3
_symmetry_space_group_name_H-M   'P 1'
_cell_length_a   6.90557108
_cell_length_b   6.91711345
_cell_length_c   19.79627118
_cell_angle_alpha   89.67195942
_cell_angle_beta   89.34281142
_cell_angle_gamma   60.05518869
_symmetry_Int_Tables_number   1
_chemical_formula_structural   CaSiO3
_chemical_formula_sum   'Ca12 Si12 O36'
_cell_volume   819.31556584
_cell_formula_units_Z   12
loop_
 _symmetry_equiv_pos_site_id
 _symmetry_equiv_pos_as_xyz
  1  'x, y, z'
loop_
 _atom_site_type_symbol
 _atom_site_label
 _atom_site_symmetry_multiplicity
 _atom_site_fract_x
 _atom_site_fract_y
 _atom_site_fract_z
 _atom_site_occupancy
  Ca  Ca0  1  0.328825  0.342349  0.750000  1
  Ca  Ca1  1  0.671175  0.657651  0.250000  1
  Ca  Ca2  1  0.994523  0.010954  0.250000  1
  Ca  Ca3  1  0.348449  0.328212  0.499560  1
  Ca  Ca4  1  0.000000  0.000000  0.000000  1
  Ca  Ca5  1  0.343165  0.313669  0.250000  1
  Ca  Ca6  1  0.323339  0.328212  0.000440  1
  Ca  Ca7  1  0.651551  0.671788  0.500440  1
  Ca  Ca8  1  0.656835  0.686331  0.750000  1
  Ca  Ca9  1  0.676661  0.671788  0.999560  1
  Ca  Ca10  1  0.000000  0.000000  0.500000  1
  Ca  Ca11  1  0.005477  0.989046  0.750000  1
  Si  Si12  1  0.404684  0.594465  0.877818  1
  Si  Si13  1  0.000851  0.594465  0.622182  1
  Si  Si14  1  0.668056  0.077676  0.875063  1
  Si  Si15  1  0.263348  0.659289  0.372108  1
  Si  Si16  1  0.254268  0.077676  0.624937  1
  Si  Si17  1  0.922637  0.340711  0.872108  1
  Si  Si18  1  0.595316  0.405535  0.122182  1
  Si  Si19  1  0.077363  0.659289  0.127892  1
  Si  Si20  1  0.736652  0.340711  0.627892  1
  Si  Si21  1  0.331944  0.922324  0.124937  1
  Si  Si22  1  0.745732  0.922324  0.375063  1
  Si  Si23  1  0.999149  0.405535  0.377818  1
  O  O24  1  0.662501  0.563119  0.874875  1
  O  O25  1  0.306641  0.690975  0.951972  1
  O  O26  1  0.776885  0.665280  0.376296  1
  O  O27  1  0.109007  0.885111  0.126146  1
  O  O28  1  0.030395  0.340447  0.943441  1
  O  O29  1  0.327074  0.029454  0.052509  1
  O  O30  1  0.705106  0.298354  0.193530  1
  O  O31  1  0.442165  0.334720  0.876296  1
  O  O32  1  0.629158  0.340447  0.556559  1
  O  O33  1  0.672926  0.970546  0.947491  1
  O  O34  1  0.774380  0.563119  0.625125  1
  O  O35  1  0.557835  0.665280  0.123704  1
  O  O36  1  0.019032  0.344599  0.797926  1
  O  O37  1  0.666935  0.975743  0.802633  1
  O  O38  1  0.642678  0.024257  0.302633  1
  O  O39  1  0.294894  0.701646  0.806470  1
  O  O40  1  0.356527  0.970546  0.552509  1
  O  O41  1  0.693359  0.309025  0.048028  1
  O  O42  1  0.003460  0.701646  0.693530  1
  O  O43  1  0.636369  0.344599  0.702074  1
  O  O44  1  0.997616  0.309025  0.451972  1
  O  O45  1  0.225620  0.436881  0.374875  1
  O  O46  1  0.643473  0.029454  0.447491  1
  O  O47  1  0.002384  0.690975  0.548028  1
  O  O48  1  0.005882  0.885111  0.373854  1
  O  O49  1  0.980968  0.655401  0.202074  1
  O  O50  1  0.890993  0.114889  0.873854  1
  O  O51  1  0.363631  0.655401  0.297926  1
  O  O52  1  0.969605  0.659553  0.056559  1
  O  O53  1  0.370842  0.659553  0.443441  1
  O  O54  1  0.337499  0.436881  0.125125  1
  O  O55  1  0.996540  0.298354  0.306470  1
  O  O56  1  0.994118  0.114889  0.626146  1
  O  O57  1  0.223115  0.334720  0.623704  1
  O  O58  1  0.357322  0.975743  0.697367  1
  O  O59  1  0.333065  0.024257  0.197367  1
