# generated using pymatgen
data_Na5La(WO4)4
_symmetry_space_group_name_H-M   'P 1'
_cell_length_a   10.20208972
_cell_length_b   10.20208997
_cell_length_c   10.20208961
_cell_angle_alpha   108.94711478
_cell_angle_beta   108.94711540
_cell_angle_gamma   110.52459366
_symmetry_Int_Tables_number   1
_chemical_formula_structural   Na5La(WO4)4
_chemical_formula_sum   'Na10 La2 W8 O32'
_cell_volume   817.21286883
_cell_formula_units_Z   2
loop_
 _symmetry_equiv_pos_site_id
 _symmetry_equiv_pos_as_xyz
  1  'x, y, z'
loop_
 _atom_site_type_symbol
 _atom_site_label
 _atom_site_symmetry_multiplicity
 _atom_site_fract_x
 _atom_site_fract_y
 _atom_site_fract_z
 _atom_site_occupancy
  Na  Na0  1  0.625000  0.875000  0.750000  1
  Na  Na1  1  0.375000  0.125000  0.250000  1
  Na  Na2  1  0.778828  0.203702  0.167132  1
  Na  Na3  1  0.703702  0.036570  0.424875  1
  Na  Na4  1  0.111695  0.278828  0.075125  1
  Na  Na5  1  0.536570  0.611695  0.332868  1
  Na  Na6  1  0.221172  0.796298  0.832868  1
  Na  Na7  1  0.296298  0.963430  0.575125  1
  Na  Na8  1  0.888305  0.721172  0.924875  1
  Na  Na9  1  0.463430  0.388305  0.667132  1
  La  La10  1  0.125000  0.375000  0.750000  1
  La  La11  1  0.875000  0.625000  0.250000  1
  W  W12  1  0.044823  0.074974  0.334235  1
  W  W13  1  0.574974  0.740739  0.030151  1
  W  W14  1  0.210588  0.544823  0.469849  1
  W  W15  1  0.240739  0.710588  0.165765  1
  W  W16  1  0.955177  0.925026  0.665765  1
  W  W17  1  0.425026  0.259261  0.969849  1
  W  W18  1  0.789412  0.455177  0.530151  1
  W  W19  1  0.759261  0.289412  0.834235  1
  O  O20  1  0.930382  0.857336  0.196162  1
  O  O21  1  0.357336  0.661174  0.926954  1
  O  O22  1  0.234220  0.430382  0.573046  1
  O  O23  1  0.161174  0.734220  0.303838  1
  O  O24  1  0.069618  0.142664  0.803838  1
  O  O25  1  0.642664  0.338826  0.073046  1
  O  O26  1  0.765780  0.569618  0.426954  1
  O  O27  1  0.838826  0.265780  0.696162  1
  O  O28  1  0.015125  0.167735  0.213084  1
  O  O29  1  0.667735  0.954651  0.152609  1
  O  O30  1  0.302042  0.515125  0.347391  1
  O  O31  1  0.454651  0.802042  0.286916  1
  O  O32  1  0.984875  0.832265  0.786916  1
  O  O33  1  0.332265  0.045349  0.847391  1
  O  O34  1  0.697958  0.484875  0.652609  1
  O  O35  1  0.545349  0.197958  0.713084  1
  O  O36  1  0.978217  0.129493  0.481652  1
  O  O37  1  0.629493  0.647841  0.151275  1
  O  O38  1  0.996565  0.478217  0.348725  1
  O  O39  1  0.147841  0.496565  0.018348  1
  O  O40  1  0.021783  0.870507  0.518348  1
  O  O41  1  0.370507  0.352159  0.848725  1
  O  O42  1  0.003435  0.521783  0.651275  1
  O  O43  1  0.852159  0.503435  0.981652  1
  O  O44  1  0.255180  0.130894  0.423711  1
  O  O45  1  0.630894  0.707183  0.875714  1
  O  O46  1  0.331469  0.755180  0.624286  1
  O  O47  1  0.207183  0.831469  0.076289  1
  O  O48  1  0.744820  0.869106  0.576289  1
  O  O49  1  0.369106  0.292817  0.124286  1
  O  O50  1  0.668531  0.244820  0.375714  1
  O  O51  1  0.792817  0.168531  0.923711  1
