# generated using pymatgen
data_Pu2Ni17
_symmetry_space_group_name_H-M   'P 1'
_cell_length_a   8.22017824
_cell_length_b   8.22017858
_cell_length_c   7.98297489
_cell_angle_alpha   90.00000000
_cell_angle_beta   90.00000000
_cell_angle_gamma   119.99999864
_symmetry_Int_Tables_number   1
_chemical_formula_structural   Pu2Ni17
_chemical_formula_sum   'Pu4 Ni34'
_cell_volume   467.15165076
_cell_formula_units_Z   2
loop_
 _symmetry_equiv_pos_site_id
 _symmetry_equiv_pos_as_xyz
  1  'x, y, z'
loop_
 _atom_site_type_symbol
 _atom_site_label
 _atom_site_symmetry_multiplicity
 _atom_site_fract_x
 _atom_site_fract_y
 _atom_site_fract_z
 _atom_site_occupancy
  Pu  Pu0  1  0.000000  0.000000  0.750000  1
  Pu  Pu1  1  0.666667  0.333333  0.250000  1
  Pu  Pu2  1  0.000000  0.000000  0.250000  1
  Pu  Pu3  1  0.333333  0.666667  0.750000  1
  Ni  Ni4  1  0.034595  0.672407  0.250000  1
  Ni  Ni5  1  0.666667  0.333333  0.901396  1
  Ni  Ni6  1  0.500000  0.500000  0.500000  1
  Ni  Ni7  1  0.835189  0.164811  0.479012  1
  Ni  Ni8  1  0.329622  0.164811  0.020988  1
  Ni  Ni9  1  0.164811  0.329622  0.520988  1
  Ni  Ni10  1  0.637812  0.672407  0.250000  1
  Ni  Ni11  1  0.835189  0.164811  0.020988  1
  Ni  Ni12  1  0.333333  0.666667  0.401396  1
  Ni  Ni13  1  0.670378  0.835189  0.520988  1
  Ni  Ni14  1  0.327593  0.362188  0.250000  1
  Ni  Ni15  1  0.965405  0.327593  0.750000  1
  Ni  Ni16  1  0.637812  0.965405  0.250000  1
  Ni  Ni17  1  0.965405  0.637812  0.750000  1
  Ni  Ni18  1  0.164811  0.329622  0.979012  1
  Ni  Ni19  1  0.835189  0.670378  0.479012  1
  Ni  Ni20  1  0.329622  0.164811  0.479012  1
  Ni  Ni21  1  0.835189  0.670378  0.020988  1
  Ni  Ni22  1  0.666667  0.333333  0.598604  1
  Ni  Ni23  1  0.500000  0.500000  0.000000  1
  Ni  Ni24  1  0.327593  0.965405  0.250000  1
  Ni  Ni25  1  0.362188  0.327593  0.750000  1
  Ni  Ni26  1  0.670378  0.835189  0.979012  1
  Ni  Ni27  1  0.500000  0.000000  0.000000  1
  Ni  Ni28  1  0.672407  0.034595  0.750000  1
  Ni  Ni29  1  0.164811  0.835189  0.979012  1
  Ni  Ni30  1  0.333333  0.666667  0.098604  1
  Ni  Ni31  1  0.672407  0.637812  0.750000  1
  Ni  Ni32  1  0.000000  0.500000  0.000000  1
  Ni  Ni33  1  0.034595  0.362188  0.250000  1
  Ni  Ni34  1  0.164811  0.835189  0.520988  1
  Ni  Ni35  1  0.362188  0.034595  0.750000  1
  Ni  Ni36  1  0.000000  0.500000  0.500000  1
  Ni  Ni37  1  0.500000  0.000000  0.500000  1
