# generated using pymatgen
data_NiB4O7
_symmetry_space_group_name_H-M   'P 1'
_cell_length_a   5.21839428
_cell_length_b   6.34117988
_cell_length_c   6.34117937
_cell_angle_alpha   118.97919090
_cell_angle_beta   90.00000000
_cell_angle_gamma   90.00000000
_symmetry_Int_Tables_number   1
_chemical_formula_structural   NiB4O7
_chemical_formula_sum   'Ni2 B8 O14'
_cell_volume   183.56236887
_cell_formula_units_Z   2
loop_
 _symmetry_equiv_pos_site_id
 _symmetry_equiv_pos_as_xyz
  1  'x, y, z'
loop_
 _atom_site_type_symbol
 _atom_site_label
 _atom_site_symmetry_multiplicity
 _atom_site_fract_x
 _atom_site_fract_y
 _atom_site_fract_z
 _atom_site_occupancy
  Ni  Ni0  1  0.750000  0.746228  0.746228  1
  Ni  Ni1  1  0.250000  0.253772  0.253772  1
  B  B2  1  0.250000  0.929336  0.697197  1
  B  B3  1  0.000000  0.701818  0.298182  1
  B  B4  1  0.500000  0.701818  0.298182  1
  B  B5  1  0.750000  0.302803  0.070664  1
  B  B6  1  0.000000  0.298182  0.701818  1
  B  B7  1  0.250000  0.697197  0.929336  1
  B  B8  1  0.750000  0.070664  0.302803  1
  B  B9  1  0.500000  0.298182  0.701818  1
  O  O10  1  0.250000  0.198265  0.754717  1
  O  O11  1  0.023074  0.811707  0.558169  1
  O  O12  1  0.250000  0.754717  0.198265  1
  O  O13  1  0.476926  0.558169  0.811707  1
  O  O14  1  0.750000  0.070241  0.070241  1
  O  O15  1  0.976926  0.188293  0.441831  1
  O  O16  1  0.250000  0.929759  0.929759  1
  O  O17  1  0.023074  0.558169  0.811707  1
  O  O18  1  0.750000  0.245283  0.801735  1
  O  O19  1  0.750000  0.801735  0.245283  1
  O  O20  1  0.523074  0.188293  0.441831  1
  O  O21  1  0.976926  0.441831  0.188293  1
  O  O22  1  0.523074  0.441831  0.188293  1
  O  O23  1  0.476926  0.811707  0.558169  1
