# generated using pymatgen
data_Hg2TeBr3
_symmetry_space_group_name_H-M   'P 1'
_cell_length_a   7.85781669
_cell_length_b   10.32884709
_cell_length_c   10.28220435
_cell_angle_alpha   90.00000000
_cell_angle_beta   90.00000000
_cell_angle_gamma   95.88102072
_symmetry_Int_Tables_number   1
_chemical_formula_structural   Hg2TeBr3
_chemical_formula_sum   'Hg8 Te4 Br12'
_cell_volume   830.13392506
_cell_formula_units_Z   4
loop_
 _symmetry_equiv_pos_site_id
 _symmetry_equiv_pos_as_xyz
  1  'x, y, z'
loop_
 _atom_site_type_symbol
 _atom_site_label
 _atom_site_symmetry_multiplicity
 _atom_site_fract_x
 _atom_site_fract_y
 _atom_site_fract_z
 _atom_site_occupancy
  Hg  Hg0  1  0.317662  0.840931  0.451340  1
  Hg  Hg1  1  1.000138  0.998382  0.189233  1
  Hg  Hg2  1  0.500138  0.498381  0.310767  1
  Hg  Hg3  1  0.182338  0.659069  0.951340  1
  Hg  Hg4  1  -0.000138  0.001618  0.810766  1
  Hg  Hg5  1  0.499862  0.501618  0.689234  1
  Hg  Hg6  1  0.682338  0.159069  0.548660  1
  Hg  Hg7  1  0.817662  0.340931  0.048660  1
  Te  Te8  1  0.477278  0.380941  0.070263  1
  Te  Te9  1  0.977278  0.880941  0.429737  1
  Te  Te10  1  0.522722  0.619059  0.929737  1
  Te  Te11  1  0.022722  0.119059  0.570263  1
  Br  Br12  1  0.744822  0.487898  0.498667  1
  Br  Br13  1  0.977012  0.636357  0.154449  1
  Br  Br14  1  0.024505  0.268566  0.238599  1
  Br  Br15  1  0.244822  0.987898  0.001333  1
  Br  Br16  1  0.522988  0.863643  0.654449  1
  Br  Br17  1  0.524505  0.768566  0.261401  1
  Br  Br18  1  0.477012  0.136357  0.345551  1
  Br  Br19  1  0.022988  0.363643  0.845551  1
  Br  Br20  1  0.975495  0.731434  0.761401  1
  Br  Br21  1  0.755178  0.012102  0.998667  1
  Br  Br22  1  0.255178  0.512102  0.501333  1
  Br  Br23  1  0.475495  0.231434  0.738599  1
