# generated using pymatgen
data_Cs4Sn2Te7
_symmetry_space_group_name_H-M   'P 1'
_cell_length_a   8.05314555
_cell_length_b   9.35423043
_cell_length_c   19.56746910
_cell_angle_alpha   76.57171972
_cell_angle_beta   78.12490132
_cell_angle_gamma   64.50357599
_symmetry_Int_Tables_number   1
_chemical_formula_structural   Cs4Sn2Te7
_chemical_formula_sum   'Cs8 Sn4 Te14'
_cell_volume   1284.67572507
_cell_formula_units_Z   2
loop_
 _symmetry_equiv_pos_site_id
 _symmetry_equiv_pos_as_xyz
  1  'x, y, z'
loop_
 _atom_site_type_symbol
 _atom_site_label
 _atom_site_symmetry_multiplicity
 _atom_site_fract_x
 _atom_site_fract_y
 _atom_site_fract_z
 _atom_site_occupancy
  Cs  Cs0  1  0.026361  0.364060  0.147605  1
  Cs  Cs1  1  0.680144  0.242070  0.938434  1
  Cs  Cs2  1  0.860648  0.257930  0.561566  1
  Cs  Cs3  1  0.139352  0.742070  0.438434  1
  Cs  Cs4  1  0.538027  0.135940  0.352395  1
  Cs  Cs5  1  0.319856  0.757930  0.061566  1
  Cs  Cs6  1  0.461973  0.864060  0.647605  1
  Cs  Cs7  1  0.973639  0.635940  0.852395  1
  Sn  Sn8  1  0.220251  0.439004  0.653812  1
  Sn  Sn9  1  0.686933  0.939004  0.153812  1
  Sn  Sn10  1  0.313067  0.060996  0.846188  1
  Sn  Sn11  1  0.779749  0.560996  0.346188  1
  Te  Te12  1  0.191386  0.204964  0.963716  1
  Te  Te13  1  0.408747  0.738478  0.856311  1
  Te  Te14  1  0.996464  0.238478  0.356311  1
  Te  Te15  1  0.003536  0.761522  0.643689  1
  Te  Te16  1  0.360066  0.295036  0.536284  1
  Te  Te17  1  0.808614  0.795036  0.036284  1
  Te  Te18  1  0.490357  0.415563  0.735628  1
  Te  Te19  1  0.042529  0.250000  0.750000  1
  Te  Te20  1  0.639934  0.704964  0.463716  1
  Te  Te21  1  0.957471  0.750000  0.250000  1
  Te  Te22  1  0.358452  0.915563  0.235628  1
  Te  Te23  1  0.641548  0.084437  0.764372  1
  Te  Te24  1  0.509643  0.584437  0.264372  1
  Te  Te25  1  0.591253  0.261522  0.143689  1
