# generated using pymatgen
data_SbIrC2(OF3)2
_symmetry_space_group_name_H-M   'P 1'
_cell_length_a   9.73898328
_cell_length_b   13.23311255
_cell_length_c   13.23311255
_cell_angle_alpha   90.00000000
_cell_angle_beta   90.00000000
_cell_angle_gamma   90.00000000
_symmetry_Int_Tables_number   1
_chemical_formula_structural   SbIrC2(OF3)2
_chemical_formula_sum   'Sb8 Ir8 C16 O16 F48'
_cell_volume   1705.44466480
_cell_formula_units_Z   8
loop_
 _symmetry_equiv_pos_site_id
 _symmetry_equiv_pos_as_xyz
  1  'x, y, z'
loop_
 _atom_site_type_symbol
 _atom_site_label
 _atom_site_symmetry_multiplicity
 _atom_site_fract_x
 _atom_site_fract_y
 _atom_site_fract_z
 _atom_site_occupancy
  Sb  Sb0  1  0.397793  0.947322  0.299433  1
  Sb  Sb1  1  0.897793  0.552678  0.799433  1
  Sb  Sb2  1  0.602207  0.700567  0.947322  1
  Sb  Sb3  1  0.102207  0.200567  0.552678  1
  Sb  Sb4  1  0.897793  0.447322  0.200567  1
  Sb  Sb5  1  0.602207  0.299433  0.052678  1
  Sb  Sb6  1  0.397793  0.052678  0.700567  1
  Sb  Sb7  1  0.102207  0.799433  0.447322  1
  Ir  Ir8  1  0.073654  0.085071  0.914569  1
  Ir  Ir9  1  0.073654  0.914929  0.085431  1
  Ir  Ir10  1  0.426346  0.585431  0.414929  1
  Ir  Ir11  1  0.573654  0.585071  0.585431  1
  Ir  Ir12  1  0.573654  0.414929  0.414569  1
  Ir  Ir13  1  0.426346  0.414569  0.585071  1
  Ir  Ir14  1  0.926346  0.914569  0.914929  1
  Ir  Ir15  1  0.926346  0.085431  0.085071  1
  C  C16  1  0.835371  0.066765  0.210724  1
  C  C17  1  0.335371  0.433235  0.710724  1
  C  C18  1  0.563263  0.657023  0.350197  1
  C  C19  1  0.164629  0.210724  0.933235  1
  C  C20  1  0.335371  0.566765  0.289276  1
  C  C21  1  0.835371  0.933235  0.789276  1
  C  C22  1  0.436737  0.350197  0.342977  1
  C  C23  1  0.063263  0.157023  0.149803  1
  C  C24  1  0.063263  0.842977  0.850197  1
  C  C25  1  0.436737  0.649803  0.657023  1
  C  C26  1  0.164629  0.789276  0.066765  1
  C  C27  1  0.664629  0.289276  0.433235  1
  C  C28  1  0.936737  0.149803  0.842977  1
  C  C29  1  0.936737  0.850197  0.157023  1
  C  C30  1  0.664629  0.710724  0.566765  1
  C  C31  1  0.563263  0.342977  0.649803  1
  O  O32  1  0.651506  0.700672  0.311865  1
  O  O33  1  0.288374  0.555348  0.210339  1
  O  O34  1  0.348494  0.311865  0.299328  1
  O  O35  1  0.711626  0.789661  0.555348  1
  O  O36  1  0.788374  0.944652  0.710339  1
  O  O37  1  0.651506  0.299328  0.688135  1
  O  O38  1  0.211626  0.289661  0.944652  1
  O  O39  1  0.848494  0.188135  0.799328  1
  O  O40  1  0.288374  0.444652  0.789661  1
  O  O41  1  0.211626  0.710339  0.055348  1
  O  O42  1  0.348494  0.688135  0.700672  1
  O  O43  1  0.711626  0.210339  0.444652  1
  O  O44  1  0.788374  0.055348  0.289661  1
  O  O45  1  0.848494  0.811865  0.200672  1
  O  O46  1  0.151506  0.200672  0.188135  1
  O  O47  1  0.151506  0.799328  0.811865  1
  F  F48  1  0.750000  0.405817  0.094183  1
  F  F49  1  0.028474  0.400634  0.105258  1
  F  F50  1  0.523746  0.987068  0.198205  1
  F  F51  1  0.786976  0.000000  0.000000  1
  F  F52  1  0.237733  0.017785  0.780900  1
  F  F53  1  0.262267  0.280900  0.517785  1
  F  F54  1  0.286976  0.500000  0.500000  1
  F  F55  1  0.237733  0.982215  0.219100  1
  F  F56  1  0.391640  0.076289  0.360821  1
  F  F57  1  0.471526  0.394742  0.099366  1
  F  F58  1  0.618354  0.752890  0.813625  1
  F  F59  1  0.608360  0.639179  0.076289  1
  F  F60  1  0.618354  0.247110  0.186375  1
  F  F61  1  0.750000  0.594183  0.905817  1
  F  F62  1  0.381646  0.813625  0.247110  1
  F  F63  1  0.108360  0.860821  0.576289  1
  F  F64  1  0.762267  0.780900  0.982215  1
  F  F65  1  0.250000  0.905817  0.405817  1
  F  F66  1  0.250000  0.094183  0.594183  1
  F  F67  1  0.476254  0.198205  0.012932  1
  F  F68  1  0.023746  0.487068  0.301795  1
  F  F69  1  0.471526  0.605258  0.900634  1
  F  F70  1  0.381646  0.186375  0.752890  1
  F  F71  1  0.608360  0.360821  0.923711  1
  F  F72  1  0.213024  0.000000  0.000000  1
  F  F73  1  0.762267  0.219100  0.017785  1
  F  F74  1  0.108360  0.139179  0.423711  1
  F  F75  1  0.976254  0.698205  0.487068  1
  F  F76  1  0.976254  0.301795  0.512932  1
  F  F77  1  0.118354  0.252890  0.686375  1
  F  F78  1  0.971526  0.894742  0.400634  1
  F  F79  1  0.971526  0.105258  0.599366  1
  F  F80  1  0.528474  0.099366  0.605258  1
  F  F81  1  0.476254  0.801795  0.987068  1
  F  F82  1  0.891640  0.423711  0.860821  1
  F  F83  1  0.028474  0.599366  0.894742  1
  F  F84  1  0.023746  0.512932  0.698205  1
  F  F85  1  0.891640  0.576289  0.139179  1
  F  F86  1  0.881646  0.686375  0.747110  1
  F  F87  1  0.881646  0.313625  0.252890  1
  F  F88  1  0.737733  0.482215  0.280900  1
  F  F89  1  0.262267  0.719100  0.482215  1
  F  F90  1  0.523746  0.012932  0.801795  1
  F  F91  1  0.737733  0.517785  0.719100  1
  F  F92  1  0.118354  0.747110  0.313625  1
  F  F93  1  0.713024  0.500000  0.500000  1
  F  F94  1  0.528474  0.900634  0.394742  1
  F  F95  1  0.391640  0.923711  0.639179  1
