# generated using pymatgen
data_Pr2Ta2Cl2O7
_symmetry_space_group_name_H-M   'P 1'
_cell_length_a   3.96474697
_cell_length_b   6.97424453
_cell_length_c   8.06279317
_cell_angle_alpha   112.91603536
_cell_angle_beta   104.23373951
_cell_angle_gamma   89.99960403
_symmetry_Int_Tables_number   1
_chemical_formula_structural   Pr2Ta2Cl2O7
_chemical_formula_sum   'Pr2 Ta2 Cl2 O7'
_cell_volume   197.89789714
_cell_formula_units_Z   1
loop_
 _symmetry_equiv_pos_site_id
 _symmetry_equiv_pos_as_xyz
  1  'x, y, z'
loop_
 _atom_site_type_symbol
 _atom_site_label
 _atom_site_symmetry_multiplicity
 _atom_site_fract_x
 _atom_site_fract_y
 _atom_site_fract_z
 _atom_site_occupancy
  Pr  Pr0  1  0.308016  0.835076  0.616290  1
  Pr  Pr1  1  0.691984  0.164924  0.383710  1
  Ta  Ta2  1  0.965509  0.201562  0.931074  1
  Ta  Ta3  1  0.034491  0.798438  0.068926  1
  Cl  Cl4  1  0.678489  0.565899  0.356980  1
  Cl  Cl5  1  0.321511  0.434101  0.643020  1
  O  O6  1  0.455261  0.165146  0.910632  1
  O  O7  1  0.544739  0.834854  0.089368  1
  O  O8  1  0.919590  0.847607  0.839226  1
  O  O9  1  0.000000  0.500000  0.000000  1
  O  O10  1  0.826212  0.070171  0.652550  1
  O  O11  1  0.080410  0.152393  0.160774  1
  O  O12  1  0.173788  0.929829  0.347450  1
