# generated using pymatgen
data_Mn13Si2SbO24
_symmetry_space_group_name_H-M   'P 1'
_cell_length_a   11.82491317
_cell_length_b   11.82491341
_cell_length_c   11.15958192
_cell_angle_alpha   90.00000000
_cell_angle_beta   90.00000000
_cell_angle_gamma   119.99999935
_symmetry_Int_Tables_number   1
_chemical_formula_structural   Mn13Si2SbO24
_chemical_formula_sum   'Mn39 Si6 Sb3 O72'
_cell_volume   1351.37067018
_cell_formula_units_Z   3
loop_
 _symmetry_equiv_pos_site_id
 _symmetry_equiv_pos_as_xyz
  1  'x, y, z'
loop_
 _atom_site_type_symbol
 _atom_site_label
 _atom_site_symmetry_multiplicity
 _atom_site_fract_x
 _atom_site_fract_y
 _atom_site_fract_z
 _atom_site_occupancy
  Mn  Mn0  1  1.000000  0.522456  0.257204  1
  Mn  Mn1  1  1.000000  0.161937  0.729596  1
  Mn  Mn2  1  0.336086  0.828935  0.722047  1
  Mn  Mn3  1  0.661776  0.661776  0.490282  1
  Mn  Mn4  1  0.831592  0.504321  0.489105  1
  Mn  Mn5  1  0.338224  0.000000  0.490282  1
  Mn  Mn6  1  0.834011  0.000000  0.501047  1
  Mn  Mn7  1  0.830849  0.501121  0.990513  1
  Mn  Mn8  1  1.000000  0.832813  0.991065  1
  Mn  Mn9  1  0.670272  0.169151  0.990513  1
  Mn  Mn10  1  0.828935  0.336086  0.722047  1
  Mn  Mn11  1  0.158451  0.330210  0.258850  1
  Mn  Mn12  1  0.498879  0.329728  0.990513  1
  Mn  Mn13  1  0.167187  0.167187  0.991065  1
  Mn  Mn14  1  0.169151  0.670272  0.990513  1
  Mn  Mn15  1  0.329728  0.498879  0.990513  1
  Mn  Mn16  1  0.832813  0.000000  0.991065  1
  Mn  Mn17  1  0.168408  0.672729  0.489105  1
  Mn  Mn18  1  0.504321  0.831592  0.489105  1
  Mn  Mn19  1  0.327271  0.495679  0.489105  1
  Mn  Mn20  1  1.000000  0.834011  0.501047  1
  Mn  Mn21  1  0.838063  0.838063  0.729596  1
  Mn  Mn22  1  0.492848  0.663914  0.722047  1
  Mn  Mn23  1  1.000000  0.338224  0.490282  1
  Mn  Mn24  1  0.165989  0.165989  0.501047  1
  Mn  Mn25  1  0.672729  0.168408  0.489105  1
  Mn  Mn26  1  0.171760  0.841549  0.258850  1
  Mn  Mn27  1  0.522456  0.000000  0.257204  1
  Mn  Mn28  1  0.161937  0.000000  0.729596  1
  Mn  Mn29  1  0.841549  0.171760  0.258850  1
  Mn  Mn30  1  0.171065  0.507152  0.722047  1
  Mn  Mn31  1  0.669790  0.828240  0.258850  1
  Mn  Mn32  1  0.828240  0.669790  0.258850  1
  Mn  Mn33  1  0.495679  0.327271  0.489105  1
  Mn  Mn34  1  0.501121  0.830849  0.990513  1
  Mn  Mn35  1  0.330210  0.158451  0.258850  1
  Mn  Mn36  1  0.663914  0.492848  0.722047  1
  Mn  Mn37  1  0.477544  0.477544  0.257204  1
  Mn  Mn38  1  0.507152  0.171065  0.722047  1
  Si  Si39  1  0.333333  0.666667  0.233347  1
  Si  Si40  1  0.000000  0.000000  0.225975  1
  Si  Si41  1  0.667447  0.000000  0.748550  1
  Si  Si42  1  0.332553  0.332553  0.748550  1
  Si  Si43  1  0.666667  0.333333  0.233347  1
  Si  Si44  1  0.000000  0.667447  0.748550  1
  Sb  Sb45  1  0.659539  0.659539  0.991638  1
  Sb  Sb46  1  0.000000  0.340461  0.991638  1
  Sb  Sb47  1  0.340461  0.000000  0.991638  1
  O  O48  1  0.661158  0.513128  0.897745  1
  O  O49  1  0.473126  0.662650  0.543843  1
  O  O50  1  0.459773  0.330639  0.695425  1
  O  O51  1  0.533411  0.325705  0.284601  1
  O  O52  1  0.851680  0.193623  0.082972  1
  O  O53  1  0.810475  0.337350  0.543843  1
  O  O54  1  0.662650  0.473126  0.543843  1
  O  O55  1  0.000000  0.335352  0.692498  1
  O  O56  1  0.816309  0.142939  0.435474  1
  O  O57  1  0.203789  0.203789  0.697085  1
  O  O58  1  0.330579  0.330579  0.897928  1
  O  O59  1  0.669361  0.129134  0.695425  1
  O  O60  1  0.148320  0.341942  0.082972  1
  O  O61  1  0.139216  0.000000  0.555413  1
  O  O62  1  0.000000  0.000000  0.773798  1
  O  O63  1  0.354736  0.000000  0.290348  1
  O  O64  1  0.513128  0.661158  0.897745  1
  O  O65  1  0.130090  0.000000  0.274024  1
  O  O66  1  0.461781  0.461781  0.434339  1
  O  O67  1  1.000000  0.692252  0.224439  1
  O  O68  1  0.507266  0.507266  0.082033  1
  O  O69  1  0.189525  0.526874  0.543843  1
  O  O70  1  0.326630  0.183691  0.435474  1
  O  O71  1  0.666667  0.333333  0.083790  1
  O  O72  1  0.645264  0.645264  0.290348  1
  O  O73  1  0.658057  0.806377  0.082972  1
  O  O74  1  1.000000  0.538219  0.434339  1
  O  O75  1  0.666667  0.333333  0.758770  1
  O  O76  1  0.526874  0.189525  0.543843  1
  O  O77  1  0.806377  0.658057  0.082972  1
  O  O78  1  1.000000  0.130090  0.274024  1
  O  O79  1  0.338842  0.851970  0.897745  1
  O  O80  1  0.669421  0.000000  0.897928  1
  O  O81  1  0.330639  0.459773  0.695425  1
  O  O82  1  1.000000  0.189986  0.901774  1
  O  O83  1  0.692252  0.000000  0.224439  1
  O  O84  1  0.337350  0.810475  0.543843  1
  O  O85  1  1.000000  0.354736  0.290348  1
  O  O86  1  0.325705  0.533411  0.284601  1
  O  O87  1  0.307748  0.307748  0.224439  1
  O  O88  1  0.333333  0.666667  0.083790  1
  O  O89  1  0.000000  0.000000  0.075173  1
  O  O90  1  0.193623  0.851680  0.082972  1
  O  O91  1  0.189986  0.000000  0.901774  1
  O  O92  1  0.335352  0.000000  0.692498  1
  O  O93  1  0.129134  0.669361  0.695425  1
  O  O94  1  0.207706  0.674295  0.284601  1
  O  O95  1  0.466589  0.792294  0.284601  1
  O  O96  1  0.792294  0.466589  0.284601  1
  O  O97  1  0.674295  0.207706  0.284601  1
  O  O98  1  0.492734  0.000000  0.082033  1
  O  O99  1  0.810014  0.810014  0.901774  1
  O  O100  1  0.000000  0.796211  0.697085  1
  O  O101  1  1.000000  0.669421  0.897928  1
  O  O102  1  0.142939  0.816309  0.435474  1
  O  O103  1  0.000000  0.492734  0.082033  1
  O  O104  1  0.486872  0.148030  0.897745  1
  O  O105  1  0.851970  0.338842  0.897745  1
  O  O106  1  0.673370  0.857061  0.435474  1
  O  O107  1  0.664648  0.664648  0.692498  1
  O  O108  1  0.796211  0.000000  0.697085  1
  O  O109  1  0.860784  0.860784  0.555413  1
  O  O110  1  0.148030  0.486872  0.897745  1
  O  O111  1  0.869910  0.869910  0.274024  1
  O  O112  1  0.341942  0.148320  0.082972  1
  O  O113  1  0.538219  0.000000  0.434339  1
  O  O114  1  0.857061  0.673370  0.435474  1
  O  O115  1  0.000000  0.139216  0.555413  1
  O  O116  1  0.333333  0.666667  0.758770  1
  O  O117  1  0.183691  0.326630  0.435474  1
  O  O118  1  0.540227  0.870866  0.695425  1
  O  O119  1  0.870866  0.540227  0.695425  1
