# generated using pymatgen
data_K3SnSe3
_symmetry_space_group_name_H-M   'P 1'
_cell_length_a   9.05192850
_cell_length_b   9.22906633
_cell_length_c   13.02613057
_cell_angle_alpha   90.00000000
_cell_angle_beta   90.00000000
_cell_angle_gamma   115.84562448
_symmetry_Int_Tables_number   1
_chemical_formula_structural   K3SnSe3
_chemical_formula_sum   'K12 Sn4 Se12'
_cell_volume   979.36203561
_cell_formula_units_Z   4
loop_
 _symmetry_equiv_pos_site_id
 _symmetry_equiv_pos_as_xyz
  1  'x, y, z'
loop_
 _atom_site_type_symbol
 _atom_site_label
 _atom_site_symmetry_multiplicity
 _atom_site_fract_x
 _atom_site_fract_y
 _atom_site_fract_z
 _atom_site_occupancy
  Sn  Sn0  1  0.628849  0.659892  0.008038  1
  Sn  Sn1  1  0.871151  0.340108  0.508038  1
  Sn  Sn2  1  0.371151  0.340108  0.991962  1
  Sn  Sn3  1  0.128849  0.659892  0.491962  1
  Se  Se4  1  0.620250  0.758101  0.190906  1
  Se  Se5  1  0.879750  0.241899  0.690906  1
  Se  Se6  1  0.379750  0.241899  0.809094  1
  Se  Se7  1  0.120250  0.758101  0.309094  1
  Se  Se8  1  0.903976  0.654109  0.971090  1
  Se  Se9  1  0.596024  0.345891  0.471090  1
  Se  Se10  1  0.096024  0.345891  0.028910  1
  Se  Se11  1  0.403976  0.654109  0.528910  1
  Se  Se12  1  0.569727  0.828090  0.871186  1
  Se  Se13  1  0.930273  0.171910  0.371186  1
  Se  Se14  1  0.430273  0.171910  0.128814  1
  Se  Se15  1  0.069727  0.828090  0.628814  1
  K  K16  1  0.287928  0.775651  0.068658  1
  K  K17  1  0.212072  0.224349  0.568658  1
  K  K18  1  0.712072  0.224349  0.931342  1
  K  K19  1  0.787928  0.775651  0.431342  1
  K  K20  1  0.013612  0.001198  0.164519  1
  K  K21  1  0.486388  0.998802  0.664519  1
  K  K22  1  0.986388  0.998802  0.835481  1
  K  K23  1  0.513612  0.001198  0.335481  1
  K  K24  1  0.811456  0.441128  0.212178  1
  K  K25  1  0.688544  0.558872  0.712178  1
  K  K26  1  0.188544  0.558872  0.787822  1
  K  K27  1  0.311456  0.441128  0.287822  1
