# generated using pymatgen
data_La4CdCo
_symmetry_space_group_name_H-M   'P 1'
_cell_length_a   9.98337568
_cell_length_b   9.98337503
_cell_length_c   9.98337520
_cell_angle_alpha   59.99999618
_cell_angle_beta   59.99999834
_cell_angle_gamma   59.99999863
_symmetry_Int_Tables_number   1
_chemical_formula_structural   La4CdCo
_chemical_formula_sum   'La16 Cd4 Co4'
_cell_volume   703.58597351
_cell_formula_units_Z   4
loop_
 _symmetry_equiv_pos_site_id
 _symmetry_equiv_pos_as_xyz
  1  'x, y, z'
loop_
 _atom_site_type_symbol
 _atom_site_label
 _atom_site_symmetry_multiplicity
 _atom_site_fract_x
 _atom_site_fract_y
 _atom_site_fract_z
 _atom_site_occupancy
  La  La0  1  0.559371  0.940629  0.940629  1
  La  La1  1  0.940629  0.559371  0.940629  1
  La  La2  1  0.940629  0.940629  0.559371  1
  La  La3  1  0.810412  0.189588  0.189588  1
  La  La4  1  0.345544  0.345544  0.963369  1
  La  La5  1  0.189588  0.189588  0.810412  1
  La  La6  1  0.345544  0.963369  0.345544  1
  La  La7  1  0.963369  0.345544  0.345544  1
  La  La8  1  0.189588  0.810412  0.189588  1
  La  La9  1  0.189588  0.810412  0.810412  1
  La  La10  1  0.810412  0.189588  0.810412  1
  La  La11  1  0.559371  0.559371  0.940629  1
  La  La12  1  0.940629  0.559371  0.559371  1
  La  La13  1  0.345544  0.345544  0.345544  1
  La  La14  1  0.810412  0.810412  0.189588  1
  La  La15  1  0.559371  0.940629  0.559371  1
  Cd  Cd16  1  0.263838  0.578721  0.578721  1
  Cd  Cd17  1  0.578721  0.263838  0.578721  1
  Cd  Cd18  1  0.578721  0.578721  0.263838  1
  Cd  Cd19  1  0.578721  0.578721  0.578721  1
  Co  Co20  1  0.579440  0.140187  0.140187  1
  Co  Co21  1  0.140187  0.140187  0.579440  1
  Co  Co22  1  0.140187  0.140187  0.140187  1
  Co  Co23  1  0.140187  0.579440  0.140187  1
