# generated using pymatgen
data_Cs2LiVS4
_symmetry_space_group_name_H-M   'P 1'
_cell_length_a   5.92951915
_cell_length_b   7.60781115
_cell_length_c   12.73297335
_cell_angle_alpha   84.79392892
_cell_angle_beta   76.53560427
_cell_angle_gamma   67.06420568
_symmetry_Int_Tables_number   1
_chemical_formula_structural   Cs2LiVS4
_chemical_formula_sum   'Cs4 Li2 V2 S8'
_cell_volume   514.44338589
_cell_formula_units_Z   2
loop_
 _symmetry_equiv_pos_site_id
 _symmetry_equiv_pos_as_xyz
  1  'x, y, z'
loop_
 _atom_site_type_symbol
 _atom_site_label
 _atom_site_symmetry_multiplicity
 _atom_site_fract_x
 _atom_site_fract_y
 _atom_site_fract_z
 _atom_site_occupancy
  Cs  Cs0  1  0.802286  0.750000  0.395428  1
  Cs  Cs1  1  0.197714  0.250000  0.604572  1
  Cs  Cs2  1  0.447714  0.750000  0.104572  1
  Cs  Cs3  1  0.552286  0.250000  0.895428  1
  Li  Li4  1  0.125000  0.750000  0.750000  1
  Li  Li5  1  0.875000  0.250000  0.250000  1
  V  V6  1  0.625000  0.750000  0.750000  1
  V  V7  1  0.375000  0.250000  0.250000  1
  S  S8  1  0.122155  0.427647  0.150255  1
  S  S9  1  0.727590  0.072353  0.150255  1
  S  S10  1  0.799943  0.927647  0.650255  1
  S  S11  1  0.549802  0.572353  0.650255  1
  S  S12  1  0.450198  0.427647  0.349745  1
  S  S13  1  0.200057  0.072353  0.349745  1
  S  S14  1  0.272410  0.927647  0.849745  1
  S  S15  1  0.877845  0.572353  0.849745  1
