# generated using pymatgen
data_CsTmZnSe3
_symmetry_space_group_name_H-M   'P 1'
_cell_length_a   4.14638935
_cell_length_b   8.40032195
_cell_length_c   10.92153862
_cell_angle_alpha   90.00000000
_cell_angle_beta   90.00000000
_cell_angle_gamma   104.28819943
_symmetry_Int_Tables_number   1
_chemical_formula_structural   CsTmZnSe3
_chemical_formula_sum   'Cs2 Tm2 Zn2 Se6'
_cell_volume   368.64084645
_cell_formula_units_Z   2
loop_
 _symmetry_equiv_pos_site_id
 _symmetry_equiv_pos_as_xyz
  1  'x, y, z'
loop_
 _atom_site_type_symbol
 _atom_site_label
 _atom_site_symmetry_multiplicity
 _atom_site_fract_x
 _atom_site_fract_y
 _atom_site_fract_z
 _atom_site_occupancy
  Cs  Cs0  1  0.742369  0.484737  0.750000  1
  Cs  Cs1  1  0.257631  0.515263  0.250000  1
  Tm  Tm2  1  0.000000  0.000000  0.000000  1
  Tm  Tm3  1  0.000000  0.000000  0.500000  1
  Zn  Zn4  1  0.460484  0.920968  0.750000  1
  Zn  Zn5  1  0.539516  0.079032  0.250000  1
  Se  Se6  1  0.615088  0.230176  0.444021  1
  Se  Se7  1  0.384912  0.769824  0.944021  1
  Se  Se8  1  0.384912  0.769824  0.555979  1
  Se  Se9  1  0.615088  0.230176  0.055979  1
  Se  Se10  1  0.946102  0.892205  0.250000  1
  Se  Se11  1  0.053898  0.107795  0.750000  1
