# generated using pymatgen
data_CsZnB(PO4)2
_symmetry_space_group_name_H-M   'P 1'
_cell_length_a   7.60463539
_cell_length_b   8.01876342
_cell_length_c   8.13602294
_cell_angle_alpha   117.78399450
_cell_angle_beta   102.88804160
_cell_angle_gamma   104.68857408
_symmetry_Int_Tables_number   1
_chemical_formula_structural   CsZnB(PO4)2
_chemical_formula_sum   'Cs2 Zn2 B2 P4 O16'
_cell_volume   389.37487359
_cell_formula_units_Z   2
loop_
 _symmetry_equiv_pos_site_id
 _symmetry_equiv_pos_as_xyz
  1  'x, y, z'
loop_
 _atom_site_type_symbol
 _atom_site_label
 _atom_site_symmetry_multiplicity
 _atom_site_fract_x
 _atom_site_fract_y
 _atom_site_fract_z
 _atom_site_occupancy
  Cs  Cs0  1  0.264466  0.647311  0.405071  1
  Cs  Cs1  1  0.735534  0.352689  0.594929  1
  Zn  Zn2  1  0.202905  0.293128  0.742839  1
  Zn  Zn3  1  0.797095  0.706872  0.257161  1
  B  B4  1  0.702295  0.933859  0.931360  1
  B  B5  1  0.297705  0.066141  0.068640  1
  P  P6  1  0.557608  0.228611  0.937619  1
  P  P7  1  0.960241  0.903020  0.728868  1
  P  P8  1  0.039759  0.096980  0.271132  1
  P  P9  1  0.442392  0.771389  0.062381  1
  O  O10  1  0.399374  0.969410  0.149182  1
  O  O11  1  0.095361  0.275260  0.488026  1
  O  O12  1  0.452291  0.238513  0.086267  1
  O  O13  1  0.750012  0.424300  0.053854  1
  O  O14  1  0.600626  0.030590  0.850818  1
  O  O15  1  0.581485  0.797540  0.250392  1
  O  O16  1  0.986616  0.111723  0.759241  1
  O  O17  1  0.013384  0.888277  0.240759  1
  O  O18  1  0.904639  0.724740  0.511974  1
  O  O19  1  0.207701  0.171228  0.205527  1
  O  O20  1  0.547709  0.761487  0.913733  1
  O  O21  1  0.418515  0.202460  0.749608  1
  O  O22  1  0.154670  0.910890  0.858096  1
  O  O23  1  0.249988  0.575700  0.946146  1
  O  O24  1  0.792299  0.828772  0.794473  1
  O  O25  1  0.845330  0.089110  0.141904  1
