# generated using pymatgen
data_Na2SiH16O11
_symmetry_space_group_name_H-M   'P 1'
_cell_length_a   8.93715899
_cell_length_b   9.63271280
_cell_length_c   13.54060592
_cell_angle_alpha   90.00000000
_cell_angle_beta   90.00000000
_cell_angle_gamma   114.52699296
_symmetry_Int_Tables_number   1
_chemical_formula_structural   Na2SiH16O11
_chemical_formula_sum   'Na8 Si4 H64 O44'
_cell_volume   1060.51252522
_cell_formula_units_Z   4
loop_
 _symmetry_equiv_pos_site_id
 _symmetry_equiv_pos_as_xyz
  1  'x, y, z'
loop_
 _atom_site_type_symbol
 _atom_site_label
 _atom_site_symmetry_multiplicity
 _atom_site_fract_x
 _atom_site_fract_y
 _atom_site_fract_z
 _atom_site_occupancy
  Na  Na0  1  0.917820  0.256238  0.234060  1
  Na  Na1  1  0.582180  0.243762  0.734060  1
  Na  Na2  1  0.082180  0.743762  0.765940  1
  Na  Na3  1  0.417820  0.756238  0.265940  1
  Na  Na4  1  0.639440  0.987323  0.075462  1
  Na  Na5  1  0.860560  0.512677  0.575462  1
  Na  Na6  1  0.360560  0.012677  0.924538  1
  Na  Na7  1  0.139440  0.487323  0.424538  1
  Si  Si8  1  0.794120  0.505549  0.078646  1
  Si  Si9  1  0.705880  0.994451  0.578646  1
  Si  Si10  1  0.205880  0.494451  0.921354  1
  Si  Si11  1  0.294120  0.005549  0.421354  1
  O  O12  1  0.788073  0.440243  0.967841  1
  O  O13  1  0.711927  0.059757  0.467841  1
  O  O14  1  0.211927  0.559757  0.032159  1
  O  O15  1  0.288073  0.940243  0.532159  1
  O  O16  1  0.625075  0.420802  0.142086  1
  O  O17  1  0.874925  0.079198  0.642086  1
  O  O18  1  0.374925  0.579198  0.857914  1
  O  O19  1  0.125075  0.920802  0.357914  1
  O  O20  1  0.840841  0.696693  0.073059  1
  O  O21  1  0.659159  0.803307  0.573059  1
  O  O22  1  0.159159  0.303308  0.926941  1
  O  O23  1  0.340841  0.196692  0.426941  1
  O  O24  1  0.952660  0.497832  0.140476  1
  O  O25  1  0.547340  0.002168  0.640476  1
  O  O26  1  0.047340  0.502168  0.859524  1
  O  O27  1  0.452660  0.997832  0.359524  1
  O  O28  1  0.684960  0.846022  0.208443  1
  O  O29  1  0.815040  0.653978  0.708443  1
  O  O30  1  0.315041  0.153978  0.791557  1
  O  O31  1  0.184959  0.346022  0.291557  1
  O  O32  1  0.348691  0.855848  0.074192  1
  O  O33  1  0.151309  0.644152  0.574192  1
  O  O34  1  0.651309  0.144152  0.925808  1
  O  O35  1  0.848691  0.355848  0.425808  1
  O  O36  1  0.937532  0.125606  0.084517  1
  O  O37  1  0.562468  0.374394  0.584517  1
  O  O38  1  0.062468  0.874394  0.915483  1
  O  O39  1  0.437532  0.625606  0.415483  1
  O  O40  1  0.398409  0.538003  0.172042  1
  O  O41  1  0.101591  0.961997  0.672042  1
  O  O42  1  0.601591  0.461997  0.827958  1
  O  O43  1  0.898409  0.038003  0.327958  1
  O  O44  1  0.632691  0.156589  0.201684  1
  O  O45  1  0.867309  0.343411  0.701684  1
  O  O46  1  0.367309  0.843411  0.798316  1
  O  O47  1  0.132691  0.656589  0.298316  1
  O  O48  1  0.349292  0.209167  0.042698  1
  O  O49  1  0.150708  0.290833  0.542698  1
  O  O50  1  0.650708  0.790833  0.957302  1
  O  O51  1  0.849292  0.709167  0.457302  1
  O  O52  1  0.110425  0.949613  0.159007  1
  O  O53  1  0.389575  0.550387  0.659007  1
  O  O54  1  0.889575  0.050387  0.840993  1
  O  O55  1  0.610425  0.449613  0.340993  1
  H  H56  1  0.764187  0.722408  0.030183  1
  H  H57  1  0.735813  0.777592  0.530183  1
  H  H58  1  0.235813  0.277592  0.969817  1
  H  H59  1  0.264187  0.222408  0.469817  1
  H  H60  1  0.053706  0.518455  0.095393  1
  H  H61  1  0.446294  0.981545  0.595393  1
  H  H62  1  0.946294  0.481545  0.904607  1
  H  H63  1  0.553706  0.018455  0.404607  1
  H  H64  1  0.724621  0.773738  0.180869  1
  H  H65  1  0.775379  0.726262  0.680869  1
  H  H66  1  0.275379  0.226262  0.819131  1
  H  H67  1  0.224621  0.273738  0.319131  1
  H  H68  1  0.773145  0.915689  0.254981  1
  H  H69  1  0.726855  0.584311  0.754981  1
  H  H70  1  0.226855  0.084311  0.745019  1
  H  H71  1  0.273145  0.415689  0.245019  1
  H  H72  1  0.292578  0.744206  0.054783  1
  H  H73  1  0.207422  0.755794  0.554783  1
  H  H74  1  0.707422  0.255794  0.945217  1
  H  H75  1  0.792578  0.244206  0.445217  1
  H  H76  1  0.265294  0.881292  0.107612  1
  H  H77  1  0.234706  0.618708  0.607612  1
  H  H78  1  0.734706  0.118708  0.892388  1
  H  H79  1  0.765294  0.381292  0.392388  1
  H  H80  1  1.004887  0.192504  0.031675  1
  H  H81  1  0.495113  0.307496  0.531675  1
  H  H82  1  -0.004887  0.807496  0.968325  1
  H  H83  1  0.504887  0.692504  0.468325  1
  H  H84  1  1.000616  0.069897  0.109758  1
  H  H85  1  0.499384  0.430103  0.609758  1
  H  H86  1  -0.000616  0.930103  0.890242  1
  H  H87  1  0.500616  0.569897  0.390242  1
  H  H88  1  0.331537  0.539072  0.111374  1
  H  H89  1  0.168463  0.960928  0.611374  1
  H  H90  1  0.668463  0.460928  0.888626  1
  H  H91  1  0.831537  0.039072  0.388626  1
  H  H92  1  0.484620  0.502856  0.152755  1
  H  H93  1  0.015380  0.997144  0.652755  1
  H  H94  1  0.515380  0.497144  0.847245  1
  H  H95  1  0.984620  0.002856  0.347245  1
  H  H96  1  0.618144  0.250444  0.182057  1
  H  H97  1  0.881856  0.249556  0.682057  1
  H  H98  1  0.381856  0.749556  0.817943  1
  H  H99  1  0.118144  0.750444  0.317943  1
  H  H100  1  0.557461  0.107379  0.257615  1
  H  H101  1  0.942539  0.392621  0.757615  1
  H  H102  1  0.442539  0.892621  0.742385  1
  H  H103  1  0.057461  0.607379  0.242385  1
  H  H104  1  0.449158  0.285498  0.076772  1
  H  H105  1  0.050842  0.214502  0.576772  1
  H  H106  1  0.550842  0.714502  0.923228  1
  H  H107  1  0.949158  0.785498  0.423228  1
  H  H108  1  0.280929  0.139250  0.093733  1
  H  H109  1  0.219071  0.360750  0.593733  1
  H  H110  1  0.719071  0.860750  0.906267  1
  H  H111  1  0.780929  0.639250  0.406267  1
  H  H112  1  0.116241  0.942329  0.233414  1
  H  H113  1  0.383759  0.557671  0.733414  1
  H  H114  1  0.883759  0.057671  0.766586  1
  H  H115  1  0.616241  0.442329  0.266586  1
  H  H116  1  0.015450  0.856973  0.136455  1
  H  H117  1  0.484550  0.643027  0.636455  1
  H  H118  1  0.984550  0.143027  0.863545  1
  H  H119  1  0.515450  0.356973  0.363545  1
