# generated using pymatgen
data_Sr2TbGaCu2O7
_symmetry_space_group_name_H-M   'P 1'
_cell_length_a   5.41626377
_cell_length_b   5.53624993
_cell_length_c   12.22952371
_cell_angle_alpha   103.08678919
_cell_angle_beta   102.79636245
_cell_angle_gamma   90.00095767
_symmetry_Int_Tables_number   1
_chemical_formula_structural   Sr2TbGaCu2O7
_chemical_formula_sum   'Sr4 Tb2 Ga2 Cu4 O14'
_cell_volume   347.83026607
_cell_formula_units_Z   2
loop_
 _symmetry_equiv_pos_site_id
 _symmetry_equiv_pos_as_xyz
  1  'x, y, z'
loop_
 _atom_site_type_symbol
 _atom_site_label
 _atom_site_symmetry_multiplicity
 _atom_site_fract_x
 _atom_site_fract_y
 _atom_site_fract_z
 _atom_site_occupancy
  Tb  Tb0  1  0.500520  0.500000  0.000016  1
  Tb  Tb1  1  0.000469  0.000034  0.000021  1
  Sr  Sr2  1  0.346964  0.366732  0.696935  1
  Sr  Sr3  1  0.649892  0.633236  0.302947  1
  Sr  Sr4  1  0.846868  0.830190  0.696927  1
  Sr  Sr5  1  0.149898  0.169764  0.302958  1
  Cu  Cu6  1  0.929258  0.427348  0.856802  1
  Cu  Cu7  1  0.072431  0.572847  0.143568  1
  Cu  Cu8  1  0.429004  0.929253  0.856536  1
  Cu  Cu9  1  0.572353  0.070656  0.143421  1
  Ga  Ga10  1  0.711976  0.180827  0.499956  1
  Ga  Ga11  1  0.211977  0.819134  0.499872  1
  O  O12  1  0.859646  0.866463  0.499924  1
  O  O13  1  0.359606  0.133469  0.499904  1
  O  O14  1  0.186920  0.185889  0.871919  1
  O  O15  1  0.315060  0.814206  0.128170  1
  O  O16  1  0.686928  0.185956  0.871931  1
  O  O17  1  0.814871  0.814288  0.128174  1
  O  O18  1  0.687853  0.686692  0.876274  1
  O  O19  1  0.811463  0.313146  0.123821  1
  O  O20  1  0.187873  0.689489  0.876291  1
  O  O21  1  0.311667  0.310497  0.123811  1
  O  O22  1  0.352229  0.776220  0.646074  1
  O  O23  1  0.706106  0.223745  0.353837  1
  O  O24  1  0.852120  0.369725  0.646181  1
  O  O25  1  0.206048  0.630193  0.353731  1
