# generated using pymatgen
data_SnPO3F
_symmetry_space_group_name_H-M   'P 1'
_cell_length_a   4.79256685
_cell_length_b   6.40396521
_cell_length_c   13.11275863
_cell_angle_alpha   90.00000000
_cell_angle_beta   90.00000000
_cell_angle_gamma   100.23662457
_symmetry_Int_Tables_number   1
_chemical_formula_structural   SnPO3F
_chemical_formula_sum   'Sn4 P4 O12 F4'
_cell_volume   396.04322784
_cell_formula_units_Z   4
loop_
 _symmetry_equiv_pos_site_id
 _symmetry_equiv_pos_as_xyz
  1  'x, y, z'
loop_
 _atom_site_type_symbol
 _atom_site_label
 _atom_site_symmetry_multiplicity
 _atom_site_fract_x
 _atom_site_fract_y
 _atom_site_fract_z
 _atom_site_occupancy
  Sn  Sn0  1  0.968578  0.713242  0.368654  1
  Sn  Sn1  1  0.031422  0.286758  0.631346  1
  Sn  Sn2  1  0.968578  0.213242  0.131346  1
  Sn  Sn3  1  0.031422  0.786758  0.868654  1
  P  P4  1  0.615585  0.164155  0.851002  1
  P  P5  1  0.384415  0.335845  0.351002  1
  P  P6  1  0.384415  0.835845  0.148998  1
  P  P7  1  0.615585  0.664155  0.648998  1
  O  O8  1  0.331871  0.554567  0.693912  1
  O  O9  1  0.233524  0.979115  0.082887  1
  O  O10  1  0.766476  0.020885  0.917113  1
  O  O11  1  0.196500  0.199024  0.273924  1
  O  O12  1  0.196500  0.699024  0.226076  1
  O  O13  1  0.668129  0.945433  0.193912  1
  O  O14  1  0.668129  0.445433  0.306088  1
  O  O15  1  0.331871  0.054567  0.806088  1
  O  O16  1  0.803500  0.300976  0.773924  1
  O  O17  1  0.766476  0.520885  0.582887  1
  O  O18  1  0.803500  0.800976  0.726076  1
  O  O19  1  0.233524  0.479115  0.417113  1
  F  F20  1  0.536198  0.834192  0.570398  1
  F  F21  1  0.536198  0.334192  0.929602  1
  F  F22  1  0.463802  0.165808  0.429602  1
  F  F23  1  0.463802  0.665808  0.070398  1
