# generated using pymatgen
data_Zr3Al3C5
_symmetry_space_group_name_H-M   'P 1'
_cell_length_a   3.36224987
_cell_length_b   3.36224987
_cell_length_c   27.74973749
_cell_angle_alpha   90.00000000
_cell_angle_beta   90.00000000
_cell_angle_gamma   119.99999994
_symmetry_Int_Tables_number   1
_chemical_formula_structural   Zr3Al3C5
_chemical_formula_sum   'Zr6 Al6 C10'
_cell_volume   271.67487851
_cell_formula_units_Z   2
loop_
 _symmetry_equiv_pos_site_id
 _symmetry_equiv_pos_as_xyz
  1  'x, y, z'
loop_
 _atom_site_type_symbol
 _atom_site_label
 _atom_site_symmetry_multiplicity
 _atom_site_fract_x
 _atom_site_fract_y
 _atom_site_fract_z
 _atom_site_occupancy
  Zr  Zr0  1  0.333333  0.666667  0.904316  1
  Zr  Zr1  1  0.666667  0.333333  0.095278  1
  Zr  Zr2  1  0.000000  0.000000  -0.000197  1
  Zr  Zr3  1  0.333333  0.666667  0.595278  1
  Zr  Zr4  1  0.000000  0.000000  0.499803  1
  Zr  Zr5  1  0.666667  0.333333  0.404316  1
  Al  Al6  1  0.000000  0.000000  0.249527  1
  Al  Al7  1  0.666667  0.333333  0.822609  1
  Al  Al8  1  0.333333  0.666667  0.176919  1
  Al  Al9  1  0.333333  0.666667  0.322609  1
  Al  Al10  1  0.666667  0.333333  0.676919  1
  Al  Al11  1  0.000000  0.000000  0.749527  1
  C  C12  1  0.666667  0.333333  0.949798  1
  C  C13  1  0.666667  0.333333  0.549857  1
  C  C14  1  0.000000  0.000000  0.347449  1
  C  C15  1  0.000000  0.000000  0.652327  1
  C  C16  1  0.666667  0.333333  0.749766  1
  C  C17  1  0.333333  0.666667  0.049857  1
  C  C18  1  0.333333  0.666667  0.449798  1
  C  C19  1  0.000000  0.000000  0.152327  1
  C  C20  1  0.333333  0.666667  0.249766  1
  C  C21  1  0.000000  0.000000  0.847449  1
