# generated using pymatgen
data_K2NaCo(CN)6
_symmetry_space_group_name_H-M   'P 1'
_cell_length_a   7.10452151
_cell_length_b   7.60428279
_cell_length_c   10.40609414
_cell_angle_alpha   90.00000000
_cell_angle_beta   90.72521543
_cell_angle_gamma   90.00000000
_symmetry_Int_Tables_number   1
_chemical_formula_structural   K2NaCo(CN)6
_chemical_formula_sum   'K4 Na2 Co2 C12 N12'
_cell_volume   562.14202415
_cell_formula_units_Z   2
loop_
 _symmetry_equiv_pos_site_id
 _symmetry_equiv_pos_as_xyz
  1  'x, y, z'
loop_
 _atom_site_type_symbol
 _atom_site_label
 _atom_site_symmetry_multiplicity
 _atom_site_fract_x
 _atom_site_fract_y
 _atom_site_fract_z
 _atom_site_occupancy
  K  K0  1  0.525545  0.422634  0.747869  1
  K  K1  1  0.474455  0.577366  0.252131  1
  K  K2  1  0.974455  0.922634  0.752131  1
  K  K3  1  0.025545  0.077366  0.247869  1
  Na  Na4  1  0.500000  0.000000  0.500000  1
  Na  Na5  1  0.000000  0.500000  0.000000  1
  Co  Co6  1  0.500000  0.000000  0.000000  1
  Co  Co7  1  0.000000  0.500000  0.500000  1
  C  C8  1  0.415715  0.027348  0.829801  1
  C  C9  1  0.782751  0.629454  0.537331  1
  C  C10  1  0.125132  0.707236  0.452942  1
  C  C11  1  0.874868  0.292764  0.547058  1
  C  C12  1  0.625132  0.792764  0.952942  1
  C  C13  1  0.282751  0.870546  0.037331  1
  C  C14  1  0.084285  0.527348  0.670199  1
  C  C15  1  0.584285  0.972652  0.170199  1
  C  C16  1  0.374868  0.207236  0.047058  1
  C  C17  1  0.717249  0.129454  0.962669  1
  C  C18  1  0.217249  0.370546  0.462669  1
  C  C19  1  0.915715  0.472652  0.329801  1
  N  N20  1  0.635370  0.952943  0.277146  1
  N  N21  1  0.135370  0.547057  0.777146  1
  N  N22  1  0.146675  0.790399  0.062754  1
  N  N23  1  0.364630  0.047057  0.722854  1
  N  N24  1  0.646675  0.709601  0.562754  1
  N  N25  1  0.706256  0.664858  0.922675  1
  N  N26  1  0.353325  0.290399  0.437246  1
  N  N27  1  0.853325  0.209601  0.937246  1
  N  N28  1  0.293744  0.335142  0.077325  1
  N  N29  1  0.864630  0.452943  0.222854  1
  N  N30  1  0.206256  0.835142  0.422675  1
  N  N31  1  0.793744  0.164858  0.577325  1
