# generated using pymatgen
data_Rb3Sc(HO)6
_symmetry_space_group_name_H-M   'P 1'
_cell_length_a   7.73074699
_cell_length_b   7.73074668
_cell_length_c   7.73074672
_cell_angle_alpha   96.79766505
_cell_angle_beta   96.79766476
_cell_angle_gamma   96.79766884
_symmetry_Int_Tables_number   1
_chemical_formula_structural   Rb3Sc(HO)6
_chemical_formula_sum   'Rb6 Sc2 H12 O12'
_cell_volume   451.42673760
_cell_formula_units_Z   2
loop_
 _symmetry_equiv_pos_site_id
 _symmetry_equiv_pos_as_xyz
  1  'x, y, z'
loop_
 _atom_site_type_symbol
 _atom_site_label
 _atom_site_symmetry_multiplicity
 _atom_site_fract_x
 _atom_site_fract_y
 _atom_site_fract_z
 _atom_site_occupancy
  Sc  Sc0  1  0.000000  0.000000  0.000000  1
  Sc  Sc1  1  0.500000  0.500000  0.500000  1
  Rb  Rb2  1  0.632844  0.867156  0.250000  1
  Rb  Rb3  1  0.250000  0.632844  0.867156  1
  Rb  Rb4  1  0.867156  0.250000  0.632844  1
  Rb  Rb5  1  0.367156  0.132844  0.750000  1
  Rb  Rb6  1  0.750000  0.367156  0.132844  1
  Rb  Rb7  1  0.132844  0.750000  0.367156  1
  O  O8  1  0.409530  0.537817  0.233863  1
  O  O9  1  0.233863  0.409530  0.537817  1
  O  O10  1  0.537817  0.233863  0.409530  1
  O  O11  1  0.962183  0.090470  0.266137  1
  O  O12  1  0.266137  0.962183  0.090470  1
  O  O13  1  0.090470  0.266137  0.962183  1
  O  O14  1  0.590470  0.462183  0.766137  1
  O  O15  1  0.766137  0.590470  0.462183  1
  O  O16  1  0.462183  0.766137  0.590470  1
  O  O17  1  0.037817  0.909530  0.733863  1
  O  O18  1  0.733863  0.037817  0.909530  1
  O  O19  1  0.909530  0.733863  0.037817  1
  H  H20  1  0.376621  0.424020  0.161841  1
  H  H21  1  0.161841  0.376621  0.424020  1
  H  H22  1  0.424020  0.161841  0.376621  1
  H  H23  1  0.075980  0.123379  0.338159  1
  H  H24  1  0.338159  0.075980  0.123379  1
  H  H25  1  0.123379  0.338159  0.075980  1
  H  H26  1  0.623379  0.575980  0.838159  1
  H  H27  1  0.838159  0.623379  0.575980  1
  H  H28  1  0.575980  0.838159  0.623379  1
  H  H29  1  0.924020  0.876621  0.661841  1
  H  H30  1  0.661841  0.924020  0.876621  1
  H  H31  1  0.876621  0.661841  0.924020  1
