# generated using pymatgen
data_K2MoAs2O9
_symmetry_space_group_name_H-M   'P 1'
_cell_length_a   7.60548370
_cell_length_b   9.33976359
_cell_length_c   14.20448594
_cell_angle_alpha   90.00000000
_cell_angle_beta   90.00000000
_cell_angle_gamma   110.89092918
_symmetry_Int_Tables_number   1
_chemical_formula_structural   K2MoAs2O9
_chemical_formula_sum   'K8 Mo4 As8 O36'
_cell_volume   942.66294664
_cell_formula_units_Z   4
loop_
 _symmetry_equiv_pos_site_id
 _symmetry_equiv_pos_as_xyz
  1  'x, y, z'
loop_
 _atom_site_type_symbol
 _atom_site_label
 _atom_site_symmetry_multiplicity
 _atom_site_fract_x
 _atom_site_fract_y
 _atom_site_fract_z
 _atom_site_occupancy
  K  K0  1  0.708929  0.375189  0.047747  1
  K  K1  1  0.791071  0.124811  0.547747  1
  K  K2  1  0.818346  0.860369  0.089322  1
  K  K3  1  0.291071  0.624811  0.952253  1
  K  K4  1  0.208929  0.875189  0.452253  1
  K  K5  1  0.181654  0.139631  0.910678  1
  K  K6  1  0.681654  0.639631  0.589322  1
  K  K7  1  0.318346  0.360369  0.410678  1
  Mo  Mo8  1  0.245590  0.669238  0.216656  1
  Mo  Mo9  1  0.254410  0.830762  0.716656  1
  Mo  Mo10  1  0.754410  0.330762  0.783344  1
  Mo  Mo11  1  0.745590  0.169238  0.283344  1
  As  As12  1  0.326041  0.195592  0.658524  1
  As  As13  1  0.180757  0.467626  0.665547  1
  As  As14  1  0.173959  0.304408  0.158524  1
  As  As15  1  0.680757  0.967626  0.834453  1
  As  As16  1  0.319243  0.032374  0.165547  1
  As  As17  1  0.826041  0.695592  0.841476  1
  As  As18  1  0.673959  0.804408  0.341476  1
  As  As19  1  0.819243  0.532374  0.334452  1
  O  O20  1  0.559076  0.109367  0.363579  1
  O  O21  1  0.562111  0.264407  0.859745  1
  O  O22  1  0.253259  0.458140  0.237550  1
  O  O23  1  0.940357  0.387499  0.660536  1
  O  O24  1  0.062111  0.764407  0.640255  1
  O  O25  1  0.794481  0.014185  0.936402  1
  O  O26  1  0.559643  0.112501  0.160536  1
  O  O27  1  0.433790  0.722987  0.343734  1
  O  O28  1  0.760177  0.118589  0.753767  1
  O  O29  1  0.746741  0.541860  0.762450  1
  O  O30  1  0.739823  0.381411  0.253767  1
  O  O31  1  0.294481  0.514185  0.563598  1
  O  O32  1  0.440357  0.887499  0.839464  1
  O  O33  1  0.751474  0.674679  0.273298  1
  O  O34  1  0.566210  0.277013  0.656266  1
  O  O35  1  0.933790  0.222987  0.156266  1
  O  O36  1  0.717223  0.649329  0.945499  1
  O  O37  1  0.059643  0.612501  0.339464  1
  O  O38  1  0.940924  0.390633  0.863579  1
  O  O39  1  0.205519  0.985815  0.063598  1
  O  O40  1  0.748526  0.825321  0.773298  1
  O  O41  1  0.246741  0.041860  0.737550  1
  O  O42  1  0.282777  0.350671  0.054501  1
  O  O43  1  0.753259  0.958140  0.262450  1
  O  O44  1  0.937889  0.235593  0.359745  1
  O  O45  1  0.260177  0.618589  0.746233  1
  O  O46  1  0.251474  0.174679  0.226702  1
  O  O47  1  0.782777  0.850671  0.445499  1
  O  O48  1  0.705519  0.485815  0.436402  1
  O  O49  1  0.059076  0.609367  0.136421  1
  O  O50  1  0.239823  0.881411  0.246233  1
  O  O51  1  0.440924  0.890633  0.636421  1
  O  O52  1  0.066210  0.777013  0.843734  1
  O  O53  1  0.248526  0.325321  0.726702  1
  O  O54  1  0.437889  0.735593  0.140255  1
  O  O55  1  0.217223  0.149329  0.554501  1
