# generated using pymatgen
data_BaSn(GeO3)3
_symmetry_space_group_name_H-M   'P 1'
_cell_length_a   7.02224951
_cell_length_b   7.02224938
_cell_length_c   10.39429357
_cell_angle_alpha   90.00000000
_cell_angle_beta   90.00000000
_cell_angle_gamma   120.00000057
_symmetry_Int_Tables_number   1
_chemical_formula_structural   BaSn(GeO3)3
_chemical_formula_sum   'Ba2 Sn2 Ge6 O18'
_cell_volume   443.89281222
_cell_formula_units_Z   2
loop_
 _symmetry_equiv_pos_site_id
 _symmetry_equiv_pos_as_xyz
  1  'x, y, z'
loop_
 _atom_site_type_symbol
 _atom_site_label
 _atom_site_symmetry_multiplicity
 _atom_site_fract_x
 _atom_site_fract_y
 _atom_site_fract_z
 _atom_site_occupancy
  Ba  Ba0  1  0.666667  0.333333  0.000000  1
  Ba  Ba1  1  0.666667  0.333333  0.500000  1
  Sn  Sn2  1  0.333333  0.666667  0.000000  1
  Sn  Sn3  1  0.333333  0.666667  0.500000  1
  Ge  Ge4  1  0.074599  0.293816  0.250000  1
  Ge  Ge5  1  0.219217  0.925401  0.250000  1
  Ge  Ge6  1  0.706184  0.780783  0.250000  1
  Ge  Ge7  1  0.706184  0.925401  0.750000  1
  Ge  Ge8  1  0.219217  0.293816  0.750000  1
  Ge  Ge9  1  0.074599  0.780783  0.750000  1
  O  O10  1  0.269750  0.202884  0.250000  1
  O  O11  1  0.933134  0.730250  0.250000  1
  O  O12  1  0.797116  0.066866  0.250000  1
  O  O13  1  0.797116  0.730250  0.750000  1
  O  O14  1  0.933134  0.202884  0.750000  1
  O  O15  1  0.269750  0.066866  0.750000  1
  O  O16  1  0.075038  0.430752  0.108924  1
  O  O17  1  0.355714  0.924962  0.391076  1
  O  O18  1  0.569248  0.644286  0.391076  1
  O  O19  1  0.569248  0.644286  0.108924  1
  O  O20  1  0.355714  0.924962  0.108924  1
  O  O21  1  0.569248  0.924962  0.891076  1
  O  O22  1  0.355714  0.430752  0.891076  1
  O  O23  1  0.075038  0.644286  0.891076  1
  O  O24  1  0.355714  0.430752  0.608924  1
  O  O25  1  0.075038  0.644286  0.608924  1
  O  O26  1  0.075038  0.430752  0.391076  1
  O  O27  1  0.569248  0.924962  0.608924  1
