# generated using pymatgen
data_Sr5Cr3ClO12
_symmetry_space_group_name_H-M   'P 1'
_cell_length_a   10.30686753
_cell_length_b   10.30686734
_cell_length_c   7.37518247
_cell_angle_alpha   90.00000000
_cell_angle_beta   90.00000000
_cell_angle_gamma   120.00000063
_symmetry_Int_Tables_number   1
_chemical_formula_structural   Sr5Cr3ClO12
_chemical_formula_sum   'Sr10 Cr6 Cl2 O24'
_cell_volume   678.51082220
_cell_formula_units_Z   2
loop_
 _symmetry_equiv_pos_site_id
 _symmetry_equiv_pos_as_xyz
  1  'x, y, z'
loop_
 _atom_site_type_symbol
 _atom_site_label
 _atom_site_symmetry_multiplicity
 _atom_site_fract_x
 _atom_site_fract_y
 _atom_site_fract_z
 _atom_site_occupancy
  Sr  Sr0  1  0.001082  0.747584  0.753401  1
  Sr  Sr1  1  0.333333  0.666667  0.501228  1
  Sr  Sr2  1  0.747584  0.746502  0.253401  1
  Sr  Sr3  1  0.666667  0.333333  0.503883  1
  Sr  Sr4  1  0.253498  0.001082  0.253401  1
  Sr  Sr5  1  0.252416  0.253498  0.753401  1
  Sr  Sr6  1  0.998918  0.252416  0.253401  1
  Sr  Sr7  1  0.666667  0.333333  0.001228  1
  Sr  Sr8  1  0.746502  0.998918  0.753401  1
  Sr  Sr9  1  0.333333  0.666667  0.003883  1
  Cr  Cr10  1  0.031718  0.405852  0.753989  1
  Cr  Cr11  1  0.374134  0.968282  0.753989  1
  Cr  Cr12  1  0.594148  0.625866  0.753989  1
  Cr  Cr13  1  0.968282  0.594148  0.253989  1
  Cr  Cr14  1  0.625866  0.031718  0.253989  1
  Cr  Cr15  1  0.405852  0.374134  0.253989  1
  Cl  Cl16  1  0.000000  0.000000  0.501558  1
  Cl  Cl17  1  0.000000  0.000000  0.001558  1
  O  O18  1  0.161375  0.680231  0.253618  1
  O  O19  1  0.739565  0.096623  0.441817  1
  O  O20  1  0.093527  0.352260  0.567227  1
  O  O21  1  0.260435  0.903377  0.941817  1
  O  O22  1  0.131016  0.600318  0.751558  1
  O  O23  1  0.258733  0.906473  0.567227  1
  O  O24  1  0.518856  0.838625  0.253618  1
  O  O25  1  0.481144  0.161375  0.753618  1
  O  O26  1  0.647740  0.741267  0.567227  1
  O  O27  1  0.399682  0.530698  0.751558  1
  O  O28  1  0.319769  0.481144  0.253618  1
  O  O29  1  0.357058  0.260435  0.441817  1
  O  O30  1  0.906473  0.647740  0.067227  1
  O  O31  1  0.838625  0.319769  0.753618  1
  O  O32  1  0.868984  0.399682  0.251558  1
  O  O33  1  0.096623  0.357058  0.941817  1
  O  O34  1  0.903377  0.642942  0.441817  1
  O  O35  1  0.600318  0.469302  0.251558  1
  O  O36  1  0.352260  0.258733  0.067227  1
  O  O37  1  0.680231  0.518856  0.753618  1
  O  O38  1  0.642942  0.739565  0.941817  1
  O  O39  1  0.741267  0.093527  0.067227  1
  O  O40  1  0.469302  0.868984  0.751558  1
  O  O41  1  0.530698  0.131016  0.251558  1
