# generated using pymatgen
data_S
_symmetry_space_group_name_H-M   'P 1'
_cell_length_a   11.85825288
_cell_length_b   11.59914210
_cell_length_c   11.86138635
_cell_angle_alpha   90.00000000
_cell_angle_beta   98.35936090
_cell_angle_gamma   90.00000000
_symmetry_Int_Tables_number   1
_chemical_formula_structural   S
_chemical_formula_sum   S48
_cell_volume   1614.14768410
_cell_formula_units_Z   48
loop_
 _symmetry_equiv_pos_site_id
 _symmetry_equiv_pos_as_xyz
  1  'x, y, z'
loop_
 _atom_site_type_symbol
 _atom_site_label
 _atom_site_symmetry_multiplicity
 _atom_site_fract_x
 _atom_site_fract_y
 _atom_site_fract_z
 _atom_site_occupancy
  S  S0  1  0.787456  0.680258  0.730353  1
  S  S1  1  0.049702  0.982363  0.961469  1
  S  S2  1  0.212544  0.180258  0.269647  1
  S  S3  1  0.340277  0.923841  0.245731  1
  S  S4  1  0.546660  0.845377  0.950970  1
  S  S5  1  0.276719  0.148860  0.746024  1
  S  S6  1  0.153607  0.406895  0.775079  1
  S  S7  1  0.235521  0.819753  0.134887  1
  S  S8  1  0.242086  0.019165  0.341583  1
  S  S9  1  0.166845  0.558396  0.336174  1
  S  S10  1  0.700395  0.931417  0.960866  1
  S  S11  1  0.246518  0.310331  0.675057  1
  S  S12  1  0.950298  0.482363  0.038531  1
  S  S13  1  0.263420  0.510000  0.882034  1
  S  S14  1  0.846393  0.906895  0.224921  1
  S  S15  1  0.945297  0.680700  0.830366  1
  S  S16  1  0.075345  0.154141  1.001855  1
  S  S17  1  0.833155  0.058396  0.663826  1
  S  S18  1  0.071572  0.764275  0.499117  1
  S  S19  1  0.437746  0.618534  0.449756  1
  S  S20  1  0.659723  0.423841  0.754269  1
  S  S21  1  0.342756  0.826045  0.610796  1
  S  S22  1  0.928428  0.264275  0.500883  1
  S  S23  1  0.562471  0.646810  0.159765  1
  S  S24  1  0.059155  0.592493  0.453884  1
  S  S25  1  0.723281  0.648860  0.253976  1
  S  S26  1  0.795061  0.398506  0.022492  1
  S  S27  1  0.054703  0.180700  0.169634  1
  S  S28  1  0.299605  0.431417  0.039134  1
  S  S29  1  0.940845  0.092493  0.546116  1
  S  S30  1  0.317204  0.489912  0.418659  1
  S  S31  1  0.441522  0.679276  0.613753  1
  S  S32  1  0.575883  0.673842  0.990306  1
  S  S33  1  0.753482  0.810331  0.324943  1
  S  S34  1  0.424117  0.173842  0.009694  1
  S  S35  1  0.757914  0.519165  0.658417  1
  S  S36  1  0.657244  0.326045  0.389204  1
  S  S37  1  0.736580  0.010000  0.117966  1
  S  S38  1  0.183674  0.782500  0.648350  1
  S  S39  1  0.764479  0.319753  0.865113  1
  S  S40  1  0.924655  0.654141  -0.001855  1
  S  S41  1  0.437529  0.146810  0.840235  1
  S  S42  1  0.453340  0.345377  0.049030  1
  S  S43  1  0.682796  0.989912  0.581341  1
  S  S44  1  0.562254  0.118534  0.550244  1
  S  S45  1  0.816326  0.282500  0.351650  1
  S  S46  1  0.558478  0.179276  0.386247  1
  S  S47  1  0.204939  0.898506  0.977508  1
