# generated using pymatgen
data_K2FeCu(CN)6
_symmetry_space_group_name_H-M   'P 1'
_cell_length_a   6.96339079
_cell_length_b   7.02669968
_cell_length_c   7.30500933
_cell_angle_alpha   118.28859511
_cell_angle_beta   117.09127595
_cell_angle_gamma   90.83033551
_symmetry_Int_Tables_number   1
_chemical_formula_structural   K2FeCu(CN)6
_chemical_formula_sum   'K2 Fe1 Cu1 C6 N6'
_cell_volume   267.84569104
_cell_formula_units_Z   1
loop_
 _symmetry_equiv_pos_site_id
 _symmetry_equiv_pos_as_xyz
  1  'x, y, z'
loop_
 _atom_site_type_symbol
 _atom_site_label
 _atom_site_symmetry_multiplicity
 _atom_site_fract_x
 _atom_site_fract_y
 _atom_site_fract_z
 _atom_site_occupancy
  K  K0  1  0.228756  0.722282  0.468861  1
  K  K1  1  0.771244  0.277718  0.531139  1
  Fe  Fe2  1  0.500000  0.500000  0.000000  1
  Cu  Cu3  1  0.000000  0.000000  0.000000  1
  C  C4  1  0.717841  0.726483  0.071533  1
  C  C5  1  0.282159  0.273517  0.928467  1
  C  C6  1  0.373194  0.378606  0.662546  1
  C  C7  1  0.688891  0.313238  0.994326  1
  C  C8  1  0.626806  0.621394  0.337454  1
  C  C9  1  0.311109  0.686762  0.005674  1
  N  N10  1  0.703130  0.692164  0.546579  1
  N  N11  1  0.144380  0.128922  0.880067  1
  N  N12  1  0.191969  0.804020  0.007459  1
  N  N13  1  0.808030  0.195980  0.992541  1
  N  N14  1  0.855620  0.871078  0.119933  1
  N  N15  1  0.296870  0.307836  0.453421  1
