# generated using pymatgen
data_TiSn6F16
_symmetry_space_group_name_H-M   'P 1'
_cell_length_a   7.82172008
_cell_length_b   10.20890881
_cell_length_c   11.10517094
_cell_angle_alpha   90.92505409
_cell_angle_beta   90.00000000
_cell_angle_gamma   112.52478582
_symmetry_Int_Tables_number   1
_chemical_formula_structural   TiSn6F16
_chemical_formula_sum   'Ti2 Sn12 F32'
_cell_volume   818.98882738
_cell_formula_units_Z   2
loop_
 _symmetry_equiv_pos_site_id
 _symmetry_equiv_pos_as_xyz
  1  'x, y, z'
loop_
 _atom_site_type_symbol
 _atom_site_label
 _atom_site_symmetry_multiplicity
 _atom_site_fract_x
 _atom_site_fract_y
 _atom_site_fract_z
 _atom_site_occupancy
  Sn  Sn0  1  0.122282  0.412804  0.180783  1
  Sn  Sn1  1  0.709479  0.587196  0.319217  1
  Sn  Sn2  1  0.877718  0.587196  0.819217  1
  Sn  Sn3  1  0.290521  0.412804  0.680783  1
  Sn  Sn4  1  0.754970  0.294283  0.529926  1
  Sn  Sn5  1  0.460687  0.705717  0.970074  1
  Sn  Sn6  1  0.245030  0.705717  0.470074  1
  Sn  Sn7  1  0.539313  0.294283  0.029926  1
  Sn  Sn8  1  0.247245  0.146512  0.396010  1
  Sn  Sn9  1  0.100734  0.853488  0.103990  1
  Sn  Sn10  1  0.752755  0.853488  0.603990  1
  Sn  Sn11  1  0.899266  0.146512  0.896010  1
  Ti  Ti12  1  0.669486  0.000000  0.250000  1
  Ti  Ti13  1  0.330514  0.000000  0.750000  1
  F  F14  1  0.290100  0.302815  0.253353  1
  F  F15  1  0.987285  0.697185  0.246647  1
  F  F16  1  0.709900  0.697185  0.746647  1
  F  F17  1  0.012715  0.302815  0.753353  1
  F  F18  1  0.864769  0.470828  0.406087  1
  F  F19  1  0.393941  0.529172  0.093913  1
  F  F20  1  0.135231  0.529172  0.593913  1
  F  F21  1  0.606059  0.470828  0.906087  1
  F  F22  1  0.502829  0.315214  0.458593  1
  F  F23  1  0.187615  0.684786  0.041407  1
  F  F24  1  0.497171  0.684786  0.541407  1
  F  F25  1  0.812385  0.315214  0.958593  1
  F  F26  1  0.728354  0.438415  0.659665  1
  F  F27  1  0.289938  0.561585  0.840335  1
  F  F28  1  0.271646  0.561585  0.340335  1
  F  F29  1  0.710062  0.438415  0.159665  1
  F  F30  1  0.861151  0.740536  0.484308  1
  F  F31  1  0.120615  0.259464  0.015692  1
  F  F32  1  0.138849  0.259464  0.515692  1
  F  F33  1  0.879385  0.740536  0.984308  1
  F  F34  1  0.563129  0.133277  0.289815  1
  F  F35  1  0.429853  0.866723  0.210185  1
  F  F36  1  0.436871  0.866723  0.710185  1
  F  F37  1  0.570147  0.133277  0.789815  1
  F  F38  1  0.093220  0.864872  0.706843  1
  F  F39  1  0.228348  0.135128  0.793157  1
  F  F40  1  0.906780  0.135128  0.293157  1
  F  F41  1  0.771652  0.864872  0.206843  1
  F  F42  1  0.365772  0.066798  0.588865  1
  F  F43  1  0.298975  0.933202  0.911135  1
  F  F44  1  0.634228  0.933202  0.411135  1
  F  F45  1  0.701025  0.066798  0.088865  1
