# generated using pymatgen
data_K2Te(WO4)3
_symmetry_space_group_name_H-M   'P 1'
_cell_length_a   7.40762445
_cell_length_b   11.99203182
_cell_length_c   12.85770355
_cell_angle_alpha   90.00000000
_cell_angle_beta   90.05926986
_cell_angle_gamma   90.00000000
_symmetry_Int_Tables_number   1
_chemical_formula_structural   K2Te(WO4)3
_chemical_formula_sum   'K8 Te4 W12 O48'
_cell_volume   1142.18092850
_cell_formula_units_Z   4
loop_
 _symmetry_equiv_pos_site_id
 _symmetry_equiv_pos_as_xyz
  1  'x, y, z'
loop_
 _atom_site_type_symbol
 _atom_site_label
 _atom_site_symmetry_multiplicity
 _atom_site_fract_x
 _atom_site_fract_y
 _atom_site_fract_z
 _atom_site_occupancy
  K  K0  1  0.751210  0.044589  0.416684  1
  K  K1  1  0.748790  0.544589  0.083316  1
  K  K2  1  0.751333  0.437199  0.383136  1
  K  K3  1  0.748667  0.937199  0.116864  1
  K  K4  1  0.251333  0.062801  0.883136  1
  K  K5  1  0.248790  0.955411  0.583316  1
  K  K6  1  0.251210  0.455411  0.916684  1
  K  K7  1  0.248667  0.562801  0.616864  1
  Te  Te8  1  0.249994  0.505893  0.199746  1
  Te  Te9  1  0.750006  0.494107  0.800254  1
  Te  Te10  1  0.749994  0.994107  0.699746  1
  Te  Te11  1  0.250006  0.005893  0.300254  1
  W  W12  1  0.997828  0.752837  0.329630  1
  W  W13  1  0.005710  0.745517  0.827547  1
  W  W14  1  0.248120  0.795240  0.078474  1
  W  W15  1  0.994290  0.254483  0.172453  1
  W  W16  1  0.502172  0.252837  0.170370  1
  W  W17  1  0.505710  0.754483  0.327547  1
  W  W18  1  0.494290  0.245517  0.672453  1
  W  W19  1  0.497828  0.747163  0.829630  1
  W  W20  1  0.251880  0.295240  0.421526  1
  W  W21  1  0.002172  0.247163  0.670370  1
  W  W22  1  0.748120  0.704760  0.578474  1
  W  W23  1  0.751880  0.204760  0.921526  1
  O  O24  1  0.253905  0.441109  0.446511  1
  O  O25  1  0.437655  0.420686  0.132480  1
  O  O26  1  0.439769  0.922115  0.367128  1
  O  O27  1  0.451784  0.887573  0.787805  1
  O  O28  1  0.247860  0.118117  0.403390  1
  O  O29  1  0.747860  0.381883  0.903390  1
  O  O30  1  0.064397  0.762175  0.972557  1
  O  O31  1  0.565827  0.197070  0.814128  1
  O  O32  1  0.751577  0.776532  0.855125  1
  O  O33  1  0.251577  0.723468  0.355125  1
  O  O34  1  0.560231  0.077885  0.632872  1
  O  O35  1  0.746095  0.558891  0.553489  1
  O  O36  1  0.436717  0.764409  0.973547  1
  O  O37  1  0.753905  0.058891  0.946511  1
  O  O38  1  0.048216  0.387573  0.712195  1
  O  O39  1  0.936717  0.735591  0.473547  1
  O  O40  1  0.748423  0.276532  0.644875  1
  O  O41  1  0.252140  0.618117  0.096610  1
  O  O42  1  0.939769  0.577885  0.867128  1
  O  O43  1  0.935603  0.237825  0.027443  1
  O  O44  1  0.565398  0.699495  0.686151  1
  O  O45  1  0.065827  0.302930  0.314128  1
  O  O46  1  0.748295  0.308853  0.197512  1
  O  O47  1  0.060231  0.422115  0.132872  1
  O  O48  1  0.951784  0.612427  0.287805  1
  O  O49  1  0.246095  0.941109  0.053489  1
  O  O50  1  0.248423  0.223468  0.144875  1
  O  O51  1  0.251705  0.691147  0.802488  1
  O  O52  1  0.937655  0.079314  0.632480  1
  O  O53  1  0.548216  0.112427  0.212195  1
  O  O54  1  0.948655  0.113984  0.213830  1
  O  O55  1  0.934173  0.697070  0.685872  1
  O  O56  1  0.564397  0.737825  0.472557  1
  O  O57  1  0.062345  0.920686  0.367520  1
  O  O58  1  0.562345  0.579314  0.867520  1
  O  O59  1  0.752140  0.881883  0.596610  1
  O  O60  1  0.434173  0.802930  0.185872  1
  O  O61  1  0.551345  0.613984  0.286170  1
  O  O62  1  0.434602  0.300505  0.313849  1
  O  O63  1  0.751705  0.808853  0.302488  1
  O  O64  1  0.934602  0.199495  0.813849  1
  O  O65  1  0.063283  0.264409  0.526453  1
  O  O66  1  0.448655  0.386016  0.713830  1
  O  O67  1  0.248295  0.191147  0.697512  1
  O  O68  1  0.563283  0.235591  0.026453  1
  O  O69  1  0.435603  0.262175  0.527443  1
  O  O70  1  0.051345  0.886016  0.786170  1
  O  O71  1  0.065398  0.800505  0.186151  1
