# generated using pymatgen
data_TlFeBr3
_symmetry_space_group_name_H-M   'P 1'
_cell_length_a   12.70140639
_cell_length_b   12.70140627
_cell_length_c   6.03515944
_cell_angle_alpha   90.00000000
_cell_angle_beta   90.00000000
_cell_angle_gamma   120.00000029
_symmetry_Int_Tables_number   1
_chemical_formula_structural   TlFeBr3
_chemical_formula_sum   'Tl6 Fe6 Br18'
_cell_volume   843.18524439
_cell_formula_units_Z   6
loop_
 _symmetry_equiv_pos_site_id
 _symmetry_equiv_pos_as_xyz
  1  'x, y, z'
loop_
 _atom_site_type_symbol
 _atom_site_label
 _atom_site_symmetry_multiplicity
 _atom_site_fract_x
 _atom_site_fract_y
 _atom_site_fract_z
 _atom_site_occupancy
  Tl  Tl0  1  0.671070  0.000000  0.758182  1
  Tl  Tl1  1  0.328930  0.000000  0.258182  1
  Tl  Tl2  1  0.000000  0.328930  0.258182  1
  Tl  Tl3  1  0.328930  0.328930  0.758182  1
  Tl  Tl4  1  1.000000  0.671070  0.758182  1
  Tl  Tl5  1  0.671070  0.671070  0.258182  1
  Fe  Fe6  1  0.333333  0.666667  0.486537  1
  Fe  Fe7  1  0.000000  0.000000  0.062215  1
  Fe  Fe8  1  0.666667  0.333333  0.986537  1
  Fe  Fe9  1  0.333333  0.666667  0.986537  1
  Fe  Fe10  1  0.000000  0.000000  0.562215  1
  Fe  Fe11  1  0.666667  0.333333  0.486537  1
  Br  Br12  1  0.000000  0.828802  0.316908  1
  Br  Br13  1  0.171198  0.000000  0.816908  1
  Br  Br14  1  0.514388  0.333393  0.235740  1
  Br  Br15  1  0.828802  0.000000  0.316908  1
  Br  Br16  1  1.000000  0.171198  0.816908  1
  Br  Br17  1  0.171198  0.171198  0.316908  1
  Br  Br18  1  0.828802  0.828802  0.816908  1
  Br  Br19  1  0.666607  0.180995  0.235740  1
  Br  Br20  1  0.666607  0.485612  0.735740  1
  Br  Br21  1  0.485612  0.666607  0.735740  1
  Br  Br22  1  0.819005  0.333393  0.735740  1
  Br  Br23  1  0.333393  0.819005  0.735740  1
  Br  Br24  1  0.333393  0.514388  0.235740  1
  Br  Br25  1  0.819005  0.485612  0.235740  1
  Br  Br26  1  0.514388  0.180995  0.735740  1
  Br  Br27  1  0.180995  0.514388  0.735740  1
  Br  Br28  1  0.180995  0.666607  0.235740  1
  Br  Br29  1  0.485612  0.819005  0.235740  1
