# generated using pymatgen
data_KZrH2OF5
_symmetry_space_group_name_H-M   'P 1'
_cell_length_a   7.73947223
_cell_length_b   11.21428438
_cell_length_c   12.36381531
_cell_angle_alpha   90.00000000
_cell_angle_beta   90.00000000
_cell_angle_gamma   98.76778862
_symmetry_Int_Tables_number   1
_chemical_formula_structural   KZrH2OF5
_chemical_formula_sum   'K8 Zr8 H16 O8 F40'
_cell_volume   1060.54834421
_cell_formula_units_Z   8
loop_
 _symmetry_equiv_pos_site_id
 _symmetry_equiv_pos_as_xyz
  1  'x, y, z'
loop_
 _atom_site_type_symbol
 _atom_site_label
 _atom_site_symmetry_multiplicity
 _atom_site_fract_x
 _atom_site_fract_y
 _atom_site_fract_z
 _atom_site_occupancy
  K  K0  1  0.202460  0.147062  0.961441  1
  K  K1  1  0.701437  0.879709  0.475885  1
  K  K2  1  0.797540  0.352938  0.461441  1
  K  K3  1  0.797540  0.852938  0.038559  1
  K  K4  1  0.298563  0.120291  0.524115  1
  K  K5  1  0.298563  0.620291  0.975885  1
  K  K6  1  0.202460  0.647062  0.538559  1
  K  K7  1  0.701437  0.379709  0.024115  1
  Zr  Zr8  1  0.024340  0.877776  0.736766  1
  Zr  Zr9  1  0.024340  0.377776  0.763234  1
  Zr  Zr10  1  0.528851  0.607840  0.245050  1
  Zr  Zr11  1  0.975660  0.122224  0.263234  1
  Zr  Zr12  1  0.471149  0.892160  0.745050  1
  Zr  Zr13  1  0.528851  0.107840  0.254950  1
  Zr  Zr14  1  0.975660  0.622224  0.236766  1
  Zr  Zr15  1  0.471149  0.392160  0.754950  1
  H  H16  1  0.745338  0.049097  0.855969  1
  H  H17  1  0.417400  0.877057  0.146200  1
  H  H18  1  0.582600  0.622943  0.646200  1
  H  H19  1  0.248164  0.798968  0.338180  1
  H  H20  1  0.254662  0.450903  0.355969  1
  H  H21  1  0.248164  0.298968  0.161820  1
  H  H22  1  0.928871  0.145662  0.650648  1
  H  H23  1  0.071129  0.354338  0.150648  1
  H  H24  1  0.071129  0.854338  0.349352  1
  H  H25  1  0.745338  0.549097  0.644031  1
  H  H26  1  0.751836  0.701032  0.838180  1
  H  H27  1  0.928871  0.645662  0.849352  1
  H  H28  1  0.582600  0.122943  0.853800  1
  H  H29  1  0.417400  0.377057  0.353800  1
  H  H30  1  0.751836  0.201032  0.661820  1
  H  H31  1  0.254662  0.950903  0.144031  1
  O  O32  1  0.878874  0.222775  0.654730  1
  O  O33  1  0.878874  0.722775  0.845270  1
  O  O34  1  0.617196  0.041103  0.857208  1
  O  O35  1  0.382804  0.458897  0.357208  1
  O  O36  1  0.617196  0.541103  0.642792  1
  O  O37  1  0.121126  0.277225  0.154730  1
  O  O38  1  0.382804  0.958897  0.142792  1
  O  O39  1  0.121126  0.777225  0.345270  1
  F  F40  1  0.060985  0.243455  0.381014  1
  F  F41  1  0.510191  0.753230  0.145157  1
  F  F42  1  0.748202  0.885832  0.724504  1
  F  F43  1  0.749382  0.115709  0.373160  1
  F  F44  1  0.470441  0.702554  0.378126  1
  F  F45  1  0.013750  0.525497  0.860457  1
  F  F46  1  0.718157  0.003371  0.200752  1
  F  F47  1  0.748202  0.385832  0.775496  1
  F  F48  1  0.281843  0.996629  0.799248  1
  F  F49  1  0.036018  0.526737  0.371036  1
  F  F50  1  0.963982  0.473263  0.628964  1
  F  F51  1  0.510191  0.253230  0.354843  1
  F  F52  1  0.445759  0.978506  0.367688  1
  F  F53  1  0.250618  0.384291  0.873160  1
  F  F54  1  0.986250  0.474503  0.139543  1
  F  F55  1  0.986250  0.974503  0.360457  1
  F  F56  1  0.963982  0.973263  0.871036  1
  F  F57  1  0.939015  0.756545  0.618986  1
  F  F58  1  0.718157  0.503371  0.299248  1
  F  F59  1  0.529559  0.797446  0.878126  1
  F  F60  1  0.445759  0.478506  0.132312  1
  F  F61  1  0.554241  0.021494  0.632312  1
  F  F62  1  0.250618  0.884291  0.626840  1
  F  F63  1  0.489809  0.246770  0.854843  1
  F  F64  1  0.470441  0.202554  0.121874  1
  F  F65  1  0.749382  0.615709  0.126840  1
  F  F66  1  0.251798  0.614168  0.224504  1
  F  F67  1  0.211281  0.273605  0.701223  1
  F  F68  1  0.211281  0.773605  0.798777  1
  F  F69  1  0.281843  0.496629  0.700752  1
  F  F70  1  0.939015  0.256545  0.881014  1
  F  F71  1  0.036018  0.026737  0.128964  1
  F  F72  1  0.554241  0.521494  0.867688  1
  F  F73  1  0.529559  0.297446  0.621874  1
  F  F74  1  0.060985  0.743455  0.118986  1
  F  F75  1  0.013750  0.025497  0.639543  1
  F  F76  1  0.788719  0.226395  0.201223  1
  F  F77  1  0.788719  0.726395  0.298777  1
  F  F78  1  0.251798  0.114168  0.275496  1
  F  F79  1  0.489809  0.746770  0.645157  1
