# generated using pymatgen
data_ZnS
_symmetry_space_group_name_H-M   'P 1'
_cell_length_a   25.25338366
_cell_length_b   25.25338365
_cell_length_c   25.25338351
_cell_angle_alpha   8.75481654
_cell_angle_beta   8.75481666
_cell_angle_gamma   8.75481671
_symmetry_Int_Tables_number   1
_chemical_formula_structural   ZnS
_chemical_formula_sum   'Zn8 S8'
_cell_volume   323.74253842
_cell_formula_units_Z   8
loop_
 _symmetry_equiv_pos_site_id
 _symmetry_equiv_pos_as_xyz
  1  'x, y, z'
loop_
 _atom_site_type_symbol
 _atom_site_label
 _atom_site_symmetry_multiplicity
 _atom_site_fract_x
 _atom_site_fract_y
 _atom_site_fract_z
 _atom_site_occupancy
  Zn  Zn0  1  0.291676  0.291676  0.291676  1
  Zn  Zn1  1  0.583358  0.583358  0.583358  1
  Zn  Zn2  1  0.000010  0.000010  0.000010  1
  Zn  Zn3  1  0.875008  0.875008  0.875008  1
  Zn  Zn4  1  0.750012  0.750012  0.750012  1
  Zn  Zn5  1  0.500011  0.500011  0.500011  1
  Zn  Zn6  1  0.125013  0.125013  0.125013  1
  Zn  Zn7  1  0.375026  0.375026  0.375026  1
  S  S8  1  0.156237  0.156237  0.156237  1
  S  S9  1  0.614569  0.614569  0.614569  1
  S  S10  1  0.906256  0.906256  0.906256  1
  S  S11  1  0.781235  0.781235  0.781235  1
  S  S12  1  0.531216  0.531216  0.531216  1
  S  S13  1  0.322883  0.322883  0.322883  1
  S  S14  1  0.406237  0.406237  0.406237  1
  S  S15  1  0.031259  0.031259  0.031259  1
