# generated using pymatgen
data_HgN6
_symmetry_space_group_name_H-M   'P 1'
_cell_length_a   6.45718238
_cell_length_b   6.59590013
_cell_length_c   10.92248198
_cell_angle_alpha   90.00000000
_cell_angle_beta   90.00000000
_cell_angle_gamma   90.00000000
_symmetry_Int_Tables_number   1
_chemical_formula_structural   HgN6
_chemical_formula_sum   'Hg4 N24'
_cell_volume   465.19866653
_cell_formula_units_Z   4
loop_
 _symmetry_equiv_pos_site_id
 _symmetry_equiv_pos_as_xyz
  1  'x, y, z'
loop_
 _atom_site_type_symbol
 _atom_site_label
 _atom_site_symmetry_multiplicity
 _atom_site_fract_x
 _atom_site_fract_y
 _atom_site_fract_z
 _atom_site_occupancy
  Hg  Hg0  1  0.760963  0.753180  0.969641  1
  Hg  Hg1  1  0.239037  0.253180  0.030359  1
  Hg  Hg2  1  0.239037  0.753180  0.469641  1
  Hg  Hg3  1  0.760963  0.253180  0.530359  1
  N  N4  1  0.688414  0.680750  0.690589  1
  N  N5  1  0.400767  0.771424  0.116537  1
  N  N6  1  0.688414  0.180750  0.809411  1
  N  N7  1  0.482488  0.876036  0.038394  1
  N  N8  1  0.179708  0.616405  0.718637  1
  N  N9  1  0.102604  0.121240  0.685790  1
  N  N10  1  0.400767  0.271424  0.383463  1
  N  N11  1  0.038402  0.611966  0.918817  1
  N  N12  1  0.311586  0.680750  0.190589  1
  N  N13  1  0.179708  0.116405  0.781363  1
  N  N14  1  0.820292  0.116405  0.281363  1
  N  N15  1  0.599233  0.771424  0.616537  1
  N  N16  1  0.961598  0.111966  0.081183  1
  N  N17  1  0.517512  0.376036  0.961606  1
  N  N18  1  0.482488  0.376036  0.461606  1
  N  N19  1  0.038402  0.111966  0.581183  1
  N  N20  1  0.517512  0.876036  0.538394  1
  N  N21  1  0.102604  0.621240  0.814210  1
  N  N22  1  0.820292  0.616405  0.218637  1
  N  N23  1  0.897396  0.121240  0.185790  1
  N  N24  1  0.599233  0.271424  0.883463  1
  N  N25  1  0.961598  0.611966  0.418817  1
  N  N26  1  0.311586  0.180750  0.309411  1
  N  N27  1  0.897396  0.621240  0.314210  1
