# generated using pymatgen
data_MgGeH12(OF)6
_symmetry_space_group_name_H-M   'P 1'
_cell_length_a   6.67695303
_cell_length_b   8.56176548
_cell_length_c   9.74186026
_cell_angle_alpha   90.00000000
_cell_angle_beta   90.00000000
_cell_angle_gamma   100.30178453
_symmetry_Int_Tables_number   1
_chemical_formula_structural   MgGeH12(OF)6
_chemical_formula_sum   'Mg2 Ge2 H24 O12 F12'
_cell_volume   547.93045805
_cell_formula_units_Z   2
loop_
 _symmetry_equiv_pos_site_id
 _symmetry_equiv_pos_as_xyz
  1  'x, y, z'
loop_
 _atom_site_type_symbol
 _atom_site_label
 _atom_site_symmetry_multiplicity
 _atom_site_fract_x
 _atom_site_fract_y
 _atom_site_fract_z
 _atom_site_occupancy
  Mg  Mg0  1  0.000000  0.000000  0.000000  1
  Mg  Mg1  1  0.000000  0.500000  0.500000  1
  Ge  Ge2  1  0.500000  0.500000  0.000000  1
  Ge  Ge3  1  0.500000  0.000000  0.500000  1
  F  F4  1  0.449706  0.694512  0.944718  1
  F  F5  1  0.550294  0.805488  0.444718  1
  F  F6  1  0.550294  0.305488  0.055282  1
  F  F7  1  0.449706  0.194512  0.555282  1
  F  F8  1  0.741131  0.532628  0.904565  1
  F  F9  1  0.258869  0.967372  0.404565  1
  F  F10  1  0.258869  0.467372  0.095435  1
  F  F11  1  0.741131  0.032628  0.595435  1
  F  F12  1  0.633143  0.591643  0.153298  1
  F  F13  1  0.366857  0.908357  0.653297  1
  F  F14  1  0.366857  0.408357  0.846703  1
  F  F15  1  0.633143  0.091643  0.346703  1
  O  O16  1  0.750986  0.942652  0.870264  1
  O  O17  1  0.249014  0.557348  0.370264  1
  O  O18  1  0.249014  0.057348  0.129736  1
  O  O19  1  0.750986  0.442652  0.629736  1
  O  O20  1  0.816231  0.910243  0.165019  1
  O  O21  1  0.183769  0.589757  0.665019  1
  O  O22  1  0.183769  0.089757  0.834981  1
  O  O23  1  0.816231  0.410243  0.334981  1
  O  O24  1  0.065548  0.774052  0.969025  1
  O  O25  1  0.934452  0.725948  0.469025  1
  O  O26  1  0.934452  0.225948  0.030975  1
  O  O27  1  0.065548  0.274052  0.530975  1
  H  H28  1  0.750410  0.966138  0.771718  1
  H  H29  1  0.249590  0.533862  0.271718  1
  H  H30  1  0.249590  0.033862  0.228282  1
  H  H31  1  0.750410  0.466138  0.728282  1
  H  H32  1  0.636350  0.856486  0.889329  1
  H  H33  1  0.363650  0.643514  0.389329  1
  H  H34  1  0.363650  0.143514  0.110671  1
  H  H35  1  0.636350  0.356486  0.610671  1
  H  H36  1  0.744097  0.972161  0.226589  1
  H  H37  1  0.255903  0.527839  0.726589  1
  H  H38  1  0.255903  0.027839  0.773411  1
  H  H39  1  0.744097  0.472161  0.273411  1
  H  H40  1  0.747691  0.798978  0.169786  1
  H  H41  1  0.252309  0.701022  0.669786  1
  H  H42  1  0.252309  0.201022  0.830214  1
  H  H43  1  0.747691  0.298978  0.330214  1
  H  H44  1  0.963816  0.682466  0.940760  1
  H  H45  1  0.036184  0.817534  0.440760  1
  H  H46  1  0.036184  0.317534  0.059240  1
  H  H47  1  0.963816  0.182466  0.559240  1
  H  H48  1  0.198752  0.741121  0.971870  1
  H  H49  1  0.801248  0.758879  0.471870  1
  H  H50  1  0.801248  0.258879  0.028130  1
  H  H51  1  0.198752  0.241121  0.528130  1
