# generated using pymatgen
data_SiNi2P
_symmetry_space_group_name_H-M   'P 1'
_cell_length_a   4.97655386
_cell_length_b   5.86653245
_cell_length_c   13.67547957
_cell_angle_alpha   90.00000000
_cell_angle_beta   90.00000000
_cell_angle_gamma   90.00000000
_symmetry_Int_Tables_number   1
_chemical_formula_structural   SiNi2P
_chemical_formula_sum   'Si8 Ni16 P8'
_cell_volume   399.25719474
_cell_formula_units_Z   8
loop_
 _symmetry_equiv_pos_site_id
 _symmetry_equiv_pos_as_xyz
  1  'x, y, z'
loop_
 _atom_site_type_symbol
 _atom_site_label
 _atom_site_symmetry_multiplicity
 _atom_site_fract_x
 _atom_site_fract_y
 _atom_site_fract_z
 _atom_site_occupancy
  Ni  Ni0  1  0.987896  0.803215  0.565291  1
  Ni  Ni1  1  0.487896  0.196785  0.934709  1
  Ni  Ni2  1  0.512104  0.303215  0.434709  1
  Ni  Ni3  1  0.012104  0.696785  0.065291  1
  Ni  Ni4  1  0.012104  0.196785  0.434709  1
  Ni  Ni5  1  0.512104  0.803215  0.065291  1
  Ni  Ni6  1  0.487896  0.696785  0.565291  1
  Ni  Ni7  1  0.987896  0.303215  0.934709  1
  Ni  Ni8  1  0.984257  0.802929  0.322271  1
  Ni  Ni9  1  0.484257  0.197071  0.177729  1
  Ni  Ni10  1  0.515743  0.302929  0.677729  1
  Ni  Ni11  1  0.015743  0.697071  0.822271  1
  Ni  Ni12  1  0.015743  0.197071  0.677729  1
  Ni  Ni13  1  0.515743  0.802929  0.822271  1
  Ni  Ni14  1  0.484257  0.697071  0.322271  1
  Ni  Ni15  1  0.984257  0.302929  0.177729  1
  P  P16  1  0.684482  0.938614  0.680966  1
  P  P17  1  0.184482  0.061386  0.819034  1
  P  P18  1  0.815518  0.438614  0.319034  1
  P  P19  1  0.315518  0.561386  0.180966  1
  P  P20  1  0.315518  0.061386  0.319034  1
  P  P21  1  0.815518  0.938614  0.180966  1
  P  P22  1  0.184482  0.561386  0.680966  1
  P  P23  1  0.684482  0.438614  0.819034  1
  Si  Si24  1  0.819713  0.921330  0.940125  1
  Si  Si25  1  0.319713  0.078670  0.559875  1
  Si  Si26  1  0.680287  0.421330  0.059875  1
  Si  Si27  1  0.180287  0.578670  0.440125  1
  Si  Si28  1  0.180287  0.078670  0.059875  1
  Si  Si29  1  0.680287  0.921330  0.440125  1
  Si  Si30  1  0.319713  0.578670  0.940125  1
  Si  Si31  1  0.819713  0.421330  0.559875  1
