# generated using pymatgen
data_Cs6Na2Nb6H36O37
_symmetry_space_group_name_H-M   'P 1'
_cell_length_a   10.61342355
_cell_length_b   10.61342320
_cell_length_c   10.61342333
_cell_angle_alpha   73.96925462
_cell_angle_beta   73.96925516
_cell_angle_gamma   73.96925108
_symmetry_Int_Tables_number   1
_chemical_formula_structural   Cs6Na2Nb6H36O37
_chemical_formula_sum   'Cs6 Na2 Nb6 H36 O37'
_cell_volume   1078.20629251
_cell_formula_units_Z   1
loop_
 _symmetry_equiv_pos_site_id
 _symmetry_equiv_pos_as_xyz
  1  'x, y, z'
loop_
 _atom_site_type_symbol
 _atom_site_label
 _atom_site_symmetry_multiplicity
 _atom_site_fract_x
 _atom_site_fract_y
 _atom_site_fract_z
 _atom_site_occupancy
  Cs  Cs0  1  0.528431  0.945666  0.272442  1
  Cs  Cs1  1  0.945666  0.272442  0.528431  1
  Cs  Cs2  1  0.272442  0.528431  0.945666  1
  Cs  Cs3  1  0.471569  0.054334  0.727558  1
  Cs  Cs4  1  0.727558  0.471569  0.054334  1
  Cs  Cs5  1  0.054334  0.727558  0.471569  1
  Na  Na6  1  0.282769  0.282769  0.282769  1
  Na  Na7  1  0.717231  0.717231  0.717231  1
  Nb  Nb8  1  0.785030  0.093037  0.939198  1
  Nb  Nb9  1  0.214970  0.906963  0.060802  1
  Nb  Nb10  1  0.093037  0.939198  0.785030  1
  Nb  Nb11  1  0.939198  0.785030  0.093037  1
  Nb  Nb12  1  0.060802  0.214970  0.906963  1
  Nb  Nb13  1  0.906963  0.060802  0.214970  1
  H  H14  1  0.394784  0.785822  0.787836  1
  H  H15  1  0.375932  0.421389  0.667931  1
  H  H16  1  0.712275  0.216263  0.436980  1
  H  H17  1  0.214178  0.212164  0.605216  1
  H  H18  1  0.725861  0.657721  0.454946  1
  H  H19  1  0.684878  0.825885  0.964823  1
  H  H20  1  0.421389  0.667931  0.375932  1
  H  H21  1  0.605216  0.214178  0.212164  1
  H  H22  1  0.667931  0.375932  0.421389  1
  H  H23  1  0.342279  0.545054  0.274139  1
  H  H24  1  0.454946  0.725861  0.657721  1
  H  H25  1  0.578611  0.332069  0.624068  1
  H  H26  1  0.624068  0.578611  0.332069  1
  H  H27  1  0.787836  0.394784  0.785822  1
  H  H28  1  0.436980  0.712275  0.216263  1
  H  H29  1  0.545054  0.274139  0.342279  1
  H  H30  1  0.007796  0.461856  0.198165  1
  H  H31  1  0.332069  0.624068  0.578611  1
  H  H32  1  0.216263  0.436980  0.712275  1
  H  H33  1  0.825885  0.964823  0.684878  1
  H  H34  1  0.992204  0.538144  0.801835  1
  H  H35  1  0.315122  0.174115  0.035177  1
  H  H36  1  0.461856  0.198165  0.007796  1
  H  H37  1  0.035177  0.315122  0.174115  1
  H  H38  1  0.563020  0.287725  0.783737  1
  H  H39  1  0.783737  0.563020  0.287725  1
  H  H40  1  0.538144  0.801835  0.992204  1
  H  H41  1  0.964823  0.684878  0.825885  1
  H  H42  1  0.174115  0.035177  0.315122  1
  H  H43  1  0.198165  0.007796  0.461856  1
  H  H44  1  0.274139  0.342279  0.545054  1
  H  H45  1  0.785822  0.787836  0.394784  1
  H  H46  1  0.212164  0.605216  0.214178  1
  H  H47  1  0.657721  0.454946  0.725861  1
  H  H48  1  0.801835  0.992204  0.538144  1
  H  H49  1  0.287725  0.783737  0.563020  1
  O  O50  1  0.127450  0.125990  0.747384  1
  O  O51  1  0.165907  0.895969  0.620051  1
  O  O52  1  0.629330  0.782812  0.934303  1
  O  O53  1  0.635879  0.291209  0.467047  1
  O  O54  1  0.104031  0.379949  0.834093  1
  O  O55  1  0.708791  0.532953  0.364121  1
  O  O56  1  0.252616  0.872550  0.874010  1
  O  O57  1  0.125990  0.747384  0.127450  1
  O  O58  1  0.532953  0.364121  0.708791  1
  O  O59  1  0.520044  0.260917  0.264728  1
  O  O60  1  0.934303  0.629330  0.782812  1
  O  O61  1  0.747384  0.127450  0.125990  1
  O  O62  1  0.479956  0.739083  0.735272  1
  O  O63  1  0.739083  0.735272  0.479956  1
  O  O64  1  0.467047  0.635879  0.291209  1
  O  O65  1  0.217188  0.065697  0.370670  1
  O  O66  1  0.264728  0.520044  0.260917  1
  O  O67  1  0.900735  0.027370  0.773985  1
  O  O68  1  0.972630  0.226015  0.099265  1
  O  O69  1  0.260917  0.264728  0.520044  1
  O  O70  1  0.872550  0.874010  0.252616  1
  O  O71  1  0.027370  0.773985  0.900735  1
  O  O72  1  0.773985  0.900735  0.027370  1
  O  O73  1  0.834093  0.104031  0.379949  1
  O  O74  1  0.364121  0.708791  0.532953  1
  O  O75  1  0.735272  0.479956  0.739083  1
  O  O76  1  0.782812  0.934303  0.629330  1
  O  O77  1  0.895969  0.620051  0.165907  1
  O  O78  1  0.874010  0.252616  0.872550  1
  O  O79  1  0.291209  0.467047  0.635879  1
  O  O80  1  0.379949  0.834093  0.104031  1
  O  O81  1  0.000000  0.000000  0.000000  1
  O  O82  1  0.370670  0.217188  0.065697  1
  O  O83  1  0.620051  0.165907  0.895969  1
  O  O84  1  0.099265  0.972630  0.226015  1
  O  O85  1  0.065697  0.370670  0.217188  1
  O  O86  1  0.226015  0.099265  0.972630  1
