# generated using pymatgen
data_Li2Ni(SO4)2
_symmetry_space_group_name_H-M   'P 1'
_cell_length_a   9.13962241
_cell_length_b   9.25861506
_cell_length_c   13.74112219
_cell_angle_alpha   90.00000000
_cell_angle_beta   90.00000000
_cell_angle_gamma   90.00000000
_symmetry_Int_Tables_number   1
_chemical_formula_structural   Li2Ni(SO4)2
_chemical_formula_sum   'Li16 Ni8 S16 O64'
_cell_volume   1162.77713575
_cell_formula_units_Z   8
loop_
 _symmetry_equiv_pos_site_id
 _symmetry_equiv_pos_as_xyz
  1  'x, y, z'
loop_
 _atom_site_type_symbol
 _atom_site_label
 _atom_site_symmetry_multiplicity
 _atom_site_fract_x
 _atom_site_fract_y
 _atom_site_fract_z
 _atom_site_occupancy
  Li  Li0  1  0.720258  0.466495  0.373335  1
  Li  Li1  1  0.544431  0.225665  0.872207  1
  Li  Li2  1  0.455569  0.274335  0.372207  1
  Li  Li3  1  0.220258  0.533505  0.126665  1
  Li  Li4  1  0.544431  0.725665  0.627793  1
  Li  Li5  1  0.279742  0.533505  0.626665  1
  Li  Li6  1  0.455569  0.774335  0.127793  1
  Li  Li7  1  0.955569  0.725665  0.127793  1
  Li  Li8  1  0.779742  0.966495  0.626665  1
  Li  Li9  1  0.279742  0.033505  0.873335  1
  Li  Li10  1  0.779742  0.466495  0.873335  1
  Li  Li11  1  0.044431  0.774335  0.627793  1
  Li  Li12  1  0.044431  0.274335  0.872207  1
  Li  Li13  1  0.955569  0.225665  0.372207  1
  Li  Li14  1  0.720258  0.966495  0.126665  1
  Li  Li15  1  0.220258  0.033505  0.373335  1
  Ni  Ni16  1  0.896636  0.361911  0.622044  1
  Ni  Ni17  1  0.603364  0.861911  0.377956  1
  Ni  Ni18  1  0.396636  0.638089  0.877956  1
  Ni  Ni19  1  0.396636  0.138089  0.622044  1
  Ni  Ni20  1  0.103364  0.638089  0.377956  1
  Ni  Ni21  1  0.603364  0.361911  0.122044  1
  Ni  Ni22  1  0.103364  0.138089  0.122044  1
  Ni  Ni23  1  0.896636  0.861911  0.877956  1
  S  S24  1  0.430661  0.074933  0.226929  1
  S  S25  1  0.812940  0.160719  0.991324  1
  S  S26  1  0.312940  0.839281  0.508676  1
  S  S27  1  0.430661  0.574933  0.273071  1
  S  S28  1  0.930661  0.925067  0.273071  1
  S  S29  1  0.312940  0.339281  0.991324  1
  S  S30  1  0.187060  0.839281  0.008676  1
  S  S31  1  0.687060  0.160719  0.491324  1
  S  S32  1  0.569339  0.925067  0.773071  1
  S  S33  1  0.187060  0.339281  0.491324  1
  S  S34  1  0.069339  0.074933  0.726929  1
  S  S35  1  0.069339  0.574933  0.773071  1
  S  S36  1  0.930661  0.425067  0.226929  1
  S  S37  1  0.569339  0.425067  0.726929  1
  S  S38  1  0.812940  0.660719  0.508676  1
  S  S39  1  0.687060  0.660719  0.008676  1
  O  O40  1  0.002097  0.481950  0.847868  1
  O  O41  1  0.997903  0.518050  0.152132  1
  O  O42  1  0.267223  0.074083  0.222132  1
  O  O43  1  0.011431  0.225336  0.721734  1
  O  O44  1  0.267223  0.574083  0.277868  1
  O  O45  1  0.988569  0.274664  0.221734  1
  O  O46  1  0.511431  0.774664  0.778266  1
  O  O47  1  0.271689  0.810560  0.917872  1
  O  O48  1  0.767223  0.425917  0.222132  1
  O  O49  1  0.299105  0.998265  0.522777  1
  O  O50  1  0.757842  0.742631  0.593750  1
  O  O51  1  0.232777  0.074083  0.722132  1
  O  O52  1  0.200895  0.998265  0.022777  1
  O  O53  1  0.771689  0.189440  0.582128  1
  O  O54  1  0.968977  0.204243  0.005515  1
  O  O55  1  0.232777  0.574083  0.777868  1
  O  O56  1  0.997903  0.018050  0.347868  1
  O  O57  1  0.031023  0.795757  0.994485  1
  O  O58  1  0.502097  0.518050  0.652132  1
  O  O59  1  0.497903  0.981950  0.152132  1
  O  O60  1  0.200895  0.498265  0.477223  1
  O  O61  1  0.497903  0.481950  0.347868  1
  O  O62  1  0.011431  0.725336  0.778266  1
  O  O63  1  0.463324  0.523336  0.171090  1
  O  O64  1  0.732777  0.425917  0.722132  1
  O  O65  1  0.531023  0.704243  0.994485  1
  O  O66  1  0.536676  0.976664  0.671090  1
  O  O67  1  0.700895  0.001735  0.477223  1
  O  O68  1  0.968977  0.704243  0.494485  1
  O  O69  1  0.757842  0.242631  0.906250  1
  O  O70  1  0.771689  0.689440  0.917872  1
  O  O71  1  0.002097  0.981950  0.652132  1
  O  O72  1  0.488569  0.725336  0.278266  1
  O  O73  1  0.463324  0.023336  0.328910  1
  O  O74  1  0.468977  0.295757  0.005515  1
  O  O75  1  0.742158  0.242631  0.406250  1
  O  O76  1  0.511431  0.274664  0.721734  1
  O  O77  1  0.271689  0.310560  0.582128  1
  O  O78  1  0.242158  0.257369  0.406250  1
  O  O79  1  0.799105  0.001735  0.977223  1
  O  O80  1  0.531023  0.204243  0.505515  1
  O  O81  1  0.228311  0.310560  0.082128  1
  O  O82  1  0.728311  0.189440  0.082128  1
  O  O83  1  0.036676  0.523336  0.671090  1
  O  O84  1  0.767223  0.925917  0.277868  1
  O  O85  1  0.468977  0.795757  0.494485  1
  O  O86  1  0.257842  0.757369  0.593750  1
  O  O87  1  0.031023  0.295757  0.505515  1
  O  O88  1  0.488569  0.225336  0.221734  1
  O  O89  1  0.242158  0.757369  0.093750  1
  O  O90  1  0.963324  0.976664  0.171090  1
  O  O91  1  0.502097  0.018050  0.847868  1
  O  O92  1  0.299105  0.498265  0.977223  1
  O  O93  1  0.742158  0.742631  0.093750  1
  O  O94  1  0.963324  0.476664  0.328910  1
  O  O95  1  0.228311  0.810560  0.417872  1
  O  O96  1  0.799105  0.501735  0.522777  1
  O  O97  1  0.700895  0.501735  0.022777  1
  O  O98  1  0.036676  0.023336  0.828910  1
  O  O99  1  0.536676  0.476664  0.828910  1
  O  O100  1  0.728311  0.689440  0.417872  1
  O  O101  1  0.732777  0.925917  0.777868  1
  O  O102  1  0.257842  0.257369  0.906250  1
  O  O103  1  0.988569  0.774664  0.278266  1
