# generated using pymatgen
data_BaV2(CuO4)2
_symmetry_space_group_name_H-M   'P 1'
_cell_length_a   8.18405096
_cell_length_b   10.11773163
_cell_length_c   10.11773169
_cell_angle_alpha   80.58568368
_cell_angle_beta   66.14389814
_cell_angle_gamma   66.14390241
_symmetry_Int_Tables_number   1
_chemical_formula_structural   BaV2(CuO4)2
_chemical_formula_sum   'Ba4 V8 Cu8 O32'
_cell_volume   700.74974117
_cell_formula_units_Z   4
loop_
 _symmetry_equiv_pos_site_id
 _symmetry_equiv_pos_as_xyz
  1  'x, y, z'
loop_
 _atom_site_type_symbol
 _atom_site_label
 _atom_site_symmetry_multiplicity
 _atom_site_fract_x
 _atom_site_fract_y
 _atom_site_fract_z
 _atom_site_occupancy
  Ba  Ba0  1  0.750000  0.500000  0.500000  1
  Ba  Ba1  1  0.250000  0.500000  0.500000  1
  Ba  Ba2  1  0.500000  0.000000  0.000000  1
  Ba  Ba3  1  0.000000  0.000000  0.000000  1
  V  V4  1  0.023774  0.351226  0.851226  1
  V  V5  1  0.625000  0.148774  0.351226  1
  V  V6  1  0.125000  0.298453  0.201547  1
  V  V7  1  0.673453  0.201547  0.701547  1
  V  V8  1  0.625000  0.701547  0.798453  1
  V  V9  1  0.576547  0.798453  0.298453  1
  V  V10  1  0.125000  0.851226  0.648774  1
  V  V11  1  0.226226  0.648774  0.148774  1
  Cu  Cu12  1  0.565057  0.333809  0.017832  1
  Cu  Cu13  1  0.832889  0.833809  0.482168  1
  Cu  Cu14  1  0.417111  0.017832  0.666191  1
  Cu  Cu15  1  0.684943  0.482168  0.166191  1
  Cu  Cu16  1  0.333302  0.517832  0.833809  1
  Cu  Cu17  1  0.101133  0.982168  0.333809  1
  Cu  Cu18  1  0.148867  0.166191  0.517832  1
  Cu  Cu19  1  0.916698  0.666191  0.982168  1
  O  O20  1  0.753509  0.814666  0.131356  1
  O  O21  1  0.240350  0.814361  0.136381  1
  O  O22  1  0.115135  0.131356  0.185334  1
  O  O23  1  0.304711  0.685639  0.636381  1
  O  O24  1  0.699531  0.185334  0.868644  1
  O  O25  1  0.554703  0.557578  0.807992  1
  O  O26  1  0.431826  0.868644  0.814666  1
  O  O27  1  0.329727  0.307992  0.057578  1
  O  O28  1  0.405733  0.146684  0.498093  1
  O  O29  1  0.096174  0.498093  0.853316  1
  O  O30  1  0.362281  0.942422  0.307992  1
  O  O31  1  0.191092  0.185639  0.863619  1
  O  O32  1  0.612695  0.057578  0.692008  1
  O  O33  1  0.199490  0.998093  0.646684  1
  O  O34  1  0.009650  0.363619  0.685639  1
  O  O35  1  0.887719  0.192008  0.557578  1
  O  O36  1  0.153826  0.646684  0.001907  1
  O  O37  1  0.058908  0.636381  0.314361  1
  O  O38  1  0.637305  0.807992  0.442422  1
  O  O39  1  0.844267  0.001907  0.353316  1
  O  O40  1  0.447583  0.501907  0.146684  1
  O  O41  1  0.695297  0.692008  0.942422  1
  O  O42  1  0.920273  0.442422  0.192008  1
  O  O43  1  0.050510  0.853316  0.501907  1
  O  O44  1  0.626731  0.314361  0.363619  1
  O  O45  1  0.623269  0.136381  0.185639  1
  O  O46  1  0.134865  0.314666  0.368644  1
  O  O47  1  0.802417  0.353316  0.998093  1
  O  O48  1  0.945289  0.863619  0.814361  1
  O  O49  1  0.818174  0.685334  0.631356  1
  O  O50  1  0.550469  0.631356  0.314666  1
  O  O51  1  0.496491  0.368644  0.685334  1
