# generated using pymatgen
data_AuS5N5Cl4
_symmetry_space_group_name_H-M   'P 1'
_cell_length_a   5.65395565
_cell_length_b   10.83117287
_cell_length_c   12.26711432
_cell_angle_alpha   90.00000000
_cell_angle_beta   90.00000000
_cell_angle_gamma   98.57795625
_symmetry_Int_Tables_number   1
_chemical_formula_structural   AuS5N5Cl4
_chemical_formula_sum   'Au2 S10 N10 Cl8'
_cell_volume   742.82213001
_cell_formula_units_Z   2
loop_
 _symmetry_equiv_pos_site_id
 _symmetry_equiv_pos_as_xyz
  1  'x, y, z'
loop_
 _atom_site_type_symbol
 _atom_site_label
 _atom_site_symmetry_multiplicity
 _atom_site_fract_x
 _atom_site_fract_y
 _atom_site_fract_z
 _atom_site_occupancy
  Au  Au0  1  0.842562  0.704701  0.750000  1
  Au  Au1  1  0.157438  0.295299  0.250000  1
  S  S2  1  0.644173  0.041905  0.750000  1
  S  S3  1  0.412209  0.171247  0.935278  1
  S  S4  1  0.087371  0.347645  0.630657  1
  S  S5  1  0.355827  0.958095  0.250000  1
  S  S6  1  0.587791  0.828753  0.435278  1
  S  S7  1  0.912629  0.652355  0.369343  1
  S  S8  1  0.087371  0.347645  0.869343  1
  S  S9  1  0.412209  0.171247  0.564722  1
  S  S10  1  0.587791  0.828753  0.064722  1
  S  S11  1  0.912629  0.652355  0.130657  1
  N  N12  1  0.437981  0.910357  0.136521  1
  N  N13  1  0.737442  0.751720  0.138271  1
  N  N14  1  0.013308  0.383559  0.750000  1
  N  N15  1  0.737442  0.751720  0.361729  1
  N  N16  1  0.262558  0.248280  0.638271  1
  N  N17  1  0.562019  0.089643  0.636521  1
  N  N18  1  0.262558  0.248280  0.861729  1
  N  N19  1  0.562019  0.089643  0.863479  1
  N  N20  1  0.986692  0.616441  0.250000  1
  N  N21  1  0.437981  0.910357  0.363479  1
  Cl  Cl22  1  0.627001  0.585592  0.615851  1
  Cl  Cl23  1  0.372999  0.414408  0.384149  1
  Cl  Cl24  1  0.943854  0.174382  0.116164  1
  Cl  Cl25  1  0.056146  0.825618  0.616164  1
  Cl  Cl26  1  0.627001  0.585592  0.884149  1
  Cl  Cl27  1  0.056146  0.825618  0.883836  1
  Cl  Cl28  1  0.943854  0.174382  0.383836  1
  Cl  Cl29  1  0.372999  0.414408  0.115851  1
