# generated using pymatgen
data_SiO2
_symmetry_space_group_name_H-M   'P 1'
_cell_length_a   4.68198054
_cell_length_b   4.68626552
_cell_length_c   7.83153660
_cell_angle_alpha   89.98750599
_cell_angle_beta   99.58455235
_cell_angle_gamma   90.00681858
_symmetry_Int_Tables_number   1
_chemical_formula_structural   SiO2
_chemical_formula_sum   'Si4 O8'
_cell_volume   169.43316521
_cell_formula_units_Z   4
loop_
 _symmetry_equiv_pos_site_id
 _symmetry_equiv_pos_as_xyz
  1  'x, y, z'
loop_
 _atom_site_type_symbol
 _atom_site_label
 _atom_site_symmetry_multiplicity
 _atom_site_fract_x
 _atom_site_fract_y
 _atom_site_fract_z
 _atom_site_occupancy
  Si  Si0  1  0.791411  0.774691  0.056157  1
  O  O1  1  0.249912  0.323857  0.750006  1
  O  O2  1  0.499997  1.000003  0.000002  1
  O  O3  1  1.000004  0.499997  0.000002  1
  Si  Si4  1  0.708696  0.774608  0.443872  1
  O  O5  1  0.499969  1.000033  0.500006  1
  O  O6  1  0.750086  0.676147  0.249998  1
  Si  Si7  1  0.291330  0.225357  0.556107  1
  Si  Si8  1  0.208564  0.225278  0.943861  1
  O  O9  1  0.499996  0.499994  0.499997  1
  O  O10  1  1.000030  1.000034  -0.000006  1
  O  O11  1  1.000005  1.000002  0.499997  1
