# generated using pymatgen
data_Ca(AlCl4)2
_symmetry_space_group_name_H-M   'P 1'
_cell_length_a   11.67061473
_cell_length_b   11.67061459
_cell_length_c   12.93287798
_cell_angle_alpha   116.82066546
_cell_angle_beta   116.82066515
_cell_angle_gamma   90.00000115
_symmetry_Int_Tables_number   1
_chemical_formula_structural   Ca(AlCl4)2
_chemical_formula_sum   'Ca4 Al8 Cl32'
_cell_volume   1356.28418182
_cell_formula_units_Z   4
loop_
 _symmetry_equiv_pos_site_id
 _symmetry_equiv_pos_as_xyz
  1  'x, y, z'
loop_
 _atom_site_type_symbol
 _atom_site_label
 _atom_site_symmetry_multiplicity
 _atom_site_fract_x
 _atom_site_fract_y
 _atom_site_fract_z
 _atom_site_occupancy
  Ca  Ca0  1  0.375000  0.625000  0.750000  1
  Ca  Ca1  1  0.625000  0.375000  0.250000  1
  Ca  Ca2  1  0.125000  0.875000  0.250000  1
  Ca  Ca3  1  0.875000  0.125000  0.750000  1
  Al  Al4  1  0.250000  0.224327  0.000000  1
  Al  Al5  1  0.224327  0.750000  0.500000  1
  Al  Al6  1  0.724327  0.750000  0.500000  1
  Al  Al7  1  0.750000  0.275673  0.000000  1
  Al  Al8  1  0.275673  0.250000  0.500000  1
  Al  Al9  1  0.250000  0.724327  0.000000  1
  Al  Al10  1  0.750000  0.775673  0.000000  1
  Al  Al11  1  0.775673  0.250000  0.500000  1
  Cl  Cl12  1  0.581135  0.192614  0.324800  1
  Cl  Cl13  1  0.192614  0.743665  0.824800  1
  Cl  Cl14  1  0.256335  0.367814  0.675200  1
  Cl  Cl15  1  0.600118  0.879440  0.010616  1
  Cl  Cl16  1  0.910498  0.379440  0.010616  1
  Cl  Cl17  1  0.879440  0.410498  0.510616  1
  Cl  Cl18  1  0.418865  0.807386  0.675200  1
  Cl  Cl19  1  0.632186  0.581135  0.824800  1
  Cl  Cl20  1  0.081135  0.132186  0.324800  1
  Cl  Cl21  1  0.620560  0.899882  0.489384  1
  Cl  Cl22  1  0.410498  0.631176  0.010616  1
  Cl  Cl23  1  0.089502  0.620560  0.989384  1
  Cl  Cl24  1  0.120560  0.589502  0.489384  1
  Cl  Cl25  1  0.867814  0.756335  0.175200  1
  Cl  Cl26  1  0.918865  0.867814  0.675200  1
  Cl  Cl27  1  0.132186  0.243665  0.824800  1
  Cl  Cl28  1  0.589502  0.368824  0.989384  1
  Cl  Cl29  1  0.307386  0.918865  0.175200  1
  Cl  Cl30  1  0.692614  0.081135  0.824800  1
  Cl  Cl31  1  0.743665  0.632186  0.324800  1
  Cl  Cl32  1  0.131176  0.910498  0.510616  1
  Cl  Cl33  1  0.868824  0.089502  0.489384  1
  Cl  Cl34  1  0.807386  0.256335  0.175200  1
  Cl  Cl35  1  0.756335  0.307386  0.675200  1
  Cl  Cl36  1  0.899882  0.868824  0.989384  1
  Cl  Cl37  1  0.399882  0.120560  0.989384  1
  Cl  Cl38  1  0.243665  0.692614  0.324800  1
  Cl  Cl39  1  0.379440  0.100118  0.510616  1
  Cl  Cl40  1  0.100118  0.131176  0.010616  1
  Cl  Cl41  1  0.631176  0.600118  0.510616  1
  Cl  Cl42  1  0.367814  0.418865  0.175200  1
  Cl  Cl43  1  0.368824  0.399882  0.489384  1
