# generated using pymatgen
data_MnSiO3
_symmetry_space_group_name_H-M   'P 1'
_cell_length_a   6.80198264
_cell_length_b   7.73116411
_cell_length_c   12.03037933
_cell_angle_alpha   105.76203926
_cell_angle_beta   92.44893142
_cell_angle_gamma   94.59007413
_symmetry_Int_Tables_number   1
_chemical_formula_structural   MnSiO3
_chemical_formula_sum   'Mn10 Si10 O30'
_cell_volume   605.53119759
_cell_formula_units_Z   10
loop_
 _symmetry_equiv_pos_site_id
 _symmetry_equiv_pos_as_xyz
  1  'x, y, z'
loop_
 _atom_site_type_symbol
 _atom_site_label
 _atom_site_symmetry_multiplicity
 _atom_site_fract_x
 _atom_site_fract_y
 _atom_site_fract_z
 _atom_site_occupancy
  Mn  Mn0  1  0.130203  0.316143  0.446662  1
  Mn  Mn1  1  0.655596  0.033144  0.705531  1
  Mn  Mn2  1  0.027634  0.122553  0.147124  1
  Mn  Mn3  1  0.344404  0.966856  0.294469  1
  Mn  Mn4  1  0.208070  0.701570  0.028004  1
  Mn  Mn5  1  0.791930  0.298430  0.971996  1
  Mn  Mn6  1  0.814102  0.490084  0.269122  1
  Mn  Mn7  1  0.185898  0.509916  0.730878  1
  Mn  Mn8  1  0.972366  0.877447  0.852876  1
  Mn  Mn9  1  0.869797  0.683857  0.553338  1
  Si  Si10  1  0.494219  0.223656  0.124120  1
  Si  Si11  1  0.242769  0.255081  0.910928  1
  Si  Si12  1  0.702736  0.451251  0.733835  1
  Si  Si13  1  0.297264  0.548749  0.266165  1
  Si  Si14  1  0.757231  0.744919  0.089072  1
  Si  Si15  1  0.361533  0.739904  0.533565  1
  Si  Si16  1  0.150973  0.075920  0.655275  1
  Si  Si17  1  0.638467  0.260096  0.466435  1
  Si  Si18  1  0.505781  0.776344  0.875880  1
  Si  Si19  1  0.849027  0.924080  0.344725  1
  O  O20  1  0.891306  0.595295  0.732307  1
  O  O21  1  0.419558  0.230919  0.402289  1
  O  O22  1  0.482369  0.426552  0.217869  1
  O  O23  1  0.944630  0.843691  0.039758  1
  O  O24  1  0.337645  0.068994  0.145044  1
  O  O25  1  0.195354  0.598171  0.565572  1
  O  O26  1  0.269108  0.796354  0.869199  1
  O  O27  1  0.262195  0.695752  0.195097  1
  O  O28  1  0.705671  0.861049  0.220950  1
  O  O29  1  0.662355  0.931006  0.854956  1
  O  O30  1  0.294329  0.138951  0.779050  1
  O  O31  1  0.108694  0.404705  0.267693  1
  O  O32  1  0.890137  0.748845  0.387929  1
  O  O33  1  0.283651  0.944906  0.562081  1
  O  O34  1  0.716349  0.055094  0.437919  1
  O  O35  1  0.055370  0.156309  0.960242  1
  O  O36  1  0.109863  0.251155  0.612071  1
  O  O37  1  0.956865  0.954636  0.680165  1
  O  O38  1  0.383644  0.678658  0.393268  1
  O  O39  1  0.444687  0.256633  0.994235  1
  O  O40  1  0.616356  0.321342  0.606732  1
  O  O41  1  0.188931  0.452047  0.904626  1
  O  O42  1  0.730892  0.203646  0.130801  1
  O  O43  1  0.737805  0.304248  0.804903  1
  O  O44  1  0.555313  0.743367  0.005765  1
  O  O45  1  0.811069  0.547953  0.095374  1
  O  O46  1  0.043135  0.045364  0.319835  1
  O  O47  1  0.517631  0.573448  0.782131  1
  O  O48  1  0.804646  0.401829  0.434428  1
  O  O49  1  0.580442  0.769081  0.597711  1
