# generated using pymatgen
data_H8C3S2
_symmetry_space_group_name_H-M   'P 1'
_cell_length_a   7.24930831
_cell_length_b   8.16132868
_cell_length_c   11.08429655
_cell_angle_alpha   90.00000000
_cell_angle_beta   90.00000000
_cell_angle_gamma   109.08616957
_symmetry_Int_Tables_number   1
_chemical_formula_structural   H8C3S2
_chemical_formula_sum   'H32 C12 S8'
_cell_volume   619.74094778
_cell_formula_units_Z   4
loop_
 _symmetry_equiv_pos_site_id
 _symmetry_equiv_pos_as_xyz
  1  'x, y, z'
loop_
 _atom_site_type_symbol
 _atom_site_label
 _atom_site_symmetry_multiplicity
 _atom_site_fract_x
 _atom_site_fract_y
 _atom_site_fract_z
 _atom_site_occupancy
  H  H0  1  0.217650  0.826459  0.710556  1
  H  H1  1  0.494055  0.385913  0.596210  1
  H  H2  1  0.924920  0.397563  0.308289  1
  H  H3  1  0.036126  0.731268  0.176382  1
  H  H4  1  0.741248  0.414030  0.555176  1
  H  H5  1  0.782350  0.673541  0.210556  1
  H  H6  1  0.217650  0.326459  0.789444  1
  H  H7  1  0.036126  0.231268  0.323618  1
  H  H8  1  0.233728  0.543690  0.159011  1
  H  H9  1  0.746861  0.541587  0.986509  1
  H  H10  1  0.258752  0.585970  0.444824  1
  H  H11  1  0.075080  0.102437  0.808289  1
  H  H12  1  0.505945  0.114087  0.096210  1
  H  H13  1  0.766272  0.456310  0.840989  1
  H  H14  1  0.766272  0.956310  0.659011  1
  H  H15  1  0.963874  0.768732  0.676382  1
  H  H16  1  0.494055  0.885913  0.903790  1
  H  H17  1  0.505945  0.614087  0.403790  1
  H  H18  1  0.746861  0.041587  0.513491  1
  H  H19  1  0.924920  0.897563  0.191711  1
  H  H20  1  0.233728  0.043690  0.340989  1
  H  H21  1  0.542510  0.263586  0.473691  1
  H  H22  1  0.542510  0.763586  0.026309  1
  H  H23  1  0.253139  0.458413  0.013491  1
  H  H24  1  0.258752  0.085970  0.055176  1
  H  H25  1  0.963874  0.268732  0.823618  1
  H  H26  1  0.457490  0.236414  0.973691  1
  H  H27  1  0.457490  0.736414  0.526309  1
  H  H28  1  0.741248  0.914030  0.944824  1
  H  H29  1  0.253139  0.958413  0.486509  1
  H  H30  1  0.782350  0.173541  0.289444  1
  H  H31  1  0.075080  0.602437  0.691711  1
  C  C32  1  0.073818  0.228676  0.774633  1
  C  C33  1  0.593445  0.319808  0.562568  1
  C  C34  1  0.593445  0.819808  0.937432  1
  C  C35  1  0.778264  0.575923  0.890946  1
  C  C36  1  0.406555  0.680192  0.437432  1
  C  C37  1  0.926182  0.771324  0.225367  1
  C  C38  1  0.073818  0.728676  0.725367  1
  C  C39  1  0.926182  0.271324  0.274633  1
  C  C40  1  0.778264  0.075923  0.609054  1
  C  C41  1  0.221736  0.924077  0.390946  1
  C  C42  1  0.221736  0.424077  0.109054  1
  C  C43  1  0.406555  0.180192  0.062568  1
  S  S44  1  0.027300  0.722743  0.885725  1
  S  S45  1  0.972700  0.777257  0.385725  1
  S  S46  1  0.589843  0.153564  0.671008  1
  S  S47  1  0.589843  0.653564  0.828992  1
  S  S48  1  0.027300  0.222743  0.614275  1
  S  S49  1  0.410157  0.846436  0.328992  1
  S  S50  1  0.410157  0.346436  0.171008  1
  S  S51  1  0.972700  0.277257  0.114275  1
