# generated using pymatgen
data_Na4UC3O11
_symmetry_space_group_name_H-M   'P 1'
_cell_length_a   9.42685155
_cell_length_b   9.43992929
_cell_length_c   13.21495445
_cell_angle_alpha   89.34760259
_cell_angle_beta   89.57504866
_cell_angle_gamma   60.02252439
_symmetry_Int_Tables_number   1
_chemical_formula_structural   Na4UC3O11
_chemical_formula_sum   'Na16 U4 C12 O44'
_cell_volume   1018.59425140
_cell_formula_units_Z   4
loop_
 _symmetry_equiv_pos_site_id
 _symmetry_equiv_pos_as_xyz
  1  'x, y, z'
loop_
 _atom_site_type_symbol
 _atom_site_label
 _atom_site_symmetry_multiplicity
 _atom_site_fract_x
 _atom_site_fract_y
 _atom_site_fract_z
 _atom_site_occupancy
  Na  Na0  1  0.691970  0.437750  0.133083  1
  Na  Na1  1  0.305199  0.129512  0.380457  1
  Na  Na2  1  0.002724  0.999531  0.749901  1
  Na  Na3  1  0.871027  0.693086  0.119967  1
  Na  Na4  1  0.563911  0.126907  0.877899  1
  Na  Na5  1  0.872330  0.436336  0.625063  1
  Na  Na6  1  0.000000  0.000000  0.000000  1
  Na  Na7  1  0.308030  0.562250  0.866917  1
  Na  Na8  1  0.127670  0.563664  0.374937  1
  Na  Na9  1  0.997276  0.000469  0.250099  1
  Na  Na10  1  0.128973  0.306914  0.880033  1
  Na  Na11  1  0.436089  0.873093  0.122101  1
  Na  Na12  1  0.436651  0.692220  0.631444  1
  Na  Na13  1  0.694801  0.870488  0.619543  1
  Na  Na14  1  0.000000  0.000000  0.500000  1
  Na  Na15  1  0.563349  0.307780  0.368556  1
  U  U16  1  0.335322  0.331910  0.630071  1
  U  U17  1  0.331650  0.334306  0.131001  1
  U  U18  1  0.668350  0.665694  0.868999  1
  U  U19  1  0.664678  0.668090  0.369929  1
  C  C20  1  0.255420  0.075463  0.618412  1
  C  C21  1  0.671730  0.252698  0.629615  1
  C  C22  1  0.669322  0.077782  0.131640  1
  C  C23  1  0.925009  0.745952  0.876237  1
  C  C24  1  0.744580  0.924537  0.381588  1
  C  C25  1  0.252327  0.670422  0.132184  1
  C  C26  1  0.328270  0.747302  0.370385  1
  C  C27  1  0.921237  0.330911  0.363309  1
  C  C28  1  0.747673  0.329578  0.867816  1
  C  C29  1  0.078763  0.669089  0.636691  1
  C  C30  1  0.330678  0.922218  0.868360  1
  C  C31  1  0.074991  0.254048  0.123763  1
  O  O32  1  0.954404  0.594593  0.880904  1
  O  O33  1  0.179591  0.784790  0.378237  1
  O  O34  1  0.333431  0.339676  0.990077  1
  O  O35  1  0.377984  0.768255  0.849418  1
  O  O36  1  0.329244  0.327683  0.272050  1
  O  O37  1  0.337133  0.344510  0.489463  1
  O  O38  1  0.035851  0.783692  0.883758  1
  O  O39  1  0.045596  0.405407  0.119096  1
  O  O40  1  0.662867  0.655490  0.510537  1
  O  O41  1  0.332930  0.319100  0.771053  1
  O  O42  1  0.406681  0.046566  0.613403  1
  O  O43  1  0.181584  0.033184  0.872910  1
  O  O44  1  0.856347  0.376393  0.851989  1
  O  O45  1  0.949875  0.451376  0.378767  1
  O  O46  1  0.782026  0.035869  0.385369  1
  O  O47  1  0.050125  0.548624  0.621233  1
  O  O48  1  0.375147  0.856796  0.360900  1
  O  O49  1  0.853993  0.768512  0.373028  1
  O  O50  1  0.402933  0.548577  0.123260  1
  O  O51  1  0.233267  0.620474  0.656881  1
  O  O52  1  0.820409  0.215210  0.621763  1
  O  O53  1  0.230826  0.145227  0.135683  1
  O  O54  1  0.547808  0.050162  0.116786  1
  O  O55  1  0.968761  0.818261  0.631549  1
  O  O56  1  0.214639  0.819120  0.125314  1
  O  O57  1  0.666569  0.660324  0.009923  1
  O  O58  1  0.667070  0.680900  0.228947  1
  O  O59  1  0.964149  0.216308  0.116242  1
  O  O60  1  0.624853  0.143204  0.639100  1
  O  O61  1  0.452192  0.949838  0.883214  1
  O  O62  1  0.622016  0.231745  0.150582  1
  O  O63  1  0.146007  0.231488  0.626972  1
  O  O64  1  0.785361  0.180880  0.874686  1
  O  O65  1  0.031239  0.181739  0.368451  1
  O  O66  1  0.450290  0.595961  0.371862  1
  O  O67  1  0.766733  0.379526  0.343119  1
  O  O68  1  0.670756  0.672317  0.727950  1
  O  O69  1  0.549710  0.404039  0.628138  1
  O  O70  1  0.769174  0.854773  0.864317  1
  O  O71  1  0.597067  0.451423  0.876740  1
  O  O72  1  0.143653  0.623607  0.148011  1
  O  O73  1  0.217974  0.964131  0.614631  1
  O  O74  1  0.593319  0.953434  0.386597  1
  O  O75  1  0.818416  0.966816  0.127090  1
