# generated using pymatgen
data_Ba2Ti2Si2O9F2
_symmetry_space_group_name_H-M   'P 1'
_cell_length_a   8.87257752
_cell_length_b   10.95090143
_cell_length_c   19.04214130
_cell_angle_alpha   90.00000000
_cell_angle_beta   90.00000000
_cell_angle_gamma   90.00000000
_symmetry_Int_Tables_number   1
_chemical_formula_structural   Ba2Ti2Si2O9F2
_chemical_formula_sum   'Ba16 Ti16 Si16 O72 F16'
_cell_volume   1850.18627859
_cell_formula_units_Z   8
loop_
 _symmetry_equiv_pos_site_id
 _symmetry_equiv_pos_as_xyz
  1  'x, y, z'
loop_
 _atom_site_type_symbol
 _atom_site_label
 _atom_site_symmetry_multiplicity
 _atom_site_fract_x
 _atom_site_fract_y
 _atom_site_fract_z
 _atom_site_occupancy
  Ba  Ba0  1  0.746946  0.699218  0.781338  1
  Ba  Ba1  1  0.246946  0.699218  0.718662  1
  Ba  Ba2  1  0.256473  0.503745  0.027158  1
  Ba  Ba3  1  0.756473  0.996255  0.972842  1
  Ba  Ba4  1  0.253054  0.199218  0.718662  1
  Ba  Ba5  1  0.753054  0.199218  0.781338  1
  Ba  Ba6  1  0.253054  0.300782  0.218662  1
  Ba  Ba7  1  0.756473  0.503745  0.472842  1
  Ba  Ba8  1  0.743527  0.003745  0.472842  1
  Ba  Ba9  1  0.753054  0.300782  0.281338  1
  Ba  Ba10  1  0.746946  0.800782  0.281338  1
  Ba  Ba11  1  0.243527  0.003745  0.027158  1
  Ba  Ba12  1  0.246946  0.800782  0.218662  1
  Ba  Ba13  1  0.743527  0.496255  0.972842  1
  Ba  Ba14  1  0.243527  0.496255  0.527158  1
  Ba  Ba15  1  0.256473  0.996255  0.527158  1
  Ti  Ti16  1  0.050484  0.237624  0.922743  1
  Ti  Ti17  1  0.969064  0.540623  0.162287  1
  Ti  Ti18  1  0.969064  0.959377  0.662287  1
  Ti  Ti19  1  0.949516  0.762376  0.077257  1
  Ti  Ti20  1  0.030936  0.459377  0.837713  1
  Ti  Ti21  1  0.449516  0.762376  0.422743  1
  Ti  Ti22  1  0.550484  0.237624  0.577257  1
  Ti  Ti23  1  0.449516  0.737624  0.922743  1
  Ti  Ti24  1  0.550484  0.262376  0.077257  1
  Ti  Ti25  1  0.530936  0.040623  0.162287  1
  Ti  Ti26  1  0.530936  0.459377  0.662287  1
  Ti  Ti27  1  0.030936  0.040623  0.337713  1
  Ti  Ti28  1  0.949516  0.737624  0.577257  1
  Ti  Ti29  1  0.469064  0.540623  0.337713  1
  Ti  Ti30  1  0.050484  0.262376  0.422743  1
  Ti  Ti31  1  0.469064  0.959377  0.837713  1
  Si  Si32  1  0.583976  0.517473  0.168788  1
  Si  Si33  1  0.416024  0.482527  0.831212  1
  Si  Si34  1  0.083976  0.982527  0.831212  1
  Si  Si35  1  0.440330  0.258596  0.409916  1
  Si  Si36  1  0.559670  0.741404  0.590084  1
  Si  Si37  1  0.440330  0.241404  0.909916  1
  Si  Si38  1  0.916024  0.482527  0.668788  1
  Si  Si39  1  0.059670  0.758596  0.409916  1
  Si  Si40  1  0.059670  0.741404  0.909916  1
  Si  Si41  1  0.940330  0.258596  0.090084  1
  Si  Si42  1  0.083976  0.517473  0.331212  1
  Si  Si43  1  0.940330  0.241404  0.590084  1
  Si  Si44  1  0.916024  0.017473  0.168788  1
  Si  Si45  1  0.416024  0.017473  0.331212  1
  Si  Si46  1  0.583976  0.982527  0.668788  1
  Si  Si47  1  0.559670  0.758596  0.090084  1
  O  O48  1  0.733034  0.996684  0.174585  1
  O  O49  1  0.980705  0.808458  0.977222  1
  O  O50  1  0.970147  0.620992  0.882592  1
  O  O51  1  0.519295  0.191542  0.477222  1
  O  O52  1  0.493165  0.970738  0.258297  1
  O  O53  1  0.970147  0.879008  0.382592  1
  O  O54  1  0.233034  0.996684  0.325415  1
  O  O55  1  0.953784  0.790405  0.677584  1
  O  O56  1  0.766966  0.496684  0.174585  1
  O  O57  1  0.262885  0.285144  0.429134  1
  O  O58  1  0.762885  0.214856  0.570866  1
  O  O59  1  0.470147  0.620992  0.617408  1
  O  O60  1  0.737115  0.785144  0.070866  1
  O  O61  1  0.506835  0.470738  0.241703  1
  O  O62  1  0.529853  0.120992  0.882592  1
  O  O63  1  0.446810  0.166398  0.339766  1
  O  O64  1  0.546216  0.209595  0.177584  1
  O  O65  1  0.980705  0.691542  0.477222  1
  O  O66  1  0.461547  0.905127  0.937092  1
  O  O67  1  0.453784  0.790405  0.822416  1
  O  O68  1  0.538453  0.405127  0.562908  1
  O  O69  1  0.538453  0.094873  0.062908  1
  O  O70  1  0.053190  0.666398  0.339766  1
  O  O71  1  0.029853  0.120992  0.617408  1
  O  O72  1  0.480705  0.691542  0.022778  1
  O  O73  1  0.053190  0.833602  0.839766  1
  O  O74  1  0.046216  0.209595  0.322416  1
  O  O75  1  0.019295  0.308458  0.522778  1
  O  O76  1  0.029853  0.379008  0.117408  1
  O  O77  1  0.262885  0.214856  0.929134  1
  O  O78  1  0.946810  0.166398  0.160234  1
  O  O79  1  0.737115  0.714856  0.570866  1
  O  O80  1  0.493165  0.529262  0.758297  1
  O  O81  1  0.977690  0.555367  0.600479  1
  O  O82  1  0.553190  0.666398  0.160234  1
  O  O83  1  0.046216  0.290405  0.822416  1
  O  O84  1  0.266966  0.496684  0.325415  1
  O  O85  1  0.477690  0.555367  0.899521  1
  O  O86  1  0.762885  0.285144  0.070866  1
  O  O87  1  0.266966  0.003316  0.825415  1
  O  O88  1  0.733034  0.503316  0.674585  1
  O  O89  1  0.470147  0.879008  0.117408  1
  O  O90  1  0.766966  0.003316  0.674585  1
  O  O91  1  0.461547  0.594873  0.437092  1
  O  O92  1  0.553190  0.833602  0.660234  1
  O  O93  1  0.977690  0.944633  0.100479  1
  O  O94  1  0.038453  0.094873  0.437092  1
  O  O95  1  0.961547  0.905127  0.562908  1
  O  O96  1  0.022310  0.055367  0.899521  1
  O  O97  1  0.237115  0.785144  0.429134  1
  O  O98  1  0.522310  0.444633  0.100479  1
  O  O99  1  0.953784  0.709595  0.177584  1
  O  O100  1  0.961547  0.594873  0.062908  1
  O  O101  1  0.522310  0.055367  0.600479  1
  O  O102  1  0.480705  0.808458  0.522778  1
  O  O103  1  0.237115  0.714856  0.929134  1
  O  O104  1  0.993165  0.529262  0.741703  1
  O  O105  1  0.019295  0.191542  0.022778  1
  O  O106  1  0.022310  0.444633  0.399521  1
  O  O107  1  0.946810  0.333602  0.660234  1
  O  O108  1  0.529853  0.379008  0.382592  1
  O  O109  1  0.006835  0.470738  0.258297  1
  O  O110  1  0.477690  0.944633  0.399521  1
  O  O111  1  0.038453  0.405127  0.937092  1
  O  O112  1  0.233034  0.503316  0.825415  1
  O  O113  1  0.006835  0.029262  0.758297  1
  O  O114  1  0.519295  0.308458  0.977222  1
  O  O115  1  0.546216  0.290405  0.677584  1
  O  O116  1  0.453784  0.709595  0.322416  1
  O  O117  1  0.993165  0.970738  0.241703  1
  O  O118  1  0.506835  0.029262  0.741703  1
  O  O119  1  0.446810  0.333602  0.839766  1
  F  F120  1  0.822812  0.271694  0.416654  1
  F  F121  1  0.299016  0.057967  0.164026  1
  F  F122  1  0.799016  0.057967  0.335974  1
  F  F123  1  0.200984  0.557967  0.164026  1
  F  F124  1  0.677188  0.728306  0.916654  1
  F  F125  1  0.822812  0.228306  0.916654  1
  F  F126  1  0.299016  0.442033  0.664026  1
  F  F127  1  0.322812  0.228306  0.583346  1
  F  F128  1  0.700984  0.557967  0.335974  1
  F  F129  1  0.200984  0.942033  0.664026  1
  F  F130  1  0.322812  0.271694  0.083346  1
  F  F131  1  0.700984  0.942033  0.835974  1
  F  F132  1  0.677188  0.771694  0.416654  1
  F  F133  1  0.177188  0.771694  0.083346  1
  F  F134  1  0.799016  0.442033  0.835974  1
  F  F135  1  0.177188  0.728306  0.583346  1
