# generated using pymatgen
data_K2In(PSe4)2
_symmetry_space_group_name_H-M   'P 1'
_cell_length_a   11.39400333
_cell_length_b   13.03766847
_cell_length_c   12.92466432
_cell_angle_alpha   81.72957138
_cell_angle_beta   63.84600358
_cell_angle_gamma   70.95327921
_symmetry_Int_Tables_number   1
_chemical_formula_structural   K2In(PSe4)2
_chemical_formula_sum   'K8 In4 P8 Se32'
_cell_volume   1629.04259139
_cell_formula_units_Z   4
loop_
 _symmetry_equiv_pos_site_id
 _symmetry_equiv_pos_as_xyz
  1  'x, y, z'
loop_
 _atom_site_type_symbol
 _atom_site_label
 _atom_site_symmetry_multiplicity
 _atom_site_fract_x
 _atom_site_fract_y
 _atom_site_fract_z
 _atom_site_occupancy
  K  K0  1  0.753668  0.928232  0.118737  1
  K  K1  1  0.641523  0.653292  0.400266  1
  K  K2  1  0.207138  0.677923  0.398785  1
  K  K3  1  0.041790  0.153292  0.599734  1
  K  K4  1  0.872405  0.428232  0.881263  1
  K  K5  1  0.149211  0.982659  0.108608  1
  K  K6  1  0.257819  0.482659  0.891392  1
  K  K7  1  0.605923  0.177923  0.601215  1
  In  In8  1  0.866462  0.809879  0.756876  1
  In  In9  1  0.264611  0.316311  0.235520  1
  In  In10  1  0.623338  0.309879  0.243124  1
  In  In11  1  0.500132  0.816311  0.764480  1
  P  P12  1  0.544910  0.795066  0.051973  1
  P  P13  1  0.128456  0.866458  0.834555  1
  P  P14  1  0.825446  0.830412  0.467796  1
  P  P15  1  0.922386  0.257909  0.326099  1
  P  P16  1  0.293242  0.330412  0.532204  1
  P  P17  1  0.596882  0.295066  0.948027  1
  P  P18  1  0.963012  0.366458  0.165445  1
  P  P19  1  0.248485  0.757909  0.673901  1
  Se  Se20  1  0.770725  0.713015  0.973483  1
  Se  Se21  1  0.379086  0.149087  0.489212  1
  Se  Se22  1  0.600409  0.903603  0.538040  1
  Se  Se23  1  0.521429  0.477632  0.986502  1
  Se  Se24  1  0.818421  0.150132  0.301626  1
  Se  Se25  1  0.466980  0.401128  0.463283  1
  Se  Se26  1  0.479469  0.157175  0.285164  1
  Se  Se27  1  0.936713  0.968392  0.818906  1
  Se  Se28  1  0.604960  0.967689  0.809114  1
  Se  Se29  1  0.744208  0.213015  0.026517  1
  Se  Se30  1  0.120048  0.650132  0.698374  1
  Se  Se31  1  0.083371  0.266293  0.012380  1
  Se  Se32  1  0.930676  0.813239  0.280278  1
  Se  Se33  1  0.507931  0.977632  0.013498  1
  Se  Se34  1  0.286650  0.857057  0.520978  1
  Se  Se35  1  0.253009  0.977583  0.805897  1
  Se  Se36  1  0.435111  0.654090  0.697320  1
  Se  Se37  1  0.701428  0.301847  0.759963  1
  Se  Se38  1  0.408208  0.243896  0.006521  1
  Se  Se39  1  0.132431  0.154090  0.302680  1
  Se  Se40  1  0.210954  0.313239  0.719722  1
  Se  Se41  1  0.868298  0.649087  0.510788  1
  Se  Se42  1  0.461391  0.801847  0.240037  1
  Se  Se43  1  0.095751  0.766293  0.987620  1
  Se  Se44  1  0.058906  0.477583  0.194103  1
  Se  Se45  1  0.755619  0.468392  0.181094  1
  Se  Se46  1  0.414074  0.467689  0.190886  1
  Se  Se47  1  0.414729  0.743896  0.993479  1
  Se  Se48  1  0.764633  0.657175  0.714836  1
  Se  Se49  1  0.807628  0.357057  0.479022  1
  Se  Se50  1  0.930263  0.901128  0.536717  1
  Se  Se51  1  0.138450  0.403603  0.461960  1
