# generated using pymatgen
data_KMoP2O7
_symmetry_space_group_name_H-M   'P 1'
_cell_length_a   7.56242095
_cell_length_b   8.54249286
_cell_length_c   10.62912244
_cell_angle_alpha   90.00000000
_cell_angle_beta   90.00000000
_cell_angle_gamma   106.98818468
_symmetry_Int_Tables_number   1
_chemical_formula_structural   KMoP2O7
_chemical_formula_sum   'K4 Mo4 P8 O28'
_cell_volume   656.69932353
_cell_formula_units_Z   4
loop_
 _symmetry_equiv_pos_site_id
 _symmetry_equiv_pos_as_xyz
  1  'x, y, z'
loop_
 _atom_site_type_symbol
 _atom_site_label
 _atom_site_symmetry_multiplicity
 _atom_site_fract_x
 _atom_site_fract_y
 _atom_site_fract_z
 _atom_site_occupancy
  K  K0  1  0.820653  0.939225  0.171871  1
  K  K1  1  0.820653  0.439225  0.328129  1
  K  K2  1  0.179347  0.060775  0.828129  1
  K  K3  1  0.179347  0.560775  0.671871  1
  Mo  Mo4  1  0.765154  0.741162  0.601026  1
  Mo  Mo5  1  0.234846  0.258838  0.398974  1
  Mo  Mo6  1  0.765154  0.241162  0.898974  1
  Mo  Mo7  1  0.234846  0.758838  0.101026  1
  P  P8  1  0.559162  0.804834  0.862521  1
  P  P9  1  0.440838  0.195166  0.137479  1
  P  P10  1  0.871914  0.175726  0.601397  1
  P  P11  1  0.440838  0.695166  0.362521  1
  P  P12  1  0.128086  0.824274  0.398603  1
  P  P13  1  0.559162  0.304834  0.637479  1
  P  P14  1  0.871914  0.675726  0.898603  1
  P  P15  1  0.128086  0.324274  0.101397  1
  O  O16  1  0.541649  0.760534  0.721675  1
  O  O17  1  0.365839  0.758975  0.920086  1
  O  O18  1  0.458351  0.739466  0.221675  1
  O  O19  1  0.365839  0.258975  0.579914  1
  O  O20  1  0.458351  0.239466  0.278325  1
  O  O21  1  0.928832  0.753534  0.768229  1
  O  O22  1  0.071168  0.746466  0.268229  1
  O  O23  1  0.336015  0.316226  0.070588  1
  O  O24  1  0.322119  0.522565  0.394057  1
  O  O25  1  0.663985  0.183774  0.570588  1
  O  O26  1  0.677881  0.977435  0.894057  1
  O  O27  1  0.634161  0.741025  0.420086  1
  O  O28  1  0.131816  0.501159  0.096937  1
  O  O29  1  0.663985  0.683774  0.929412  1
  O  O30  1  0.928832  0.253534  0.731771  1
  O  O31  1  0.131816  0.001159  0.403063  1
  O  O32  1  0.996145  0.282720  0.500731  1
  O  O33  1  0.003855  0.717280  0.499269  1
  O  O34  1  0.677881  0.477435  0.605943  1
  O  O35  1  0.071168  0.246466  0.231771  1
  O  O36  1  0.996145  0.782720  0.999269  1
  O  O37  1  0.541649  0.260534  0.778325  1
  O  O38  1  0.003855  0.217280  0.000731  1
  O  O39  1  0.634161  0.241025  0.079914  1
  O  O40  1  0.336015  0.816226  0.429412  1
  O  O41  1  0.868184  0.998841  0.596937  1
  O  O42  1  0.322119  0.022565  0.105943  1
  O  O43  1  0.868184  0.498841  0.903063  1
