# generated using pymatgen
data_Li3BN2
_symmetry_space_group_name_H-M   'P 1'
_cell_length_a   5.14872013
_cell_length_b   6.75060384
_cell_length_c   7.09604283
_cell_angle_alpha   90.00000000
_cell_angle_beta   90.00000000
_cell_angle_gamma   111.95013238
_symmetry_Int_Tables_number   1
_chemical_formula_structural   Li3BN2
_chemical_formula_sum   'Li12 B4 N8'
_cell_volume   228.75812200
_cell_formula_units_Z   4
loop_
 _symmetry_equiv_pos_site_id
 _symmetry_equiv_pos_as_xyz
  1  'x, y, z'
loop_
 _atom_site_type_symbol
 _atom_site_label
 _atom_site_symmetry_multiplicity
 _atom_site_fract_x
 _atom_site_fract_y
 _atom_site_fract_z
 _atom_site_occupancy
  Li  Li0  1  0.248436  0.497766  0.481710  1
  Li  Li1  1  0.251564  0.002234  0.981710  1
  Li  Li2  1  0.751564  0.502234  0.518290  1
  Li  Li3  1  0.748436  0.997766  0.018290  1
  Li  Li4  1  0.126104  0.375502  0.012411  1
  Li  Li5  1  0.373896  0.124498  0.512411  1
  Li  Li6  1  0.873896  0.624498  0.987589  1
  Li  Li7  1  0.626104  0.875502  0.487589  1
  Li  Li8  1  0.572005  0.313634  0.208191  1
  Li  Li9  1  0.927995  0.186366  0.708191  1
  Li  Li10  1  0.427995  0.686366  0.791809  1
  Li  Li11  1  0.072005  0.813634  0.291809  1
  B  B12  1  0.961376  0.176310  0.320180  1
  B  B13  1  0.538624  0.323690  0.820180  1
  B  B14  1  0.038624  0.823690  0.679820  1
  B  B15  1  0.461376  0.676310  0.179820  1
  N  N16  1  0.784635  0.219470  0.438103  1
  N  N17  1  0.715365  0.280530  0.938103  1
  N  N18  1  0.215365  0.780530  0.561897  1
  N  N19  1  0.284635  0.719470  0.061897  1
  N  N20  1  0.140213  0.133794  0.204506  1
  N  N21  1  0.359787  0.366206  0.704506  1
  N  N22  1  0.859787  0.866206  0.795494  1
  N  N23  1  0.640213  0.633794  0.295494  1
