# generated using pymatgen
data_CsAgSb4S7
_symmetry_space_group_name_H-M   'P 1'
_cell_length_a   8.98063286
_cell_length_b   12.53954332
_cell_length_c   13.97243504
_cell_angle_alpha   96.83471528
_cell_angle_beta   108.74577627
_cell_angle_gamma   90.00000158
_symmetry_Int_Tables_number   1
_chemical_formula_structural   CsAgSb4S7
_chemical_formula_sum   'Cs4 Ag4 Sb16 S28'
_cell_volume   1478.19826295
_cell_formula_units_Z   4
loop_
 _symmetry_equiv_pos_site_id
 _symmetry_equiv_pos_as_xyz
  1  'x, y, z'
loop_
 _atom_site_type_symbol
 _atom_site_label
 _atom_site_symmetry_multiplicity
 _atom_site_fract_x
 _atom_site_fract_y
 _atom_site_fract_z
 _atom_site_occupancy
  Cs  Cs0  1  0.000000  0.500000  0.500000  1
  Cs  Cs1  1  0.664507  0.750000  0.000000  1
  Cs  Cs2  1  0.500000  0.000000  0.500000  1
  Cs  Cs3  1  0.335493  0.250000  1.000000  1
  Ag  Ag4  1  0.359319  0.687079  0.515744  1
  Ag  Ag5  1  0.640681  0.312921  0.484256  1
  Ag  Ag6  1  0.156425  0.187079  0.515744  1
  Ag  Ag7  1  0.843575  0.812921  0.484256  1
  Sb  Sb8  1  0.044772  0.823780  0.295519  1
  Sb  Sb9  1  0.272767  0.938624  0.717014  1
  Sb  Sb10  1  0.444247  0.438624  0.717014  1
  Sb  Sb11  1  0.250747  0.323780  0.295519  1
  Sb  Sb12  1  0.872904  0.423657  0.853644  1
  Sb  Sb13  1  0.213307  0.625365  0.840857  1
  Sb  Sb14  1  0.727233  0.061376  0.282986  1
  Sb  Sb15  1  0.749253  0.676220  0.704481  1
  Sb  Sb16  1  0.555753  0.561376  0.282986  1
  Sb  Sb17  1  0.980740  0.923657  0.853644  1
  Sb  Sb18  1  0.127096  0.576343  0.146356  1
  Sb  Sb19  1  0.372450  0.874635  0.159143  1
  Sb  Sb20  1  0.955228  0.176220  0.704481  1
  Sb  Sb21  1  0.786693  0.374635  0.159143  1
  Sb  Sb22  1  0.627550  0.125365  0.840857  1
  Sb  Sb23  1  0.019260  0.076343  0.146356  1
  S  S24  1  0.027612  0.706012  0.697980  1
  S  S25  1  0.066726  0.026012  0.328455  1
  S  S26  1  0.728552  0.048425  0.100933  1
  S  S27  1  0.646756  0.696025  0.523013  1
  S  S28  1  0.123742  0.803975  0.476987  1
  S  S29  1  0.583939  0.932334  0.780510  1
  S  S30  1  0.416061  0.067666  0.219490  1
  S  S31  1  0.988267  0.609924  0.922503  1
  S  S32  1  0.627619  0.451575  0.899067  1
  S  S33  1  0.372381  0.548425  0.100933  1
  S  S34  1  0.353244  0.303975  0.476987  1
  S  S35  1  0.876258  0.196025  0.523013  1
  S  S36  1  0.065765  0.890076  0.077497  1
  S  S37  1  0.329632  0.793988  0.302020  1
  S  S38  1  0.011733  0.390076  0.077497  1
  S  S39  1  0.403458  0.630549  0.702894  1
  S  S40  1  0.803429  0.567666  0.219490  1
  S  S41  1  0.596542  0.369451  0.297106  1
  S  S42  1  0.738271  0.473988  0.671545  1
  S  S43  1  0.261729  0.526012  0.328455  1
  S  S44  1  0.271448  0.951575  0.899067  1
  S  S45  1  0.700564  0.869451  0.297106  1
  S  S46  1  0.934235  0.109924  0.922503  1
  S  S47  1  0.299436  0.130549  0.702894  1
  S  S48  1  0.670368  0.206012  0.697980  1
  S  S49  1  0.972388  0.293988  0.302020  1
  S  S50  1  0.196571  0.432334  0.780510  1
  S  S51  1  0.933274  0.973988  0.671545  1
