# generated using pymatgen
data_Dy4MgRh
_symmetry_space_group_name_H-M   'P 1'
_cell_length_a   9.69620788
_cell_length_b   9.69620788
_cell_length_c   9.69620829
_cell_angle_alpha   60.00000206
_cell_angle_beta   60.00000205
_cell_angle_gamma   60.00000139
_symmetry_Int_Tables_number   1
_chemical_formula_structural   Dy4MgRh
_chemical_formula_sum   'Dy16 Mg4 Rh4'
_cell_volume   644.60072927
_cell_formula_units_Z   4
loop_
 _symmetry_equiv_pos_site_id
 _symmetry_equiv_pos_as_xyz
  1  'x, y, z'
loop_
 _atom_site_type_symbol
 _atom_site_label
 _atom_site_symmetry_multiplicity
 _atom_site_fract_x
 _atom_site_fract_y
 _atom_site_fract_z
 _atom_site_occupancy
  Dy  Dy0  1  0.935372  0.935372  0.564628  1
  Dy  Dy1  1  0.346795  0.346795  0.346795  1
  Dy  Dy2  1  0.187716  0.812284  0.812284  1
  Dy  Dy3  1  0.564628  0.564628  0.935372  1
  Dy  Dy4  1  0.564628  0.935372  0.935372  1
  Dy  Dy5  1  0.812284  0.187716  0.187716  1
  Dy  Dy6  1  0.187716  0.187716  0.812284  1
  Dy  Dy7  1  0.935372  0.564628  0.935372  1
  Dy  Dy8  1  0.564628  0.935372  0.564628  1
  Dy  Dy9  1  0.959614  0.346795  0.346795  1
  Dy  Dy10  1  0.812284  0.812284  0.187716  1
  Dy  Dy11  1  0.346795  0.346795  0.959614  1
  Dy  Dy12  1  0.812284  0.187716  0.812284  1
  Dy  Dy13  1  0.935372  0.564628  0.564628  1
  Dy  Dy14  1  0.187716  0.812284  0.187716  1
  Dy  Dy15  1  0.346795  0.959614  0.346795  1
  Mg  Mg16  1  0.579668  0.579668  0.260996  1
  Mg  Mg17  1  0.579668  0.260996  0.579668  1
  Mg  Mg18  1  0.579668  0.579668  0.579668  1
  Mg  Mg19  1  0.260996  0.579668  0.579668  1
  Rh  Rh20  1  0.141825  0.141825  0.141825  1
  Rh  Rh21  1  0.574525  0.141825  0.141825  1
  Rh  Rh22  1  0.141825  0.141825  0.574525  1
  Rh  Rh23  1  0.141825  0.574525  0.141825  1
