# generated using pymatgen
data_V2Zn3TeO10
_symmetry_space_group_name_H-M   'P 1'
_cell_length_a   5.34078394
_cell_length_b   5.64045925
_cell_length_c   30.86701061
_cell_angle_alpha   90.00000000
_cell_angle_beta   90.00000000
_cell_angle_gamma   98.56370990
_symmetry_Int_Tables_number   1
_chemical_formula_structural   V2Zn3TeO10
_chemical_formula_sum   'V8 Zn12 Te4 O40'
_cell_volume   919.48544091
_cell_formula_units_Z   4
loop_
 _symmetry_equiv_pos_site_id
 _symmetry_equiv_pos_as_xyz
  1  'x, y, z'
loop_
 _atom_site_type_symbol
 _atom_site_label
 _atom_site_symmetry_multiplicity
 _atom_site_fract_x
 _atom_site_fract_y
 _atom_site_fract_z
 _atom_site_occupancy
  V  V0  1  0.247434  0.217961  0.444484  1
  V  V1  1  0.070717  0.728060  0.205255  1
  V  V2  1  0.247434  0.717961  0.055516  1
  V  V3  1  0.929283  0.271940  0.794745  1
  V  V4  1  0.070717  0.228060  0.294745  1
  V  V5  1  0.929283  0.771940  0.705255  1
  V  V6  1  0.752566  0.782039  0.555516  1
  V  V7  1  0.752566  0.282039  0.944484  1
  Zn  Zn8  1  0.780018  0.731814  0.870278  1
  Zn  Zn9  1  0.693872  0.356470  0.057885  1
  Zn  Zn10  1  0.219982  0.268186  0.129722  1
  Zn  Zn11  1  0.420588  0.279262  0.726801  1
  Zn  Zn12  1  0.780018  0.231814  0.629722  1
  Zn  Zn13  1  0.306128  0.643530  0.942115  1
  Zn  Zn14  1  0.693872  0.856470  0.442115  1
  Zn  Zn15  1  0.306128  0.143530  0.557885  1
  Zn  Zn16  1  0.579412  0.720738  0.273199  1
  Zn  Zn17  1  0.579412  0.220738  0.226801  1
  Zn  Zn18  1  0.420588  0.779262  0.773199  1
  Zn  Zn19  1  0.219982  0.768186  0.370278  1
  Te  Te20  1  0.670100  0.931161  0.130951  1
  Te  Te21  1  0.329900  0.068839  0.869049  1
  Te  Te22  1  0.670100  0.431161  0.369049  1
  Te  Te23  1  0.329900  0.568839  0.630951  1
  O  O24  1  0.117116  0.827189  0.900561  1
  O  O25  1  0.317688  0.737980  0.001929  1
  O  O26  1  0.117116  0.327189  0.599439  1
  O  O27  1  0.071690  0.832442  0.564813  1
  O  O28  1  0.687382  0.144978  0.760413  1
  O  O29  1  0.798960  0.068048  0.268990  1
  O  O30  1  0.317688  0.237980  0.498071  1
  O  O31  1  0.487007  0.341205  0.664243  1
  O  O32  1  0.817122  0.450490  0.831838  1
  O  O33  1  0.032449  0.027187  0.824748  1
  O  O34  1  0.682312  0.262020  0.998071  1
  O  O35  1  0.512993  0.158795  0.164243  1
  O  O36  1  0.614081  0.517060  0.920504  1
  O  O37  1  0.798960  0.568048  0.231010  1
  O  O38  1  0.817122  0.950490  0.668162  1
  O  O39  1  0.391617  0.984177  0.085110  1
  O  O40  1  0.391617  0.484177  0.414890  1
  O  O41  1  0.312618  0.855022  0.239587  1
  O  O42  1  0.182878  0.049510  0.331838  1
  O  O43  1  0.608383  0.015823  0.914890  1
  O  O44  1  0.967551  0.472813  0.324748  1
  O  O45  1  0.385919  0.982940  0.420504  1
  O  O46  1  0.201040  0.931952  0.731010  1
  O  O47  1  0.385919  0.482940  0.079496  1
  O  O48  1  0.967551  0.972813  0.175252  1
  O  O49  1  0.312618  0.355022  0.260413  1
  O  O50  1  0.201040  0.431952  0.768990  1
  O  O51  1  0.928310  0.667558  0.064813  1
  O  O52  1  0.032449  0.527187  0.675252  1
  O  O53  1  0.487007  0.841205  0.835757  1
  O  O54  1  0.608383  0.515823  0.585110  1
  O  O55  1  0.687382  0.644978  0.739587  1
  O  O56  1  0.614081  0.017060  0.579496  1
  O  O57  1  0.182878  0.549510  0.168162  1
  O  O58  1  0.928310  0.167558  0.435187  1
  O  O59  1  0.512993  0.658795  0.335757  1
  O  O60  1  0.071690  0.332442  0.935187  1
  O  O61  1  0.682312  0.762020  0.501929  1
  O  O62  1  0.882884  0.172811  0.099439  1
  O  O63  1  0.882884  0.672811  0.400561  1
