# generated using pymatgen
data_LiLa4AuO8
_symmetry_space_group_name_H-M   'P 1'
_cell_length_a   5.78757531
_cell_length_b   5.78796927
_cell_length_c   6.89964668
_cell_angle_alpha   90.00000000
_cell_angle_beta   114.79739849
_cell_angle_gamma   90.00000000
_symmetry_Int_Tables_number   1
_chemical_formula_structural   LiLa4AuO8
_chemical_formula_sum   'Li1 La4 Au1 O8'
_cell_volume   209.81582383
_cell_formula_units_Z   1
loop_
 _symmetry_equiv_pos_site_id
 _symmetry_equiv_pos_as_xyz
  1  'x, y, z'
loop_
 _atom_site_type_symbol
 _atom_site_label
 _atom_site_symmetry_multiplicity
 _atom_site_fract_x
 _atom_site_fract_y
 _atom_site_fract_z
 _atom_site_occupancy
  Li  Li0  1  0.500000  0.000000  0.000000  1
  La  La1  1  0.349683  0.500000  0.699366  1
  La  La2  1  0.850356  0.000000  0.700711  1
  La  La3  1  0.149644  0.000000  0.299289  1
  La  La4  1  0.650317  0.500000  0.300634  1
  Au  Au5  1  0.000000  0.500000  0.000000  1
  O  O6  1  0.500000  0.750786  0.500000  1
  O  O7  1  0.000000  0.249214  0.500000  1
  O  O8  1  0.500000  0.249214  0.500000  1
  O  O9  1  0.249065  0.250950  0.000000  1
  O  O10  1  0.000000  0.750786  0.500000  1
  O  O11  1  0.249065  0.749050  0.000000  1
  O  O12  1  0.750935  0.749050  1.000000  1
  O  O13  1  0.750935  0.250950  1.000000  1
