# generated using pymatgen
data_RbLaNb2O7
_symmetry_space_group_name_H-M   'P 1'
_cell_length_a   5.58484680
_cell_length_b   5.54944186
_cell_length_c   11.92995060
_cell_angle_alpha   103.45570423
_cell_angle_beta   103.54577389
_cell_angle_gamma   90.00038909
_symmetry_Int_Tables_number   1
_chemical_formula_structural   RbLaNb2O7
_chemical_formula_sum   'Rb2 La2 Nb4 O14'
_cell_volume   349.00878085
_cell_formula_units_Z   2
loop_
 _symmetry_equiv_pos_site_id
 _symmetry_equiv_pos_as_xyz
  1  'x, y, z'
loop_
 _atom_site_type_symbol
 _atom_site_label
 _atom_site_symmetry_multiplicity
 _atom_site_fract_x
 _atom_site_fract_y
 _atom_site_fract_z
 _atom_site_occupancy
  Rb  Rb0  1  0.500000  0.500000  0.000000  1
  Rb  Rb1  1  0.000000  0.000000  0.000000  1
  La  La2  1  0.235495  0.249988  0.499995  1
  La  La3  1  0.764505  0.750012  0.500005  1
  Nb  Nb4  1  0.848291  0.352832  0.705628  1
  Nb  Nb5  1  0.357396  0.852807  0.705624  1
  Nb  Nb6  1  0.151709  0.647168  0.294372  1
  Nb  Nb7  1  0.642604  0.147193  0.294376  1
  O  O8  1  0.425773  0.425793  0.351644  1
  O  O9  1  0.817613  0.249999  0.499973  1
  O  O10  1  0.518289  0.067871  0.135998  1
  O  O11  1  0.574227  0.574207  0.648356  1
  O  O12  1  0.882608  0.432142  0.864023  1
  O  O13  1  0.094374  0.594309  0.688650  1
  O  O14  1  0.182387  0.750001  0.500027  1
  O  O15  1  0.094293  0.094295  0.688645  1
  O  O16  1  0.117392  0.567858  0.135977  1
  O  O17  1  0.905707  0.905705  0.311355  1
  O  O18  1  0.425828  0.925773  0.351646  1
  O  O19  1  0.481711  0.932129  0.864002  1
  O  O20  1  0.905626  0.405691  0.311350  1
  O  O21  1  0.574172  0.074227  0.648354  1
