# generated using pymatgen
data_PW3O11
_symmetry_space_group_name_H-M   'P 1'
_cell_length_a   5.40254616
_cell_length_b   6.69714322
_cell_length_c   24.03220615
_cell_angle_alpha   90.00000000
_cell_angle_beta   90.00000000
_cell_angle_gamma   90.00000000
_symmetry_Int_Tables_number   1
_chemical_formula_structural   PW3O11
_chemical_formula_sum   'P4 W12 O44'
_cell_volume   869.52428012
_cell_formula_units_Z   4
loop_
 _symmetry_equiv_pos_site_id
 _symmetry_equiv_pos_as_xyz
  1  'x, y, z'
loop_
 _atom_site_type_symbol
 _atom_site_label
 _atom_site_symmetry_multiplicity
 _atom_site_fract_x
 _atom_site_fract_y
 _atom_site_fract_z
 _atom_site_occupancy
  O  O0  1  0.029951  0.597674  0.430676  1
  O  O1  1  0.529951  0.902326  0.569324  1
  O  O2  1  0.970049  0.097674  0.069324  1
  O  O3  1  0.470049  0.402326  0.930676  1
  O  O4  1  0.985422  0.776341  0.197347  1
  O  O5  1  0.485422  0.723659  0.802653  1
  O  O6  1  0.014578  0.276341  0.302653  1
  O  O7  1  0.514578  0.223659  0.697347  1
  O  O8  1  0.454217  0.745275  0.190015  1
  O  O9  1  0.954217  0.754725  0.809985  1
  O  O10  1  0.545783  0.245275  0.309985  1
  O  O11  1  0.045783  0.254725  0.690015  1
  O  O12  1  0.516659  0.734397  0.997150  1
  O  O13  1  0.016659  0.765603  0.002850  1
  O  O14  1  0.529104  0.567861  0.436385  1
  O  O15  1  0.483341  0.234397  0.502850  1
  O  O16  1  0.754466  0.256710  0.597878  1
  O  O17  1  0.254466  0.243290  0.402122  1
  O  O18  1  0.245534  0.756710  0.902122  1
  O  O19  1  0.745534  0.743290  0.097878  1
  O  O20  1  0.742797  0.084254  0.965251  1
  O  O21  1  0.242797  0.415746  0.034749  1
  O  O22  1  0.257203  0.584254  0.534749  1
  O  O23  1  0.757203  0.915746  0.465251  1
  O  O24  1  0.742819  0.428108  0.832839  1
  O  O25  1  0.242818  0.071892  0.167161  1
  O  O26  1  0.257182  0.928108  0.667161  1
  O  O27  1  0.757181  0.571892  0.332839  1
  O  O28  1  0.512594  0.073576  0.862529  1
  O  O29  1  0.012594  0.426424  0.137471  1
  O  O30  1  0.487406  0.573576  0.637471  1
  O  O31  1  0.987406  0.926424  0.362529  1
  O  O32  1  0.015438  0.101609  0.868242  1
  O  O33  1  0.515438  0.398391  0.131758  1
  O  O34  1  0.984562  0.601609  0.631758  1
  O  O35  1  0.484562  0.898391  0.368242  1
  O  O36  1  0.237389  0.053900  0.765200  1
  O  O37  1  0.737389  0.446100  0.234800  1
  O  O38  1  0.762611  0.553900  0.734800  1
  O  O39  1  0.262611  0.946100  0.265200  1
  O  O40  1  0.970896  0.432139  0.936385  1
  O  O41  1  0.470896  0.067861  0.063615  1
  O  O42  1  0.029104  0.932139  0.563615  1
  O  O43  1  0.983341  0.265603  0.497150  1
  P  P44  1  0.235976  0.883803  0.203858  1
  P  P45  1  0.735976  0.616197  0.796142  1
  P  P46  1  0.764024  0.383803  0.296142  1
  P  P47  1  0.264024  0.116197  0.703858  1
  W  W48  1  0.256095  0.081097  0.339437  1
  W  W49  1  0.756095  0.418903  0.660563  1
  W  W50  1  0.743905  0.581097  0.160563  1
  W  W51  1  0.243905  0.918903  0.839437  1
  W  W52  1  0.242025  0.243884  0.097437  1
  W  W53  1  0.742025  0.256116  0.902563  1
  W  W54  1  0.757975  0.743884  0.402563  1
  W  W55  1  0.257975  0.756116  0.597437  1
  W  W56  1  0.256294  0.416945  0.468829  1
  W  W57  1  0.756294  0.083055  0.531171  1
  W  W58  1  0.743706  0.916945  0.031171  1
  W  W59  1  0.243706  0.583055  0.968829  1
