# generated using pymatgen
data_CuH12(N5O4)2
_symmetry_space_group_name_H-M   'P 1'
_cell_length_a   6.69586069
_cell_length_b   7.49519460
_cell_length_c   7.63537007
_cell_angle_alpha   96.93534466
_cell_angle_beta   110.92267355
_cell_angle_gamma   115.23723460
_symmetry_Int_Tables_number   1
_chemical_formula_structural   CuH12(N5O4)2
_chemical_formula_sum   'Cu1 H12 N10 O8'
_cell_volume   306.39625809
_cell_formula_units_Z   1
loop_
 _symmetry_equiv_pos_site_id
 _symmetry_equiv_pos_as_xyz
  1  'x, y, z'
loop_
 _atom_site_type_symbol
 _atom_site_label
 _atom_site_symmetry_multiplicity
 _atom_site_fract_x
 _atom_site_fract_y
 _atom_site_fract_z
 _atom_site_occupancy
  Cu  Cu0  1  0.000000  0.500000  0.000000  1
  H  H1  1  0.954294  0.202882  0.741738  1
  H  H2  1  0.729238  0.227918  0.115158  1
  H  H3  1  0.978198  0.708713  0.761886  1
  H  H4  1  0.843414  0.116006  0.013824  1
  H  H5  1  0.165188  0.428927  0.749819  1
  H  H6  1  0.045706  0.797118  0.258262  1
  H  H7  1  0.021802  0.291287  0.238114  1
  H  H8  1  0.270762  0.772082  0.884842  1
  H  H9  1  0.834812  0.571073  0.250181  1
  H  H10  1  0.235422  0.328882  0.929172  1
  H  H11  1  0.156586  0.883994  0.986176  1
  H  H12  1  0.764578  0.671118  0.070828  1
  N  N13  1  0.098710  0.349019  0.834969  1
  N  N14  1  0.404720  0.185833  0.597457  1
  N  N15  1  0.901290  0.650981  0.165031  1
  N  N16  1  0.885317  0.255156  0.100349  1
  N  N17  1  0.335543  0.128515  0.395160  1
  N  N18  1  0.664457  0.871485  0.604840  1
  N  N19  1  0.595280  0.814167  0.402543  1
  N  N20  1  0.114683  0.744844  0.899651  1
  N  N21  1  0.500340  0.744310  0.662281  1
  N  N22  1  0.499660  0.255690  0.337719  1
  O  O23  1  0.412510  0.205062  0.150452  1
  O  O24  1  0.716382  0.397456  0.449745  1
  O  O25  1  0.447023  0.632159  0.287168  1
  O  O26  1  0.552977  0.367841  0.712832  1
  O  O27  1  0.283618  0.602544  0.550255  1
  O  O28  1  0.710610  0.962287  0.352722  1
  O  O29  1  0.587490  0.794938  0.849548  1
  O  O30  1  0.289390  0.037713  0.647278  1
