# generated using pymatgen
data_BaNd2PtO5
_symmetry_space_group_name_H-M   'P 1'
_cell_length_a   5.99680820
_cell_length_b   6.82973357
_cell_length_c   6.82973357
_cell_angle_alpha   90.00000000
_cell_angle_beta   90.00000000
_cell_angle_gamma   90.00000000
_symmetry_Int_Tables_number   1
_chemical_formula_structural   BaNd2PtO5
_chemical_formula_sum   'Ba2 Nd4 Pt2 O10'
_cell_volume   279.72268148
_cell_formula_units_Z   2
loop_
 _symmetry_equiv_pos_site_id
 _symmetry_equiv_pos_as_xyz
  1  'x, y, z'
loop_
 _atom_site_type_symbol
 _atom_site_label
 _atom_site_symmetry_multiplicity
 _atom_site_fract_x
 _atom_site_fract_y
 _atom_site_fract_z
 _atom_site_occupancy
  Ba  Ba0  1  0.000000  0.000000  0.000000  1
  Ba  Ba1  1  0.000000  0.500000  0.500000  1
  Nd  Nd2  1  0.500000  0.174317  0.674317  1
  Nd  Nd3  1  0.500000  0.674317  0.825683  1
  Nd  Nd4  1  0.500000  0.325683  0.174317  1
  Nd  Nd5  1  0.500000  0.825683  0.325683  1
  Pt  Pt6  1  0.000000  0.500000  0.000000  1
  Pt  Pt7  1  0.000000  0.000000  0.500000  1
  O  O8  1  0.500000  0.000000  0.000000  1
  O  O9  1  0.254043  0.139432  0.360779  1
  O  O10  1  0.254043  0.860568  0.639221  1
  O  O11  1  0.745957  0.639221  0.139432  1
  O  O12  1  0.254043  0.360568  0.860779  1
  O  O13  1  0.500000  0.500000  0.500000  1
  O  O14  1  0.745957  0.860779  0.639432  1
  O  O15  1  0.745957  0.139221  0.360568  1
  O  O16  1  0.745957  0.360779  0.860568  1
  O  O17  1  0.254043  0.639432  0.139221  1
