# generated using pymatgen
data_Sr2UZnO6
_symmetry_space_group_name_H-M   'P 1'
_cell_length_a   5.91875165
_cell_length_b   5.84787266
_cell_length_c   8.26580254
_cell_angle_alpha   89.99655116
_cell_angle_beta   90.00000000
_cell_angle_gamma   90.00000000
_symmetry_Int_Tables_number   1
_chemical_formula_structural   Sr2UZnO6
_chemical_formula_sum   'Sr4 U2 Zn2 O12'
_cell_volume   286.09683258
_cell_formula_units_Z   2
loop_
 _symmetry_equiv_pos_site_id
 _symmetry_equiv_pos_as_xyz
  1  'x, y, z'
loop_
 _atom_site_type_symbol
 _atom_site_label
 _atom_site_symmetry_multiplicity
 _atom_site_fract_x
 _atom_site_fract_y
 _atom_site_fract_z
 _atom_site_occupancy
  Sr  Sr0  1  0.038102  0.004984  0.250951  1
  Sr  Sr1  1  0.538102  0.495016  0.249049  1
  Sr  Sr2  1  0.961898  0.995016  0.749049  1
  Sr  Sr3  1  0.461898  0.504984  0.750951  1
  U  U4  1  0.500000  0.000000  0.000000  1
  U  U5  1  0.000000  0.500000  0.500000  1
  Zn  Zn6  1  0.000000  0.500000  0.000000  1
  Zn  Zn7  1  0.500000  0.000000  0.500000  1
  O  O8  1  0.521324  0.073285  0.752083  1
  O  O9  1  0.787931  0.200327  0.039453  1
  O  O10  1  0.299272  0.289280  0.036038  1
  O  O11  1  0.212069  0.799673  0.960547  1
  O  O12  1  0.700728  0.710720  0.963962  1
  O  O13  1  0.478676  0.926715  0.247917  1
  O  O14  1  0.021324  0.426715  0.747917  1
  O  O15  1  0.287931  0.299673  0.460547  1
  O  O16  1  0.799272  0.210720  0.463962  1
  O  O17  1  0.978676  0.573285  0.252083  1
  O  O18  1  0.712069  0.700327  0.539453  1
  O  O19  1  0.200728  0.789280  0.536038  1
