# generated using pymatgen
data_Li8Bi2(MoO4)7
_symmetry_space_group_name_H-M   'P 1'
_cell_length_a   5.38007365
_cell_length_b   15.44217900
_cell_length_c   15.44217931
_cell_angle_alpha   88.26104544
_cell_angle_beta   79.96785577
_cell_angle_gamma   79.96785718
_symmetry_Int_Tables_number   1
_chemical_formula_structural   Li8Bi2(MoO4)7
_chemical_formula_sum   'Li16 Bi4 Mo14 O56'
_cell_volume   1244.00535433
_cell_formula_units_Z   2
loop_
 _symmetry_equiv_pos_site_id
 _symmetry_equiv_pos_as_xyz
  1  'x, y, z'
loop_
 _atom_site_type_symbol
 _atom_site_label
 _atom_site_symmetry_multiplicity
 _atom_site_fract_x
 _atom_site_fract_y
 _atom_site_fract_z
 _atom_site_occupancy
  Li  Li0  1  0.915279  0.504533  0.999888  1
  Li  Li1  1  0.563865  0.304102  0.555959  1
  Li  Li2  1  0.503786  0.755334  0.242266  1
  Li  Li3  1  0.435798  0.444775  0.693221  1
  Li  Li4  1  0.253948  0.242266  0.244666  1
  Li  Li5  1  0.870981  0.693221  0.555225  1
  Li  Li6  1  0.880176  0.555959  0.695898  1
  Li  Li7  1  0.740880  0.757734  0.755334  1
  Li  Li8  1  0.423926  0.695898  0.444041  1
  Li  Li9  1  0.419701  0.495467  0.000112  1
  Li  Li10  1  0.132033  0.444041  0.304102  1
  Li  Li11  1  0.119427  0.306779  0.444775  1
  Li  Li12  1  0.501386  0.244666  0.757734  1
  Li  Li13  1  0.573794  0.555225  0.306779  1
  Li  Li14  1  0.084832  0.999888  0.495467  1
  Li  Li15  1  0.580188  0.000112  0.504533  1
  Bi  Bi16  1  0.998428  0.859408  0.141124  1
  Bi  Bi17  1  0.860448  0.141124  0.140592  1
  Bi  Bi18  1  0.142165  0.858876  0.859408  1
  Bi  Bi19  1  0.998959  0.140592  0.858876  1
  Mo  Mo20  1  0.730582  0.187857  0.379274  1
  Mo  Mo21  1  0.919168  0.811016  0.379107  1
  Mo  Mo22  1  0.269816  0.620893  0.811016  1
  Mo  Mo23  1  0.890144  0.379274  0.812143  1
  Mo  Mo24  1  0.630359  0.739265  0.001196  1
  Mo  Mo25  1  0.630375  0.998804  0.739265  1
  Mo  Mo26  1  0.368444  0.001196  0.260735  1
  Mo  Mo27  1  0.500000  0.000000  0.000000  1
  Mo  Mo28  1  0.081561  0.620726  0.187857  1
  Mo  Mo29  1  0.370821  0.260735  0.998804  1
  Mo  Mo30  1  0.701725  0.379107  0.188984  1
  Mo  Mo31  1  0.250000  0.500000  0.500000  1
  Mo  Mo32  1  0.109291  0.188984  0.620893  1
  Mo  Mo33  1  0.297713  0.812143  0.620726  1
  O  O34  1  0.745535  0.439248  0.909478  1
  O  O35  1  0.605402  0.627510  0.000724  1
  O  O36  1  0.655299  0.356807  0.750673  1
  O  O37  1  0.245092  0.001313  0.092847  1
  O  O38  1  0.767088  0.999276  0.627510  1
  O  O39  1  0.318956  0.811702  0.000114  1
  O  O40  1  0.947199  0.277402  0.167989  1
  O  O41  1  0.147607  0.101568  0.242385  1
  O  O42  1  0.607954  0.167732  0.277251  1
  O  O43  1  0.899881  0.907815  0.440679  1
  O  O44  1  0.659440  0.440679  0.092185  1
  O  O45  1  0.248375  0.092185  0.559321  1
  O  O46  1  0.388636  0.097785  0.757374  1
  O  O47  1  0.740728  0.738800  0.446782  1
  O  O48  1  0.268172  0.550931  0.255752  1
  O  O49  1  0.440665  0.569613  0.433006  1
  O  O50  1  0.344987  0.909478  0.560752  1
  O  O51  1  0.853990  0.757374  0.902215  1
  O  O52  1  0.392591  0.722598  0.832011  1
  O  O53  1  0.884811  0.167989  0.722598  1
  O  O54  1  0.869342  0.999886  0.811702  1
  O  O55  1  0.241832  0.753835  0.354600  1
  O  O56  1  0.750825  0.757615  0.101568  1
  O  O57  1  0.926310  0.261200  0.553218  1
  O  O58  1  0.243795  0.902215  0.242626  1
  O  O59  1  0.443284  0.430387  0.566994  1
  O  O60  1  0.753596  0.907153  0.001313  1
  O  O61  1  0.130772  0.188298  0.999886  1
  O  O62  1  0.610008  0.242385  0.898432  1
  O  O63  1  0.594027  0.750673  0.643193  1
  O  O64  1  0.520472  0.553218  0.738800  1
  O  O65  1  0.094261  0.560752  0.090522  1
  O  O66  1  0.403568  0.354600  0.246165  1
  O  O67  1  0.393874  0.000724  0.372490  1
  O  O68  1  0.680931  0.000114  0.188298  1
  O  O69  1  0.004332  0.645400  0.753835  1
  O  O70  1  0.350268  0.246165  0.645400  1
  O  O71  1  0.989722  0.566994  0.569613  1
  O  O72  1  0.114795  0.277251  0.832268  1
  O  O73  1  0.476076  0.255752  0.449069  1
  O  O74  1  0.339251  0.998687  0.907153  1
  O  O75  1  0.812490  0.446782  0.261200  1
  O  O76  1  0.662061  0.092847  0.998687  1
  O  O77  1  0.775398  0.832011  0.277402  1
  O  O78  1  0.224315  0.722749  0.167732  1
  O  O79  1  0.762780  0.643193  0.249327  1
  O  O80  1  0.233636  0.372490  0.999276  1
  O  O81  1  0.074854  0.449069  0.744248  1
  O  O82  1  0.180897  0.744248  0.550931  1
  O  O83  1  0.491559  0.898432  0.757615  1
  O  O84  1  0.126329  0.433006  0.430387  1
  O  O85  1  0.052936  0.832268  0.722749  1
  O  O86  1  0.513579  0.242626  0.097785  1
  O  O87  1  0.192304  0.559321  0.907815  1
  O  O88  1  0.987894  0.249327  0.356807  1
  O  O89  1  0.815217  0.090522  0.439248  1
