# generated using pymatgen
data_Na2MnO2
_symmetry_space_group_name_H-M   'P 1'
_cell_length_a   6.21090250
_cell_length_b   8.82388049
_cell_length_c   8.82388105
_cell_angle_alpha   87.90315214
_cell_angle_beta   70.08662546
_cell_angle_gamma   70.08662670
_symmetry_Int_Tables_number   1
_chemical_formula_structural   Na2MnO2
_chemical_formula_sum   'Na12 Mn6 O12'
_cell_volume   425.75784144
_cell_formula_units_Z   6
loop_
 _symmetry_equiv_pos_site_id
 _symmetry_equiv_pos_as_xyz
  1  'x, y, z'
loop_
 _atom_site_type_symbol
 _atom_site_label
 _atom_site_symmetry_multiplicity
 _atom_site_fract_x
 _atom_site_fract_y
 _atom_site_fract_z
 _atom_site_occupancy
  Na  Na0  1  0.250000  0.939479  0.060521  1
  Na  Na1  1  0.750000  0.060521  0.939479  1
  Na  Na2  1  0.737967  0.403020  0.997258  1
  Na  Na3  1  0.762033  0.002742  0.596980  1
  Na  Na4  1  0.229235  0.325556  0.468440  1
  Na  Na5  1  0.770765  0.674444  0.531560  1
  Na  Na6  1  0.262033  0.596980  0.002742  1
  Na  Na7  1  0.729235  0.468440  0.325556  1
  Na  Na8  1  0.270765  0.531560  0.674444  1
  Na  Na9  1  0.750000  0.804277  0.195723  1
  Na  Na10  1  0.237967  0.997258  0.403020  1
  Na  Na11  1  0.250000  0.195723  0.804277  1
  Mn  Mn12  1  0.750000  0.315992  0.684008  1
  Mn  Mn13  1  0.743542  0.707907  0.867801  1
  Mn  Mn14  1  0.256458  0.292093  0.132199  1
  Mn  Mn15  1  0.250000  0.684008  0.315992  1
  Mn  Mn16  1  0.243542  0.867801  0.707907  1
  Mn  Mn17  1  0.756458  0.132199  0.292093  1
  O  O18  1  0.466399  0.327942  0.900808  1
  O  O19  1  0.517464  0.892809  0.779296  1
  O  O20  1  0.598936  0.284263  0.512633  1
  O  O21  1  0.982536  0.220703  0.107191  1
  O  O22  1  0.901064  0.487367  0.715737  1
  O  O23  1  0.017464  0.779296  0.892809  1
  O  O24  1  0.033601  0.099192  0.672058  1
  O  O25  1  0.098936  0.512633  0.284263  1
  O  O26  1  0.482536  0.107191  0.220703  1
  O  O27  1  0.401064  0.715737  0.487367  1
  O  O28  1  0.533601  0.672058  0.099192  1
  O  O29  1  0.966399  0.900808  0.327942  1
