# generated using pymatgen
data_SbAsPd5
_symmetry_space_group_name_H-M   'P 1'
_cell_length_a   8.78174771
_cell_length_b   8.78174716
_cell_length_c   8.78174681
_cell_angle_alpha   59.99999752
_cell_angle_beta   59.99999957
_cell_angle_gamma   59.99999545
_symmetry_Int_Tables_number   1
_chemical_formula_structural   SbAsPd5
_chemical_formula_sum   'Sb4 As4 Pd20'
_cell_volume   478.88118520
_cell_formula_units_Z   4
loop_
 _symmetry_equiv_pos_site_id
 _symmetry_equiv_pos_as_xyz
  1  'x, y, z'
loop_
 _atom_site_type_symbol
 _atom_site_label
 _atom_site_symmetry_multiplicity
 _atom_site_fract_x
 _atom_site_fract_y
 _atom_site_fract_z
 _atom_site_occupancy
  Pd  Pd0  1  0.589200  0.160800  0.160800  1
  Pd  Pd1  1  0.839200  0.839200  0.410800  1
  Pd  Pd2  1  0.410800  0.410800  0.839200  1
  Pd  Pd3  1  0.839200  0.410800  0.410800  1
  Pd  Pd4  1  0.839200  0.410800  0.839200  1
  Pd  Pd5  1  0.410800  0.839200  0.410800  1
  Pd  Pd6  1  0.160800  0.589200  0.160800  1
  Pd  Pd7  1  0.160800  0.160800  0.589200  1
  Pd  Pd8  1  0.589200  0.589200  0.160800  1
  Pd  Pd9  1  0.589200  0.160800  0.589200  1
  Pd  Pd10  1  0.410800  0.839200  0.839200  1
  Pd  Pd11  1  0.160800  0.589200  0.589200  1
  Pd  Pd12  1  0.214356  0.214356  0.214356  1
  Pd  Pd13  1  0.785644  0.785644  0.143067  1
  Pd  Pd14  1  0.143067  0.785644  0.785644  1
  Pd  Pd15  1  0.785644  0.143067  0.785644  1
  Pd  Pd16  1  0.856933  0.214356  0.214356  1
  Pd  Pd17  1  0.214356  0.856933  0.214356  1
  Pd  Pd18  1  0.214356  0.214356  0.856933  1
  Pd  Pd19  1  0.785644  0.785644  0.785644  1
  As  As20  1  0.500000  0.500000  0.500000  1
  As  As21  1  0.500000  0.500000  0.000000  1
  As  As22  1  0.000000  0.500000  0.500000  1
  As  As23  1  0.500000  0.000000  0.500000  1
  Sb  Sb24  1  0.000000  0.000000  0.000000  1
  Sb  Sb25  1  0.000000  0.000000  0.500000  1
  Sb  Sb26  1  0.500000  0.000000  0.000000  1
  Sb  Sb27  1  0.000000  0.500000  0.000000  1
