# generated using pymatgen
data_La2O3
_symmetry_space_group_name_H-M   'P 1'
_cell_length_a   6.26630701
_cell_length_b   6.26725482
_cell_length_c   3.29976636
_cell_angle_alpha   90.02073224
_cell_angle_beta   89.97909408
_cell_angle_gamma   120.07136847
_symmetry_Int_Tables_number   1
_chemical_formula_structural   La2O3
_chemical_formula_sum   'La2 O3'
_cell_volume   112.14761199
_cell_formula_units_Z   1
loop_
 _symmetry_equiv_pos_site_id
 _symmetry_equiv_pos_as_xyz
  1  'x, y, z'
loop_
 _atom_site_type_symbol
 _atom_site_label
 _atom_site_symmetry_multiplicity
 _atom_site_fract_x
 _atom_site_fract_y
 _atom_site_fract_z
 _atom_site_occupancy
  O  O0  1  0.492052  0.492058  -0.000009  1
  O  O1  1  1.000127  0.507716  0.000050  1
  La  La2  1  0.333539  0.666600  0.503559  1
  O  O3  1  0.507739  1.000133  0.999950  1
  La  La4  1  0.666543  0.333492  0.496449  1
