# generated using pymatgen
data_Pr3S3N
_symmetry_space_group_name_H-M   'P 1'
_cell_length_a   4.08608488
_cell_length_b   12.26950901
_cell_length_c   13.23968101
_cell_angle_alpha   90.00000000
_cell_angle_beta   90.00000000
_cell_angle_gamma   90.00000000
_symmetry_Int_Tables_number   1
_chemical_formula_structural   Pr3S3N
_chemical_formula_sum   'Pr12 S12 N4'
_cell_volume   663.76154719
_cell_formula_units_Z   4
loop_
 _symmetry_equiv_pos_site_id
 _symmetry_equiv_pos_as_xyz
  1  'x, y, z'
loop_
 _atom_site_type_symbol
 _atom_site_label
 _atom_site_symmetry_multiplicity
 _atom_site_fract_x
 _atom_site_fract_y
 _atom_site_fract_z
 _atom_site_occupancy
  Pr  Pr0  1  0.250000  0.588201  0.872966  1
  Pr  Pr1  1  0.250000  0.537674  0.349827  1
  Pr  Pr2  1  0.750000  0.462326  0.650173  1
  Pr  Pr3  1  0.250000  0.225441  0.868089  1
  Pr  Pr4  1  0.250000  0.088201  0.627034  1
  Pr  Pr5  1  0.750000  0.274559  0.368089  1
  Pr  Pr6  1  0.250000  0.037674  0.150173  1
  Pr  Pr7  1  0.750000  0.962326  0.849827  1
  Pr  Pr8  1  0.750000  0.911799  0.372966  1
  Pr  Pr9  1  0.250000  0.725441  0.631911  1
  Pr  Pr10  1  0.750000  0.774559  0.131911  1
  Pr  Pr11  1  0.750000  0.411799  0.127034  1
  S  S12  1  0.250000  0.357863  0.498310  1
  S  S13  1  0.750000  0.142137  0.998310  1
  S  S14  1  0.250000  0.857863  0.001690  1
  S  S15  1  0.750000  0.233225  0.701005  1
  S  S16  1  0.750000  0.922643  0.607292  1
  S  S17  1  0.750000  0.642137  0.501690  1
  S  S18  1  0.750000  0.422643  0.892708  1
  S  S19  1  0.250000  0.766775  0.298995  1
  S  S20  1  0.750000  0.733225  0.798995  1
  S  S21  1  0.250000  0.266775  0.201005  1
  S  S22  1  0.250000  0.077357  0.392708  1
  S  S23  1  0.250000  0.577357  0.107292  1
  N  N24  1  0.250000  0.549616  0.701881  1
  N  N25  1  0.250000  0.049616  0.798119  1
  N  N26  1  0.750000  0.450384  0.298119  1
  N  N27  1  0.750000  0.950384  0.201881  1
