# generated using pymatgen
data_H16C3NF7
_symmetry_space_group_name_H-M   'P 1'
_cell_length_a   10.05749380
_cell_length_b   10.05749398
_cell_length_c   6.05895705
_cell_angle_alpha   90.00000000
_cell_angle_beta   90.00000000
_cell_angle_gamma   119.99999939
_symmetry_Int_Tables_number   1
_chemical_formula_structural   H16C3NF7
_chemical_formula_sum   'H32 C6 N2 F14'
_cell_volume   530.77207195
_cell_formula_units_Z   2
loop_
 _symmetry_equiv_pos_site_id
 _symmetry_equiv_pos_as_xyz
  1  'x, y, z'
loop_
 _atom_site_type_symbol
 _atom_site_label
 _atom_site_symmetry_multiplicity
 _atom_site_fract_x
 _atom_site_fract_y
 _atom_site_fract_z
 _atom_site_occupancy
  H  H0  1  0.855679  0.979591  0.970345  1
  H  H1  1  0.811461  0.616277  0.428433  1
  H  H2  1  0.195184  0.811461  0.928433  1
  H  H3  1  0.804816  0.188539  0.428433  1
  H  H4  1  0.906992  0.481898  0.009571  1
  H  H5  1  0.383723  0.195184  0.428433  1
  H  H6  1  0.333333  0.666667  0.683810  1
  H  H7  1  0.144321  0.020409  0.470345  1
  H  H8  1  0.979591  0.123912  0.470345  1
  H  H9  1  0.518102  0.425094  0.009571  1
  H  H10  1  0.154433  0.719033  0.494905  1
  H  H11  1  0.280967  0.435400  0.494905  1
  H  H12  1  0.826676  0.377926  0.757910  1
  H  H13  1  0.574906  0.093008  0.009571  1
  H  H14  1  0.481898  0.574906  0.509571  1
  H  H15  1  0.020409  0.876088  0.970345  1
  H  H16  1  0.425094  0.906992  0.509571  1
  H  H17  1  0.719033  0.564600  0.994905  1
  H  H18  1  0.188539  0.383723  0.928433  1
  H  H19  1  0.666667  0.333333  0.183810  1
  H  H20  1  0.173324  0.622074  0.257910  1
  H  H21  1  0.622074  0.448750  0.757910  1
  H  H22  1  0.616277  0.804816  0.928433  1
  H  H23  1  0.377926  0.551250  0.257910  1
  H  H24  1  0.435400  0.154433  0.994905  1
  H  H25  1  0.845567  0.280967  0.994905  1
  H  H26  1  0.551250  0.173324  0.757910  1
  H  H27  1  0.123912  0.144321  0.970345  1
  H  H28  1  0.876088  0.855679  0.470345  1
  H  H29  1  0.564600  0.845567  0.494905  1
  H  H30  1  0.448750  0.826676  0.257910  1
  H  H31  1  0.093008  0.518102  0.509571  1
  C  C32  1  0.628626  0.452091  0.938389  1
  C  C33  1  0.547909  0.176535  0.938389  1
  C  C34  1  0.823465  0.371374  0.938389  1
  C  C35  1  0.452091  0.823465  0.438389  1
  C  C36  1  0.176535  0.628626  0.438389  1
  C  C37  1  0.371374  0.547909  0.438389  1
  N  N38  1  0.333333  0.666667  0.513049  1
  N  N39  1  0.666667  0.333333  0.013049  1
  F  F40  1  0.782339  0.749257  0.458086  1
  F  F41  1  0.000000  0.000000  0.488116  1
  F  F42  1  0.000000  0.000000  0.988116  1
  F  F43  1  0.528656  0.702253  0.906769  1
  F  F44  1  0.297747  0.826402  0.906769  1
  F  F45  1  0.966918  0.217661  0.458086  1
  F  F46  1  0.702253  0.173598  0.406769  1
  F  F47  1  0.749257  0.966918  0.958086  1
  F  F48  1  0.217661  0.250743  0.958086  1
  F  F49  1  0.033082  0.782339  0.958086  1
  F  F50  1  0.826402  0.528656  0.406769  1
  F  F51  1  0.471344  0.297747  0.406769  1
  F  F52  1  0.173598  0.471344  0.906769  1
  F  F53  1  0.250743  0.033082  0.458086  1
