# generated using pymatgen
data_Mn4(PO4)3
_symmetry_space_group_name_H-M   'P 1'
_cell_length_a   8.48568597
_cell_length_b   9.87500138
_cell_length_c   8.48568600
_cell_angle_alpha   64.36655053
_cell_angle_beta   60.22612207
_cell_angle_gamma   64.36655072
_symmetry_Int_Tables_number   1
_chemical_formula_structural   Mn4(PO4)3
_chemical_formula_sum   'Mn8 P6 O24'
_cell_volume   534.47335536
_cell_formula_units_Z   2
loop_
 _symmetry_equiv_pos_site_id
 _symmetry_equiv_pos_as_xyz
  1  'x, y, z'
loop_
 _atom_site_type_symbol
 _atom_site_label
 _atom_site_symmetry_multiplicity
 _atom_site_fract_x
 _atom_site_fract_y
 _atom_site_fract_z
 _atom_site_occupancy
  Mn  Mn0  1  0.710369  0.869777  0.707711  1
  Mn  Mn1  1  0.730988  0.531931  0.538835  1
  Mn  Mn2  1  0.535543  0.540202  0.194169  1
  Mn  Mn3  1  0.193558  0.534156  0.732356  1
  Mn  Mn4  1  0.694169  0.040202  0.035543  1
  Mn  Mn5  1  0.232356  0.034156  0.693558  1
  Mn  Mn6  1  0.207711  0.369777  0.210369  1
  Mn  Mn7  1  0.038835  0.031931  0.230988  1
  P  P8  1  0.920121  0.149289  0.599799  1
  P  P9  1  0.826696  0.655349  0.091712  1
  P  P10  1  0.421562  0.657903  0.830409  1
  P  P11  1  0.330409  0.157903  0.921562  1
  P  P12  1  0.591712  0.155349  0.326696  1
  P  P13  1  0.099799  0.649289  0.420121  1
  O  O14  1  0.985404  0.679190  0.621000  1
  O  O15  1  0.710788  0.687123  0.975599  1
  O  O16  1  0.936479  0.057591  0.800664  1
  O  O17  1  0.617720  0.693423  0.709560  1
  O  O18  1  0.819491  0.804345  0.108164  1
  O  O19  1  0.762217  0.298607  0.611635  1
  O  O20  1  0.901064  0.037834  0.528545  1
  O  O21  1  0.712337  0.558023  0.288754  1
  O  O22  1  0.259196  0.806240  0.829553  1
  O  O23  1  0.425470  0.557890  0.727509  1
  O  O24  1  0.537316  0.050524  0.907382  1
  O  O25  1  0.788754  0.058023  0.212337  1
  O  O26  1  0.608164  0.304345  0.319491  1
  O  O27  1  0.329553  0.306240  0.759196  1
  O  O28  1  0.513249  0.047676  0.532469  1
  O  O29  1  0.300664  0.557590  0.436479  1
  O  O30  1  0.227509  0.057890  0.925470  1
  O  O31  1  0.407382  0.550524  0.037316  1
  O  O32  1  0.475599  0.187123  0.210788  1
  O  O33  1  0.111635  0.798607  0.262217  1
  O  O34  1  0.028545  0.537834  0.401064  1
  O  O35  1  0.121000  0.179190  0.485404  1
  O  O36  1  0.209560  0.193423  0.117720  1
  O  O37  1  0.032469  0.547676  0.013249  1
