# generated using pymatgen
data_BaErAgS3
_symmetry_space_group_name_H-M   'P 1'
_cell_length_a   4.05828419
_cell_length_b   8.60324647
_cell_length_c   8.99848230
_cell_angle_alpha   102.66717756
_cell_angle_beta   103.02701607
_cell_angle_gamma   90.00743355
_symmetry_Int_Tables_number   1
_chemical_formula_structural   BaErAgS3
_chemical_formula_sum   'Ba2 Er2 Ag2 S6'
_cell_volume   298.23475762
_cell_formula_units_Z   2
loop_
 _symmetry_equiv_pos_site_id
 _symmetry_equiv_pos_as_xyz
  1  'x, y, z'
loop_
 _atom_site_type_symbol
 _atom_site_label
 _atom_site_symmetry_multiplicity
 _atom_site_fract_x
 _atom_site_fract_y
 _atom_site_fract_z
 _atom_site_occupancy
  Ba  Ba0  1  0.864141  0.431112  0.728288  1
  Ba  Ba1  1  0.135859  0.568888  0.271712  1
  Er  Er2  1  0.163826  0.080438  0.327647  1
  Er  Er3  1  0.836174  0.919562  0.672353  1
  Ag  Ag4  1  0.514731  0.208687  0.029256  1
  Ag  Ag5  1  0.485269  0.791313  0.970744  1
  S  S6  1  0.325252  0.129439  0.650573  1
  S  S7  1  0.674748  0.870561  0.349427  1
  S  S8  1  0.323982  0.700916  0.648082  1
  S  S9  1  0.676018  0.299084  0.351918  1
  S  S10  1  0.500000  0.500000  0.000000  1
  S  S11  1  0.000000  0.000000  0.000000  1
