# generated using pymatgen
data_RbTb(PO3)4
_symmetry_space_group_name_H-M   'P 1'
_cell_length_a   8.99621828
_cell_length_b   10.45852947
_cell_length_c   11.09231558
_cell_angle_alpha   106.44669053
_cell_angle_beta   90.00000000
_cell_angle_gamma   90.00000000
_symmetry_Int_Tables_number   1
_chemical_formula_structural   RbTb(PO3)4
_chemical_formula_sum   'Rb4 Tb4 P16 O48'
_cell_volume   1000.94284486
_cell_formula_units_Z   4
loop_
 _symmetry_equiv_pos_site_id
 _symmetry_equiv_pos_as_xyz
  1  'x, y, z'
loop_
 _atom_site_type_symbol
 _atom_site_label
 _atom_site_symmetry_multiplicity
 _atom_site_fract_x
 _atom_site_fract_y
 _atom_site_fract_z
 _atom_site_occupancy
  Tb  Tb0  1  0.226907  0.001358  0.816957  1
  Tb  Tb1  1  0.773093  0.998642  0.183043  1
  Tb  Tb2  1  0.273093  0.501358  0.316957  1
  Tb  Tb3  1  0.726907  0.498642  0.683043  1
  Rb  Rb4  1  0.066582  0.193539  0.458077  1
  Rb  Rb5  1  0.933418  0.806461  0.541923  1
  Rb  Rb6  1  0.566582  0.306461  0.041923  1
  Rb  Rb7  1  0.433418  0.693539  0.958077  1
  P  P8  1  0.109123  0.324333  0.022916  1
  P  P9  1  0.171543  0.959985  0.135801  1
  P  P10  1  0.671543  0.540015  0.364199  1
  P  P11  1  0.974194  0.252224  0.777981  1
  P  P12  1  0.390877  0.824333  0.522916  1
  P  P13  1  0.592129  0.853171  0.741288  1
  P  P14  1  0.025806  0.747776  0.222019  1
  P  P15  1  0.525806  0.752224  0.277981  1
  P  P16  1  0.609123  0.175667  0.477084  1
  P  P17  1  0.407871  0.146829  0.258712  1
  P  P18  1  0.328457  0.459985  0.635801  1
  P  P19  1  0.474194  0.247776  0.722019  1
  P  P20  1  0.092129  0.646829  0.758712  1
  P  P21  1  0.828457  0.040015  0.864199  1
  P  P22  1  0.890877  0.675667  0.977084  1
  P  P23  1  0.907871  0.353171  0.241288  1
  O  O24  1  0.711687  0.067921  0.404505  1
  O  O25  1  0.823571  0.234538  0.254622  1
  O  O26  1  0.676429  0.734538  0.754622  1
  O  O27  1  0.791466  0.475224  0.254051  1
  O  O28  1  0.788313  0.567921  0.904505  1
  O  O29  1  0.048057  0.669783  0.903835  1
  O  O30  1  0.915131  0.854418  0.283515  1
  O  O31  1  0.959674  0.599741  0.675771  1
  O  O32  1  0.342210  0.313673  0.658912  1
  O  O33  1  0.323571  0.265462  0.245378  1
  O  O34  1  0.548057  0.830217  0.596165  1
  O  O35  1  0.084869  0.145582  0.716485  1
  O  O36  1  0.211687  0.432079  0.095495  1
  O  O37  1  0.459674  0.900259  0.824229  1
  O  O38  1  0.741551  0.561953  0.490836  1
  O  O39  1  0.970786  0.963721  0.830286  1
  O  O40  1  0.291466  0.024776  0.245949  1
  O  O41  1  0.241551  0.938047  0.009164  1
  O  O42  1  0.594261  0.829949  0.197730  1
  O  O43  1  0.157790  0.813673  0.158912  1
  O  O44  1  0.470786  0.536279  0.669714  1
  O  O45  1  0.584869  0.354418  0.783515  1
  O  O46  1  0.415131  0.645582  0.216485  1
  O  O47  1  0.758449  0.061953  0.990836  1
  O  O48  1  0.453239  0.860220  0.399255  1
  O  O49  1  0.046761  0.360220  0.899255  1
  O  O50  1  0.258449  0.438047  0.509164  1
  O  O51  1  0.665624  0.316076  0.517796  1
  O  O52  1  0.842210  0.186327  0.841088  1
  O  O53  1  0.951943  0.330217  0.096165  1
  O  O54  1  0.176429  0.765462  0.745378  1
  O  O55  1  0.405739  0.170051  0.802270  1
  O  O56  1  0.657790  0.686327  0.341088  1
  O  O57  1  0.905739  0.329949  0.697730  1
  O  O58  1  0.094261  0.670051  0.302270  1
  O  O59  1  0.529214  0.463721  0.330286  1
  O  O60  1  0.165624  0.183924  0.982204  1
  O  O61  1  0.540326  0.099741  0.175771  1
  O  O62  1  0.040326  0.400259  0.324229  1
  O  O63  1  0.834376  0.816076  0.017796  1
  O  O64  1  0.451943  0.169783  0.403835  1
  O  O65  1  0.953239  0.639780  0.100745  1
  O  O66  1  0.288313  0.932079  0.595495  1
  O  O67  1  0.708534  0.975224  0.754051  1
  O  O68  1  0.208534  0.524776  0.745949  1
  O  O69  1  0.546761  0.139780  0.600745  1
  O  O70  1  0.334376  0.683924  0.482204  1
  O  O71  1  0.029214  0.036279  0.169714  1
