# generated using pymatgen
data_CaAs2(XeF5)4
_symmetry_space_group_name_H-M   'P 1'
_cell_length_a   8.55844070
_cell_length_b   8.83466606
_cell_length_c   15.64353421
_cell_angle_alpha   90.00000000
_cell_angle_beta   90.00000000
_cell_angle_gamma   111.68104416
_symmetry_Int_Tables_number   1
_chemical_formula_structural   CaAs2(XeF5)4
_chemical_formula_sum   'Ca2 As4 Xe8 F40'
_cell_volume   1099.14375383
_cell_formula_units_Z   2
loop_
 _symmetry_equiv_pos_site_id
 _symmetry_equiv_pos_as_xyz
  1  'x, y, z'
loop_
 _atom_site_type_symbol
 _atom_site_label
 _atom_site_symmetry_multiplicity
 _atom_site_fract_x
 _atom_site_fract_y
 _atom_site_fract_z
 _atom_site_occupancy
  Ca  Ca0  1  0.364957  0.408022  0.159782  1
  Ca  Ca1  1  0.635043  0.591978  0.659782  1
  As  As2  1  0.801612  0.325735  0.491352  1
  As  As3  1  0.283720  0.156065  0.730411  1
  As  As4  1  0.198388  0.674265  0.991352  1
  As  As5  1  0.716280  0.843935  0.230411  1
  Xe  Xe6  1  0.031217  0.085888  0.987446  1
  Xe  Xe7  1  0.757667  0.091562  0.752304  1
  Xe  Xe8  1  0.159951  0.632501  0.706328  1
  Xe  Xe9  1  0.968783  0.914112  0.487446  1
  Xe  Xe10  1  0.641154  0.527030  0.935760  1
  Xe  Xe11  1  0.840049  0.367499  0.206328  1
  Xe  Xe12  1  0.242333  0.908438  0.252304  1
  Xe  Xe13  1  0.358846  0.472970  0.435760  1
  F  F14  1  0.062394  0.673399  0.077151  1
  F  F15  1  0.095770  0.984552  0.744002  1
  F  F16  1  0.922889  0.635876  0.677380  1
  F  F17  1  0.600596  0.363010  0.230758  1
  F  F18  1  0.799311  0.721958  0.291366  1
  F  F19  1  0.628237  0.890894  0.323896  1
  F  F20  1  0.408535  0.558339  0.561693  1
  F  F21  1  0.591465  0.441661  0.061693  1
  F  F22  1  0.717213  0.871725  0.686546  1
  F  F23  1  0.478157  0.333883  0.716915  1
  F  F24  1  0.200689  0.278042  0.791366  1
  F  F25  1  0.372039  0.039876  0.668976  1
  F  F26  1  0.077111  0.364124  0.177380  1
  F  F27  1  0.937606  0.326601  0.577151  1
  F  F28  1  0.371763  0.109106  0.823896  1
  F  F29  1  0.697277  0.615941  0.812487  1
  F  F30  1  0.794327  0.786641  0.136400  1
  F  F31  1  0.071123  0.468210  0.970770  1
  F  F32  1  0.205673  0.213359  0.636400  1
  F  F33  1  0.324819  0.876685  0.016299  1
  F  F34  1  0.928877  0.531790  0.470770  1
  F  F35  1  0.323538  0.604956  0.065434  1
  F  F36  1  0.399404  0.636990  0.730758  1
  F  F37  1  0.675181  0.123315  0.516299  1
  F  F38  1  0.923296  0.261005  0.418981  1
  F  F39  1  0.904230  0.015448  0.244002  1
  F  F40  1  0.662960  0.330186  0.408782  1
  F  F41  1  0.196366  0.691784  0.313983  1
  F  F42  1  0.190102  0.078968  0.441215  1
  F  F43  1  0.282787  0.128275  0.186546  1
  F  F44  1  0.302723  0.384059  0.312487  1
  F  F45  1  0.521843  0.666117  0.216915  1
  F  F46  1  0.258681  0.262212  0.031972  1
  F  F47  1  0.741319  0.737788  0.531972  1
  F  F48  1  0.809898  0.921032  0.941215  1
  F  F49  1  0.627961  0.960125  0.168976  1
  F  F50  1  0.803634  0.308216  0.813983  1
  F  F51  1  0.076704  0.738995  0.918981  1
  F  F52  1  0.337040  0.669814  0.908782  1
  F  F53  1  0.676462  0.395044  0.565434  1
