# generated using pymatgen
data_Ni(SbO2)2
_symmetry_space_group_name_H-M   'P 1'
_cell_length_a   6.06561030
_cell_length_b   8.48583079
_cell_length_c   8.48583079
_cell_angle_alpha   90.00000000
_cell_angle_beta   90.00000000
_cell_angle_gamma   90.00000000
_symmetry_Int_Tables_number   1
_chemical_formula_structural   Ni(SbO2)2
_chemical_formula_sum   'Ni4 Sb8 O16'
_cell_volume   436.78049854
_cell_formula_units_Z   4
loop_
 _symmetry_equiv_pos_site_id
 _symmetry_equiv_pos_as_xyz
  1  'x, y, z'
loop_
 _atom_site_type_symbol
 _atom_site_label
 _atom_site_symmetry_multiplicity
 _atom_site_fract_x
 _atom_site_fract_y
 _atom_site_fract_z
 _atom_site_occupancy
  O  O0  1  0.500000  0.862572  0.402528  1
  O  O1  1  0.500000  0.137428  0.597473  1
  O  O2  1  0.000000  0.402528  0.137428  1
  O  O3  1  0.000000  0.597473  0.862572  1
  O  O4  1  0.000000  0.902528  0.362573  1
  O  O5  1  0.500000  0.637428  0.902528  1
  O  O6  1  0.500000  0.362573  0.097472  1
  O  O7  1  0.000000  0.097472  0.637428  1
  O  O8  1  0.749999  0.676352  0.176351  1
  O  O9  1  0.250000  0.823648  0.676352  1
  O  O10  1  0.250000  0.176351  0.323649  1
  O  O11  1  0.749999  0.323649  0.823648  1
  O  O12  1  0.250000  0.676352  0.176351  1
  O  O13  1  0.749999  0.823648  0.676352  1
  O  O14  1  0.250000  0.323649  0.823648  1
  O  O15  1  0.749999  0.176351  0.323649  1
  Ni  Ni16  1  0.250000  0.000000  0.500000  1
  Ni  Ni17  1  0.749999  0.500000  0.000000  1
  Ni  Ni18  1  0.749999  0.000000  0.500000  1
  Ni  Ni19  1  0.250000  0.500000  0.000000  1
  Sb  Sb20  1  0.500000  0.834691  0.172311  1
  Sb  Sb21  1  0.500000  0.165310  0.827690  1
  Sb  Sb22  1  0.000000  0.827690  0.834691  1
  Sb  Sb23  1  0.000000  0.172311  0.165310  1
  Sb  Sb24  1  0.000000  0.672311  0.334691  1
  Sb  Sb25  1  0.000000  0.327689  0.665310  1
  Sb  Sb26  1  0.500000  0.665310  0.672311  1
  Sb  Sb27  1  0.500000  0.334691  0.327689  1
