# generated using pymatgen
data_Cs2Lu7CCl18
_symmetry_space_group_name_H-M   'P 1'
_cell_length_a   10.78157446
_cell_length_b   10.78157447
_cell_length_c   10.78157414
_cell_angle_alpha   54.90569079
_cell_angle_beta   54.90569073
_cell_angle_gamma   54.90568772
_symmetry_Int_Tables_number   1
_chemical_formula_structural   Cs2Lu7CCl18
_chemical_formula_sum   'Cs2 Lu7 C1 Cl18'
_cell_volume   781.11865117
_cell_formula_units_Z   1
loop_
 _symmetry_equiv_pos_site_id
 _symmetry_equiv_pos_as_xyz
  1  'x, y, z'
loop_
 _atom_site_type_symbol
 _atom_site_label
 _atom_site_symmetry_multiplicity
 _atom_site_fract_x
 _atom_site_fract_y
 _atom_site_fract_z
 _atom_site_occupancy
  Cs  Cs0  1  0.777796  0.777796  0.777796  1
  Cs  Cs1  1  0.222204  0.222204  0.222204  1
  Lu  Lu2  1  0.776290  0.177403  0.891753  1
  Lu  Lu3  1  0.177403  0.891753  0.776290  1
  Lu  Lu4  1  0.822597  0.108247  0.223710  1
  Lu  Lu5  1  0.223710  0.822597  0.108247  1
  Lu  Lu6  1  0.500000  0.500000  0.500000  1
  Lu  Lu7  1  0.108247  0.223710  0.822597  1
  Lu  Lu8  1  0.891753  0.776290  0.177403  1
  C  C9  1  0.000000  0.000000  0.000000  1
  Cl  Cl10  1  0.129609  0.578041  0.284751  1
  Cl  Cl11  1  0.356883  0.783557  0.525257  1
  Cl  Cl12  1  0.343539  0.053022  0.932830  1
  Cl  Cl13  1  0.946978  0.067170  0.656461  1
  Cl  Cl14  1  0.525257  0.356883  0.783557  1
  Cl  Cl15  1  0.284751  0.129609  0.578041  1
  Cl  Cl16  1  0.421959  0.715249  0.870391  1
  Cl  Cl17  1  0.216443  0.474743  0.643117  1
  Cl  Cl18  1  0.932830  0.343539  0.053022  1
  Cl  Cl19  1  0.578041  0.284751  0.129609  1
  Cl  Cl20  1  0.715249  0.870391  0.421959  1
  Cl  Cl21  1  0.870391  0.421959  0.715249  1
  Cl  Cl22  1  0.067170  0.656461  0.946978  1
  Cl  Cl23  1  0.643117  0.216443  0.474743  1
  Cl  Cl24  1  0.783557  0.525257  0.356883  1
  Cl  Cl25  1  0.474743  0.643117  0.216443  1
  Cl  Cl26  1  0.656461  0.946978  0.067170  1
  Cl  Cl27  1  0.053022  0.932830  0.343539  1
