# generated using pymatgen
data_Ca21(Mn2Sb9)2
_symmetry_space_group_name_H-M   'P 1'
_cell_length_a   12.12829993
_cell_length_b   12.12830010
_cell_length_c   17.08249540
_cell_angle_alpha   88.53489726
_cell_angle_beta   88.53489726
_cell_angle_gamma   87.50880555
_symmetry_Int_Tables_number   1
_chemical_formula_structural   Ca21(Mn2Sb9)2
_chemical_formula_sum   'Ca42 Mn8 Sb36'
_cell_volume   2508.81294046
_cell_formula_units_Z   2
loop_
 _symmetry_equiv_pos_site_id
 _symmetry_equiv_pos_as_xyz
  1  'x, y, z'
loop_
 _atom_site_type_symbol
 _atom_site_label
 _atom_site_symmetry_multiplicity
 _atom_site_fract_x
 _atom_site_fract_y
 _atom_site_fract_z
 _atom_site_occupancy
  Ca  Ca0  1  0.004602  0.678527  0.936048  1
  Ca  Ca1  1  0.773156  0.504945  0.557693  1
  Ca  Ca2  1  0.995398  0.321472  0.063952  1
  Ca  Ca3  1  0.504945  0.773156  0.557693  1
  Ca  Ca4  1  0.432419  0.075621  0.256484  1
  Ca  Ca5  1  0.259225  0.574647  0.850278  1
  Ca  Ca6  1  0.750097  0.420512  0.354393  1
  Ca  Ca7  1  0.757459  0.099143  0.341609  1
  Ca  Ca8  1  0.508178  0.269239  0.076586  1
  Ca  Ca9  1  0.075621  0.432419  0.256484  1
  Ca  Ca10  1  0.099143  0.757459  0.341609  1
  Ca  Ca11  1  0.900857  0.242541  0.658391  1
  Ca  Ca12  1  0.495055  0.226844  0.442307  1
  Ca  Ca13  1  0.071174  0.822538  0.118188  1
  Ca  Ca14  1  0.242541  0.900857  0.658391  1
  Ca  Ca15  1  0.425353  0.740775  0.149722  1
  Ca  Ca16  1  0.242269  0.990081  0.443068  1
  Ca  Ca17  1  0.822538  0.071174  0.118188  1
  Ca  Ca18  1  0.009919  0.757731  0.556932  1
  Ca  Ca19  1  0.924379  0.567581  0.743516  1
  Ca  Ca20  1  0.903572  0.903572  0.755074  1
  Ca  Ca21  1  0.226844  0.495055  0.442307  1
  Ca  Ca22  1  0.574647  0.259225  0.850278  1
  Ca  Ca23  1  0.579488  0.249903  0.645607  1
  Ca  Ca24  1  0.420512  0.750097  0.354393  1
  Ca  Ca25  1  0.321472  0.995398  0.063952  1
  Ca  Ca26  1  0.757731  0.009919  0.556932  1
  Ca  Ca27  1  0.740775  0.425353  0.149722  1
  Ca  Ca28  1  0.928826  0.177462  0.881812  1
  Ca  Ca29  1  0.269239  0.508178  0.076586  1
  Ca  Ca30  1  0.766276  0.766276  0.411758  1
  Ca  Ca31  1  0.678527  0.004602  0.936048  1
  Ca  Ca32  1  0.491822  0.730761  0.923414  1
  Ca  Ca33  1  0.753177  0.753177  0.076862  1
  Ca  Ca34  1  0.246823  0.246823  0.923138  1
  Ca  Ca35  1  0.177462  0.928826  0.881812  1
  Ca  Ca36  1  0.990081  0.242269  0.443068  1
  Ca  Ca37  1  0.567581  0.924379  0.743516  1
  Ca  Ca38  1  0.096428  0.096428  0.244926  1
  Ca  Ca39  1  0.233724  0.233724  0.588242  1
  Ca  Ca40  1  0.730761  0.491822  0.923414  1
  Ca  Ca41  1  0.249903  0.579488  0.645607  1
  Mn  Mn42  1  0.348461  0.123219  0.749182  1
  Mn  Mn43  1  0.501862  0.501862  0.704966  1
  Mn  Mn44  1  0.651539  0.876780  0.250818  1
  Mn  Mn45  1  0.657725  0.657725  0.741903  1
  Mn  Mn46  1  0.123219  0.348461  0.749182  1
  Mn  Mn47  1  0.498138  0.498138  0.295034  1
  Mn  Mn48  1  0.342275  0.342275  0.258097  1
  Mn  Mn49  1  0.876780  0.651539  0.250818  1
  Sb  Sb50  1  0.075479  0.075479  0.035232  1
  Sb  Sb51  1  0.924521  0.924521  0.964768  1
  Sb  Sb52  1  0.746367  0.746367  0.873993  1
  Sb  Sb53  1  0.712763  0.430937  0.739078  1
  Sb  Sb54  1  0.761386  0.761386  0.616421  1
  Sb  Sb55  1  0.569063  0.287237  0.260922  1
  Sb  Sb56  1  0.119608  0.119608  0.757206  1
  Sb  Sb57  1  0.424915  0.039570  0.889626  1
  Sb  Sb58  1  0.450291  0.450291  0.933471  1
  Sb  Sb59  1  0.430937  0.712763  0.739078  1
  Sb  Sb60  1  0.255573  0.744427  0.500000  1
  Sb  Sb61  1  0.960430  0.575085  0.110374  1
  Sb  Sb62  1  0.238614  0.238614  0.383579  1
  Sb  Sb63  1  0.739378  0.100484  0.756521  1
  Sb  Sb64  1  0.036035  0.036035  0.577718  1
  Sb  Sb65  1  0.744824  0.255176  0.000000  1
  Sb  Sb66  1  0.048385  0.436554  0.600558  1
  Sb  Sb67  1  0.880392  0.880392  0.242794  1
  Sb  Sb68  1  0.260622  0.899516  0.243479  1
  Sb  Sb69  1  0.100484  0.739378  0.756521  1
  Sb  Sb70  1  0.563554  0.563554  0.441334  1
  Sb  Sb71  1  0.350343  0.350343  0.748707  1
  Sb  Sb72  1  0.436446  0.436446  0.558666  1
  Sb  Sb73  1  0.549709  0.549709  0.066529  1
  Sb  Sb74  1  0.744427  0.255573  0.500000  1
  Sb  Sb75  1  0.255176  0.744824  0.000000  1
  Sb  Sb76  1  0.253633  0.253633  0.126007  1
  Sb  Sb77  1  0.649657  0.649657  0.251293  1
  Sb  Sb78  1  0.287237  0.569063  0.260922  1
  Sb  Sb79  1  0.899516  0.260622  0.243479  1
  Sb  Sb80  1  0.575085  0.960430  0.110374  1
  Sb  Sb81  1  0.951615  0.563446  0.399442  1
  Sb  Sb82  1  0.963965  0.963965  0.422282  1
  Sb  Sb83  1  0.436554  0.048385  0.600558  1
  Sb  Sb84  1  0.039570  0.424915  0.889626  1
  Sb  Sb85  1  0.563446  0.951615  0.399442  1
