# generated using pymatgen
data_Rb4CO4
_symmetry_space_group_name_H-M   'P 1'
_cell_length_a   5.60313896
_cell_length_b   6.91218240
_cell_length_c   6.91190367
_cell_angle_alpha   80.54719196
_cell_angle_beta   66.09572113
_cell_angle_gamma   66.08950594
_symmetry_Int_Tables_number   1
_chemical_formula_structural   Rb4CO4
_chemical_formula_sum   'Rb4 C1 O4'
_cell_volume   223.73211286
_cell_formula_units_Z   1
loop_
 _symmetry_equiv_pos_site_id
 _symmetry_equiv_pos_as_xyz
  1  'x, y, z'
loop_
 _atom_site_type_symbol
 _atom_site_label
 _atom_site_symmetry_multiplicity
 _atom_site_fract_x
 _atom_site_fract_y
 _atom_site_fract_z
 _atom_site_occupancy
  O  O0  1  0.260049  0.000000  0.188914  1
  Rb  Rb1  1  0.982316  0.347059  0.000023  1
  Rb  Rb2  1  0.017672  1.000000  0.652947  1
  Rb  Rb3  1  0.329375  0.652941  0.000023  1
  C  C4  1  0.500003  0.000000  0.999990  1
  Rb  Rb5  1  0.670602  1.000000  0.347067  1
  O  O6  1  0.740057  0.811104  0.999957  1
  O  O7  1  0.448766  0.000000  0.811122  1
  O  O8  1  0.551160  0.188896  0.999957  1
