# generated using pymatgen
data_Ba14MnBi11
_symmetry_space_group_name_H-M   'P 1'
_cell_length_a   18.23613082
_cell_length_b   18.23623332
_cell_length_c   18.23623336
_cell_angle_alpha   94.47294613
_cell_angle_beta   117.45212746
_cell_angle_gamma   117.45212891
_symmetry_Int_Tables_number   1
_chemical_formula_structural   Ba14MnBi11
_chemical_formula_sum   'Ba56 Mn4 Bi44'
_cell_volume   4438.83532121
_cell_formula_units_Z   4
loop_
 _symmetry_equiv_pos_site_id
 _symmetry_equiv_pos_as_xyz
  1  'x, y, z'
loop_
 _atom_site_type_symbol
 _atom_site_label
 _atom_site_symmetry_multiplicity
 _atom_site_fract_x
 _atom_site_fract_y
 _atom_site_fract_z
 _atom_site_occupancy
  Ba  Ba0  1  0.471078  0.099810  0.715707  1
  Ba  Ba1  1  0.911118  0.475555  0.248456  1
  Ba  Ba2  1  0.143368  0.749992  0.893371  1
  Ba  Ba3  1  0.143378  0.893376  0.250002  1
  Ba  Ba4  1  0.411118  0.748456  0.975555  1
  Ba  Ba5  1  0.727102  0.662661  0.251549  1
  Ba  Ba6  1  0.354461  0.874059  0.478073  1
  Ba  Ba7  1  0.588882  0.251544  0.024445  1
  Ba  Ba8  1  0.227105  0.975556  0.064447  1
  Ba  Ba9  1  0.227102  0.751549  0.162661  1
  Ba  Ba10  1  0.528922  0.900190  0.284293  1
  Ba  Ba11  1  0.384113  0.599817  0.128731  1
  Ba  Ba12  1  0.588887  0.837341  0.564439  1
  Ba  Ba13  1  0.411113  0.162659  0.435561  1
  Ba  Ba14  1  0.615903  0.715714  0.744637  1
  Ba  Ba15  1  0.971092  0.255390  0.371275  1
  Ba  Ba16  1  0.643368  0.393371  0.249992  1
  Ba  Ba17  1  0.145539  0.021927  0.625941  1
  Ba  Ba18  1  0.145544  0.623611  0.519585  1
  Ba  Ba19  1  0.854456  0.376389  0.480415  1
  Ba  Ba20  1  0.272898  0.337339  0.748451  1
  Ba  Ba21  1  0.356622  0.249998  0.606624  1
  Ba  Ba22  1  0.028922  0.784293  0.400190  1
  Ba  Ba23  1  0.895967  0.519577  0.874028  1
  Ba  Ba24  1  0.356632  0.606629  0.750008  1
  Ba  Ba25  1  0.604025  0.478070  0.623614  1
  Ba  Ba26  1  0.884113  0.628731  0.099817  1
  Ba  Ba27  1  0.104033  0.480423  0.125972  1
  Ba  Ba28  1  0.854461  0.978073  0.374059  1
  Ba  Ba29  1  0.272895  0.435553  0.524444  1
  Ba  Ba30  1  0.856622  0.106624  0.749998  1
  Ba  Ba31  1  0.645544  0.019585  0.123611  1
  Ba  Ba32  1  0.884097  0.755363  0.784286  1
  Ba  Ba33  1  0.471092  0.871275  0.755390  1
  Ba  Ba34  1  0.115887  0.371269  0.900183  1
  Ba  Ba35  1  0.088887  0.064439  0.337341  1
  Ba  Ba36  1  0.395967  0.374028  0.019577  1
  Ba  Ba37  1  0.772895  0.024444  0.935553  1
  Ba  Ba38  1  0.104025  0.123614  0.978070  1
  Ba  Ba39  1  0.615887  0.400183  0.871269  1
  Ba  Ba40  1  0.088882  0.524445  0.751544  1
  Ba  Ba41  1  0.354456  0.980415  0.876389  1
  Ba  Ba42  1  0.384097  0.284286  0.255363  1
  Ba  Ba43  1  0.856632  0.250008  0.106629  1
  Ba  Ba44  1  0.115903  0.244637  0.215714  1
  Ba  Ba45  1  0.528908  0.128725  0.244610  1
  Ba  Ba46  1  0.395975  0.521930  0.376386  1
  Ba  Ba47  1  0.645539  0.125941  0.521927  1
  Ba  Ba48  1  0.727105  0.564447  0.475556  1
  Ba  Ba49  1  0.604033  0.625972  0.980423  1
  Ba  Ba50  1  0.971078  0.215707  0.599810  1
  Ba  Ba51  1  0.643378  0.750002  0.393376  1
  Ba  Ba52  1  0.028908  0.744610  0.628725  1
  Ba  Ba53  1  0.911113  0.935561  0.662659  1
  Ba  Ba54  1  0.895975  0.876386  0.021930  1
  Ba  Ba55  1  0.772898  0.248451  0.837339  1
  Mn  Mn56  1  0.750088  0.875075  0.125043  1
  Mn  Mn57  1  0.250088  0.625043  0.375075  1
  Mn  Mn58  1  0.249913  0.124925  0.874957  1
  Mn  Mn59  1  0.749912  0.374957  0.624925  1
  Bi  Bi60  1  0.606723  0.020760  0.679273  1
  Bi  Bi61  1  0.511961  0.505979  0.255980  1
  Bi  Bi62  1  0.380780  0.680674  0.567224  1
  Bi  Bi63  1  0.880780  0.067224  0.180674  1
  Bi  Bi64  1  0.619220  0.319326  0.432776  1
  Bi  Bi65  1  0.158510  0.585961  0.979239  1
  Bi  Bi66  1  0.250000  0.005981  0.494019  1
  Bi  Bi67  1  0.750000  0.125002  0.374998  1
  Bi  Bi68  1  0.886540  0.819348  0.200100  1
  Bi  Bi69  1  0.658510  0.479239  0.085961  1
  Bi  Bi70  1  0.341494  0.320728  0.427453  1
  Bi  Bi71  1  0.250000  0.744021  0.755979  1
  Bi  Bi72  1  0.341490  0.520761  0.914039  1
  Bi  Bi73  1  0.011961  0.755980  0.005979  1
  Bi  Bi74  1  0.658506  0.679272  0.572547  1
  Bi  Bi75  1  0.106723  0.179273  0.520760  1
  Bi  Bi76  1  0.893272  0.572543  0.414034  1
  Bi  Bi77  1  0.613460  0.299900  0.680652  1
  Bi  Bi78  1  0.386477  0.186405  0.067127  1
  Bi  Bi79  1  0.119220  0.932776  0.819326  1
  Bi  Bi80  1  0.250000  0.874998  0.625002  1
  Bi  Bi81  1  0.488039  0.494021  0.744020  1
  Bi  Bi82  1  0.106728  0.427457  0.585966  1
  Bi  Bi83  1  0.393272  0.914034  0.072543  1
  Bi  Bi84  1  0.750000  0.994019  0.505981  1
  Bi  Bi85  1  0.113523  0.432873  0.313595  1
  Bi  Bi86  1  0.393277  0.979240  0.320727  1
  Bi  Bi87  1  0.606728  0.085966  0.927457  1
  Bi  Bi88  1  0.380719  0.200071  0.813569  1
  Bi  Bi89  1  0.841494  0.927453  0.820728  1
  Bi  Bi90  1  0.880719  0.313569  0.700071  1
  Bi  Bi91  1  0.841490  0.414039  0.020761  1
  Bi  Bi92  1  0.158506  0.072547  0.179272  1
  Bi  Bi93  1  0.113460  0.180652  0.799900  1
  Bi  Bi94  1  0.613523  0.813595  0.932873  1
  Bi  Bi95  1  0.619281  0.799929  0.186431  1
  Bi  Bi96  1  0.886477  0.567127  0.686405  1
  Bi  Bi97  1  0.119281  0.686431  0.299929  1
  Bi  Bi98  1  0.988039  0.244020  0.994021  1
  Bi  Bi99  1  0.750000  0.624999  0.875001  1
  Bi  Bi100  1  0.750000  0.255979  0.244021  1
  Bi  Bi101  1  0.386540  0.700100  0.319348  1
  Bi  Bi102  1  0.250000  0.375001  0.124999  1
  Bi  Bi103  1  0.893277  0.820727  0.479240  1
