# generated using pymatgen
data_SiO2
_symmetry_space_group_name_H-M   'P 1'
_cell_length_a   5.13595712
_cell_length_b   9.51577240
_cell_length_c   18.32549987
_cell_angle_alpha   90.00000000
_cell_angle_beta   90.00000000
_cell_angle_gamma   105.65626275
_symmetry_Int_Tables_number   1
_chemical_formula_structural   SiO2
_chemical_formula_sum   'Si16 O32'
_cell_volume   862.38573425
_cell_formula_units_Z   16
loop_
 _symmetry_equiv_pos_site_id
 _symmetry_equiv_pos_as_xyz
  1  'x, y, z'
loop_
 _atom_site_type_symbol
 _atom_site_label
 _atom_site_symmetry_multiplicity
 _atom_site_fract_x
 _atom_site_fract_y
 _atom_site_fract_z
 _atom_site_occupancy
  Si  Si0  1  0.354756  0.399624  0.000000  1
  Si  Si1  1  0.197121  0.000000  0.300192  1
  Si  Si2  1  0.003332  0.154387  0.077200  1
  Si  Si3  1  0.955132  0.600376  0.000000  1
  Si  Si4  1  0.348945  0.845613  0.577200  1
  Si  Si5  1  0.503332  0.154387  0.422800  1
  Si  Si6  1  0.003332  0.154387  0.922800  1
  Si  Si7  1  0.348945  0.845613  0.422800  1
  Si  Si8  1  0.503332  0.154387  0.577200  1
  Si  Si9  1  0.848945  0.845613  0.922800  1
  Si  Si10  1  0.197121  0.000000  0.699808  1
  Si  Si11  1  0.697121  0.000000  0.199808  1
  Si  Si12  1  0.697121  0.000000  0.800192  1
  Si  Si13  1  0.854756  0.399624  0.500000  1
  Si  Si14  1  0.455132  0.600376  0.500000  1
  Si  Si15  1  0.848945  0.845613  0.077200  1
  O  O16  1  0.679414  0.841132  0.000000  1
  O  O17  1  0.662868  0.852644  0.148864  1
  O  O18  1  0.178393  0.467824  0.500000  1
  O  O19  1  0.338282  0.158868  0.500000  1
  O  O20  1  0.162868  0.852644  0.648864  1
  O  O21  1  0.407535  0.000000  0.766110  1
  O  O22  1  0.838282  0.158868  0.000000  1
  O  O23  1  0.810224  0.147356  0.148864  1
  O  O24  1  0.310224  0.147356  0.351136  1
  O  O25  1  0.210570  0.532176  0.000000  1
  O  O26  1  0.179414  0.841132  0.500000  1
  O  O27  1  0.966725  0.702232  0.073700  1
  O  O28  1  0.264494  0.297768  0.926300  1
  O  O29  1  0.093483  0.000000  0.079455  1
  O  O30  1  0.093483  0.000000  0.920545  1
  O  O31  1  0.466725  0.702232  0.573700  1
  O  O32  1  0.907535  0.000000  0.266110  1
  O  O33  1  0.907535  0.000000  0.733890  1
  O  O34  1  0.593483  0.000000  0.420545  1
  O  O35  1  0.310224  0.147356  0.648864  1
  O  O36  1  0.264494  0.297768  0.073700  1
  O  O37  1  0.710570  0.532176  0.500000  1
  O  O38  1  0.810224  0.147356  0.851136  1
  O  O39  1  0.466725  0.702232  0.426300  1
  O  O40  1  0.662868  0.852644  0.851136  1
  O  O41  1  0.593483  0.000000  0.579455  1
  O  O42  1  0.407535  0.000000  0.233890  1
  O  O43  1  0.162868  0.852644  0.351136  1
  O  O44  1  0.678393  0.467824  0.000000  1
  O  O45  1  0.764494  0.297768  0.426300  1
  O  O46  1  0.764494  0.297768  0.573700  1
  O  O47  1  0.966725  0.702232  0.926300  1
