# generated using pymatgen
data_RbZnB(PO4)2
_symmetry_space_group_name_H-M   'P 1'
_cell_length_a   7.54680880
_cell_length_b   7.75712880
_cell_length_c   7.95980811
_cell_angle_alpha   118.62841234
_cell_angle_beta   101.66163192
_cell_angle_gamma   103.70877336
_symmetry_Int_Tables_number   1
_chemical_formula_structural   RbZnB(PO4)2
_chemical_formula_sum   'Rb2 Zn2 B2 P4 O16'
_cell_volume   369.12953517
_cell_formula_units_Z   2
loop_
 _symmetry_equiv_pos_site_id
 _symmetry_equiv_pos_as_xyz
  1  'x, y, z'
loop_
 _atom_site_type_symbol
 _atom_site_label
 _atom_site_symmetry_multiplicity
 _atom_site_fract_x
 _atom_site_fract_y
 _atom_site_fract_z
 _atom_site_occupancy
  Rb  Rb0  1  0.275003  0.661617  0.416920  1
  Rb  Rb1  1  0.724997  0.338383  0.583080  1
  Zn  Zn2  1  0.198429  0.294313  0.741083  1
  Zn  Zn3  1  0.801571  0.705687  0.258917  1
  B  B4  1  0.297733  0.073582  0.069314  1
  B  B5  1  0.702267  0.926418  0.930686  1
  P  P6  1  0.034753  0.109915  0.275396  1
  P  P7  1  0.449688  0.778609  0.081421  1
  P  P8  1  0.550312  0.221391  0.918579  1
  P  P9  1  0.965247  0.890085  0.724604  1
  O  O10  1  0.199806  0.185725  0.203389  1
  O  O11  1  0.261907  0.580554  0.975683  1
  O  O12  1  0.084405  0.296259  0.495715  1
  O  O13  1  0.981432  0.101261  0.749634  1
  O  O14  1  0.800194  0.814275  0.796611  1
  O  O15  1  0.447135  0.245461  0.077770  1
  O  O16  1  0.595788  0.015116  0.837277  1
  O  O17  1  0.162025  0.904935  0.856495  1
  O  O18  1  0.837975  0.095065  0.143505  1
  O  O19  1  0.409292  0.184900  0.724405  1
  O  O20  1  0.915595  0.703741  0.504285  1
  O  O21  1  0.018568  0.898739  0.250366  1
  O  O22  1  0.552865  0.754539  0.922230  1
  O  O23  1  0.590708  0.815100  0.275595  1
  O  O24  1  0.404212  0.984884  0.162723  1
  O  O25  1  0.738093  0.419446  0.024317  1
