# generated using pymatgen
data_BaNdGaO4
_symmetry_space_group_name_H-M   'P 1'
_cell_length_a   5.91758144
_cell_length_b   7.19355038
_cell_length_c   10.02194404
_cell_angle_alpha   90.00000000
_cell_angle_beta   90.00000000
_cell_angle_gamma   90.00000000
_symmetry_Int_Tables_number   1
_chemical_formula_structural   BaNdGaO4
_chemical_formula_sum   'Ba4 Nd4 Ga4 O16'
_cell_volume   426.61832528
_cell_formula_units_Z   4
loop_
 _symmetry_equiv_pos_site_id
 _symmetry_equiv_pos_as_xyz
  1  'x, y, z'
loop_
 _atom_site_type_symbol
 _atom_site_label
 _atom_site_symmetry_multiplicity
 _atom_site_fract_x
 _atom_site_fract_y
 _atom_site_fract_z
 _atom_site_occupancy
  Ba  Ba0  1  0.756430  0.672943  0.328406  1
  Ba  Ba1  1  0.256430  0.327057  0.171594  1
  Ba  Ba2  1  0.743570  0.172943  0.671594  1
  Ba  Ba3  1  0.243570  0.827057  0.828406  1
  Nd  Nd4  1  0.761649  0.502994  0.951213  1
  Nd  Nd5  1  0.261649  0.497006  0.548787  1
  Nd  Nd6  1  0.738351  0.002994  0.048787  1
  Nd  Nd7  1  0.238351  0.997006  0.451213  1
  Ga  Ga8  1  0.736445  0.716502  0.666946  1
  Ga  Ga9  1  0.236445  0.283498  0.833054  1
  Ga  Ga10  1  0.763555  0.216502  0.333054  1
  Ga  Ga11  1  0.263555  0.783498  0.166946  1
  O  O12  1  0.751303  0.850246  0.827648  1
  O  O13  1  0.251303  0.149754  0.672352  1
  O  O14  1  0.748697  0.350246  0.172352  1
  O  O15  1  0.248697  0.649754  0.327648  1
  O  O16  1  0.507387  0.804274  0.551335  1
  O  O17  1  0.007387  0.195726  0.948665  1
  O  O18  1  0.992613  0.304274  0.448665  1
  O  O19  1  0.492613  0.695726  0.051335  1
  O  O20  1  0.581599  0.502653  0.721174  1
  O  O21  1  0.081599  0.497347  0.778826  1
  O  O22  1  0.918401  0.002653  0.278826  1
  O  O23  1  0.418401  0.997347  0.221174  1
  O  O24  1  0.997572  0.762315  0.567342  1
  O  O25  1  0.497572  0.237685  0.932658  1
  O  O26  1  0.502428  0.262315  0.432658  1
  O  O27  1  0.002428  0.737685  0.067342  1
