# generated using pymatgen
data_Pr4S3N2
_symmetry_space_group_name_H-M   'P 1'
_cell_length_a   9.99375661
_cell_length_b   10.33326541
_cell_length_c   10.43702831
_cell_angle_alpha   76.41916739
_cell_angle_beta   61.39526284
_cell_angle_gamma   61.08104449
_symmetry_Int_Tables_number   1
_chemical_formula_structural   Pr4S3N2
_chemical_formula_sum   'Pr16 S12 N8'
_cell_volume   828.25665205
_cell_formula_units_Z   4
loop_
 _symmetry_equiv_pos_site_id
 _symmetry_equiv_pos_as_xyz
  1  'x, y, z'
loop_
 _atom_site_type_symbol
 _atom_site_label
 _atom_site_symmetry_multiplicity
 _atom_site_fract_x
 _atom_site_fract_y
 _atom_site_fract_z
 _atom_site_occupancy
  Pr  Pr0  1  0.363851  0.790648  0.562958  1
  Pr  Pr1  1  0.917236  0.246100  0.025003  1
  Pr  Pr2  1  0.811661  0.746100  0.525003  1
  Pr  Pr3  1  0.636149  0.209352  0.437042  1
  Pr  Pr4  1  0.282544  0.290648  0.062958  1
  Pr  Pr5  1  0.797126  0.500711  0.315449  1
  Pr  Pr6  1  0.578009  0.489004  0.745312  1
  Pr  Pr7  1  0.202874  0.499289  0.684551  1
  Pr  Pr8  1  0.386714  0.000711  0.815449  1
  Pr  Pr9  1  0.717456  0.709352  0.937042  1
  Pr  Pr10  1  0.188339  0.253900  0.474997  1
  Pr  Pr11  1  0.187676  0.989004  0.245312  1
  Pr  Pr12  1  0.082764  0.753900  0.974997  1
  Pr  Pr13  1  0.421992  0.510996  0.254688  1
  Pr  Pr14  1  0.812324  0.010996  0.754688  1
  Pr  Pr15  1  0.613286  0.999289  0.184551  1
  S  S16  1  0.896491  0.976027  0.224700  1
  S  S17  1  0.520791  0.750000  0.250000  1
  S  S18  1  0.112576  0.769038  0.508454  1
  S  S19  1  0.390069  0.730962  0.991546  1
  S  S20  1  0.479209  0.250000  0.750000  1
  S  S21  1  0.902782  0.476027  0.724700  1
  S  S22  1  0.103509  0.023973  0.775300  1
  S  S23  1  0.887424  0.230961  0.491546  1
  S  S24  1  0.500000  0.000000  0.500000  1
  S  S25  1  0.097218  0.523973  0.275300  1
  S  S26  1  0.609931  0.269039  0.008454  1
  S  S27  1  0.000000  0.500000  0.000000  1
  N  N28  1  0.684751  0.873063  0.744344  1
  N  N29  1  0.697842  0.373063  0.244344  1
  N  N30  1  0.814462  0.868274  0.962864  1
  N  N31  1  0.302158  0.626937  0.755656  1
  N  N32  1  0.315249  0.126937  0.255656  1
  N  N33  1  0.185538  0.131726  0.037136  1
  N  N34  1  0.645600  0.631726  0.537136  1
  N  N35  1  0.354400  0.368274  0.462864  1
