# generated using pymatgen
data_La2Mo4O15
_symmetry_space_group_name_H-M   'P 1'
_cell_length_a   9.28239832
_cell_length_b   10.73433721
_cell_length_c   12.95971347
_cell_angle_alpha   90.00000000
_cell_angle_beta   90.00000000
_cell_angle_gamma   90.07463642
_symmetry_Int_Tables_number   1
_chemical_formula_structural   La2Mo4O15
_chemical_formula_sum   'La8 Mo16 O60'
_cell_volume   1291.30985604
_cell_formula_units_Z   4
loop_
 _symmetry_equiv_pos_site_id
 _symmetry_equiv_pos_as_xyz
  1  'x, y, z'
loop_
 _atom_site_type_symbol
 _atom_site_label
 _atom_site_symmetry_multiplicity
 _atom_site_fract_x
 _atom_site_fract_y
 _atom_site_fract_z
 _atom_site_occupancy
  O  O0  1  0.624835  0.844571  0.771636  1
  O  O1  1  0.875165  0.655429  0.271636  1
  O  O2  1  0.375165  0.155429  0.228364  1
  O  O3  1  0.124835  0.344571  0.728364  1
  O  O4  1  0.111975  0.290250  0.512301  1
  O  O5  1  0.388025  0.209750  0.012301  1
  O  O6  1  0.888025  0.709750  0.487699  1
  O  O7  1  0.611975  0.790250  0.987699  1
  O  O8  1  0.117315  0.560893  0.449015  1
  O  O9  1  0.382685  0.939107  0.949015  1
  O  O10  1  0.882685  0.439107  0.550985  1
  O  O11  1  0.617315  0.060893  0.050985  1
  O  O12  1  0.172297  0.815993  0.548734  1
  O  O13  1  0.327703  0.684007  0.048734  1
  O  O14  1  0.827703  0.184007  0.451266  1
  O  O15  1  0.672297  0.315993  0.951266  1
  O  O16  1  0.891746  0.393899  0.354398  1
  O  O17  1  0.608254  0.106101  0.854398  1
  O  O18  1  0.108254  0.606101  0.645602  1
  O  O19  1  0.391746  0.893899  0.145602  1
  O  O20  1  0.123537  0.073960  0.637349  1
  O  O21  1  0.376463  0.426040  0.137349  1
  O  O22  1  0.876463  0.926040  0.362651  1
  O  O23  1  0.623537  0.573960  0.862651  1
  O  O24  1  0.190106  0.358146  0.309419  1
  O  O25  1  0.309894  0.141854  0.809419  1
  O  O26  1  0.809894  0.641854  0.690581  1
  O  O27  1  0.690106  0.858146  0.190581  1
  O  O28  1  0.595221  0.324176  0.333806  1
  O  O29  1  0.904779  0.175824  0.833806  1
  O  O30  1  0.404779  0.675824  0.666194  1
  O  O31  1  0.095221  0.824176  0.166194  1
  O  O32  1  0.651722  0.540457  0.440731  1
  O  O33  1  0.848278  0.959543  0.940731  1
  O  O34  1  0.348278  0.459543  0.559269  1
  O  O35  1  0.151722  0.040457  0.059269  1
  O  O36  1  0.475989  0.042491  0.643482  1
  O  O37  1  0.024011  0.457509  0.143482  1
  O  O38  1  0.524011  0.957509  0.356518  1
  O  O39  1  0.975989  0.542491  0.856518  1
  O  O40  1  0.615867  0.312340  0.551101  1
  O  O41  1  0.884133  0.187660  0.051101  1
  O  O42  1  0.384133  0.687660  0.448899  1
  O  O43  1  0.115867  0.812340  0.948899  1
  O  O44  1  0.630092  0.842013  0.544190  1
  O  O45  1  0.869908  0.657987  0.044190  1
  O  O46  1  0.369908  0.157987  0.455810  1
  O  O47  1  0.130092  0.342013  0.955810  1
  O  O48  1  0.784492  0.038035  0.649372  1
  O  O49  1  0.715508  0.461965  0.149372  1
  O  O50  1  0.215508  0.961965  0.350628  1
  O  O51  1  0.284492  0.538035  0.850628  1
  O  O52  1  0.280177  0.877127  0.752328  1
  O  O53  1  0.219823  0.622873  0.252328  1
  O  O54  1  0.719823  0.122873  0.247672  1
  O  O55  1  0.780177  0.377127  0.747672  1
  O  O56  1  0.979964  0.852192  0.728561  1
  O  O57  1  0.520036  0.647808  0.228561  1
  O  O58  1  0.020036  0.147808  0.271439  1
  O  O59  1  0.479964  0.352192  0.771439  1
  Mo  Mo60  1  0.137840  0.907652  0.665856  1
  Mo  Mo61  1  0.362160  0.592348  0.165856  1
  Mo  Mo62  1  0.862160  0.092348  0.334144  1
  Mo  Mo63  1  0.637840  0.407652  0.834144  1
  Mo  Mo64  1  0.627650  0.941341  0.654071  1
  Mo  Mo65  1  0.872350  0.558659  0.154071  1
  Mo  Mo66  1  0.372350  0.058659  0.345929  1
  Mo  Mo67  1  0.127650  0.441341  0.845929  1
  Mo  Mo68  1  0.074436  0.398569  0.409793  1
  Mo  Mo69  1  0.425564  0.101431  0.909793  1
  Mo  Mo70  1  0.925564  0.601431  0.590207  1
  Mo  Mo71  1  0.574436  0.898569  0.090207  1
  Mo  Mo72  1  0.696745  0.379351  0.439557  1
  Mo  Mo73  1  0.803255  0.120649  0.939557  1
  Mo  Mo74  1  0.303255  0.620649  0.560443  1
  Mo  Mo75  1  0.196745  0.879351  0.060443  1
  La  La76  1  0.917984  0.227105  0.644898  1
  La  La77  1  0.582016  0.272895  0.144898  1
  La  La78  1  0.082016  0.772895  0.355102  1
  La  La79  1  0.417984  0.727105  0.855102  1
  La  La80  1  0.347638  0.243608  0.626616  1
  La  La81  1  0.152362  0.256392  0.126616  1
  La  La82  1  0.652362  0.756392  0.373384  1
  La  La83  1  0.847638  0.743608  0.873384  1
