# generated using pymatgen
data_PrZr3F15
_symmetry_space_group_name_H-M   'P 1'
_cell_length_a   8.34849255
_cell_length_b   8.34546783
_cell_length_c   16.68934353
_cell_angle_alpha   100.04760478
_cell_angle_beta   100.36127271
_cell_angle_gamma   100.07904218
_symmetry_Int_Tables_number   1
_chemical_formula_structural   PrZr3F15
_chemical_formula_sum   'Pr4 Zr12 F60'
_cell_volume   1100.41360095
_cell_formula_units_Z   4
loop_
 _symmetry_equiv_pos_site_id
 _symmetry_equiv_pos_as_xyz
  1  'x, y, z'
loop_
 _atom_site_type_symbol
 _atom_site_label
 _atom_site_symmetry_multiplicity
 _atom_site_fract_x
 _atom_site_fract_y
 _atom_site_fract_z
 _atom_site_occupancy
  F  F0  1  0.034716  0.464444  0.882223  1
  F  F1  1  0.032360  0.152185  0.839237  1
  F  F2  1  0.999527  0.215082  0.609448  1
  F  F3  1  0.191737  0.652908  0.781300  1
  F  F4  1  0.241646  0.948724  0.761128  1
  F  F5  1  0.020714  0.449382  0.362534  1
  F  F6  1  0.306615  0.927912  0.924180  1
  F  F7  1  0.148097  0.689190  0.537419  1
  F  F8  1  0.055655  0.155246  0.343705  1
  F  F9  1  0.997966  0.231781  0.114113  1
  F  F10  1  0.342680  0.468022  0.906974  1
  F  F11  1  0.274483  0.280379  0.747389  1
  F  F12  1  0.273887  0.505049  0.639845  1
  F  F13  1  0.174297  0.656474  0.263299  1
  F  F14  1  0.253622  0.967689  0.267942  1
  F  F15  1  0.316404  0.967604  0.421253  1
  F  F16  1  0.224579  0.228344  0.495994  1
  F  F17  1  0.224743  0.996004  0.612712  1
  F  F18  1  0.147914  0.688236  0.026597  1
  F  F19  1  0.445751  0.809165  0.674895  1
  F  F20  1  0.499158  0.726678  0.860588  1
  F  F21  1  0.349778  0.429560  0.404077  1
  F  F22  1  0.274106  0.272100  0.253132  1
  F  F23  1  0.274083  0.502691  0.136077  1
  F  F24  1  0.554584  0.256374  0.988705  1
  F  F25  1  0.476650  0.756849  0.527147  1
  F  F26  1  0.217405  0.221291  0.001495  1
  F  F27  1  0.222104  0.996313  0.112850  1
  F  F28  1  0.500626  0.275295  0.640540  1
  F  F29  1  0.573757  0.186542  0.824215  1
  F  F30  1  0.426243  0.813458  0.175785  1
  F  F31  1  0.499374  0.724705  0.359460  1
  F  F32  1  0.777896  0.003687  0.887150  1
  F  F33  1  0.782595  0.778709  0.998505  1
  F  F34  1  0.523350  0.243151  0.472853  1
  F  F35  1  0.445416  0.743626  0.011295  1
  F  F36  1  0.725917  0.497309  0.863923  1
  F  F37  1  0.725894  0.727900  0.746868  1
  F  F38  1  0.650222  0.570440  0.595923  1
  F  F39  1  0.500842  0.273322  0.139412  1
  F  F40  1  0.554249  0.190835  0.325105  1
  F  F41  1  0.852086  0.311764  0.973403  1
  F  F42  1  0.775257  0.003996  0.387288  1
  F  F43  1  0.775421  0.771656  0.504006  1
  F  F44  1  0.683596  0.032396  0.578747  1
  F  F45  1  0.746378  0.032311  0.732058  1
  F  F46  1  0.825703  0.343526  0.736701  1
  F  F47  1  0.726113  0.494951  0.360155  1
  F  F48  1  0.725517  0.719621  0.252611  1
  F  F49  1  0.657320  0.531978  0.093026  1
  F  F50  1  0.002034  0.768219  0.885887  1
  F  F51  1  0.944345  0.844754  0.656295  1
  F  F52  1  0.851903  0.310810  0.462581  1
  F  F53  1  0.693385  0.072088  0.075820  1
  F  F54  1  0.979286  0.550618  0.637466  1
  F  F55  1  0.758354  0.051276  0.238872  1
  F  F56  1  0.808263  0.347092  0.218700  1
  F  F57  1  0.000473  0.784918  0.390552  1
  F  F58  1  0.967640  0.847815  0.160763  1
  F  F59  1  0.965284  0.535556  0.117777  1
  Pr  Pr60  1  0.325697  0.178705  0.874845  1
  Pr  Pr61  1  0.249201  0.677656  0.411750  1
  Pr  Pr62  1  0.750799  0.322344  0.588250  1
  Pr  Pr63  1  0.674303  0.821295  0.125155  1
  Zr  Zr64  1  0.240787  0.675395  0.912156  1
  Zr  Zr65  1  0.179432  0.747532  0.664256  1
  Zr  Zr66  1  0.249473  0.247773  0.621901  1
  Zr  Zr67  1  0.173358  0.749186  0.158311  1
  Zr  Zr68  1  0.320297  0.175999  0.371211  1
  Zr  Zr69  1  0.252998  0.250947  0.126510  1
  Zr  Zr70  1  0.747002  0.749053  0.873490  1
  Zr  Zr71  1  0.679703  0.824001  0.628789  1
  Zr  Zr72  1  0.826642  0.250814  0.841689  1
  Zr  Zr73  1  0.750527  0.752227  0.378099  1
  Zr  Zr74  1  0.820568  0.252468  0.335744  1
  Zr  Zr75  1  0.759213  0.324605  0.087844  1
