# generated using pymatgen
data_FeTe2ClO5
_symmetry_space_group_name_H-M   'P 1'
_cell_length_a   6.69946090
_cell_length_b   13.35427087
_cell_length_c   14.41736415
_cell_angle_alpha   108.28936884
_cell_angle_beta   90.00000000
_cell_angle_gamma   90.00000000
_symmetry_Int_Tables_number   1
_chemical_formula_structural   FeTe2ClO5
_chemical_formula_sum   'Fe8 Te16 Cl8 O40'
_cell_volume   1224.71046663
_cell_formula_units_Z   8
loop_
 _symmetry_equiv_pos_site_id
 _symmetry_equiv_pos_as_xyz
  1  'x, y, z'
loop_
 _atom_site_type_symbol
 _atom_site_label
 _atom_site_symmetry_multiplicity
 _atom_site_fract_x
 _atom_site_fract_y
 _atom_site_fract_z
 _atom_site_occupancy
  Fe  Fe0  1  0.995680  0.880643  0.021390  1
  Fe  Fe1  1  0.495680  0.119357  0.478610  1
  Fe  Fe2  1  0.004320  0.119357  0.978610  1
  Fe  Fe3  1  0.790282  0.064754  0.644540  1
  Fe  Fe4  1  0.709718  0.064754  0.144540  1
  Fe  Fe5  1  0.290282  0.935246  0.855460  1
  Fe  Fe6  1  0.504320  0.880643  0.521390  1
  Fe  Fe7  1  0.209718  0.935246  0.355460  1
  Te  Te8  1  0.806780  0.888852  0.784992  1
  Te  Te9  1  0.022770  0.629210  0.858448  1
  Te  Te10  1  0.693220  0.888852  0.284992  1
  Te  Te11  1  0.014610  0.200124  0.521489  1
  Te  Te12  1  0.977230  0.370790  0.141552  1
  Te  Te13  1  0.306780  0.111148  0.715008  1
  Te  Te14  1  0.795842  0.285739  0.861244  1
  Te  Te15  1  0.204158  0.714261  0.138756  1
  Te  Te16  1  0.985390  0.799876  0.478511  1
  Te  Te17  1  0.514610  0.799876  0.978511  1
  Te  Te18  1  0.704158  0.285739  0.361244  1
  Te  Te19  1  0.295842  0.714261  0.638756  1
  Te  Te20  1  0.522770  0.370790  0.641552  1
  Te  Te21  1  0.193220  0.111148  0.215008  1
  Te  Te22  1  0.477230  0.629210  0.358448  1
  Te  Te23  1  0.485390  0.200124  0.021489  1
  Cl  Cl24  1  0.128142  0.388753  0.781763  1
  Cl  Cl25  1  0.871858  0.611247  0.218237  1
  Cl  Cl26  1  0.371858  0.388753  0.281763  1
  Cl  Cl27  1  0.628142  0.611247  0.718237  1
  Cl  Cl28  1  0.215929  0.436693  0.050401  1
  Cl  Cl29  1  0.715929  0.563307  0.449599  1
  Cl  Cl30  1  0.284071  0.436693  0.550401  1
  Cl  Cl31  1  0.784071  0.563307  0.949599  1
  O  O32  1  0.228759  0.784818  0.772783  1
  O  O33  1  0.011805  0.810945  0.121003  1
  O  O34  1  0.248297  0.987218  0.245251  1
  O  O35  1  0.251703  0.987218  0.745251  1
  O  O36  1  0.282652  0.886021  0.979774  1
  O  O37  1  0.488195  0.810945  0.621003  1
  O  O38  1  0.553524  0.216665  0.894285  1
  O  O39  1  0.751703  0.012782  0.754749  1
  O  O40  1  0.073795  0.101236  0.637008  1
  O  O41  1  0.985686  0.961589  0.896947  1
  O  O42  1  0.988195  0.189055  0.878997  1
  O  O43  1  0.511805  0.189055  0.378997  1
  O  O44  1  0.271241  0.784818  0.272782  1
  O  O45  1  0.426205  0.101236  0.137008  1
  O  O46  1  0.227720  0.657285  0.950856  1
  O  O47  1  0.926205  0.898764  0.362992  1
  O  O48  1  0.573795  0.898764  0.862992  1
  O  O49  1  0.900889  0.766353  0.906047  1
  O  O50  1  0.727720  0.342715  0.549144  1
  O  O51  1  0.301306  0.090523  0.948178  1
  O  O52  1  0.217348  0.886021  0.479774  1
  O  O53  1  0.485686  0.038411  0.603053  1
  O  O54  1  0.717348  0.113979  0.020226  1
  O  O55  1  0.698694  0.909477  0.051822  1
  O  O56  1  0.446476  0.783335  0.105715  1
  O  O57  1  0.748297  0.012782  0.254749  1
  O  O58  1  0.198694  0.090523  0.448178  1
  O  O59  1  0.514314  0.961589  0.396947  1
  O  O60  1  0.053524  0.783335  0.605715  1
  O  O61  1  0.599111  0.766353  0.406047  1
  O  O62  1  0.771241  0.215182  0.227217  1
  O  O63  1  0.782652  0.113979  0.520226  1
  O  O64  1  0.728759  0.215182  0.727217  1
  O  O65  1  0.801306  0.909477  0.551822  1
  O  O66  1  0.099111  0.233647  0.093953  1
  O  O67  1  0.272280  0.657285  0.450856  1
  O  O68  1  0.946476  0.216665  0.394285  1
  O  O69  1  0.772280  0.342715  0.049144  1
  O  O70  1  0.014314  0.038411  0.103053  1
  O  O71  1  0.400889  0.233647  0.593953  1
