# generated using pymatgen
data_Ag7(PbO3)3
_symmetry_space_group_name_H-M   'P 1'
_cell_length_a   12.06683563
_cell_length_b   18.04038589
_cell_length_c   8.86584799
_cell_angle_alpha   109.64528330
_cell_angle_beta   47.23285648
_cell_angle_gamma   119.87952395
_symmetry_Int_Tables_number   1
_chemical_formula_structural   Ag7(PbO3)3
_chemical_formula_sum   'Ag28 Pb12 O36'
_cell_volume   1228.51498496
_cell_formula_units_Z   4
loop_
 _symmetry_equiv_pos_site_id
 _symmetry_equiv_pos_as_xyz
  1  'x, y, z'
loop_
 _atom_site_type_symbol
 _atom_site_label
 _atom_site_symmetry_multiplicity
 _atom_site_fract_x
 _atom_site_fract_y
 _atom_site_fract_z
 _atom_site_occupancy
  Ag  Ag0  1  0.000794  0.835364  0.001181  1
  Ag  Ag1  1  0.000780  0.498548  0.000334  1
  Ag  Ag2  1  0.252048  0.835297  0.998754  1
  Ag  Ag3  1  0.250972  0.665201  0.001453  1
  Ag  Ag4  1  0.499785  0.833119  0.001548  1
  Ag  Ag5  1  1.000215  0.166881  0.998452  1
  Ag  Ag6  1  0.115103  0.666095  0.767045  1
  Ag  Ag7  1  0.379243  0.663854  0.233235  1
  Ag  Ag8  1  0.249028  0.334799  0.998547  1
  Ag  Ag9  1  0.499220  0.501452  0.999666  1
  Ag  Ag10  1  0.750002  0.833419  0.999014  1
  Ag  Ag11  1  0.247952  0.164703  0.001246  1
  Ag  Ag12  1  0.384897  0.333905  0.232955  1
  Ag  Ag13  1  0.747645  0.666346  0.002296  1
  Ag  Ag14  1  0.120757  0.336146  0.766765  1
  Ag  Ag15  1  0.750000  0.500000  0.000000  1
  Ag  Ag16  1  0.499206  0.164636  0.998819  1
  Ag  Ag17  1  0.752355  0.333654  0.997704  1
  Ag  Ag18  1  0.620554  0.668147  0.765709  1
  Ag  Ag19  1  0.384265  0.999730  0.233020  1
  Ag  Ag20  1  0.115735  0.000270  0.766980  1
  Ag  Ag21  1  0.886241  0.667104  0.230288  1
  Ag  Ag22  1  0.749998  0.166581  0.000986  1
  Ag  Ag23  1  0.879446  0.331853  0.234291  1
  Ag  Ag24  1  0.750000  0.000000  0.000000  1
  Ag  Ag25  1  0.613759  0.332896  0.769712  1
  Ag  Ag26  1  0.886923  0.999948  0.233972  1
  Ag  Ag27  1  0.613077  0.000052  0.766028  1
  O  O28  1  0.158690  0.875578  0.306757  1
  O  O29  1  0.035295  0.667152  0.308095  1
  O  O30  1  0.155062  0.875542  0.692475  1
  O  O31  1  0.346753  0.793630  0.312717  1
  O  O32  1  0.155718  0.543195  0.315562  1
  O  O33  1  0.033664  0.334290  0.306555  1
  O  O34  1  0.470822  0.999432  0.685807  1
  O  O35  1  0.341913  0.791674  0.692510  1
  O  O36  1  0.154032  0.540465  0.692470  1
  O  O37  1  0.656937  0.873895  0.308319  1
  O  O38  1  0.345968  0.459535  0.307530  1
  O  O39  1  0.158087  0.208326  0.307490  1
  O  O40  1  0.531110  0.665317  0.313136  1
  O  O41  1  0.029178  0.000568  0.314193  1
  O  O42  1  0.466336  0.665710  0.693445  1
  O  O43  1  0.653943  0.873762  0.691477  1
  O  O44  1  0.344282  0.456805  0.684438  1
  O  O45  1  0.153247  0.206370  0.687283  1
  O  O46  1  0.845439  0.792289  0.308458  1
  O  O47  1  0.660036  0.542656  0.306596  1
  O  O48  1  0.344938  0.124458  0.307525  1
  O  O49  1  0.536099  0.333414  0.307306  1
  O  O50  1  0.965419  0.999783  0.693478  1
  O  O51  1  0.464705  0.332848  0.691905  1
  O  O52  1  0.845657  0.794425  0.687775  1
  O  O53  1  0.341310  0.124422  0.693243  1
  O  O54  1  0.657089  0.541929  0.689385  1
  O  O55  1  0.842911  0.458071  0.310615  1
  O  O56  1  0.654343  0.205575  0.312225  1
  O  O57  1  0.534581  0.000217  0.306522  1
  O  O58  1  0.963901  0.666586  0.692694  1
  O  O59  1  0.839964  0.457344  0.693404  1
  O  O60  1  0.654561  0.207711  0.691542  1
  O  O61  1  0.846057  0.126238  0.308523  1
  O  O62  1  0.968890  0.334683  0.686864  1
  O  O63  1  0.843063  0.126105  0.691681  1
  Pb  Pb64  1  0.084735  0.778735  0.499922  1
  Pb  Pb65  1  0.417290  0.891036  0.505216  1
  Pb  Pb66  1  0.086135  0.446753  0.493889  1
  Pb  Pb67  1  0.582312  0.776957  0.501207  1
  Pb  Pb68  1  0.413865  0.553247  0.506111  1
  Pb  Pb69  1  0.082710  0.108964  0.494784  1
  Pb  Pb70  1  0.919736  0.891394  0.494045  1
  Pb  Pb71  1  0.579497  0.445253  0.504559  1
  Pb  Pb72  1  0.415265  0.221265  0.500078  1
  Pb  Pb73  1  0.920503  0.554747  0.495441  1
  Pb  Pb74  1  0.580264  0.108606  0.505955  1
  Pb  Pb75  1  0.917688  0.223043  0.498793  1
