# generated using pymatgen
data_Cs4Tc6S13
_symmetry_space_group_name_H-M   'P 1'
_cell_length_a   10.05832153
_cell_length_b   10.05832214
_cell_length_c   13.93373490
_cell_angle_alpha   95.30482187
_cell_angle_beta   95.30482218
_cell_angle_gamma   119.01264399
_symmetry_Int_Tables_number   1
_chemical_formula_structural   Cs4Tc6S13
_chemical_formula_sum   'Cs8 Tc12 S26'
_cell_volume   1212.14349923
_cell_formula_units_Z   2
loop_
 _symmetry_equiv_pos_site_id
 _symmetry_equiv_pos_as_xyz
  1  'x, y, z'
loop_
 _atom_site_type_symbol
 _atom_site_label
 _atom_site_symmetry_multiplicity
 _atom_site_fract_x
 _atom_site_fract_y
 _atom_site_fract_z
 _atom_site_occupancy
  Cs  Cs0  1  0.913272  0.659889  0.088590  1
  Cs  Cs1  1  0.659889  0.913272  0.588590  1
  Cs  Cs2  1  0.340111  0.086728  0.411410  1
  Cs  Cs3  1  0.683904  0.727150  0.288698  1
  Cs  Cs4  1  0.272850  0.316096  0.211302  1
  Cs  Cs5  1  0.086728  0.340111  0.911410  1
  Cs  Cs6  1  0.727150  0.683904  0.788698  1
  Cs  Cs7  1  0.316096  0.272850  0.711302  1
  Tc  Tc8  1  0.003539  0.687713  0.521315  1
  Tc  Tc9  1  0.687713  0.003539  0.021315  1
  Tc  Tc10  1  0.435243  0.846726  0.891495  1
  Tc  Tc11  1  0.418334  0.850991  0.078854  1
  Tc  Tc12  1  0.564757  0.153274  0.108505  1
  Tc  Tc13  1  0.581666  0.149009  0.921146  1
  Tc  Tc14  1  0.996461  0.312287  0.478685  1
  Tc  Tc15  1  0.153274  0.564757  0.608505  1
  Tc  Tc16  1  0.312287  0.996461  0.978685  1
  Tc  Tc17  1  0.850991  0.418334  0.578854  1
  Tc  Tc18  1  0.149009  0.581666  0.421146  1
  Tc  Tc19  1  0.846726  0.435243  0.391495  1
  S  S20  1  0.537727  0.725070  0.994768  1
  S  S21  1  0.344219  0.991678  0.809604  1
  S  S22  1  0.358662  0.641338  0.750000  1
  S  S23  1  0.462273  0.274930  0.005232  1
  S  S24  1  0.311532  0.996657  0.150777  1
  S  S25  1  0.641338  0.358662  0.250000  1
  S  S26  1  0.991678  0.344219  0.309604  1
  S  S27  1  0.720999  0.196335  0.452074  1
  S  S28  1  0.279001  0.803665  0.547926  1
  S  S29  1  0.354715  0.720248  0.325389  1
  S  S30  1  0.951772  0.021364  0.060653  1
  S  S31  1  0.274930  0.462273  0.505232  1
  S  S32  1  0.655781  0.008322  0.190396  1
  S  S33  1  0.048228  0.978636  0.939347  1
  S  S34  1  0.688468  0.003343  0.849223  1
  S  S35  1  0.720248  0.354715  0.825389  1
  S  S36  1  0.996657  0.311532  0.650777  1
  S  S37  1  0.978636  0.048228  0.439347  1
  S  S38  1  0.008322  0.655781  0.690396  1
  S  S39  1  0.803665  0.279001  0.047926  1
  S  S40  1  0.725070  0.537727  0.494768  1
  S  S41  1  0.021364  0.951772  0.560653  1
  S  S42  1  0.196335  0.720999  0.952074  1
  S  S43  1  0.645285  0.279752  0.674611  1
  S  S44  1  0.003343  0.688468  0.349223  1
  S  S45  1  0.279752  0.645285  0.174611  1
