# generated using pymatgen
data_Ce(BO2)3
_symmetry_space_group_name_H-M   'P 1'
_cell_length_a   4.31622332
_cell_length_b   4.49978503
_cell_length_c   18.61514012
_cell_angle_alpha   90.00000000
_cell_angle_beta   90.00000000
_cell_angle_gamma   90.00000000
_symmetry_Int_Tables_number   1
_chemical_formula_structural   Ce(BO2)3
_chemical_formula_sum   'Ce4 B12 O24'
_cell_volume   361.54468629
_cell_formula_units_Z   4
loop_
 _symmetry_equiv_pos_site_id
 _symmetry_equiv_pos_as_xyz
  1  'x, y, z'
loop_
 _atom_site_type_symbol
 _atom_site_label
 _atom_site_symmetry_multiplicity
 _atom_site_fract_x
 _atom_site_fract_y
 _atom_site_fract_z
 _atom_site_occupancy
  Ce  Ce0  1  0.862547  0.197839  0.659397  1
  Ce  Ce1  1  0.862547  0.802161  0.159397  1
  Ce  Ce2  1  0.362547  0.197839  0.840603  1
  Ce  Ce3  1  0.362547  0.802161  0.340603  1
  B  B4  1  0.318233  0.177048  0.498477  1
  B  B5  1  0.862055  0.646286  0.787382  1
  B  B6  1  0.343592  0.325091  0.073309  1
  B  B7  1  0.843592  0.674909  0.926691  1
  B  B8  1  0.343592  0.674909  0.573309  1
  B  B9  1  0.818233  0.822952  0.501523  1
  B  B10  1  0.362055  0.353714  0.212618  1
  B  B11  1  0.362055  0.646286  0.712618  1
  B  B12  1  0.862055  0.353714  0.287382  1
  B  B13  1  0.318233  0.822952  0.998477  1
  B  B14  1  0.843592  0.325091  0.426691  1
  B  B15  1  0.818233  0.177048  0.001523  1
  O  O16  1  0.233517  0.232211  0.144250  1
  O  O17  1  0.268777  0.362101  0.560630  1
  O  O18  1  0.178017  0.267389  0.431883  1
  O  O19  1  0.768777  0.637899  0.439370  1
  O  O20  1  0.855654  0.323377  0.790596  1
  O  O21  1  0.182109  0.246195  0.276107  1
  O  O22  1  0.768777  0.362101  0.939370  1
  O  O23  1  0.174456  0.128788  0.016311  1
  O  O24  1  0.678017  0.267389  0.068117  1
  O  O25  1  0.733517  0.232211  0.355750  1
  O  O26  1  0.182109  0.753805  0.776107  1
  O  O27  1  0.174456  0.871212  0.516311  1
  O  O28  1  0.268777  0.637899  0.060630  1
  O  O29  1  0.682109  0.246195  0.223893  1
  O  O30  1  0.355654  0.676623  0.209404  1
  O  O31  1  0.355654  0.323377  0.709404  1
  O  O32  1  0.233517  0.767789  0.644250  1
  O  O33  1  0.855654  0.676623  0.290596  1
  O  O34  1  0.733517  0.767789  0.855750  1
  O  O35  1  0.674456  0.128788  0.483689  1
  O  O36  1  0.678017  0.732611  0.568117  1
  O  O37  1  0.674456  0.871212  0.983689  1
  O  O38  1  0.682109  0.753805  0.723893  1
  O  O39  1  0.178017  0.732611  0.931883  1
