# generated using pymatgen
data_Ba4Na2CaTi3Si4(SO13)2
_symmetry_space_group_name_H-M   'P 1'
_cell_length_a   5.49541956
_cell_length_b   7.20678603
_cell_length_c   15.00012271
_cell_angle_alpha   98.72108021
_cell_angle_beta   94.83720804
_cell_angle_gamma   89.94065117
_symmetry_Int_Tables_number   1
_chemical_formula_structural   Ba4Na2CaTi3Si4(SO13)2
_chemical_formula_sum   'Ba4 Na2 Ca1 Ti3 Si4 S2 O26'
_cell_volume   585.06795462
_cell_formula_units_Z   1
loop_
 _symmetry_equiv_pos_site_id
 _symmetry_equiv_pos_as_xyz
  1  'x, y, z'
loop_
 _atom_site_type_symbol
 _atom_site_label
 _atom_site_symmetry_multiplicity
 _atom_site_fract_x
 _atom_site_fract_y
 _atom_site_fract_z
 _atom_site_occupancy
  Ba  Ba0  1  0.417586  0.167048  0.621290  1
  Ba  Ba1  1  0.932090  0.706157  0.704872  1
  Ba  Ba2  1  1.001868  0.996281  0.018383  1
  Ba  Ba3  1  0.480832  0.458545  0.931231  1
  Na  Na4  1  0.711357  0.578355  0.318274  1
  Na  Na5  1  0.209951  0.316209  0.317421  1
  Ca  Ca6  1  0.211082  0.856926  0.317204  1
  Ti  Ti7  1  0.392561  0.641407  0.519565  1
  Ti  Ti8  1  0.711608  0.095358  0.317883  1
  Ti  Ti9  1  0.026086  0.522374  0.115767  1
  Si  Si10  1  0.530743  0.806229  0.126206  1
  Si  Si11  1  0.890038  0.355837  0.508732  1
  Si  Si12  1  0.531214  0.242407  0.129176  1
  Si  Si13  1  0.887918  0.921180  0.507374  1
  S  S14  1  0.947723  0.285328  0.795147  1
  S  S15  1  0.460248  0.879978  0.840012  1
  O  O16  1  0.901629  0.151206  0.549751  1
  O  O17  1  0.934035  0.086464  0.753800  1
  O  O18  1  0.464390  0.082495  0.873806  1
  O  O19  1  0.147891  0.462988  0.554463  1
  O  O20  1  0.048821  0.563273  0.230141  1
  O  O21  1  0.762895  0.697360  0.078326  1
  O  O22  1  0.274684  0.323545  0.084141  1
  O  O23  1  0.144085  0.839700  0.553287  1
  O  O24  1  0.655511  0.840597  0.553906  1
  O  O25  1  0.872185  0.321855  0.399519  1
  O  O26  1  0.971316  0.308788  0.896562  1
  O  O27  1  0.720884  0.384218  0.765442  1
  O  O28  1  0.762930  0.323754  0.082677  1
  O  O29  1  0.247524  0.787398  0.873054  1
  O  O30  1  0.452358  0.093669  0.388459  1
  O  O31  1  0.874207  0.889006  0.398622  1
  O  O32  1  0.690367  0.790771  0.873426  1
  O  O33  1  0.437287  0.842028  0.738376  1
  O  O34  1  0.369592  0.611228  0.405156  1
  O  O35  1  0.551175  0.274954  0.238152  1
  O  O36  1  0.272460  0.698619  0.079800  1
  O  O37  1  0.968218  0.049598  0.245042  1
  O  O38  1  0.546229  0.838215  0.234963  1
  O  O39  1  0.163068  0.379738  0.764902  1
  O  O40  1  0.656615  0.465260  0.555408  1
  O  O41  1  0.517539  0.012554  0.086180  1
