# generated using pymatgen
data_Rb2Mo15S19
_symmetry_space_group_name_H-M   'P 1'
_cell_length_a   18.28403135
_cell_length_b   18.28403117
_cell_length_c   18.28403091
_cell_angle_alpha   32.85023284
_cell_angle_beta   32.85023357
_cell_angle_gamma   32.85023354
_symmetry_Int_Tables_number   1
_chemical_formula_structural   Rb2Mo15S19
_chemical_formula_sum   'Rb4 Mo30 S38'
_cell_volume   1600.18437860
_cell_formula_units_Z   2
loop_
 _symmetry_equiv_pos_site_id
 _symmetry_equiv_pos_as_xyz
  1  'x, y, z'
loop_
 _atom_site_type_symbol
 _atom_site_label
 _atom_site_symmetry_multiplicity
 _atom_site_fract_x
 _atom_site_fract_y
 _atom_site_fract_z
 _atom_site_occupancy
  Rb  Rb0  1  0.143180  0.143180  0.143180  1
  Rb  Rb1  1  0.356820  0.356820  0.356820  1
  Rb  Rb2  1  0.643180  0.643180  0.643180  1
  Rb  Rb3  1  0.856820  0.856820  0.856820  1
  Mo  Mo4  1  0.189994  0.779369  0.844331  1
  Mo  Mo5  1  0.155669  0.810006  0.220631  1
  Mo  Mo6  1  0.844331  0.189994  0.779369  1
  Mo  Mo7  1  0.491344  0.382428  0.689471  1
  Mo  Mo8  1  0.250000  0.098511  0.401489  1
  Mo  Mo9  1  0.344331  0.279369  0.689994  1
  Mo  Mo10  1  0.617572  0.310529  0.508656  1
  Mo  Mo11  1  0.189471  0.882428  0.991344  1
  Mo  Mo12  1  0.779369  0.844331  0.189994  1
  Mo  Mo13  1  0.810529  0.117572  0.008656  1
  Mo  Mo14  1  0.689994  0.344331  0.279369  1
  Mo  Mo15  1  0.401489  0.250000  0.098511  1
  Mo  Mo16  1  0.310529  0.508656  0.617572  1
  Mo  Mo17  1  0.720631  0.310006  0.655669  1
  Mo  Mo18  1  0.598511  0.750000  0.901489  1
  Mo  Mo19  1  0.508656  0.617572  0.310529  1
  Mo  Mo20  1  0.279369  0.689994  0.344331  1
  Mo  Mo21  1  0.117572  0.008656  0.810529  1
  Mo  Mo22  1  0.220631  0.155669  0.810006  1
  Mo  Mo23  1  0.901489  0.598511  0.750000  1
  Mo  Mo24  1  0.098511  0.401489  0.250000  1
  Mo  Mo25  1  0.991344  0.189471  0.882428  1
  Mo  Mo26  1  0.810006  0.220631  0.155669  1
  Mo  Mo27  1  0.689471  0.491344  0.382428  1
  Mo  Mo28  1  0.008656  0.810529  0.117572  1
  Mo  Mo29  1  0.655669  0.720631  0.310006  1
  Mo  Mo30  1  0.750000  0.901489  0.598511  1
  Mo  Mo31  1  0.310006  0.655669  0.720631  1
  Mo  Mo32  1  0.382428  0.689471  0.491344  1
  Mo  Mo33  1  0.882428  0.991344  0.189471  1
  S  S34  1  0.954183  0.277203  0.710085  1
  S  S35  1  0.214115  0.214115  0.214115  1
  S  S36  1  0.710085  0.954183  0.277203  1
  S  S37  1  0.454183  0.210085  0.777203  1
  S  S38  1  0.435880  0.435880  0.435880  1
  S  S39  1  0.285885  0.285885  0.285885  1
  S  S40  1  0.701747  0.051086  0.395829  1
  S  S41  1  0.604171  0.298253  0.948914  1
  S  S42  1  0.895829  0.551086  0.201747  1
  S  S43  1  0.051086  0.395829  0.701747  1
  S  S44  1  0.750000  0.477287  0.022713  1
  S  S45  1  0.222797  0.545817  0.789915  1
  S  S46  1  0.551086  0.201747  0.895829  1
  S  S47  1  0.210085  0.777203  0.454183  1
  S  S48  1  0.798253  0.104171  0.448914  1
  S  S49  1  0.477287  0.022713  0.750000  1
  S  S50  1  0.277203  0.710085  0.954183  1
  S  S51  1  0.545817  0.789915  0.222797  1
  S  S52  1  0.714115  0.714115  0.714115  1
  S  S53  1  0.564120  0.564120  0.564120  1
  S  S54  1  0.977287  0.250000  0.522713  1
  S  S55  1  0.785885  0.785885  0.785885  1
  S  S56  1  0.104171  0.448914  0.798253  1
  S  S57  1  0.722797  0.289915  0.045817  1
  S  S58  1  0.250000  0.522713  0.977287  1
  S  S59  1  0.935880  0.935880  0.935880  1
  S  S60  1  0.022713  0.750000  0.477287  1
  S  S61  1  0.201747  0.895829  0.551086  1
  S  S62  1  0.298253  0.948914  0.604171  1
  S  S63  1  0.045817  0.722797  0.289915  1
  S  S64  1  0.064120  0.064120  0.064120  1
  S  S65  1  0.289915  0.045817  0.722797  1
  S  S66  1  0.948914  0.604171  0.298253  1
  S  S67  1  0.777203  0.454183  0.210085  1
  S  S68  1  0.522713  0.977287  0.250000  1
  S  S69  1  0.789915  0.222797  0.545817  1
  S  S70  1  0.395829  0.701747  0.051086  1
  S  S71  1  0.448914  0.798253  0.104171  1
