# generated using pymatgen
data_CdI2
_symmetry_space_group_name_H-M   'P 1'
_cell_length_a   4.33286022
_cell_length_b   4.33286049
_cell_length_c   66.71659432
_cell_angle_alpha   90.00000000
_cell_angle_beta   90.00000000
_cell_angle_gamma   119.99999796
_symmetry_Int_Tables_number   1
_chemical_formula_structural   CdI2
_chemical_formula_sum   'Cd9 I18'
_cell_volume   1084.71062358
_cell_formula_units_Z   9
loop_
 _symmetry_equiv_pos_site_id
 _symmetry_equiv_pos_as_xyz
  1  'x, y, z'
loop_
 _atom_site_type_symbol
 _atom_site_label
 _atom_site_symmetry_multiplicity
 _atom_site_fract_x
 _atom_site_fract_y
 _atom_site_fract_z
 _atom_site_occupancy
  Cd  Cd0  1  0.666667  0.333333  0.583314  1
  Cd  Cd1  1  0.666667  0.333333  0.361092  1
  Cd  Cd2  1  0.000000  0.000000  0.472234  1
  Cd  Cd3  1  0.000000  0.000000  0.916644  1
  Cd  Cd4  1  0.666667  0.333333  0.027790  1
  Cd  Cd5  1  0.000000  0.000000  0.138896  1
  Cd  Cd6  1  0.666667  0.333333  0.694457  1
  Cd  Cd7  1  0.000000  0.000000  0.805559  1
  Cd  Cd8  1  0.666667  0.333333  0.250007  1
  I  I9  1  0.000000  0.000000  0.557449  1
  I  I10  1  0.333333  0.666667  0.720337  1
  I  I11  1  0.000000  0.000000  0.224151  1
  I  I12  1  0.333333  0.666667  0.275884  1
  I  I13  1  0.000000  0.000000  0.668587  1
  I  I14  1  0.333333  0.666667  0.053663  1
  I  I15  1  0.333333  0.666667  0.609187  1
  I  I16  1  0.666667  0.333333  0.890786  1
  I  I17  1  0.333333  0.666667  0.942503  1
  I  I18  1  0.666667  0.333333  0.113042  1
  I  I19  1  0.000000  0.000000  0.001936  1
  I  I20  1  0.666667  0.333333  0.446353  1
  I  I21  1  0.333333  0.666667  0.164745  1
  I  I22  1  0.666667  0.333333  0.779668  1
  I  I23  1  0.333333  0.666667  0.386957  1
  I  I24  1  0.000000  0.000000  0.335206  1
  I  I25  1  0.333333  0.666667  0.831442  1
  I  I26  1  0.333333  0.666667  0.498111  1
