# generated using pymatgen
data_Rb5Nb3OF18
_symmetry_space_group_name_H-M   'P 1'
_cell_length_a   7.97372279
_cell_length_b   11.87695120
_cell_length_c   11.87695054
_cell_angle_alpha   83.53697818
_cell_angle_beta   70.39293234
_cell_angle_gamma   70.39293423
_symmetry_Int_Tables_number   1
_chemical_formula_structural   Rb5Nb3OF18
_chemical_formula_sum   'Rb10 Nb6 O2 F36'
_cell_volume   998.13130654
_cell_formula_units_Z   2
loop_
 _symmetry_equiv_pos_site_id
 _symmetry_equiv_pos_as_xyz
  1  'x, y, z'
loop_
 _atom_site_type_symbol
 _atom_site_label
 _atom_site_symmetry_multiplicity
 _atom_site_fract_x
 _atom_site_fract_y
 _atom_site_fract_z
 _atom_site_occupancy
  Nb  Nb0  1  0.344026  0.812342  0.499995  1
  Nb  Nb1  1  0.844026  0.499995  0.812342  1
  Nb  Nb2  1  0.156372  0.499989  0.187630  1
  Nb  Nb3  1  0.656372  0.187630  0.499989  1
  Nb  Nb4  1  0.733624  0.000001  0.000005  1
  Nb  Nb5  1  0.233624  0.000005  0.000001  1
  Rb  Rb6  1  0.237144  0.500037  0.500024  1
  Rb  Rb7  1  0.737144  0.500024  0.500037  1
  Rb  Rb8  1  0.188258  0.693282  0.860319  1
  Rb  Rb9  1  0.048610  0.139658  0.693254  1
  Rb  Rb10  1  0.881490  0.860376  0.306731  1
  Rb  Rb11  1  0.741878  0.306749  0.139614  1
  Rb  Rb12  1  0.381490  0.306731  0.860376  1
  Rb  Rb13  1  0.548610  0.693254  0.139658  1
  Rb  Rb14  1  0.688258  0.860319  0.693282  1
  Rb  Rb15  1  0.241878  0.139614  0.306749  1
  O  O16  1  0.007085  1.000004  1.000002  1
  O  O17  1  0.507085  1.000002  1.000004  1
  F  F18  1  0.607765  0.771299  0.500023  1
  F  F19  1  0.107765  0.500023  0.771299  1
  F  F20  1  0.379034  0.499995  0.228726  1
  F  F21  1  0.879034  0.228726  0.499995  1
  F  F22  1  0.011427  0.610348  0.330077  1
  F  F23  1  0.341461  0.669944  0.610340  1
  F  F24  1  0.621745  0.330097  0.389668  1
  F  F25  1  0.951865  0.389651  0.669930  1
  F  F26  1  0.121745  0.389668  0.330097  1
  F  F27  1  0.841461  0.610340  0.669944  1
  F  F28  1  0.511427  0.330077  0.610348  1
  F  F29  1  0.451865  0.669930  0.389651  1
  F  F30  1  0.399573  0.208671  0.499967  1
  F  F31  1  0.899573  0.499967  0.208671  1
  F  F32  1  0.608348  0.499930  0.791257  1
  F  F33  1  0.108348  0.791257  0.499930  1
  F  F34  1  0.649091  0.070289  0.159856  1
  F  F35  1  0.808889  0.840151  0.070261  1
  F  F36  1  0.719341  0.159850  0.929702  1
  F  F37  1  0.879175  0.929690  0.840143  1
  F  F38  1  0.219341  0.929702  0.159850  1
  F  F39  1  0.308889  0.070261  0.840151  1
  F  F40  1  0.149091  0.159856  0.070289  1
  F  F41  1  0.379175  0.840143  0.929690  1
  F  F42  1  0.801004  0.658802  0.876801  1
  F  F43  1  0.677720  0.123256  0.658797  1
  F  F44  1  0.459781  0.876844  0.341214  1
  F  F45  1  0.336503  0.341178  0.123233  1
  F  F46  1  0.959781  0.341214  0.876844  1
  F  F47  1  0.177720  0.658797  0.123256  1
  F  F48  1  0.301004  0.876801  0.658802  1
  F  F49  1  0.836503  0.123233  0.341178  1
  F  F50  1  0.659696  0.019155  0.500005  1
  F  F51  1  0.159696  0.500005  0.019155  1
  F  F52  1  0.678793  0.500010  0.980827  1
  F  F53  1  0.178793  0.980827  0.500010  1
