# generated using pymatgen
data_Sr3CuIrO6
_symmetry_space_group_name_H-M   'P 1'
_cell_length_a   6.76741242
_cell_length_b   6.80374991
_cell_length_c   6.80375001
_cell_angle_alpha   91.90865975
_cell_angle_beta   90.73008403
_cell_angle_gamma   90.73008330
_symmetry_Int_Tables_number   1
_chemical_formula_structural   Sr3CuIrO6
_chemical_formula_sum   'Sr6 Cu2 Ir2 O12'
_cell_volume   313.04398524
_cell_formula_units_Z   2
loop_
 _symmetry_equiv_pos_site_id
 _symmetry_equiv_pos_as_xyz
  1  'x, y, z'
loop_
 _atom_site_type_symbol
 _atom_site_label
 _atom_site_symmetry_multiplicity
 _atom_site_fract_x
 _atom_site_fract_y
 _atom_site_fract_z
 _atom_site_occupancy
  Sr  Sr0  1  0.750000  0.601225  0.398775  1
  Sr  Sr1  1  0.250000  0.398775  0.601225  1
  Sr  Sr2  1  0.620310  0.741783  0.891934  1
  Sr  Sr3  1  0.879690  0.108066  0.258217  1
  Sr  Sr4  1  0.379690  0.258217  0.108066  1
  Sr  Sr5  1  0.120310  0.891934  0.741783  1
  Ir  Ir6  1  0.000000  0.500000  0.000000  1
  Ir  Ir7  1  0.500000  0.000000  0.500000  1
  Cu  Cu8  1  0.250000  0.808410  0.191590  1
  Cu  Cu9  1  0.750000  0.191590  0.808410  1
  O  O10  1  0.536795  0.898099  0.217139  1
  O  O11  1  0.963205  0.782861  0.101901  1
  O  O12  1  0.463205  0.101901  0.782861  1
  O  O13  1  0.036795  0.217139  0.898099  1
  O  O14  1  0.217148  0.029550  0.395331  1
  O  O15  1  0.282852  0.604669  0.970450  1
  O  O16  1  0.782852  0.970450  0.604669  1
  O  O17  1  0.717148  0.395331  0.029550  1
  O  O18  1  0.429910  0.721834  0.571540  1
  O  O19  1  0.070090  0.428460  0.278166  1
  O  O20  1  0.570090  0.278166  0.428460  1
  O  O21  1  0.929910  0.571540  0.721834  1
