# generated using pymatgen
data_KU2H5C4O15
_symmetry_space_group_name_H-M   'P 1'
_cell_length_a   5.81569409
_cell_length_b   9.35420624
_cell_length_c   13.98351946
_cell_angle_alpha   90.00000000
_cell_angle_beta   90.00000000
_cell_angle_gamma   98.00469229
_symmetry_Int_Tables_number   1
_chemical_formula_structural   KU2H5C4O15
_chemical_formula_sum   'K2 U4 H10 C8 O30'
_cell_volume   753.30831521
_cell_formula_units_Z   2
loop_
 _symmetry_equiv_pos_site_id
 _symmetry_equiv_pos_as_xyz
  1  'x, y, z'
loop_
 _atom_site_type_symbol
 _atom_site_label
 _atom_site_symmetry_multiplicity
 _atom_site_fract_x
 _atom_site_fract_y
 _atom_site_fract_z
 _atom_site_occupancy
  K  K0  1  0.807188  0.405530  0.250000  1
  K  K1  1  0.192812  0.594470  0.750000  1
  U  U2  1  0.286942  0.764470  0.406845  1
  U  U3  1  0.713058  0.235530  0.906845  1
  U  U4  1  0.713058  0.235530  0.593155  1
  U  U5  1  0.286942  0.764470  0.093155  1
  H  H6  1  0.798598  0.069726  0.194688  1
  H  H7  1  0.249624  0.199905  0.195587  1
  H  H8  1  0.798598  0.069726  0.305312  1
  H  H9  1  0.489419  0.090971  0.750000  1
  H  H10  1  0.750376  0.800095  0.695587  1
  H  H11  1  0.249624  0.199905  0.304413  1
  H  H12  1  0.201402  0.930274  0.805312  1
  H  H13  1  0.510581  0.909029  0.250000  1
  H  H14  1  0.750376  0.800095  0.804413  1
  H  H15  1  0.201402  0.930274  0.694688  1
  C  C16  1  0.987747  0.957433  0.953389  1
  C  C17  1  0.544479  0.482369  0.450523  1
  C  C18  1  0.544479  0.482369  0.049477  1
  C  C19  1  0.012253  0.042567  0.453389  1
  C  C20  1  0.012253  0.042567  0.046611  1
  C  C21  1  0.455521  0.517631  0.549477  1
  C  C22  1  0.987747  0.957433  0.546611  1
  C  C23  1  0.455521  0.517631  0.950523  1
  O  O24  1  0.883452  0.010822  0.615001  1
  O  O25  1  0.663517  0.379342  0.054214  1
  O  O26  1  0.556183  0.871866  0.058741  1
  O  O27  1  0.116548  0.989178  0.115001  1
  O  O28  1  0.975434  0.348579  0.630435  1
  O  O29  1  0.336483  0.620658  0.554214  1
  O  O30  1  0.663517  0.379342  0.445786  1
  O  O31  1  0.443817  0.128134  0.558741  1
  O  O32  1  0.024566  0.651421  0.369565  1
  O  O33  1  0.024566  0.651421  0.130435  1
  O  O34  1  0.883452  0.010822  0.884999  1
  O  O35  1  0.556183  0.871866  0.441259  1
  O  O36  1  0.615202  0.176836  0.750000  1
  O  O37  1  0.924486  0.158775  0.049505  1
  O  O38  1  0.075514  0.841225  0.950495  1
  O  O39  1  0.491077  0.559406  0.118436  1
  O  O40  1  0.384798  0.823164  0.250000  1
  O  O41  1  0.075514  0.841225  0.549505  1
  O  O42  1  0.750586  0.734560  0.750000  1
  O  O43  1  0.116548  0.989178  0.384999  1
  O  O44  1  0.304284  0.930621  0.750000  1
  O  O45  1  0.249414  0.265440  0.250000  1
  O  O46  1  0.975434  0.348579  0.869565  1
  O  O47  1  0.924486  0.158775  0.450495  1
  O  O48  1  0.508923  0.440594  0.618436  1
  O  O49  1  0.443817  0.128134  0.941259  1
  O  O50  1  0.508923  0.440594  0.881564  1
  O  O51  1  0.336483  0.620658  0.945786  1
  O  O52  1  0.491077  0.559406  0.381564  1
  O  O53  1  0.695716  0.069379  0.250000  1
