# generated using pymatgen
data_Cs2Ni(PS3)2
_symmetry_space_group_name_H-M   'P 1'
_cell_length_a   5.94557771
_cell_length_b   7.87291803
_cell_length_c   12.93796636
_cell_angle_alpha   90.00000000
_cell_angle_beta   90.00000000
_cell_angle_gamma   93.52745350
_symmetry_Int_Tables_number   1
_chemical_formula_structural   Cs2Ni(PS3)2
_chemical_formula_sum   'Cs4 Ni2 P4 S12'
_cell_volume   604.46648495
_cell_formula_units_Z   2
loop_
 _symmetry_equiv_pos_site_id
 _symmetry_equiv_pos_as_xyz
  1  'x, y, z'
loop_
 _atom_site_type_symbol
 _atom_site_label
 _atom_site_symmetry_multiplicity
 _atom_site_fract_x
 _atom_site_fract_y
 _atom_site_fract_z
 _atom_site_occupancy
  Cs  Cs0  1  0.735075  0.030947  0.328070  1
  Cs  Cs1  1  0.264925  0.969053  0.671930  1
  Cs  Cs2  1  0.235075  0.530947  0.171930  1
  Cs  Cs3  1  0.764925  0.469053  0.828070  1
  Ni  Ni4  1  0.000000  0.000000  0.000000  1
  Ni  Ni5  1  0.500000  0.500000  0.500000  1
  P  P6  1  0.452137  0.118714  0.038009  1
  P  P7  1  0.547863  0.881286  0.961991  1
  P  P8  1  0.952137  0.618714  0.461991  1
  P  P9  1  0.047863  0.381286  0.538009  1
  S  S10  1  0.741765  0.270119  0.573276  1
  S  S11  1  0.758235  0.229881  0.073276  1
  S  S12  1  0.256429  0.231821  0.932809  1
  S  S13  1  0.756429  0.731821  0.567191  1
  S  S14  1  0.243571  0.268179  0.432809  1
  S  S15  1  0.742035  0.538177  0.345575  1
  S  S16  1  0.757965  0.961823  0.845575  1
  S  S17  1  0.242035  0.038177  0.154425  1
  S  S18  1  0.258235  0.729881  0.426724  1
  S  S19  1  0.241765  0.770119  0.926724  1
  S  S20  1  0.743571  0.768179  0.067191  1
  S  S21  1  0.257965  0.461823  0.654425  1
