# generated using pymatgen
data_CsEr2Cu3Se5
_symmetry_space_group_name_H-M   'P 1'
_cell_length_a   4.11833011
_cell_length_b   7.63361192
_cell_length_c   17.27301344
_cell_angle_alpha   90.00000000
_cell_angle_beta   90.00000000
_cell_angle_gamma   105.64937726
_symmetry_Int_Tables_number   1
_chemical_formula_structural   CsEr2Cu3Se5
_chemical_formula_sum   'Cs2 Er4 Cu6 Se10'
_cell_volume   522.89473142
_cell_formula_units_Z   2
loop_
 _symmetry_equiv_pos_site_id
 _symmetry_equiv_pos_as_xyz
  1  'x, y, z'
loop_
 _atom_site_type_symbol
 _atom_site_label
 _atom_site_symmetry_multiplicity
 _atom_site_fract_x
 _atom_site_fract_y
 _atom_site_fract_z
 _atom_site_occupancy
  Cs  Cs0  1  0.938835  0.877669  0.750000  1
  Cs  Cs1  1  0.061165  0.122331  0.250000  1
  Cu  Cu2  1  0.655568  0.311136  0.750000  1
  Cu  Cu3  1  0.344432  0.688864  0.250000  1
  Cu  Cu4  1  0.416755  0.833510  0.966783  1
  Cu  Cu5  1  0.583245  0.166490  0.033217  1
  Cu  Cu6  1  0.583245  0.166490  0.466783  1
  Cu  Cu7  1  0.416755  0.833510  0.533217  1
  Er  Er8  1  0.192046  0.384092  0.591488  1
  Er  Er9  1  0.807954  0.615908  0.408512  1
  Er  Er10  1  0.807954  0.615908  0.091488  1
  Er  Er11  1  0.192046  0.384092  0.908512  1
  Se  Se12  1  0.238096  0.476192  0.750000  1
  Se  Se13  1  0.761904  0.523808  0.250000  1
  Se  Se14  1  0.437992  0.875985  0.387864  1
  Se  Se15  1  0.562008  0.124015  0.612136  1
  Se  Se16  1  0.562008  0.124015  0.887864  1
  Se  Se17  1  0.437992  0.875985  0.112136  1
  Se  Se18  1  0.169349  0.338698  0.429776  1
  Se  Se19  1  0.830651  0.661302  0.570224  1
  Se  Se20  1  0.830651  0.661302  0.929776  1
  Se  Se21  1  0.169349  0.338698  0.070224  1
