# generated using pymatgen
data_W10O29
_symmetry_space_group_name_H-M   'P 1'
_cell_length_a   3.85744189
_cell_length_b   12.27990126
_cell_length_c   23.96328873
_cell_angle_alpha   94.68257042
_cell_angle_beta   90.00000000
_cell_angle_gamma   90.00000000
_symmetry_Int_Tables_number   1
_chemical_formula_structural   W10O29
_chemical_formula_sum   'W20 O58'
_cell_volume   1131.32843733
_cell_formula_units_Z   2
loop_
 _symmetry_equiv_pos_site_id
 _symmetry_equiv_pos_as_xyz
  1  'x, y, z'
loop_
 _atom_site_type_symbol
 _atom_site_label
 _atom_site_symmetry_multiplicity
 _atom_site_fract_x
 _atom_site_fract_y
 _atom_site_fract_z
 _atom_site_occupancy
  W  W0  1  0.500000  0.735166  0.487217  1
  W  W1  1  0.500000  0.264834  0.512783  1
  W  W2  1  0.500000  0.026278  0.432314  1
  W  W3  1  0.500000  0.973722  0.567686  1
  W  W4  1  0.500000  0.325335  0.382244  1
  W  W5  1  0.500000  0.674665  0.617756  1
  W  W6  1  0.500000  0.614155  0.330995  1
  W  W7  1  0.500000  0.385845  0.669005  1
  W  W8  1  0.500000  0.901075  0.277752  1
  W  W9  1  0.500000  0.098925  0.722248  1
  W  W10  1  0.500000  0.192351  0.228666  1
  W  W11  1  0.500000  0.807650  0.771334  1
  W  W12  1  0.500000  0.483306  0.177988  1
  W  W13  1  0.500000  0.516694  0.822012  1
  W  W14  1  0.500000  0.772412  0.125302  1
  W  W15  1  0.500000  0.227588  0.874698  1
  W  W16  1  0.500000  0.063953  0.075829  1
  W  W17  1  0.500000  0.936047  0.924171  1
  W  W18  1  0.500000  0.355272  0.026178  1
  W  W19  1  0.500000  0.644728  0.973822  1
  O  O20  1  0.500000  0.100637  0.518283  1
  O  O21  1  0.500000  0.899363  0.481717  1
  O  O22  1  0.500000  0.380168  0.467509  1
  O  O23  1  0.500000  0.619832  0.532491  1
  O  O24  1  0.500000  0.674869  0.414831  1
  O  O25  1  0.500000  0.325131  0.585169  1
  O  O26  1  0.500000  0.965116  0.360792  1
  O  O27  1  0.500000  0.034884  0.639208  1
  O  O28  1  0.500000  0.187910  0.426942  1
  O  O29  1  0.500000  0.812090  0.573058  1
  O  O30  1  0.500000  0.467855  0.362482  1
  O  O31  1  0.500000  0.532145  0.637518  1
  O  O32  1  0.500000  0.759260  0.310846  1
  O  O33  1  0.500000  0.240740  0.689154  1
  O  O34  1  0.500000  0.250655  0.312687  1
  O  O35  1  0.500000  0.749345  0.687313  1
  O  O36  1  0.500000  0.549382  0.258985  1
  O  O37  1  0.500000  0.450618  0.741015  1
  O  O38  1  0.500000  0.836187  0.205824  1
  O  O39  1  0.500000  0.163813  0.794176  1
  O  O40  1  0.000000  0.644671  0.973529  1
  O  O41  1  0.000000  0.355329  0.026471  1
  O  O42  1  0.000000  0.935618  0.922230  1
  O  O43  1  0.000000  0.064382  0.077770  1
  O  O44  1  0.000000  0.227094  0.871429  1
  O  O45  1  0.000000  0.772906  0.128571  1
  O  O46  1  0.000000  0.517077  0.818204  1
  O  O47  1  0.000000  0.482923  0.181796  1
  O  O48  1  0.000000  0.806716  0.766242  1
  O  O49  1  0.000000  0.193284  0.233758  1
  O  O50  1  0.000000  0.097612  0.716870  1
  O  O51  1  0.000000  0.902388  0.283130  1
  O  O52  1  0.000000  0.386054  0.663111  1
  O  O53  1  0.000000  0.613946  0.336889  1
  O  O54  1  0.000000  0.677105  0.612622  1
  O  O55  1  0.000000  0.322895  0.387378  1
  O  O56  1  0.000000  0.971281  0.563440  1
  O  O57  1  0.000000  0.028719  0.436560  1
  O  O58  1  0.000000  0.254144  0.512172  1
  O  O59  1  0.000000  0.745856  0.487828  1
  O  O60  1  0.500000  0.000000  0.000000  1
  O  O61  1  0.500000  0.500000  0.000000  1
  O  O62  1  0.500000  0.790577  0.948284  1
  O  O63  1  0.500000  0.209423  0.051716  1
  O  O64  1  0.500000  0.290801  0.948946  1
  O  O65  1  0.500000  0.709199  0.051054  1
  O  O66  1  0.500000  0.581752  0.895674  1
  O  O67  1  0.500000  0.418248  0.104326  1
  O  O68  1  0.500000  0.869895  0.844626  1
  O  O69  1  0.500000  0.130105  0.155374  1
  O  O70  1  0.500000  0.081134  0.896805  1
  O  O71  1  0.500000  0.918866  0.103195  1
  O  O72  1  0.500000  0.372384  0.845385  1
  O  O73  1  0.500000  0.627616  0.154615  1
  O  O74  1  0.500000  0.661150  0.791064  1
  O  O75  1  0.500000  0.338850  0.208936  1
  O  O76  1  0.500000  0.953025  0.742295  1
  O  O77  1  0.500000  0.046975  0.257705  1
