# generated using pymatgen
data_KLi(PO3)2
_symmetry_space_group_name_H-M   'P 1'
_cell_length_a   5.61707417
_cell_length_b   13.99033350
_cell_length_c   15.68796081
_cell_angle_alpha   108.38596274
_cell_angle_beta   90.00000000
_cell_angle_gamma   90.00000000
_symmetry_Int_Tables_number   1
_chemical_formula_structural   KLi(PO3)2
_chemical_formula_sum   'K8 Li8 P16 O48'
_cell_volume   1169.90223159
_cell_formula_units_Z   8
loop_
 _symmetry_equiv_pos_site_id
 _symmetry_equiv_pos_as_xyz
  1  'x, y, z'
loop_
 _atom_site_type_symbol
 _atom_site_label
 _atom_site_symmetry_multiplicity
 _atom_site_fract_x
 _atom_site_fract_y
 _atom_site_fract_z
 _atom_site_occupancy
  K  K0  1  0.675168  0.375052  0.632652  1
  K  K1  1  0.824832  0.375052  0.132652  1
  K  K2  1  0.332799  0.876014  0.640220  1
  K  K3  1  0.324832  0.624948  0.367348  1
  K  K4  1  0.832799  0.123986  0.859780  1
  K  K5  1  0.667201  0.123986  0.359780  1
  K  K6  1  0.175168  0.624948  0.867348  1
  K  K7  1  0.167201  0.876014  0.140220  1
  Li  Li8  1  0.304861  0.930191  0.889865  1
  Li  Li9  1  0.316178  0.572931  0.137244  1
  Li  Li10  1  0.816178  0.427069  0.362756  1
  Li  Li11  1  0.183822  0.572931  0.637244  1
  Li  Li12  1  0.195139  0.930191  0.389865  1
  Li  Li13  1  0.683822  0.427069  0.862756  1
  Li  Li14  1  0.804861  0.069809  0.610135  1
  Li  Li15  1  0.695139  0.069809  0.110135  1
  P  P16  1  0.150759  0.358037  0.485016  1
  P  P17  1  0.316475  0.354327  0.307015  1
  P  P18  1  0.816475  0.645673  0.192986  1
  P  P19  1  0.668006  0.839605  0.979536  1
  P  P20  1  0.691513  0.855889  0.307271  1
  P  P21  1  0.191513  0.144111  0.192729  1
  P  P22  1  0.831994  0.839605  0.479536  1
  P  P23  1  0.331994  0.160395  0.020464  1
  P  P24  1  0.168006  0.160395  0.520464  1
  P  P25  1  0.183525  0.354327  0.807014  1
  P  P26  1  0.683525  0.645673  0.692986  1
  P  P27  1  0.650759  0.641963  0.014984  1
  P  P28  1  0.308487  0.144111  0.692729  1
  P  P29  1  0.808487  0.855889  0.807271  1
  P  P30  1  0.849241  0.641963  0.514984  1
  P  P31  1  0.349241  0.358037  0.985016  1
  O  O32  1  0.219510  0.065518  0.961995  1
  O  O33  1  0.557599  0.375816  0.277122  1
  O  O34  1  0.754343  0.753336  0.021563  1
  O  O35  1  0.337330  0.382907  0.415984  1
  O  O36  1  0.222231  0.233289  0.781529  1
  O  O37  1  0.940516  0.115571  0.206344  1
  O  O38  1  0.904418  0.166000  0.538687  1
  O  O39  1  0.600285  0.596191  0.215995  1
  O  O40  1  0.595582  0.166000  0.038687  1
  O  O41  1  0.057599  0.624184  0.222878  1
  O  O42  1  0.883675  0.934701  0.327122  1
  O  O43  1  0.598443  0.349338  0.948537  1
  O  O44  1  0.662670  0.617093  0.584016  1
  O  O45  1  0.399715  0.403809  0.784005  1
  O  O46  1  0.059484  0.884429  0.793656  1
  O  O47  1  0.254343  0.246664  0.478437  1
  O  O48  1  0.204533  0.428072  0.576933  1
  O  O49  1  0.795467  0.571928  0.423067  1
  O  O50  1  0.245657  0.246664  0.978437  1
  O  O51  1  0.442401  0.624184  0.722878  1
  O  O52  1  0.899715  0.596191  0.715995  1
  O  O53  1  0.116325  0.065299  0.672878  1
  O  O54  1  0.616325  0.934701  0.827122  1
  O  O55  1  0.688731  0.799066  0.383506  1
  O  O56  1  0.162670  0.382907  0.915984  1
  O  O57  1  0.901557  0.349338  0.448537  1
  O  O58  1  0.311269  0.200934  0.616494  1
  O  O59  1  0.188731  0.200934  0.116494  1
  O  O60  1  0.440516  0.884429  0.293656  1
  O  O61  1  0.722231  0.766711  0.718471  1
  O  O62  1  0.719510  0.934482  0.538005  1
  O  O63  1  0.280490  0.065518  0.461995  1
  O  O64  1  0.401557  0.650662  0.051463  1
  O  O65  1  0.383675  0.065299  0.172878  1
  O  O66  1  0.837330  0.617093  0.084016  1
  O  O67  1  0.100285  0.403809  0.284005  1
  O  O68  1  0.295467  0.428072  0.076933  1
  O  O69  1  0.942401  0.375816  0.777122  1
  O  O70  1  0.404418  0.834000  0.961313  1
  O  O71  1  0.745657  0.753336  0.521563  1
  O  O72  1  0.098443  0.650662  0.551463  1
  O  O73  1  0.277769  0.233289  0.281529  1
  O  O74  1  0.095582  0.834000  0.461313  1
  O  O75  1  0.811269  0.799066  0.883506  1
  O  O76  1  0.704533  0.571928  0.923067  1
  O  O77  1  0.559484  0.115571  0.706344  1
  O  O78  1  0.780490  0.934482  0.038005  1
  O  O79  1  0.777769  0.766711  0.218471  1
