# generated using pymatgen
data_CsTi3P5O19
_symmetry_space_group_name_H-M   'P 1'
_cell_length_a   6.40188225
_cell_length_b   8.58149504
_cell_length_c   8.58149458
_cell_angle_alpha   113.20110494
_cell_angle_beta   98.60593111
_cell_angle_gamma   98.60593006
_symmetry_Int_Tables_number   1
_chemical_formula_structural   CsTi3P5O19
_chemical_formula_sum   'Cs1 Ti3 P5 O19'
_cell_volume   417.00354194
_cell_formula_units_Z   1
loop_
 _symmetry_equiv_pos_site_id
 _symmetry_equiv_pos_as_xyz
  1  'x, y, z'
loop_
 _atom_site_type_symbol
 _atom_site_label
 _atom_site_symmetry_multiplicity
 _atom_site_fract_x
 _atom_site_fract_y
 _atom_site_fract_z
 _atom_site_occupancy
  Cs  Cs0  1  0.524095  0.097524  0.097524  1
  Ti  Ti1  1  0.181778  0.243925  0.490673  1
  Ti  Ti2  1  0.843150  0.765368  0.765368  1
  Ti  Ti3  1  0.181778  0.490673  0.243925  1
  P  P4  1  0.999654  0.815114  0.184855  1
  P  P5  1  0.999654  0.184855  0.815114  1
  P  P6  1  0.302668  0.669885  0.669885  1
  P  P7  1  0.730221  0.610282  0.317099  1
  P  P8  1  0.730221  0.317099  0.610282  1
  O  O9  1  0.261963  0.663107  0.485005  1
  O  O10  1  0.490440  0.234805  0.525035  1
  O  O11  1  0.865529  0.250219  0.475421  1
  O  O12  1  0.141496  0.685256  0.166010  1
  O  O13  1  0.112537  0.322113  0.997822  1
  O  O14  1  0.151596  0.772815  0.772815  1
  O  O15  1  0.779529  0.515289  0.706155  1
  O  O16  1  0.538567  0.769877  0.769877  1
  O  O17  1  0.186222  0.316492  0.316492  1
  O  O18  1  0.779529  0.706155  0.515289  1
  O  O19  1  0.141496  0.166010  0.685256  1
  O  O20  1  0.786287  0.247120  0.756635  1
  O  O21  1  0.904112  0.013876  0.822652  1
  O  O22  1  0.865529  0.475421  0.250219  1
  O  O23  1  0.490440  0.525035  0.234805  1
  O  O24  1  0.261963  0.485005  0.663107  1
  O  O25  1  0.112537  0.997822  0.322113  1
  O  O26  1  0.904112  0.822652  0.013876  1
  O  O27  1  0.786287  0.756635  0.247120  1
