# generated using pymatgen
data_Cs3GaSe3
_symmetry_space_group_name_H-M   'P 1'
_cell_length_a   8.70984957
_cell_length_b   9.33581838
_cell_length_c   14.07486362
_cell_angle_alpha   90.00000000
_cell_angle_beta   90.00000000
_cell_angle_gamma   101.74727408
_symmetry_Int_Tables_number   1
_chemical_formula_structural   Cs3GaSe3
_chemical_formula_sum   'Cs12 Ga4 Se12'
_cell_volume   1120.50656326
_cell_formula_units_Z   4
loop_
 _symmetry_equiv_pos_site_id
 _symmetry_equiv_pos_as_xyz
  1  'x, y, z'
loop_
 _atom_site_type_symbol
 _atom_site_label
 _atom_site_symmetry_multiplicity
 _atom_site_fract_x
 _atom_site_fract_y
 _atom_site_fract_z
 _atom_site_occupancy
  Cs  Cs0  1  0.257749  0.613183  0.078451  1
  Cs  Cs1  1  0.242251  0.886817  0.578451  1
  Cs  Cs2  1  0.742251  0.386817  0.921549  1
  Cs  Cs3  1  0.757749  0.113183  0.421549  1
  Cs  Cs4  1  0.284731  0.414916  0.806844  1
  Cs  Cs5  1  0.215269  0.085084  0.306844  1
  Cs  Cs6  1  0.715269  0.585084  0.193156  1
  Cs  Cs7  1  0.784731  0.914916  0.693156  1
  Cs  Cs8  1  0.137229  0.514075  0.372152  1
  Cs  Cs9  1  0.362772  0.985925  0.872152  1
  Cs  Cs10  1  0.862772  0.485925  0.627848  1
  Cs  Cs11  1  0.637228  0.014075  0.127848  1
  Se  Se12  1  0.472856  0.608765  0.604006  1
  Se  Se13  1  0.027144  0.891235  0.104006  1
  Se  Se14  1  0.527144  0.391235  0.395994  1
  Se  Se15  1  0.972856  0.108765  0.895994  1
  Se  Se16  1  0.458481  0.804536  0.339438  1
  Se  Se17  1  0.041519  0.695464  0.839438  1
  Se  Se18  1  0.541519  0.195464  0.660562  1
  Se  Se19  1  0.958481  0.304536  0.160562  1
  Se  Se20  1  0.870489  0.759408  0.445906  1
  Se  Se21  1  0.629511  0.740592  0.945906  1
  Se  Se22  1  0.129511  0.240592  0.554094  1
  Se  Se23  1  0.370489  0.259408  0.054094  1
  Ga  Ga24  1  0.091715  0.159122  0.057013  1
  Ga  Ga25  1  0.408285  0.340878  0.557013  1
  Ga  Ga26  1  0.908285  0.840878  0.942987  1
  Ga  Ga27  1  0.591715  0.659122  0.442987  1
