# generated using pymatgen
data_Na5CrP2(O4F)2
_symmetry_space_group_name_H-M   'P 1'
_cell_length_a   10.71576129
_cell_length_b   10.71576159
_cell_length_c   6.76644866
_cell_angle_alpha   90.00000000
_cell_angle_beta   90.00000000
_cell_angle_gamma   119.99999911
_symmetry_Int_Tables_number   1
_chemical_formula_structural   Na5CrP2(O4F)2
_chemical_formula_sum   'Na15 Cr3 P6 O24 F6'
_cell_volume   672.87981354
_cell_formula_units_Z   3
loop_
 _symmetry_equiv_pos_site_id
 _symmetry_equiv_pos_as_xyz
  1  'x, y, z'
loop_
 _atom_site_type_symbol
 _atom_site_label
 _atom_site_symmetry_multiplicity
 _atom_site_fract_x
 _atom_site_fract_y
 _atom_site_fract_z
 _atom_site_occupancy
  Na  Na0  1  0.333333  0.666667  0.576205  1
  Na  Na1  1  0.666667  0.333333  0.503954  1
  Na  Na2  1  0.000000  0.000000  0.436789  1
  Na  Na3  1  0.333333  0.666667  0.019245  1
  Na  Na4  1  0.838749  0.189572  0.243451  1
  Na  Na5  1  0.982949  0.506350  0.763303  1
  Na  Na6  1  0.166952  0.833261  0.502733  1
  Na  Na7  1  0.810428  0.649177  0.243451  1
  Na  Na8  1  0.493650  0.476599  0.763303  1
  Na  Na9  1  0.350823  0.161251  0.243451  1
  Na  Na10  1  0.166739  0.333691  0.502733  1
  Na  Na11  1  0.000000  0.000000  0.994930  1
  Na  Na12  1  0.666667  0.333333  0.003180  1
  Na  Na13  1  0.523401  0.017051  0.763303  1
  Na  Na14  1  0.666309  0.833048  0.502733  1
  Cr  Cr15  1  0.666876  0.833403  0.003554  1
  Cr  Cr16  1  0.166597  0.833473  0.003554  1
  Cr  Cr17  1  0.166527  0.333124  0.003554  1
  P  P18  1  0.481106  0.516492  0.254239  1
  P  P19  1  0.483508  0.964614  0.254239  1
  P  P20  1  0.035386  0.518894  0.254239  1
  P  P21  1  0.849976  0.702296  0.753503  1
  P  P22  1  0.297704  0.147680  0.753503  1
  P  P23  1  0.852320  0.150024  0.753503  1
  O  O24  1  0.407232  0.504667  0.453454  1
  O  O25  1  0.089423  0.408857  0.215629  1
  O  O26  1  0.495333  0.902565  0.453454  1
  O  O27  1  0.014266  0.756305  0.790486  1
  O  O28  1  0.559944  0.428727  0.249173  1
  O  O29  1  0.836914  0.763204  0.554029  1
  O  O30  1  0.926289  0.163086  0.554029  1
  O  O31  1  0.464289  0.226324  0.760355  1
  O  O32  1  0.097435  0.592768  0.453454  1
  O  O33  1  0.233762  0.037669  0.929472  1
  O  O34  1  0.098184  0.629102  0.078355  1
  O  O35  1  0.236796  0.073711  0.554029  1
  O  O36  1  0.370898  0.469081  0.078355  1
  O  O37  1  0.319433  0.910577  0.215629  1
  O  O38  1  0.591143  0.680567  0.215629  1
  O  O39  1  0.243695  0.257961  0.790486  1
  O  O40  1  0.571273  0.131217  0.249173  1
  O  O41  1  0.530919  0.901816  0.078355  1
  O  O42  1  0.773676  0.237965  0.760355  1
  O  O43  1  0.742039  0.985734  0.790486  1
  O  O44  1  0.762035  0.535711  0.760355  1
  O  O45  1  0.803907  0.766238  0.929472  1
  O  O46  1  0.962331  0.196093  0.929472  1
  O  O47  1  0.868783  0.440056  0.249173  1
  F  F48  1  0.289710  0.815163  0.802012  1
  F  F49  1  0.044109  0.851745  0.206684  1
  F  F50  1  0.525453  0.710290  0.802012  1
  F  F51  1  0.148255  0.192365  0.206684  1
  F  F52  1  0.184837  0.474547  0.802012  1
  F  F53  1  0.807635  0.955891  0.206684  1
