# generated using pymatgen
data_Li7IN2
_symmetry_space_group_name_H-M   'P 1'
_cell_length_a   7.87889940
_cell_length_b   7.87889920
_cell_length_c   7.87889944
_cell_angle_alpha   59.99999901
_cell_angle_beta   59.99999982
_cell_angle_gamma   59.99999907
_symmetry_Int_Tables_number   1
_chemical_formula_structural   Li7IN2
_chemical_formula_sum   'Li14 I2 N4'
_cell_volume   345.84512035
_cell_formula_units_Z   2
loop_
 _symmetry_equiv_pos_site_id
 _symmetry_equiv_pos_as_xyz
  1  'x, y, z'
loop_
 _atom_site_type_symbol
 _atom_site_label
 _atom_site_symmetry_multiplicity
 _atom_site_fract_x
 _atom_site_fract_y
 _atom_site_fract_z
 _atom_site_occupancy
  I  I0  1  0.125000  0.125000  0.125000  1
  I  I1  1  0.875000  0.875000  0.875000  1
  N  N2  1  0.000000  0.000000  0.000000  1
  N  N3  1  0.000000  0.000000  0.500000  1
  N  N4  1  0.500000  0.000000  0.000000  1
  N  N5  1  0.000000  0.500000  0.000000  1
  Li  Li6  1  0.375000  0.375000  0.375000  1
  Li  Li7  1  0.625000  0.625000  0.625000  1
  Li  Li8  1  0.889268  0.360732  0.360732  1
  Li  Li9  1  0.639268  0.639268  0.110732  1
  Li  Li10  1  0.110732  0.110732  0.639268  1
  Li  Li11  1  0.639268  0.110732  0.110732  1
  Li  Li12  1  0.639268  0.110732  0.639268  1
  Li  Li13  1  0.110732  0.639268  0.110732  1
  Li  Li14  1  0.360732  0.889268  0.360732  1
  Li  Li15  1  0.360732  0.360732  0.889268  1
  Li  Li16  1  0.889268  0.889268  0.360732  1
  Li  Li17  1  0.889268  0.360732  0.889268  1
  Li  Li18  1  0.110732  0.639268  0.639268  1
  Li  Li19  1  0.360732  0.889268  0.889268  1
