# generated using pymatgen
data_Gd2(Al3Ir)3
_symmetry_space_group_name_H-M   'P 1'
_cell_length_a   7.57317661
_cell_length_b   7.57317656
_cell_length_c   9.51627089
_cell_angle_alpha   90.00000000
_cell_angle_beta   90.00000000
_cell_angle_gamma   119.52006671
_symmetry_Int_Tables_number   1
_chemical_formula_structural   Gd2(Al3Ir)3
_chemical_formula_sum   'Gd4 Al18 Ir6'
_cell_volume   474.93442296
_cell_formula_units_Z   2
loop_
 _symmetry_equiv_pos_site_id
 _symmetry_equiv_pos_as_xyz
  1  'x, y, z'
loop_
 _atom_site_type_symbol
 _atom_site_label
 _atom_site_symmetry_multiplicity
 _atom_site_fract_x
 _atom_site_fract_y
 _atom_site_fract_z
 _atom_site_occupancy
  Gd  Gd0  1  0.329078  0.005129  0.750000  1
  Gd  Gd1  1  0.005129  0.329078  0.750000  1
  Gd  Gd2  1  0.994871  0.670922  0.250000  1
  Gd  Gd3  1  0.670922  0.994871  0.250000  1
  Al  Al4  1  0.664852  0.999182  0.574365  1
  Al  Al5  1  0.335148  0.000818  0.074365  1
  Al  Al6  1  0.000818  0.335148  0.425635  1
  Al  Al7  1  0.452417  0.660583  0.750000  1
  Al  Al8  1  0.999182  0.664852  0.574365  1
  Al  Al9  1  0.666755  0.666755  0.048325  1
  Al  Al10  1  0.333245  0.333245  0.951675  1
  Al  Al11  1  0.666755  0.666755  0.451675  1
  Al  Al12  1  0.128673  0.128673  0.250000  1
  Al  Al13  1  0.333245  0.333245  0.548325  1
  Al  Al14  1  0.660583  0.452417  0.750000  1
  Al  Al15  1  0.339417  0.547583  0.250000  1
  Al  Al16  1  0.999182  0.664852  0.925635  1
  Al  Al17  1  0.000818  0.335148  0.074365  1
  Al  Al18  1  0.335148  0.000818  0.425635  1
  Al  Al19  1  0.871327  0.871327  0.750000  1
  Al  Al20  1  0.547583  0.339417  0.250000  1
  Al  Al21  1  0.664852  0.999182  0.925635  1
  Ir  Ir22  1  0.328571  0.671429  0.000000  1
  Ir  Ir23  1  0.671429  0.328571  0.500000  1
  Ir  Ir24  1  0.000000  0.000000  0.000000  1
  Ir  Ir25  1  0.671429  0.328571  0.000000  1
  Ir  Ir26  1  0.000000  0.000000  0.500000  1
  Ir  Ir27  1  0.328571  0.671429  0.500000  1
