# generated using pymatgen
data_Sr11(OsO6)4
_symmetry_space_group_name_H-M   'P 1'
_cell_length_a   11.66706456
_cell_length_b   11.66706575
_cell_length_c   11.66737943
_cell_angle_alpha   119.25017239
_cell_angle_beta   119.26300662
_cell_angle_gamma   91.29101139
_symmetry_Int_Tables_number   1
_chemical_formula_structural   Sr11(OsO6)4
_chemical_formula_sum   'Sr22 Os8 O48'
_cell_volume   1135.32611929
_cell_formula_units_Z   2
loop_
 _symmetry_equiv_pos_site_id
 _symmetry_equiv_pos_as_xyz
  1  'x, y, z'
loop_
 _atom_site_type_symbol
 _atom_site_label
 _atom_site_symmetry_multiplicity
 _atom_site_fract_x
 _atom_site_fract_y
 _atom_site_fract_z
 _atom_site_occupancy
  Sr  Sr0  1  0.245319  0.807129  0.484822  1
  Sr  Sr1  1  0.158104  0.849632  0.782050  1
  Sr  Sr2  1  0.612290  0.862290  0.750000  1
  Sr  Sr3  1  0.862212  0.612212  0.250000  1
  Sr  Sr4  1  0.239973  0.754920  0.062173  1
  Sr  Sr5  1  0.841896  0.150368  0.217950  1
  Sr  Sr6  1  0.137788  0.387788  0.750000  1
  Sr  Sr7  1  0.760027  0.245080  0.937827  1
  Sr  Sr8  1  0.192747  0.177800  0.437827  1
  Sr  Sr9  1  0.822308  0.760497  0.015178  1
  Sr  Sr10  1  0.807253  0.822200  0.562173  1
  Sr  Sr11  1  0.625778  0.375778  0.250000  1
  Sr  Sr12  1  0.177692  0.239503  0.984822  1
  Sr  Sr13  1  0.374222  0.624222  0.750000  1
  Sr  Sr14  1  0.150666  0.432355  0.308563  1
  Sr  Sr15  1  0.754681  0.192871  0.515178  1
  Sr  Sr16  1  0.432418  0.623946  0.282050  1
  Sr  Sr17  1  0.623792  0.842103  0.191437  1
  Sr  Sr18  1  0.849334  0.567645  0.691437  1
  Sr  Sr19  1  0.567582  0.376054  0.717950  1
  Sr  Sr20  1  0.387710  0.137710  0.250000  1
  Sr  Sr21  1  0.376208  0.157897  0.808563  1
  Os  Os22  1  0.000000  0.000000  0.000000  1
  Os  Os23  1  0.500000  0.500000  0.500000  1
  Os  Os24  1  0.500000  0.000000  0.000000  1
  Os  Os25  1  0.000000  0.000000  0.500000  1
  Os  Os26  1  0.500000  0.500000  0.000000  1
  Os  Os27  1  0.500000  0.000000  0.500000  1
  Os  Os28  1  0.000000  0.500000  0.000000  1
  Os  Os29  1  0.000000  0.500000  0.500000  1
  O  O30  1  0.836007  0.992827  0.498745  1
  O  O31  1  0.483834  0.027714  0.667059  1
  O  O32  1  0.363841  0.359794  0.762834  1
  O  O33  1  0.007765  0.005479  0.843014  1
  O  O34  1  0.605046  0.143981  0.015090  1
  O  O35  1  0.662464  0.164751  0.656986  1
  O  O36  1  0.027889  0.861536  0.544757  1
  O  O37  1  0.860655  0.816775  0.832941  1
  O  O38  1  0.399731  0.636949  0.497361  1
  O  O39  1  0.972111  0.138464  0.455243  1
  O  O40  1  0.388045  0.892285  0.771131  1
  O  O41  1  0.621153  0.616914  0.728869  1
  O  O42  1  0.856423  0.370728  0.461107  1
  O  O43  1  0.071172  0.603701  0.223029  1
  O  O44  1  0.109360  0.380212  0.498126  1
  O  O45  1  0.516166  0.972286  0.332941  1
  O  O46  1  0.139345  0.183225  0.167059  1
  O  O47  1  0.628892  0.589956  0.484910  1
  O  O48  1  0.880672  0.848143  0.276971  1
  O  O49  1  0.639588  0.902370  0.002639  1
  O  O50  1  0.928828  0.396299  0.776971  1
  O  O51  1  0.378847  0.383086  0.271131  1
  O  O52  1  0.005918  0.662738  0.998745  1
  O  O53  1  0.611955  0.107715  0.228869  1
  O  O54  1  0.395864  0.118725  0.467453  1
  O  O55  1  0.903040  0.398993  0.262834  1
  O  O56  1  0.617913  0.388766  0.998126  1
  O  O57  1  0.992235  0.994521  0.156986  1
  O  O58  1  0.183222  0.516869  0.044757  1
  O  O59  1  0.994082  0.337262  0.001255  1
  O  O60  1  0.848728  0.071589  0.967453  1
  O  O61  1  0.151272  0.928411  0.032547  1
  O  O62  1  0.371108  0.410044  0.515090  1
  O  O63  1  0.600269  0.363051  0.502639  1
  O  O64  1  0.119328  0.151857  0.723029  1
  O  O65  1  0.394954  0.856019  0.984910  1
  O  O66  1  0.590379  0.604684  0.961107  1
  O  O67  1  0.636159  0.640206  0.237166  1
  O  O68  1  0.143577  0.629272  0.538893  1
  O  O69  1  0.337536  0.835249  0.343014  1
  O  O70  1  0.096960  0.601007  0.737166  1
  O  O71  1  0.890640  0.619788  0.501874  1
  O  O72  1  0.163993  0.007173  0.501255  1
  O  O73  1  0.382087  0.611234  0.001874  1
  O  O74  1  0.816778  0.483131  0.955243  1
  O  O75  1  0.604136  0.881275  0.532547  1
  O  O76  1  0.409621  0.395316  0.038893  1
  O  O77  1  0.360412  0.097630  0.997361  1
