# generated using pymatgen
data_Bi2Mo2O9
_symmetry_space_group_name_H-M   'P 1'
_cell_length_a   10.98614423
_cell_length_b   12.02862749
_cell_length_c   12.17359514
_cell_angle_alpha   90.26833845
_cell_angle_beta   90.00000000
_cell_angle_gamma   90.00000000
_symmetry_Int_Tables_number   1
_chemical_formula_structural   Bi2Mo2O9
_chemical_formula_sum   'Bi16 Mo16 O72'
_cell_volume   1608.70148588
_cell_formula_units_Z   8
loop_
 _symmetry_equiv_pos_site_id
 _symmetry_equiv_pos_as_xyz
  1  'x, y, z'
loop_
 _atom_site_type_symbol
 _atom_site_label
 _atom_site_symmetry_multiplicity
 _atom_site_fract_x
 _atom_site_fract_y
 _atom_site_fract_z
 _atom_site_occupancy
  Bi  Bi0  1  0.123825  0.757468  0.604503  1
  Bi  Bi1  1  0.377563  0.912853  0.752285  1
  Bi  Bi2  1  0.622437  0.087147  0.247715  1
  Bi  Bi3  1  0.623997  0.741837  0.243058  1
  Bi  Bi4  1  0.120438  0.757584  0.899945  1
  Bi  Bi5  1  0.376003  0.258163  0.756942  1
  Bi  Bi6  1  0.122437  0.412853  0.252285  1
  Bi  Bi7  1  0.876003  0.241837  0.743058  1
  Bi  Bi8  1  0.376175  0.257468  0.104503  1
  Bi  Bi9  1  0.879562  0.242416  0.100055  1
  Bi  Bi10  1  0.620438  0.742416  0.600055  1
  Bi  Bi11  1  0.877563  0.587147  0.747715  1
  Bi  Bi12  1  0.876175  0.242532  0.395497  1
  Bi  Bi13  1  0.379562  0.257584  0.399945  1
  Bi  Bi14  1  0.623825  0.742532  0.895497  1
  Bi  Bi15  1  0.123997  0.758163  0.256942  1
  Mo  Mo16  1  0.869844  0.584373  0.420483  1
  Mo  Mo17  1  0.377476  0.589019  0.416484  1
  Mo  Mo18  1  0.624671  0.083544  0.577821  1
  Mo  Mo19  1  0.375329  0.916456  0.422179  1
  Mo  Mo20  1  0.622524  0.410981  0.583516  1
  Mo  Mo21  1  0.372131  0.582286  0.090324  1
  Mo  Mo22  1  0.369844  0.915627  0.079517  1
  Mo  Mo23  1  0.872131  0.917714  0.409676  1
  Mo  Mo24  1  0.127869  0.082286  0.590324  1
  Mo  Mo25  1  0.124671  0.416456  0.922179  1
  Mo  Mo26  1  0.122524  0.089019  0.916484  1
  Mo  Mo27  1  0.875329  0.583544  0.077821  1
  Mo  Mo28  1  0.630156  0.084373  0.920483  1
  Mo  Mo29  1  0.627869  0.417714  0.909676  1
  Mo  Mo30  1  0.130156  0.415627  0.579517  1
  Mo  Mo31  1  0.877476  0.910981  0.083516  1
  O  O32  1  0.007905  0.725840  0.752299  1
  O  O33  1  0.755127  0.903134  0.304314  1
  O  O34  1  0.204475  0.101611  0.464460  1
  O  O35  1  0.184579  0.553815  0.594931  1
  O  O36  1  0.455106  0.614766  0.543145  1
  O  O37  1  0.492017  0.902912  0.177893  1
  O  O38  1  0.684579  0.946185  0.905069  1
  O  O39  1  0.544894  0.385234  0.456855  1
  O  O40  1  0.244873  0.096866  0.695686  1
  O  O41  1  0.737346  0.716357  0.746785  1
  O  O42  1  0.055441  0.551372  0.901226  1
  O  O43  1  0.995296  0.682484  0.101195  1
  O  O44  1  0.066044  0.943428  0.602107  1
  O  O45  1  0.258374  0.900183  0.321397  1
  O  O46  1  0.295525  0.601611  0.964460  1
  O  O47  1  0.505355  0.314188  0.905930  1
  O  O48  1  0.255133  0.689698  0.408419  1
  O  O49  1  0.555441  0.948628  0.598774  1
  O  O50  1  0.494645  0.685812  0.094070  1
  O  O51  1  0.933102  0.614504  0.556819  1
  O  O52  1  0.252455  0.317017  0.602791  1
  O  O53  1  0.237346  0.783643  0.753215  1
  O  O54  1  0.704475  0.398389  0.035540  1
  O  O55  1  0.744867  0.310302  0.591581  1
  O  O56  1  0.315421  0.053815  0.094931  1
  O  O57  1  0.190768  0.950675  0.904592  1
  O  O58  1  0.987194  0.896693  0.192023  1
  O  O59  1  0.686324  0.113374  0.440764  1
  O  O60  1  0.744873  0.403134  0.804314  1
  O  O61  1  0.512806  0.396693  0.692023  1
  O  O62  1  0.247545  0.817017  0.102791  1
  O  O63  1  0.795525  0.898389  0.535540  1
  O  O64  1  0.007983  0.402912  0.677893  1
  O  O65  1  0.815421  0.446185  0.405069  1
  O  O66  1  0.504704  0.182484  0.601195  1
  O  O67  1  0.955106  0.885234  0.956855  1
  O  O68  1  0.004704  0.317516  0.898805  1
  O  O69  1  0.492095  0.225840  0.252299  1
  O  O70  1  0.690768  0.549325  0.595408  1
  O  O71  1  0.444559  0.051372  0.401226  1
  O  O72  1  0.005355  0.185812  0.594070  1
  O  O73  1  0.012806  0.103307  0.807977  1
  O  O74  1  0.241626  0.400183  0.821397  1
  O  O75  1  0.752455  0.182983  0.897209  1
  O  O76  1  0.309232  0.450675  0.404592  1
  O  O77  1  0.813676  0.613374  0.940764  1
  O  O78  1  0.758374  0.599817  0.178603  1
  O  O79  1  0.262654  0.283643  0.253215  1
  O  O80  1  0.244867  0.189698  0.908419  1
  O  O81  1  0.313676  0.886626  0.559236  1
  O  O82  1  0.741626  0.099817  0.678603  1
  O  O83  1  0.566044  0.556572  0.897893  1
  O  O84  1  0.994645  0.814188  0.405930  1
  O  O85  1  0.566898  0.114504  0.056819  1
  O  O86  1  0.433956  0.443428  0.102107  1
  O  O87  1  0.762654  0.216357  0.246785  1
  O  O88  1  0.933956  0.056572  0.397893  1
  O  O89  1  0.044894  0.114766  0.043145  1
  O  O90  1  0.944559  0.448628  0.098774  1
  O  O91  1  0.495296  0.817516  0.398805  1
  O  O92  1  0.992095  0.274160  0.247701  1
  O  O93  1  0.487194  0.603307  0.307977  1
  O  O94  1  0.747545  0.682983  0.397209  1
  O  O95  1  0.755133  0.810302  0.091581  1
  O  O96  1  0.507905  0.774160  0.747701  1
  O  O97  1  0.433102  0.885496  0.943181  1
  O  O98  1  0.066898  0.385496  0.443181  1
  O  O99  1  0.507983  0.097088  0.822107  1
  O  O100  1  0.809232  0.049325  0.095408  1
  O  O101  1  0.186324  0.386626  0.059236  1
  O  O102  1  0.255127  0.596866  0.195686  1
  O  O103  1  0.992017  0.597088  0.322107  1
