# generated using pymatgen
data_Pr3MnBi5
_symmetry_space_group_name_H-M   'P 1'
_cell_length_a   9.73509776
_cell_length_b   9.74292067
_cell_length_c   6.51281889
_cell_angle_alpha   90.00000000
_cell_angle_beta   90.00000000
_cell_angle_gamma   120.02658544
_symmetry_Int_Tables_number   1
_chemical_formula_structural   Pr3MnBi5
_chemical_formula_sum   'Pr6 Mn2 Bi10'
_cell_volume   534.82624396
_cell_formula_units_Z   2
loop_
 _symmetry_equiv_pos_site_id
 _symmetry_equiv_pos_as_xyz
  1  'x, y, z'
loop_
 _atom_site_type_symbol
 _atom_site_label
 _atom_site_symmetry_multiplicity
 _atom_site_fract_x
 _atom_site_fract_y
 _atom_site_fract_z
 _atom_site_occupancy
  Pr  Pr0  1  0.621066  0.620894  0.750000  1
  Pr  Pr1  1  0.378934  0.999827  0.750000  1
  Pr  Pr2  1  0.621066  0.000173  0.250000  1
  Pr  Pr3  1  0.000000  0.378962  0.750000  1
  Pr  Pr4  1  0.378934  0.379106  0.250000  1
  Pr  Pr5  1  1.000000  0.621038  0.250000  1
  Mn  Mn6  1  0.000000  0.000000  0.000000  1
  Mn  Mn7  1  0.000000  0.000000  0.500000  1
  Bi  Bi8  1  0.252222  0.999789  0.250000  1
  Bi  Bi9  1  0.000000  0.252362  0.250000  1
  Bi  Bi10  1  -0.000000  0.747638  0.750000  1
  Bi  Bi11  1  0.333547  0.666774  0.500000  1
  Bi  Bi12  1  0.333547  0.666774  -0.000000  1
  Bi  Bi13  1  0.252222  0.252433  0.750000  1
  Bi  Bi14  1  0.666453  0.333226  0.500000  1
  Bi  Bi15  1  0.747778  0.747567  0.250000  1
  Bi  Bi16  1  0.747778  0.000211  0.750000  1
  Bi  Bi17  1  0.666453  0.333226  0.000000  1
