# generated using pymatgen
data_NdOF
_symmetry_space_group_name_H-M   'P 1'
_cell_length_a   7.02640344
_cell_length_b   7.02640344
_cell_length_c   7.02640345
_cell_angle_alpha   32.97191635
_cell_angle_beta   32.97191640
_cell_angle_gamma   32.97191631
_symmetry_Int_Tables_number   1
_chemical_formula_structural   NdOF
_chemical_formula_sum   'Nd2 O2 F2'
_cell_volume   91.43006506
_cell_formula_units_Z   2
loop_
 _symmetry_equiv_pos_site_id
 _symmetry_equiv_pos_as_xyz
  1  'x, y, z'
loop_
 _atom_site_type_symbol
 _atom_site_label
 _atom_site_symmetry_multiplicity
 _atom_site_fract_x
 _atom_site_fract_y
 _atom_site_fract_z
 _atom_site_occupancy
  O  O0  1  0.877870  0.877870  0.877870  1
  O  O1  1  0.122130  0.122130  0.122130  1
  F  F2  1  0.370246  0.370246  0.370246  1
  F  F3  1  0.629754  0.629754  0.629754  1
  Nd  Nd4  1  0.758570  0.758570  0.758570  1
  Nd  Nd5  1  0.241430  0.241430  0.241430  1
