# generated using pymatgen
data_CsAgCl2
_symmetry_space_group_name_H-M   'P 1'
_cell_length_a   4.44458407
_cell_length_b   5.76587336
_cell_length_c   9.99797625
_cell_angle_alpha   90.00000000
_cell_angle_beta   102.84264483
_cell_angle_gamma   90.00000000
_symmetry_Int_Tables_number   1
_chemical_formula_structural   CsAgCl2
_chemical_formula_sum   'Cs2 Ag2 Cl4'
_cell_volume   249.80774413
_cell_formula_units_Z   2
loop_
 _symmetry_equiv_pos_site_id
 _symmetry_equiv_pos_as_xyz
  1  'x, y, z'
loop_
 _atom_site_type_symbol
 _atom_site_label
 _atom_site_symmetry_multiplicity
 _atom_site_fract_x
 _atom_site_fract_y
 _atom_site_fract_z
 _atom_site_occupancy
  Cs  Cs0  1  0.417482  0.250000  0.834963  1
  Cs  Cs1  1  0.582518  0.750000  0.165037  1
  Ag  Ag2  1  0.200417  0.250000  0.400834  1
  Ag  Ag3  1  0.799583  0.750000  0.599166  1
  Cl  Cl4  1  0.776125  0.250000  0.552250  1
  Cl  Cl5  1  0.223875  0.750000  0.447750  1
  Cl  Cl6  1  0.069059  0.250000  0.138119  1
  Cl  Cl7  1  0.930941  0.750000  0.861881  1
