# generated using pymatgen
data_K2Ge2S5
_symmetry_space_group_name_H-M   'P 1'
_cell_length_a   8.94814504
_cell_length_b   11.01193082
_cell_length_c   11.01193082
_cell_angle_alpha   90.13531478
_cell_angle_beta   100.13490191
_cell_angle_gamma   100.13490420
_symmetry_Int_Tables_number   1
_chemical_formula_structural   K2Ge2S5
_chemical_formula_sum   'K8 Ge8 S20'
_cell_volume   1050.85505165
_cell_formula_units_Z   4
loop_
 _symmetry_equiv_pos_site_id
 _symmetry_equiv_pos_as_xyz
  1  'x, y, z'
loop_
 _atom_site_type_symbol
 _atom_site_label
 _atom_site_symmetry_multiplicity
 _atom_site_fract_x
 _atom_site_fract_y
 _atom_site_fract_z
 _atom_site_occupancy
  K  K0  1  0.119904  0.468329  0.213730  1
  K  K1  1  0.380096  0.786269  0.531671  1
  K  K2  1  0.880096  0.531671  0.786269  1
  K  K3  1  0.619904  0.213730  0.468329  1
  K  K4  1  0.382144  0.787720  0.939233  1
  K  K5  1  0.117856  0.060767  0.212280  1
  K  K6  1  0.617856  0.212280  0.060767  1
  K  K7  1  0.882144  0.939233  0.787720  1
  Ge  Ge8  1  0.595762  0.526398  0.267108  1
  Ge  Ge9  1  0.904238  0.732892  0.473602  1
  Ge  Ge10  1  0.404238  0.473602  0.732892  1
  Ge  Ge11  1  0.095762  0.267108  0.526398  1
  Ge  Ge12  1  0.110060  0.269774  0.866831  1
  Ge  Ge13  1  0.389940  0.133169  0.730226  1
  Ge  Ge14  1  0.889940  0.730226  0.133169  1
  Ge  Ge15  1  0.610060  0.866831  0.269774  1
  S  S16  1  0.739929  0.541699  0.114681  1
  S  S17  1  0.760071  0.885319  0.458301  1
  S  S18  1  0.260071  0.458301  0.885319  1
  S  S19  1  0.239929  0.114681  0.541699  1
  S  S20  1  0.548941  0.320984  0.755280  1
  S  S21  1  0.951059  0.244720  0.679016  1
  S  S22  1  0.451059  0.679016  0.244720  1
  S  S23  1  0.048941  0.755280  0.320984  1
  S  S24  1  0.444588  0.351039  0.243138  1
  S  S25  1  0.055412  0.756862  0.648961  1
  S  S26  1  0.555412  0.648961  0.756862  1
  S  S27  1  0.944588  0.243138  0.351039  1
  S  S28  1  0.029807  0.752995  0.993166  1
  S  S29  1  0.470193  0.006834  0.247005  1
  S  S30  1  0.970193  0.247005  0.006834  1
  S  S31  1  0.529807  0.993166  0.752995  1
  S  S32  1  0.750000  0.884677  0.115323  1
  S  S33  1  0.250000  0.115323  0.884677  1
  S  S34  1  0.750000  0.544962  0.455038  1
  S  S35  1  0.250000  0.455038  0.544962  1
