# generated using pymatgen
data_K8NbAs5Pb
_symmetry_space_group_name_H-M   'P 1'
_cell_length_a   9.48042696
_cell_length_b   13.62018208
_cell_length_c   16.73683973
_cell_angle_alpha   94.86426332
_cell_angle_beta   106.45249745
_cell_angle_gamma   90.00000152
_symmetry_Int_Tables_number   1
_chemical_formula_structural   K8NbAs5Pb
_chemical_formula_sum   'K32 Nb4 As20 Pb4'
_cell_volume   2064.54115022
_cell_formula_units_Z   4
loop_
 _symmetry_equiv_pos_site_id
 _symmetry_equiv_pos_as_xyz
  1  'x, y, z'
loop_
 _atom_site_type_symbol
 _atom_site_label
 _atom_site_symmetry_multiplicity
 _atom_site_fract_x
 _atom_site_fract_y
 _atom_site_fract_z
 _atom_site_occupancy
  K  K0  1  0.361868  0.282521  0.646999  1
  K  K1  1  0.013988  0.618629  0.080408  1
  K  K2  1  0.607153  0.289644  0.872814  1
  K  K3  1  0.808481  0.945280  0.532090  1
  K  K4  1  0.400979  0.392767  0.039266  1
  K  K5  1  0.191519  0.054720  0.467910  1
  K  K6  1  0.638132  0.717479  0.353001  1
  K  K7  1  0.179087  0.041515  0.701000  1
  K  K8  1  0.714869  0.217479  0.353001  1
  K  K9  1  0.844172  0.101349  0.770738  1
  K  K10  1  0.521913  0.541515  0.701000  1
  K  K11  1  0.933579  0.881371  0.919592  1
  K  K12  1  0.155828  0.898651  0.229262  1
  K  K13  1  0.478087  0.458485  0.299000  1
  K  K14  1  0.820913  0.958485  0.299000  1
  K  K15  1  0.931256  0.668893  0.552124  1
  K  K16  1  0.073434  0.398651  0.229262  1
  K  K17  1  0.638287  0.892767  0.039266  1
  K  K18  1  0.361713  0.107233  0.960734  1
  K  K19  1  0.926566  0.601349  0.770738  1
  K  K20  1  0.620868  0.168893  0.552124  1
  K  K21  1  0.392847  0.710356  0.127186  1
  K  K22  1  0.379132  0.831107  0.447876  1
  K  K23  1  0.599021  0.607233  0.960734  1
  K  K24  1  0.276391  0.554720  0.467910  1
  K  K25  1  0.723609  0.445280  0.532090  1
  K  K26  1  0.066421  0.118629  0.080408  1
  K  K27  1  0.734339  0.210356  0.127186  1
  K  K28  1  0.068744  0.331107  0.447876  1
  K  K29  1  0.285131  0.782521  0.646999  1
  K  K30  1  0.986012  0.381371  0.919592  1
  K  K31  1  0.265661  0.789644  0.872814  1
  Nb  Nb32  1  0.317452  0.182175  0.313742  1
  Nb  Nb33  1  0.996289  0.682175  0.313742  1
  Nb  Nb34  1  0.682548  0.817825  0.686258  1
  Nb  Nb35  1  0.003711  0.317825  0.686258  1
  As  As36  1  0.762965  0.350379  0.716898  1
  As  As37  1  0.598461  0.685683  0.569746  1
  As  As38  1  0.470527  0.028021  0.352713  1
  As  As39  1  0.117814  0.471979  0.647287  1
  As  As40  1  0.801321  0.737691  0.186937  1
  As  As41  1  0.028715  0.814317  0.430254  1
  As  As42  1  0.270796  0.921843  0.056875  1
  As  As43  1  0.213921  0.578157  0.943125  1
  As  As44  1  0.786079  0.421843  0.056875  1
  As  As45  1  0.953933  0.850379  0.716898  1
  As  As46  1  0.385616  0.237691  0.186937  1
  As  As47  1  0.401539  0.314317  0.430254  1
  As  As48  1  0.971285  0.185683  0.569746  1
  As  As49  1  0.046067  0.149621  0.283102  1
  As  As50  1  0.729204  0.078157  0.943125  1
  As  As51  1  0.529473  0.971979  0.647287  1
  As  As52  1  0.882186  0.528021  0.352713  1
  As  As53  1  0.614384  0.762309  0.813063  1
  As  As54  1  0.237035  0.649621  0.283102  1
  As  As55  1  0.198679  0.262309  0.813063  1
  Pb  Pb56  1  0.524727  0.964336  0.819216  1
  Pb  Pb57  1  0.475273  0.035664  0.180784  1
  Pb  Pb58  1  0.294489  0.464336  0.819216  1
  Pb  Pb59  1  0.705511  0.535664  0.180784  1
