# generated using pymatgen
data_Ca4Fe9O17
_symmetry_space_group_name_H-M   'P 1'
_cell_length_a   6.09026834
_cell_length_b   6.09472222
_cell_length_c   11.57264173
_cell_angle_alpha   97.48184816
_cell_angle_beta   90.00000000
_cell_angle_gamma   119.97582902
_symmetry_Int_Tables_number   1
_chemical_formula_structural   Ca4Fe9O17
_chemical_formula_sum   'Ca4 Fe9 O17'
_cell_volume   367.87162178
_cell_formula_units_Z   1
loop_
 _symmetry_equiv_pos_site_id
 _symmetry_equiv_pos_as_xyz
  1  'x, y, z'
loop_
 _atom_site_type_symbol
 _atom_site_label
 _atom_site_symmetry_multiplicity
 _atom_site_fract_x
 _atom_site_fract_y
 _atom_site_fract_z
 _atom_site_occupancy
  O  O0  1  0.836059  0.661386  0.979574  1
  O  O1  1  0.174673  0.338614  0.020426  1
  O  O2  1  0.143778  0.982815  0.822842  1
  O  O3  1  0.160963  0.017185  0.177158  1
  O  O4  1  0.429328  0.575750  0.821914  1
  O  O5  1  0.853579  0.424250  0.178086  1
  O  O6  1  0.836695  0.266131  0.822419  1
  O  O7  1  0.570565  0.733869  0.177581  1
  O  O8  1  0.489339  0.000000  0.000000  1
  O  O9  1  0.097421  0.693018  0.594690  1
  O  O10  1  0.404402  0.306982  0.405310  1
  O  O11  1  0.608887  0.704868  0.594305  1
  O  O12  1  0.904018  0.295132  0.405695  1
  O  O13  1  0.903445  0.803243  0.401172  1
  O  O14  1  0.100201  0.196757  0.598828  1
  O  O15  1  0.396425  0.801353  0.406727  1
  O  O16  1  0.595072  0.198647  0.593273  1
  Ca  Ca17  1  0.458724  0.919582  0.750716  1
  Ca  Ca18  1  0.539141  0.080418  0.249284  1
  Ca  Ca19  1  0.206216  0.412499  0.240358  1
  Ca  Ca20  1  0.793717  0.587501  0.759642  1
  Fe  Fe21  1  0.832282  0.328445  0.000302  1
  Fe  Fe22  1  0.503837  0.671555  0.999698  1
  Fe  Fe23  1  0.158480  0.000000  0.000000  1
  Fe  Fe24  1  0.129411  0.259727  0.775440  1
  Fe  Fe25  1  0.869683  0.740273  0.224560  1
  Fe  Fe26  1  0.751758  0.496983  0.492133  1
  Fe  Fe27  1  0.254775  0.503017  0.507867  1
  Fe  Fe28  1  0.748442  0.000000  0.500000  1
  Fe  Fe29  1  0.251684  0.000000  0.500000  1
