# generated using pymatgen
data_Dy5Sn13
_symmetry_space_group_name_H-M   'P 1'
_cell_length_a   4.39439453
_cell_length_b   4.47588775
_cell_length_c   24.47762189
_cell_angle_alpha   95.24577540
_cell_angle_beta   95.15000260
_cell_angle_gamma   90.00000288
_symmetry_Int_Tables_number   1
_chemical_formula_structural   Dy5Sn13
_chemical_formula_sum   'Dy5 Sn13'
_cell_volume   477.47765035
_cell_formula_units_Z   1
loop_
 _symmetry_equiv_pos_site_id
 _symmetry_equiv_pos_as_xyz
  1  'x, y, z'
loop_
 _atom_site_type_symbol
 _atom_site_label
 _atom_site_symmetry_multiplicity
 _atom_site_fract_x
 _atom_site_fract_y
 _atom_site_fract_z
 _atom_site_occupancy
  Dy  Dy0  1  0.671246  0.671246  0.342491  1
  Dy  Dy1  1  0.896748  0.396748  0.793496  1
  Dy  Dy2  1  0.328754  0.328754  0.657509  1
  Dy  Dy3  1  0.103252  0.603252  0.206504  1
  Dy  Dy4  1  0.500000  0.000000  0.000000  1
  Sn  Sn5  1  0.779687  0.279687  0.559374  1
  Sn  Sn6  1  0.157385  0.157385  0.314770  1
  Sn  Sn7  1  0.384734  0.884734  0.769468  1
  Sn  Sn8  1  0.280413  0.780413  0.560827  1
  Sn  Sn9  1  0.615266  0.115266  0.230532  1
  Sn  Sn10  1  0.053128  0.053128  0.106256  1
  Sn  Sn11  1  0.719587  0.219587  0.439173  1
  Sn  Sn12  1  0.220313  0.720313  0.440626  1
  Sn  Sn13  1  0.447592  0.447592  0.895183  1
  Sn  Sn14  1  0.552408  0.552408  0.104817  1
  Sn  Sn15  1  0.842615  0.842615  0.685230  1
  Sn  Sn16  1  0.000000  0.500000  0.000000  1
  Sn  Sn17  1  0.946872  0.946872  0.893744  1
