# generated using pymatgen
data_Na3Dy(Si2O5)3
_symmetry_space_group_name_H-M   'P 1'
_cell_length_a   10.64344898
_cell_length_b   11.65801137
_cell_length_c   11.65801198
_cell_angle_alpha   101.14735000
_cell_angle_beta   90.00000000
_cell_angle_gamma   90.00000000
_symmetry_Int_Tables_number   1
_chemical_formula_structural   Na3Dy(Si2O5)3
_chemical_formula_sum   'Na12 Dy4 Si24 O60'
_cell_volume   1419.25142162
_cell_formula_units_Z   4
loop_
 _symmetry_equiv_pos_site_id
 _symmetry_equiv_pos_as_xyz
  1  'x, y, z'
loop_
 _atom_site_type_symbol
 _atom_site_label
 _atom_site_symmetry_multiplicity
 _atom_site_fract_x
 _atom_site_fract_y
 _atom_site_fract_z
 _atom_site_occupancy
  Na  Na0  1  0.249544  0.072209  0.927791  1
  Na  Na1  1  0.000000  0.761836  0.761836  1
  Na  Na2  1  0.250000  0.027027  0.472973  1
  Na  Na3  1  0.750000  0.972973  0.527027  1
  Na  Na4  1  0.250456  0.572209  0.427791  1
  Na  Na5  1  0.250000  0.527027  0.972973  1
  Na  Na6  1  0.500000  0.261836  0.261836  1
  Na  Na7  1  0.750000  0.472973  0.027027  1
  Na  Na8  1  0.000000  0.238164  0.238164  1
  Na  Na9  1  0.749544  0.427791  0.572209  1
  Na  Na10  1  0.750456  0.927791  0.072209  1
  Na  Na11  1  0.500000  0.738164  0.738164  1
  Dy  Dy12  1  0.750000  0.160070  0.339930  1
  Dy  Dy13  1  0.250000  0.339930  0.160070  1
  Dy  Dy14  1  0.750000  0.660070  0.839930  1
  Dy  Dy15  1  0.250000  0.839930  0.660070  1
  Si  Si16  1  0.299685  0.527752  0.691810  1
  Si  Si17  1  0.200315  0.808190  0.972248  1
  Si  Si18  1  0.979882  0.741780  0.471700  1
  Si  Si19  1  0.979882  0.528300  0.258220  1
  Si  Si20  1  0.700315  0.691810  0.527752  1
  Si  Si21  1  0.465997  0.796543  0.416445  1
  Si  Si22  1  0.520118  0.241780  0.971700  1
  Si  Si23  1  0.700315  0.472248  0.308190  1
  Si  Si24  1  0.465997  0.583555  0.203457  1
  Si  Si25  1  0.020118  0.471700  0.741780  1
  Si  Si26  1  0.534003  0.416445  0.796543  1
  Si  Si27  1  0.020118  0.258220  0.528300  1
  Si  Si28  1  0.479882  0.971700  0.241780  1
  Si  Si29  1  0.200315  0.027752  0.191810  1
  Si  Si30  1  0.034003  0.083555  0.703457  1
  Si  Si31  1  0.299685  0.308190  0.472248  1
  Si  Si32  1  0.534003  0.203457  0.583555  1
  Si  Si33  1  0.965997  0.703457  0.083555  1
  Si  Si34  1  0.965997  0.916445  0.296543  1
  Si  Si35  1  0.034003  0.296543  0.916445  1
  Si  Si36  1  0.799685  0.972248  0.808190  1
  Si  Si37  1  0.799685  0.191810  0.027752  1
  Si  Si38  1  0.520118  0.028300  0.758220  1
  Si  Si39  1  0.479882  0.758220  0.028300  1
  O  O40  1  0.424179  0.250894  0.078060  1
  O  O41  1  0.991790  0.610507  0.389493  1
  O  O42  1  0.013606  0.838211  0.390641  1
  O  O43  1  0.318470  0.652590  0.656025  1
  O  O44  1  0.681530  0.656025  0.652590  1
  O  O45  1  0.168535  0.515311  0.765287  1
  O  O46  1  0.657718  0.489365  0.841075  1
  O  O47  1  0.924179  0.578060  0.750894  1
  O  O48  1  0.924179  0.249106  0.421940  1
  O  O49  1  0.818470  0.156025  0.152590  1
  O  O50  1  0.411900  0.500304  0.780497  1
  O  O51  1  0.202352  0.928376  0.071624  1
  O  O52  1  0.575821  0.078060  0.250894  1
  O  O53  1  0.513606  0.661789  0.109359  1
  O  O54  1  0.986394  0.161789  0.609359  1
  O  O55  1  0.486394  0.338211  0.890641  1
  O  O56  1  0.491790  0.889493  0.110507  1
  O  O57  1  0.436699  0.667499  0.332501  1
  O  O58  1  0.157718  0.341075  0.989365  1
  O  O59  1  0.331465  0.734713  0.984689  1
  O  O60  1  0.588100  0.499696  0.219503  1
  O  O61  1  0.588100  0.780497  0.500304  1
  O  O62  1  0.168535  0.234713  0.484689  1
  O  O63  1  0.424179  0.921940  0.749106  1
  O  O64  1  0.157718  0.010635  0.658925  1
  O  O65  1  0.318470  0.343975  0.347410  1
  O  O66  1  0.331465  0.015311  0.265287  1
  O  O67  1  0.181530  0.843975  0.847410  1
  O  O68  1  0.831465  0.765287  0.515311  1
  O  O69  1  0.668535  0.984689  0.734713  1
  O  O70  1  0.508210  0.110507  0.889493  1
  O  O71  1  0.575821  0.749106  0.921940  1
  O  O72  1  0.668535  0.265287  0.015311  1
  O  O73  1  0.088100  0.000304  0.280497  1
  O  O74  1  0.797648  0.071624  0.928376  1
  O  O75  1  0.818470  0.847410  0.843975  1
  O  O76  1  0.486394  0.109359  0.661789  1
  O  O77  1  0.513606  0.890641  0.338211  1
  O  O78  1  0.657718  0.158925  0.510635  1
  O  O79  1  0.936699  0.832501  0.167499  1
  O  O80  1  0.075821  0.750894  0.578060  1
  O  O81  1  0.342282  0.510635  0.158925  1
  O  O82  1  0.088100  0.719503  0.999696  1
  O  O83  1  0.563301  0.332501  0.667499  1
  O  O84  1  0.342282  0.841075  0.489365  1
  O  O85  1  0.986394  0.390641  0.838211  1
  O  O86  1  0.013606  0.609359  0.161789  1
  O  O87  1  0.297648  0.428376  0.571624  1
  O  O88  1  0.063301  0.167499  0.832501  1
  O  O89  1  0.911900  0.999696  0.719503  1
  O  O90  1  0.008210  0.389493  0.610507  1
  O  O91  1  0.411900  0.219503  0.499696  1
  O  O92  1  0.842282  0.658925  0.010635  1
  O  O93  1  0.075821  0.421940  0.249106  1
  O  O94  1  0.831465  0.484689  0.234713  1
  O  O95  1  0.842282  0.989365  0.341075  1
  O  O96  1  0.911900  0.280497  0.000304  1
  O  O97  1  0.681530  0.347410  0.343975  1
  O  O98  1  0.181530  0.152590  0.156025  1
  O  O99  1  0.702352  0.571624  0.428376  1
