# generated using pymatgen
data_CuC2S2(OF)6
_symmetry_space_group_name_H-M   'P 1'
_cell_length_a   4.87244209
_cell_length_b   5.10379053
_cell_length_c   10.91368879
_cell_angle_alpha   87.55831253
_cell_angle_beta   77.71056717
_cell_angle_gamma   62.34190206
_symmetry_Int_Tables_number   1
_chemical_formula_structural   CuC2S2(OF)6
_chemical_formula_sum   'Cu1 C2 S2 O6 F6'
_cell_volume   234.38438789
_cell_formula_units_Z   1
loop_
 _symmetry_equiv_pos_site_id
 _symmetry_equiv_pos_as_xyz
  1  'x, y, z'
loop_
 _atom_site_type_symbol
 _atom_site_label
 _atom_site_symmetry_multiplicity
 _atom_site_fract_x
 _atom_site_fract_y
 _atom_site_fract_z
 _atom_site_occupancy
  Cu  Cu0  1  0.500000  0.500000  0.000000  1
  C  C1  1  0.051459  0.719339  0.671765  1
  C  C2  1  0.948541  0.280661  0.328235  1
  S  S3  1  0.050712  0.235038  0.151946  1
  S  S4  1  0.949288  0.764962  0.848054  1
  O  O5  1  0.096620  0.941904  0.123078  1
  O  O6  1  0.903380  0.058096  0.876923  1
  O  O7  1  0.224390  0.514246  0.885118  1
  O  O8  1  0.658603  0.729470  0.880414  1
  O  O9  1  0.775610  0.485754  0.114882  1
  O  O10  1  0.341397  0.270530  0.119585  1
  F  F11  1  0.669947  0.276899  0.371499  1
  F  F12  1  0.330053  0.723101  0.628501  1
  F  F13  1  0.821000  0.947053  0.627355  1
  F  F14  1  0.075475  0.461560  0.632273  1
  F  F15  1  0.179000  0.052947  0.372645  1
  F  F16  1  0.924525  0.538440  0.367727  1
