# generated using pymatgen
data_Hg(SbS2)4
_symmetry_space_group_name_H-M   'P 1'
_cell_length_a   4.01389407
_cell_length_b   11.32946712
_cell_length_c   30.12711343
_cell_angle_alpha   82.47351470
_cell_angle_beta   86.18035424
_cell_angle_gamma   79.79655208
_symmetry_Int_Tables_number   1
_chemical_formula_structural   Hg(SbS2)4
_chemical_formula_sum   'Hg4 Sb16 S32'
_cell_volume   1335.43086080
_cell_formula_units_Z   4
loop_
 _symmetry_equiv_pos_site_id
 _symmetry_equiv_pos_as_xyz
  1  'x, y, z'
loop_
 _atom_site_type_symbol
 _atom_site_label
 _atom_site_symmetry_multiplicity
 _atom_site_fract_x
 _atom_site_fract_y
 _atom_site_fract_z
 _atom_site_occupancy
  Hg  Hg0  1  0.500000  0.000000  0.000000  1
  Hg  Hg1  1  0.500000  0.500000  0.500000  1
  Hg  Hg2  1  0.003202  0.750000  0.250000  1
  Hg  Hg3  1  0.996798  0.250000  0.750000  1
  S  S4  1  0.409195  0.122217  0.059828  1
  S  S5  1  0.591240  0.377783  0.440172  1
  S  S6  1  0.590805  0.877783  0.940172  1
  S  S7  1  0.408760  0.622217  0.559828  1
  S  S8  1  0.784606  0.138168  0.228687  1
  S  S9  1  0.151462  0.361832  0.271313  1
  S  S10  1  0.215394  0.861832  0.771313  1
  S  S11  1  0.848538  0.638168  0.728687  1
  S  S12  1  0.449779  0.905694  0.171347  1
  S  S13  1  0.526820  0.594306  0.328653  1
  S  S14  1  0.550221  0.094306  0.828653  1
  S  S15  1  0.473180  0.405694  0.671347  1
  S  S16  1  0.256445  0.298202  0.148683  1
  S  S17  1  0.703330  0.201798  0.351317  1
  S  S18  1  0.743555  0.701798  0.851317  1
  S  S19  1  0.296671  0.798202  0.648683  1
  S  S20  1  0.088453  0.627521  0.190252  1
  S  S21  1  0.906226  0.872479  0.309748  1
  S  S22  1  0.911547  0.372479  0.809748  1
  S  S23  1  0.093774  0.127521  0.690252  1
  S  S24  1  0.674454  0.610620  0.021675  1
  S  S25  1  0.306748  0.889380  0.478325  1
  S  S26  1  0.325546  0.389380  0.978325  1
  S  S27  1  0.693252  0.110620  0.521675  1
  S  S28  1  0.027530  0.843587  0.078678  1
  S  S29  1  0.949795  0.656413  0.421322  1
  S  S30  1  0.972470  0.156413  0.921322  1
  S  S31  1  0.050205  0.343587  0.578678  1
  S  S32  1  0.232867  0.450023  0.101308  1
  S  S33  1  0.784198  0.049977  0.398692  1
  S  S34  1  0.767133  0.549977  0.898692  1
  S  S35  1  0.215802  0.950023  0.601308  1
  Sb  Sb36  1  0.882187  0.025307  0.118874  1
  Sb  Sb37  1  0.026368  0.474693  0.381126  1
  Sb  Sb38  1  0.117813  0.974693  0.881126  1
  Sb  Sb39  1  0.973632  0.525307  0.618874  1
  Sb  Sb40  1  0.736852  0.387008  0.041791  1
  Sb  Sb41  1  0.165650  0.112992  0.458209  1
  Sb  Sb42  1  0.263148  0.612992  0.958209  1
  Sb  Sb43  1  0.834350  0.887008  0.541791  1
  Sb  Sb44  1  0.523630  0.723786  0.131197  1
  Sb  Sb45  1  0.378613  0.776214  0.368803  1
  Sb  Sb46  1  0.476370  0.276214  0.868803  1
  Sb  Sb47  1  0.621387  0.223786  0.631197  1
  Sb  Sb48  1  0.633991  0.361463  0.208376  1
  Sb  Sb49  1  0.203830  0.138537  0.291624  1
  Sb  Sb50  1  0.366009  0.638537  0.791624  1
  Sb  Sb51  1  0.796170  0.861463  0.708376  1
