# generated using pymatgen
data_K5NaCe2(SO4)6
_symmetry_space_group_name_H-M   'P 1'
_cell_length_a   7.85972071
_cell_length_b   9.34470162
_cell_length_c   9.49945888
_cell_angle_alpha   60.53745962
_cell_angle_beta   79.84609110
_cell_angle_gamma   68.99648944
_symmetry_Int_Tables_number   1
_chemical_formula_structural   K5NaCe2(SO4)6
_chemical_formula_sum   'K5 Na1 Ce2 S6 O24'
_cell_volume   567.11383277
_cell_formula_units_Z   1
loop_
 _symmetry_equiv_pos_site_id
 _symmetry_equiv_pos_as_xyz
  1  'x, y, z'
loop_
 _atom_site_type_symbol
 _atom_site_label
 _atom_site_symmetry_multiplicity
 _atom_site_fract_x
 _atom_site_fract_y
 _atom_site_fract_z
 _atom_site_occupancy
  K  K0  1  0.120094  0.621031  0.310315  1
  K  K1  1  0.879906  0.378969  0.689685  1
  K  K2  1  0.879906  0.068653  0.310315  1
  K  K3  1  0.500000  0.500000  0.000000  1
  K  K4  1  0.120094  0.931347  0.689685  1
  Na  Na5  1  0.000000  0.500000  0.000000  1
  Ce  Ce6  1  0.500000  0.856623  0.286753  1
  Ce  Ce7  1  0.500000  0.143377  0.713247  1
  S  S8  1  0.196591  0.095353  1.000000  1
  S  S9  1  0.682220  0.461176  0.330954  1
  S  S10  1  0.803409  0.904647  0.000000  1
  S  S11  1  0.317780  0.207870  0.330954  1
  S  S12  1  0.317780  0.538824  0.669046  1
  S  S13  1  0.682220  0.792130  0.669046  1
  O  O14  1  0.222212  0.380646  0.202212  1
  O  O15  1  0.210891  0.925534  0.149229  1
  O  O16  1  0.311905  0.704102  0.517210  1
  O  O17  1  0.777788  0.619354  0.797788  1
  O  O18  1  0.230478  0.075536  0.362614  1
  O  O19  1  0.688095  0.295898  0.482790  1
  O  O20  1  0.509858  0.424699  0.718335  1
  O  O21  1  0.975206  0.771977  1.000000  1
  O  O22  1  0.769522  0.561850  0.362614  1
  O  O23  1  0.311905  0.221312  0.482790  1
  O  O24  1  0.688095  0.778688  0.517210  1
  O  O25  1  0.639060  0.857782  0.000000  1
  O  O26  1  0.230478  0.438150  0.637386  1
  O  O27  1  0.360940  0.142218  1.000000  1
  O  O28  1  0.210891  0.074763  0.850771  1
  O  O29  1  0.490142  0.856967  0.718335  1
  O  O30  1  0.777788  0.417143  0.202212  1
  O  O31  1  0.024794  0.228023  0.000000  1
  O  O32  1  0.509858  0.143033  0.281665  1
  O  O33  1  0.222212  0.582857  0.797788  1
  O  O34  1  0.490142  0.575301  0.281665  1
  O  O35  1  0.769522  0.924464  0.637386  1
  O  O36  1  0.789109  0.925237  0.149229  1
  O  O37  1  0.789109  0.074466  0.850771  1
