# generated using pymatgen
data_ZnS
_symmetry_space_group_name_H-M   'P 1'
_cell_length_a   3.85300760
_cell_length_b   3.85300756
_cell_length_c   63.02483874
_cell_angle_alpha   90.00000000
_cell_angle_beta   90.00000000
_cell_angle_gamma   120.00000032
_symmetry_Int_Tables_number   1
_chemical_formula_structural   ZnS
_chemical_formula_sum   'Zn20 S20'
_cell_volume   810.29302514
_cell_formula_units_Z   20
loop_
 _symmetry_equiv_pos_site_id
 _symmetry_equiv_pos_as_xyz
  1  'x, y, z'
loop_
 _atom_site_type_symbol
 _atom_site_label
 _atom_site_symmetry_multiplicity
 _atom_site_fract_x
 _atom_site_fract_y
 _atom_site_fract_z
 _atom_site_occupancy
  Zn  Zn0  1  0.333333  0.666667  0.950007  1
  Zn  Zn1  1  0.000000  0.000000  0.150013  1
  Zn  Zn2  1  0.666667  0.333333  0.400009  1
  Zn  Zn3  1  0.666667  0.333333  0.900024  1
  Zn  Zn4  1  0.000000  0.000000  0.850009  1
  Zn  Zn5  1  0.666667  0.333333  0.700008  1
  Zn  Zn6  1  0.666667  0.333333  0.100012  1
  Zn  Zn7  1  0.666667  0.333333  0.550009  1
  Zn  Zn8  1  0.000000  0.000000  0.650012  1
  Zn  Zn9  1  0.333333  0.666667  0.050024  1
  Zn  Zn10  1  0.000000  0.000000  0.000009  1
  Zn  Zn11  1  0.000000  0.000000  0.450023  1
  Zn  Zn12  1  0.333333  0.666667  0.200008  1
  Zn  Zn13  1  0.333333  0.666667  0.300023  1
  Zn  Zn14  1  0.333333  0.666667  0.500008  1
  Zn  Zn15  1  0.000000  0.000000  0.350008  1
  Zn  Zn16  1  0.666667  0.333333  0.250009  1
  Zn  Zn17  1  0.333333  0.666667  0.600023  1
  Zn  Zn18  1  0.666667  0.333333  0.800019  1
  Zn  Zn19  1  0.333333  0.666667  0.750009  1
  S  S20  1  0.666667  0.333333  0.587518  1
  S  S21  1  0.666667  0.333333  0.137486  1
  S  S22  1  0.333333  0.666667  0.637485  1
  S  S23  1  0.666667  0.333333  0.837457  1
  S  S24  1  0.333333  0.666667  0.337484  1
  S  S25  1  0.333333  0.666667  0.987458  1
  S  S26  1  0.333333  0.666667  0.087485  1
  S  S27  1  0.333333  0.666667  0.237458  1
  S  S28  1  0.666667  0.333333  0.737458  1
  S  S29  1  0.666667  0.333333  0.937485  1
  S  S30  1  0.000000  0.000000  0.887517  1
  S  S31  1  0.666667  0.333333  0.437518  1
  S  S32  1  0.666667  0.333333  0.287518  1
  S  S33  1  0.000000  0.000000  0.487484  1
  S  S34  1  0.333333  0.666667  0.787518  1
  S  S35  1  0.000000  0.000000  0.387458  1
  S  S36  1  0.000000  0.000000  0.037518  1
  S  S37  1  0.000000  0.000000  0.187486  1
  S  S38  1  0.333333  0.666667  0.537458  1
  S  S39  1  0.000000  0.000000  0.687485  1
