# generated using pymatgen
data_K2CuSbS3
_symmetry_space_group_name_H-M   'P 1'
_cell_length_a   6.35531176
_cell_length_b   6.99986545
_cell_length_c   18.15629916
_cell_angle_alpha   90.00000000
_cell_angle_beta   90.00000000
_cell_angle_gamma   111.22260883
_symmetry_Int_Tables_number   1
_chemical_formula_structural   K2CuSbS3
_chemical_formula_sum   'K8 Cu4 Sb4 S12'
_cell_volume   752.92920554
_cell_formula_units_Z   4
loop_
 _symmetry_equiv_pos_site_id
 _symmetry_equiv_pos_as_xyz
  1  'x, y, z'
loop_
 _atom_site_type_symbol
 _atom_site_label
 _atom_site_symmetry_multiplicity
 _atom_site_fract_x
 _atom_site_fract_y
 _atom_site_fract_z
 _atom_site_occupancy
  K  K0  1  0.562165  0.645431  0.118952  1
  K  K1  1  0.062165  0.145431  0.381048  1
  K  K2  1  0.645270  0.289602  0.542208  1
  K  K3  1  0.145270  0.789602  0.957792  1
  K  K4  1  0.854730  0.210398  0.042208  1
  K  K5  1  0.937835  0.854569  0.618952  1
  K  K6  1  0.437835  0.354569  0.881048  1
  K  K7  1  0.354730  0.710398  0.457792  1
  Cu  Cu8  1  0.951705  0.568870  0.779109  1
  Cu  Cu9  1  0.048295  0.431130  0.220891  1
  Cu  Cu10  1  0.548295  0.931130  0.279109  1
  Cu  Cu11  1  0.451705  0.068870  0.720891  1
  Sb  Sb12  1  0.767847  0.004514  0.823430  1
  Sb  Sb13  1  0.732153  0.495486  0.323430  1
  Sb  Sb14  1  0.232153  0.995486  0.176570  1
  Sb  Sb15  1  0.267847  0.504514  0.676570  1
  S  S16  1  0.845278  0.685617  0.437331  1
  S  S17  1  0.444874  0.854265  0.626144  1
  S  S18  1  0.345278  0.185617  0.062669  1
  S  S19  1  0.154722  0.314383  0.562669  1
  S  S20  1  0.115965  0.916454  0.790190  1
  S  S21  1  0.055126  0.645735  0.126144  1
  S  S22  1  0.944874  0.354265  0.873856  1
  S  S23  1  0.615965  0.416454  0.709810  1
  S  S24  1  0.654722  0.814383  0.937331  1
  S  S25  1  0.884035  0.083546  0.209810  1
  S  S26  1  0.555126  0.145735  0.373856  1
  S  S27  1  0.384035  0.583546  0.290190  1
