# generated using pymatgen
data_KNaSi2O5
_symmetry_space_group_name_H-M   'P 1'
_cell_length_a   4.91305065
_cell_length_b   7.58261525
_cell_length_c   13.76319939
_cell_angle_alpha   90.00000000
_cell_angle_beta   90.00000000
_cell_angle_gamma   91.25523012
_symmetry_Int_Tables_number   1
_chemical_formula_structural   KNaSi2O5
_chemical_formula_sum   'K4 Na4 Si8 O20'
_cell_volume   512.60806382
_cell_formula_units_Z   4
loop_
 _symmetry_equiv_pos_site_id
 _symmetry_equiv_pos_as_xyz
  1  'x, y, z'
loop_
 _atom_site_type_symbol
 _atom_site_label
 _atom_site_symmetry_multiplicity
 _atom_site_fract_x
 _atom_site_fract_y
 _atom_site_fract_z
 _atom_site_occupancy
  K  K0  1  0.199812  0.287830  0.200629  1
  K  K1  1  0.800188  0.712170  0.799371  1
  K  K2  1  0.800188  0.212170  0.700629  1
  K  K3  1  0.199812  0.787830  0.299371  1
  Na  Na4  1  0.276520  0.972058  0.594052  1
  Na  Na5  1  0.723480  0.027942  0.405948  1
  Na  Na6  1  0.276520  0.472058  0.905948  1
  Na  Na7  1  0.723480  0.527942  0.094052  1
  Si  Si8  1  0.802154  0.215738  0.951387  1
  Si  Si9  1  0.802154  0.715738  0.548613  1
  Si  Si10  1  0.197846  0.784262  0.048613  1
  Si  Si11  1  0.295879  0.514702  0.630221  1
  Si  Si12  1  0.295879  0.014702  0.869779  1
  Si  Si13  1  0.197846  0.284262  0.451387  1
  Si  Si14  1  0.704121  0.485298  0.369779  1
  Si  Si15  1  0.704121  0.985298  0.130221  1
  O  O16  1  0.874664  0.332740  0.429969  1
  O  O17  1  0.219062  0.991548  0.759001  1
  O  O18  1  0.749045  0.417117  0.926948  1
  O  O19  1  0.125336  0.667260  0.570031  1
  O  O20  1  0.377377  0.928784  0.114621  1
  O  O21  1  0.874664  0.832740  0.070031  1
  O  O22  1  0.251871  0.324294  0.569238  1
  O  O23  1  0.749045  0.917117  0.573052  1
  O  O24  1  0.780938  0.008452  0.240999  1
  O  O25  1  0.250955  0.082883  0.426948  1
  O  O26  1  0.748129  0.175706  0.069238  1
  O  O27  1  0.377377  0.428784  0.385379  1
  O  O28  1  0.622623  0.071216  0.885379  1
  O  O29  1  0.780938  0.508452  0.259001  1
  O  O30  1  0.622623  0.571216  0.614621  1
  O  O31  1  0.250955  0.582883  0.073052  1
  O  O32  1  0.219062  0.491548  0.740999  1
  O  O33  1  0.748129  0.675706  0.430762  1
  O  O34  1  0.125336  0.167260  0.929969  1
  O  O35  1  0.251871  0.824294  0.930762  1
