# generated using pymatgen
data_Ti11Se4
_symmetry_space_group_name_H-M   'P 1'
_cell_length_a   3.44022486
_cell_length_b   12.91458770
_cell_length_c   17.52997756
_cell_angle_alpha   76.85354498
_cell_angle_beta   84.36885256
_cell_angle_gamma   82.34595223
_symmetry_Int_Tables_number   1
_chemical_formula_structural   Ti11Se4
_chemical_formula_sum   'Ti33 Se12'
_cell_volume   749.81278836
_cell_formula_units_Z   3
loop_
 _symmetry_equiv_pos_site_id
 _symmetry_equiv_pos_as_xyz
  1  'x, y, z'
loop_
 _atom_site_type_symbol
 _atom_site_label
 _atom_site_symmetry_multiplicity
 _atom_site_fract_x
 _atom_site_fract_y
 _atom_site_fract_z
 _atom_site_occupancy
  Ti  Ti0  1  0.000000  0.000000  0.000000  1
  Ti  Ti1  1  0.917138  0.229032  0.936692  1
  Ti  Ti2  1  0.082862  0.770968  0.063308  1
  Ti  Ti3  1  0.788676  0.492927  0.929722  1
  Ti  Ti4  1  0.211324  0.507073  0.070278  1
  Ti  Ti5  1  0.198830  0.702089  0.900251  1
  Ti  Ti6  1  0.801170  0.297911  0.099749  1
  Ti  Ti7  1  0.596832  0.871090  0.935246  1
  Ti  Ti8  1  0.403168  0.128910  0.064754  1
  Ti  Ti9  1  0.512391  0.100550  0.874668  1
  Ti  Ti10  1  0.487609  0.899450  0.125332  1
  Ti  Ti11  1  0.402353  0.361083  0.834212  1
  Ti  Ti12  1  0.597647  0.638917  0.165788  1
  Ti  Ti13  1  0.117749  0.963031  0.801471  1
  Ti  Ti14  1  0.882251  0.036969  0.198529  1
  Ti  Ti15  1  0.002697  0.240819  0.753787  1
  Ti  Ti16  1  0.997303  0.759181  0.246213  1
  Ti  Ti17  1  0.882233  0.524268  0.711265  1
  Ti  Ti18  1  0.117767  0.475732  0.288735  1
  Ti  Ti19  1  0.278093  0.737476  0.706338  1
  Ti  Ti20  1  0.721907  0.262524  0.293662  1
  Ti  Ti21  1  0.710658  0.924244  0.654440  1
  Ti  Ti22  1  0.289342  0.075756  0.345560  1
  Ti  Ti23  1  0.145263  0.105916  0.603558  1
  Ti  Ti24  1  0.854737  0.894084  0.396442  1
  Ti  Ti25  1  0.839638  0.737902  0.582821  1
  Ti  Ti26  1  0.160362  0.262098  0.417179  1
  Ti  Ti27  1  0.432004  0.564477  0.571515  1
  Ti  Ti28  1  0.567996  0.435523  0.428485  1
  Ti  Ti29  1  0.023783  0.385765  0.566670  1
  Ti  Ti30  1  0.976217  0.614235  0.433330  1
  Ti  Ti31  1  0.270552  0.924497  0.534399  1
  Ti  Ti32  1  0.729448  0.075503  0.465601  1
  Se  Se33  1  0.331594  0.346659  0.990152  1
  Se  Se34  1  0.668406  0.653341  0.009848  1
  Se  Se35  1  0.309210  0.566566  0.815014  1
  Se  Se36  1  0.690790  0.433434  0.184986  1
  Se  Se37  1  0.696458  0.808396  0.798689  1
  Se  Se38  1  0.303542  0.191604  0.201311  1
  Se  Se39  1  0.469107  0.382147  0.679638  1
  Se  Se40  1  0.530893  0.617853  0.320362  1
  Se  Se41  1  0.589819  0.101111  0.719252  1
  Se  Se42  1  0.410181  0.898889  0.280748  1
  Se  Se43  1  0.609292  0.249551  0.531865  1
  Se  Se44  1  0.390708  0.750449  0.468135  1
