# generated using pymatgen
data_AgI
_symmetry_space_group_name_H-M   'P 1'
_cell_length_a   4.36016953
_cell_length_b   4.42296902
_cell_length_c   6.13718412
_cell_angle_alpha   90.00000000
_cell_angle_beta   91.70037471
_cell_angle_gamma   90.00000000
_symmetry_Int_Tables_number   1
_chemical_formula_structural   AgI
_chemical_formula_sum   'Ag2 I2'
_cell_volume   118.30283414
_cell_formula_units_Z   2
loop_
 _symmetry_equiv_pos_site_id
 _symmetry_equiv_pos_as_xyz
  1  'x, y, z'
loop_
 _atom_site_type_symbol
 _atom_site_label
 _atom_site_symmetry_multiplicity
 _atom_site_fract_x
 _atom_site_fract_y
 _atom_site_fract_z
 _atom_site_occupancy
  Ag  Ag0  1  0.825961  0.750000  0.780269  1
  Ag  Ag1  1  0.174039  0.250000  0.219731  1
  I  I2  1  0.279875  0.250000  0.741134  1
  I  I3  1  0.720125  0.750000  0.258866  1
