# generated using pymatgen
data_K2Mo3O10
_symmetry_space_group_name_H-M   'P 1'
_cell_length_a   8.11223559
_cell_length_b   8.25155909
_cell_length_c   9.11637642
_cell_angle_alpha   97.62843560
_cell_angle_beta   90.00000000
_cell_angle_gamma   119.44301931
_symmetry_Int_Tables_number   1
_chemical_formula_structural   K2Mo3O10
_chemical_formula_sum   'K4 Mo6 O20'
_cell_volume   525.21160747
_cell_formula_units_Z   2
loop_
 _symmetry_equiv_pos_site_id
 _symmetry_equiv_pos_as_xyz
  1  'x, y, z'
loop_
 _atom_site_type_symbol
 _atom_site_label
 _atom_site_symmetry_multiplicity
 _atom_site_fract_x
 _atom_site_fract_y
 _atom_site_fract_z
 _atom_site_occupancy
  K  K0  1  0.221493  0.631102  0.843737  1
  K  K1  1  0.590391  0.368898  0.656263  1
  K  K2  1  0.778507  0.368898  0.156263  1
  K  K3  1  0.409609  0.631102  0.343737  1
  Mo  Mo4  1  0.030192  0.215028  0.518991  1
  Mo  Mo5  1  0.815164  0.784972  0.981009  1
  Mo  Mo6  1  0.969808  0.784972  0.481009  1
  Mo  Mo7  1  0.184836  0.215028  0.018991  1
  Mo  Mo8  1  0.299398  0.000000  0.250000  1
  Mo  Mo9  1  0.700602  0.000000  0.750000  1
  O  O10  1  0.151802  0.407629  0.080314  1
  O  O11  1  0.744173  0.592371  0.419686  1
  O  O12  1  0.848198  0.592371  0.919686  1
  O  O13  1  0.255827  0.407629  0.580314  1
  O  O14  1  0.936274  0.049909  0.909500  1
  O  O15  1  0.886365  0.950091  0.590500  1
  O  O16  1  0.063726  0.950091  0.090500  1
  O  O17  1  0.113635  0.049909  0.409500  1
  O  O18  1  0.944719  0.273549  0.371410  1
  O  O19  1  0.671169  0.726451  0.128590  1
  O  O20  1  0.055281  0.726451  0.628590  1
  O  O21  1  0.328831  0.273549  0.871410  1
  O  O22  1  0.120200  0.760313  0.323019  1
  O  O23  1  0.359887  0.239687  0.176981  1
  O  O24  1  0.879800  0.239687  0.676981  1
  O  O25  1  0.640113  0.760313  0.823019  1
  O  O26  1  0.377873  0.889473  0.114159  1
  O  O27  1  0.488400  0.110527  0.385841  1
  O  O28  1  0.622127  0.110527  0.885841  1
  O  O29  1  0.511600  0.889473  0.614159  1
