# generated using pymatgen
data_Gd4Si2Se3O7
_symmetry_space_group_name_H-M   'P 1'
_cell_length_a   11.07984551
_cell_length_b   11.07984508
_cell_length_c   11.07984523
_cell_angle_alpha   100.17078143
_cell_angle_beta   114.31221055
_cell_angle_gamma   114.31221189
_symmetry_Int_Tables_number   1
_chemical_formula_structural   Gd4Si2Se3O7
_chemical_formula_sum   'Gd16 Si8 Se12 O28'
_cell_volume   1026.87729696
_cell_formula_units_Z   4
loop_
 _symmetry_equiv_pos_site_id
 _symmetry_equiv_pos_as_xyz
  1  'x, y, z'
loop_
 _atom_site_type_symbol
 _atom_site_label
 _atom_site_symmetry_multiplicity
 _atom_site_fract_x
 _atom_site_fract_y
 _atom_site_fract_z
 _atom_site_occupancy
  Gd  Gd0  1  0.250000  0.297470  0.702530  1
  Gd  Gd1  1  0.489061  0.822334  0.333273  1
  Gd  Gd2  1  0.094940  0.047470  0.297470  1
  Gd  Gd3  1  0.010939  0.666727  0.177666  1
  Gd  Gd4  1  0.405060  0.702530  0.952530  1
  Gd  Gd5  1  0.489061  0.666727  0.655788  1
  Gd  Gd6  1  0.989061  0.655788  0.666727  1
  Gd  Gd7  1  0.250000  0.952530  0.047470  1
  Gd  Gd8  1  0.905060  0.952530  0.702530  1
  Gd  Gd9  1  0.989061  0.333273  0.822334  1
  Gd  Gd10  1  0.010939  0.344212  0.333273  1
  Gd  Gd11  1  0.750000  0.702530  0.297470  1
  Gd  Gd12  1  0.750000  0.047470  0.952530  1
  Gd  Gd13  1  0.510939  0.333273  0.344212  1
  Gd  Gd14  1  0.510939  0.177666  0.666727  1
  Gd  Gd15  1  0.594940  0.297470  0.047470  1
  Si  Si16  1  0.374470  0.907023  0.781493  1
  Si  Si17  1  0.625530  0.532552  0.907023  1
  Si  Si18  1  0.125530  0.218507  0.092977  1
  Si  Si19  1  0.374470  0.467448  0.092977  1
  Si  Si20  1  0.625530  0.092977  0.218507  1
  Si  Si21  1  0.874470  0.781493  0.907023  1
  Si  Si22  1  0.874470  0.092977  0.467448  1
  Si  Si23  1  0.125530  0.907023  0.532552  1
  Se  Se24  1  0.145016  0.645016  1.000000  1
  Se  Se25  1  0.354984  0.354984  0.500000  1
  Se  Se26  1  0.250000  0.125000  0.875000  1
  Se  Se27  1  0.854984  0.354984  0.000000  1
  Se  Se28  1  0.645016  1.000000  0.645016  1
  Se  Se29  1  0.645016  0.645016  0.500000  1
  Se  Se30  1  0.354984  0.000000  0.354984  1
  Se  Se31  1  0.250000  0.625000  0.375000  1
  Se  Se32  1  0.854984  0.500000  0.354984  1
  Se  Se33  1  0.750000  0.375000  0.625000  1
  Se  Se34  1  0.145016  0.500000  0.645016  1
  Se  Se35  1  0.750000  0.875000  0.125000  1
  O  O36  1  0.250000  0.857873  0.607873  1
  O  O37  1  0.488815  0.569372  0.839436  1
  O  O38  1  0.729935  0.569372  0.080556  1
  O  O39  1  0.011185  0.850621  0.080556  1
  O  O40  1  0.770065  0.919444  0.430628  1
  O  O41  1  0.020658  0.830622  0.351280  1
  O  O42  1  0.270065  0.430628  0.919444  1
  O  O43  1  0.511185  0.080556  0.850621  1
  O  O44  1  0.979342  0.169378  0.648720  1
  O  O45  1  0.520658  0.169378  0.190037  1
  O  O46  1  0.770065  0.850621  0.839436  1
  O  O47  1  0.229935  0.080556  0.569372  1
  O  O48  1  0.479342  0.648720  0.169378  1
  O  O49  1  0.270065  0.839436  0.850621  1
  O  O50  1  0.520658  0.351280  0.830622  1
  O  O51  1  0.750000  0.142127  0.392127  1
  O  O52  1  0.479342  0.830622  0.809963  1
  O  O53  1  0.020658  0.190037  0.169378  1
  O  O54  1  0.011185  0.160564  0.430628  1
  O  O55  1  0.979342  0.809963  0.830622  1
  O  O56  1  0.229935  0.149379  0.160564  1
  O  O57  1  0.988815  0.149379  0.919444  1
  O  O58  1  0.511185  0.430628  0.160564  1
  O  O59  1  0.988815  0.839436  0.569372  1
  O  O60  1  0.250000  0.392127  0.142127  1
  O  O61  1  0.488815  0.919444  0.149379  1
  O  O62  1  0.750000  0.607873  0.857873  1
  O  O63  1  0.729935  0.160564  0.149379  1
