# generated using pymatgen
data_KH3C2S2O
_symmetry_space_group_name_H-M   'P 1'
_cell_length_a   6.64702655
_cell_length_b   10.71511105
_cell_length_c   13.97711965
_cell_angle_alpha   71.62422594
_cell_angle_beta   82.03530538
_cell_angle_gamma   84.19238121
_symmetry_Int_Tables_number   1
_chemical_formula_structural   KH3C2S2O
_chemical_formula_sum   'K6 H18 C12 S12 O6'
_cell_volume   933.87358333
_cell_formula_units_Z   6
loop_
 _symmetry_equiv_pos_site_id
 _symmetry_equiv_pos_as_xyz
  1  'x, y, z'
loop_
 _atom_site_type_symbol
 _atom_site_label
 _atom_site_symmetry_multiplicity
 _atom_site_fract_x
 _atom_site_fract_y
 _atom_site_fract_z
 _atom_site_occupancy
  K  K0  1  0.836637  0.433596  0.402610  1
  K  K1  1  0.237029  0.449196  0.129541  1
  K  K2  1  0.762971  0.550804  0.870459  1
  K  K3  1  0.424227  0.859974  0.676138  1
  K  K4  1  0.163363  0.566404  0.597390  1
  K  K5  1  0.575773  0.140026  0.323862  1
  H  H6  1  0.159346  0.167440  0.684427  1
  H  H7  1  0.760285  0.055142  0.101783  1
  H  H8  1  0.508799  0.229188  0.776044  1
  H  H9  1  0.093517  0.795296  0.354108  1
  H  H10  1  0.019908  0.988466  0.096941  1
  H  H11  1  0.980092  0.011534  0.903059  1
  H  H12  1  0.035028  0.839162  0.962922  1
  H  H13  1  0.239715  0.944858  0.898217  1
  H  H14  1  0.916044  0.899832  0.407758  1
  H  H15  1  0.707816  0.214122  0.855520  1
  H  H16  1  0.906483  0.204704  0.645892  1
  H  H17  1  0.538213  0.847191  0.089198  1
  H  H18  1  0.964972  0.160838  0.037078  1
  H  H19  1  0.083956  0.100168  0.592242  1
  H  H20  1  0.840654  0.832560  0.315573  1
  H  H21  1  0.292184  0.785878  0.144480  1
  H  H22  1  0.461787  0.152809  0.910802  1
  H  H23  1  0.491201  0.770812  0.223956  1
  C  C24  1  0.919241  0.074685  0.101157  1
  C  C25  1  0.932772  0.815221  0.378309  1
  C  C26  1  0.678766  0.687316  0.504787  1
  C  C27  1  0.080759  0.925315  0.898843  1
  C  C28  1  0.067228  0.184779  0.621691  1
  C  C29  1  0.321234  0.312684  0.495213  1
  C  C30  1  0.543613  0.229270  0.850554  1
  C  C31  1  0.895571  0.868976  0.780800  1
  C  C32  1  0.296303  0.412129  0.854383  1
  C  C33  1  0.104429  0.131024  0.219200  1
  C  C34  1  0.456387  0.770730  0.149446  1
  C  C35  1  0.703697  0.587871  0.145617  1
  S  S36  1  0.349421  0.450676  0.394241  1
  S  S37  1  0.079015  0.166544  0.330760  1
  S  S38  1  0.881002  0.665609  0.176932  1
  S  S39  1  0.738721  0.437727  0.125797  1
  S  S40  1  0.505753  0.197401  0.540878  1
  S  S41  1  0.679713  0.868132  0.859922  1
  S  S42  1  0.920985  0.833456  0.669240  1
  S  S43  1  0.650579  0.549324  0.605759  1
  S  S44  1  0.494247  0.802600  0.459122  1
  S  S45  1  0.118998  0.334391  0.823068  1
  S  S46  1  0.261279  0.562273  0.874203  1
  S  S47  1  0.320287  0.131868  0.140078  1
  O  O48  1  0.925377  0.100071  0.196464  1
  O  O49  1  0.875828  0.697044  0.459128  1
  O  O50  1  0.510697  0.642822  0.134998  1
  O  O51  1  0.489303  0.357178  0.865002  1
  O  O52  1  0.124172  0.302956  0.540872  1
  O  O53  1  0.074623  0.899929  0.803536  1
