# generated using pymatgen
data_Na3Y(BO3)2
_symmetry_space_group_name_H-M   'P 1'
_cell_length_a   6.61607773
_cell_length_b   8.59783844
_cell_length_c   10.66805815
_cell_angle_alpha   90.00000000
_cell_angle_beta   94.01124265
_cell_angle_gamma   90.00000000
_symmetry_Int_Tables_number   1
_chemical_formula_structural   Na3Y(BO3)2
_chemical_formula_sum   'Na12 Y4 B8 O24'
_cell_volume   605.35491912
_cell_formula_units_Z   4
loop_
 _symmetry_equiv_pos_site_id
 _symmetry_equiv_pos_as_xyz
  1  'x, y, z'
loop_
 _atom_site_type_symbol
 _atom_site_label
 _atom_site_symmetry_multiplicity
 _atom_site_fract_x
 _atom_site_fract_y
 _atom_site_fract_z
 _atom_site_occupancy
  Na  Na0  1  0.483403  0.702431  0.882682  1
  Na  Na1  1  0.212133  0.055347  0.884196  1
  Na  Na2  1  0.016597  0.202431  0.617318  1
  Na  Na3  1  0.012611  0.295773  0.072053  1
  Na  Na4  1  0.516597  0.297569  0.117318  1
  Na  Na5  1  0.287867  0.555347  0.615804  1
  Na  Na6  1  0.512611  0.204227  0.572053  1
  Na  Na7  1  0.487389  0.795773  0.427947  1
  Na  Na8  1  0.712133  0.444653  0.384196  1
  Na  Na9  1  0.987389  0.704227  0.927947  1
  Na  Na10  1  0.983403  0.797569  0.382682  1
  Na  Na11  1  0.787867  0.944653  0.115804  1
  Y  Y12  1  0.264639  0.626628  0.170694  1
  Y  Y13  1  0.235361  0.126628  0.329306  1
  Y  Y14  1  0.764639  0.873372  0.670694  1
  Y  Y15  1  0.735361  0.373372  0.829306  1
  B  B16  1  0.785405  0.558530  0.619729  1
  B  B17  1  0.285405  0.941470  0.119729  1
  B  B18  1  0.214595  0.441470  0.380271  1
  B  B19  1  0.740405  0.088581  0.375115  1
  B  B20  1  0.240405  0.411419  0.875115  1
  B  B21  1  0.759595  0.588581  0.124885  1
  B  B22  1  0.714595  0.058530  0.880271  1
  B  B23  1  0.259595  0.911419  0.624885  1
  O  O24  1  0.240966  0.494027  0.987499  1
  O  O25  1  0.259034  0.994027  0.512501  1
  O  O26  1  0.715165  0.164055  0.977704  1
  O  O27  1  0.920194  0.688051  0.160026  1
  O  O28  1  0.312552  0.882490  0.243432  1
  O  O29  1  0.740966  0.005973  0.487499  1
  O  O30  1  0.748288  0.901071  0.893907  1
  O  O31  1  0.784835  0.664055  0.522296  1
  O  O32  1  0.598492  0.570214  0.201039  1
  O  O33  1  0.079806  0.311949  0.839974  1
  O  O34  1  0.251712  0.098929  0.106093  1
  O  O35  1  0.687448  0.117510  0.756568  1
  O  O36  1  0.420194  0.811949  0.660026  1
  O  O37  1  0.401508  0.429786  0.798961  1
  O  O38  1  0.751712  0.401071  0.606093  1
  O  O39  1  0.187448  0.382490  0.256568  1
  O  O40  1  0.901508  0.070214  0.298961  1
  O  O41  1  0.759034  0.505973  0.012501  1
  O  O42  1  0.248288  0.598929  0.393907  1
  O  O43  1  0.215165  0.335945  0.477704  1
  O  O44  1  0.579806  0.188051  0.339974  1
  O  O45  1  0.812552  0.617510  0.743432  1
  O  O46  1  0.284835  0.835945  0.022296  1
  O  O47  1  0.098492  0.929786  0.701039  1
