# generated using pymatgen
data_KHo(PO3)4
_symmetry_space_group_name_H-M   'P 1'
_cell_length_a   7.39837772
_cell_length_b   7.39837781
_cell_length_c   10.51728958
_cell_angle_alpha   101.06048231
_cell_angle_beta   101.06048243
_cell_angle_gamma   115.32313829
_symmetry_Int_Tables_number   1
_chemical_formula_structural   KHo(PO3)4
_chemical_formula_sum   'K2 Ho2 P8 O24'
_cell_volume   485.74075519
_cell_formula_units_Z   2
loop_
 _symmetry_equiv_pos_site_id
 _symmetry_equiv_pos_as_xyz
  1  'x, y, z'
loop_
 _atom_site_type_symbol
 _atom_site_label
 _atom_site_symmetry_multiplicity
 _atom_site_fract_x
 _atom_site_fract_y
 _atom_site_fract_z
 _atom_site_occupancy
  K  K0  1  0.315801  0.184199  0.750000  1
  K  K1  1  0.684199  0.815801  0.250000  1
  Ho  Ho2  1  0.380166  0.119834  0.250000  1
  Ho  Ho3  1  0.619834  0.880166  0.750000  1
  P  P4  1  0.245218  0.697359  0.942901  1
  P  P5  1  0.197359  0.745218  0.442901  1
  P  P6  1  0.802641  0.254782  0.557099  1
  P  P7  1  0.126204  0.285103  0.003331  1
  P  P8  1  0.214897  0.373796  0.496669  1
  P  P9  1  0.873796  0.714897  0.996669  1
  P  P10  1  0.785103  0.626204  0.503331  1
  P  P11  1  0.754782  0.302641  0.057099  1
  O  O12  1  0.029196  0.271517  0.563771  1
  O  O13  1  0.363968  0.843750  0.085974  1
  O  O14  1  0.683945  0.246751  0.174093  1
  O  O15  1  0.636031  0.156250  0.914026  1
  O  O16  1  0.253249  0.816055  0.325907  1
  O  O17  1  0.986036  0.089743  0.884648  1
  O  O18  1  0.343750  0.863969  0.585974  1
  O  O19  1  -0.000539  0.358092  0.089980  1
  O  O20  1  0.316055  0.753249  0.825907  1
  O  O21  1  1.000539  0.641908  0.910021  1
  O  O22  1  0.656250  0.136031  0.414026  1
  O  O23  1  0.013964  0.910257  0.115352  1
  O  O24  1  0.589743  0.486036  0.384648  1
  O  O25  1  0.795424  0.808866  0.602379  1
  O  O26  1  0.228483  0.470804  0.936229  1
  O  O27  1  0.204576  0.191134  0.397621  1
  O  O28  1  0.970804  0.728483  0.436229  1
  O  O29  1  0.308866  0.295424  0.102379  1
  O  O30  1  0.691134  0.704576  0.897621  1
  O  O31  1  0.771517  0.529196  0.063771  1
  O  O32  1  0.858092  0.499461  0.589979  1
  O  O33  1  0.141908  0.500539  0.410021  1
  O  O34  1  0.410257  0.513964  0.615352  1
  O  O35  1  0.746751  0.183945  0.674093  1
