# generated using pymatgen
data_Sn(Mo3S4)2
_symmetry_space_group_name_H-M   'P 1'
_cell_length_a   6.57131411
_cell_length_b   6.57131411
_cell_length_c   6.57131412
_cell_angle_alpha   89.55457786
_cell_angle_beta   89.55457787
_cell_angle_gamma   89.55457787
_symmetry_Int_Tables_number   1
_chemical_formula_structural   Sn(Mo3S4)2
_chemical_formula_sum   'Sn1 Mo6 S8'
_cell_volume   283.73800581
_cell_formula_units_Z   1
loop_
 _symmetry_equiv_pos_site_id
 _symmetry_equiv_pos_as_xyz
  1  'x, y, z'
loop_
 _atom_site_type_symbol
 _atom_site_label
 _atom_site_symmetry_multiplicity
 _atom_site_fract_x
 _atom_site_fract_y
 _atom_site_fract_z
 _atom_site_occupancy
  S  S0  1  0.758911  0.758911  0.758911  1
  S  S1  1  0.872886  0.259460  0.619722  1
  S  S2  1  0.259460  0.619722  0.872886  1
  S  S3  1  0.619722  0.872886  0.259460  1
  S  S4  1  0.127114  0.740540  0.380278  1
  S  S5  1  0.740540  0.380278  0.127114  1
  S  S6  1  0.241089  0.241089  0.241089  1
  S  S7  1  0.380278  0.127114  0.740540  1
  Mo  Mo8  1  0.224409  0.415920  0.560813  1
  Mo  Mo9  1  0.584080  0.439187  0.775591  1
  Mo  Mo10  1  0.439187  0.775591  0.584080  1
  Mo  Mo11  1  0.560813  0.224409  0.415920  1
  Mo  Mo12  1  0.415920  0.560813  0.224409  1
  Mo  Mo13  1  0.775591  0.584080  0.439187  1
  Sn  Sn14  1  0.000000  0.000000  0.000000  1
