# generated using pymatgen
data_Na2FeCuF7
_symmetry_space_group_name_H-M   'P 1'
_cell_length_a   7.32541313
_cell_length_b   7.32541188
_cell_length_c   24.93337594
_cell_angle_alpha   82.18498874
_cell_angle_beta   82.18499009
_cell_angle_gamma   60.96011632
_symmetry_Int_Tables_number   1
_chemical_formula_structural   Na2FeCuF7
_chemical_formula_sum   'Na16 Fe8 Cu8 F56'
_cell_volume   1155.10814649
_cell_formula_units_Z   8
loop_
 _symmetry_equiv_pos_site_id
 _symmetry_equiv_pos_as_xyz
  1  'x, y, z'
loop_
 _atom_site_type_symbol
 _atom_site_label
 _atom_site_symmetry_multiplicity
 _atom_site_fract_x
 _atom_site_fract_y
 _atom_site_fract_z
 _atom_site_occupancy
  Na  Na0  1  0.289736  0.217445  0.747016  1
  Na  Na1  1  0.132484  0.120546  0.123001  1
  Na  Na2  1  0.120546  0.132484  0.623001  1
  Na  Na3  1  0.500000  0.500000  0.000000  1
  Na  Na4  1  0.000000  0.000000  0.500000  1
  Na  Na5  1  0.220969  0.779031  0.250000  1
  Na  Na6  1  0.867516  0.879454  0.876999  1
  Na  Na7  1  0.779031  0.220969  0.750000  1
  Na  Na8  1  0.879454  0.867516  0.376999  1
  Na  Na9  1  0.217445  0.289736  0.247016  1
  Na  Na10  1  0.500000  0.000000  0.500000  1
  Na  Na11  1  0.500000  0.500000  0.500000  1
  Na  Na12  1  0.782555  0.710264  0.752984  1
  Na  Na13  1  0.710264  0.782555  0.252984  1
  Na  Na14  1  0.000000  0.000000  0.000000  1
  Na  Na15  1  0.000000  0.500000  0.000000  1
  Fe  Fe16  1  0.888877  0.364427  0.874616  1
  Fe  Fe17  1  0.749803  0.250197  0.250000  1
  Fe  Fe18  1  0.250197  0.749803  0.750000  1
  Fe  Fe19  1  0.000000  0.500000  0.500000  1
  Fe  Fe20  1  0.500000  0.000000  0.000000  1
  Fe  Fe21  1  0.635573  0.111123  0.625384  1
  Fe  Fe22  1  0.364427  0.888877  0.374616  1
  Fe  Fe23  1  0.111123  0.635573  0.125384  1
  Cu  Cu24  1  0.614480  0.133671  0.125675  1
  Cu  Cu25  1  0.613936  0.631427  0.127384  1
  Cu  Cu26  1  0.133671  0.614480  0.625675  1
  Cu  Cu27  1  0.368573  0.386064  0.372616  1
  Cu  Cu28  1  0.386064  0.368573  0.872616  1
  Cu  Cu29  1  0.866329  0.385520  0.374325  1
  Cu  Cu30  1  0.385520  0.866329  0.874325  1
  Cu  Cu31  1  0.631427  0.613936  0.627384  1
  F  F32  1  0.728004  0.307373  0.641973  1
  F  F33  1  0.466623  0.363706  0.288396  1
  F  F34  1  0.632863  0.137313  0.205193  1
  F  F35  1  0.363706  0.466623  0.788396  1
  F  F36  1  0.793847  0.868191  0.967247  1
  F  F37  1  0.362191  0.680408  0.602873  1
  F  F38  1  0.419241  0.263372  0.955713  1
  F  F39  1  0.533377  0.636294  0.711604  1
  F  F40  1  0.964262  0.362745  0.795211  1
  F  F41  1  0.181964  0.636545  0.045680  1
  F  F42  1  0.026366  0.140660  0.210081  1
  F  F43  1  0.035738  0.637255  0.204789  1
  F  F44  1  0.917156  0.539719  0.110207  1
  F  F45  1  0.637255  0.035738  0.704789  1
  F  F46  1  0.206153  0.131809  0.032753  1
  F  F47  1  0.636294  0.533377  0.211604  1
  F  F48  1  0.131809  0.206153  0.532753  1
  F  F49  1  0.704801  0.664861  0.860352  1
  F  F50  1  0.295199  0.335139  0.139648  1
  F  F51  1  0.137313  0.632863  0.705193  1
  F  F52  1  0.542276  0.907979  0.148892  1
  F  F53  1  0.307373  0.728004  0.141973  1
  F  F54  1  0.363455  0.818036  0.454320  1
  F  F55  1  0.457724  0.092021  0.851108  1
  F  F56  1  0.680408  0.362191  0.102873  1
  F  F57  1  0.932478  0.936529  0.110421  1
  F  F58  1  0.319592  0.637809  0.897127  1
  F  F59  1  0.263372  0.419241  0.455713  1
  F  F60  1  0.580759  0.736628  0.044287  1
  F  F61  1  0.907979  0.542276  0.648892  1
  F  F62  1  0.367137  0.862687  0.794807  1
  F  F63  1  0.539719  0.917156  0.610207  1
  F  F64  1  0.592895  0.131993  0.045999  1
  F  F65  1  0.362745  0.964262  0.295211  1
  F  F66  1  0.664861  0.704801  0.360352  1
  F  F67  1  0.859340  0.973634  0.289919  1
  F  F68  1  0.140660  0.026366  0.710081  1
  F  F69  1  0.692627  0.271996  0.858027  1
  F  F70  1  0.973634  0.859340  0.789919  1
  F  F71  1  0.637809  0.319592  0.397127  1
  F  F72  1  0.868007  0.407105  0.454001  1
  F  F73  1  0.067522  0.063471  0.889579  1
  F  F74  1  0.818036  0.363455  0.954320  1
  F  F75  1  0.271996  0.692627  0.358027  1
  F  F76  1  0.936529  0.932478  0.610421  1
  F  F77  1  0.862687  0.367137  0.294807  1
  F  F78  1  0.736628  0.580759  0.544287  1
  F  F79  1  0.092021  0.457724  0.351108  1
  F  F80  1  0.131993  0.592895  0.545999  1
  F  F81  1  0.407105  0.868007  0.954001  1
  F  F82  1  0.335139  0.295199  0.639648  1
  F  F83  1  0.868191  0.793847  0.467247  1
  F  F84  1  0.460281  0.082844  0.389793  1
  F  F85  1  0.082844  0.460281  0.889793  1
  F  F86  1  0.063471  0.067522  0.389579  1
  F  F87  1  0.636545  0.181964  0.545680  1
