# generated using pymatgen
data_Rb7(FeO4)2
_symmetry_space_group_name_H-M   'P 1'
_cell_length_a   6.52820161
_cell_length_b   10.65344325
_cell_length_c   21.02570448
_cell_angle_alpha   90.00000000
_cell_angle_beta   92.95355945
_cell_angle_gamma   90.00000000
_symmetry_Int_Tables_number   1
_chemical_formula_structural   Rb7(FeO4)2
_chemical_formula_sum   'Rb28 Fe8 O32'
_cell_volume   1460.34955573
_cell_formula_units_Z   4
loop_
 _symmetry_equiv_pos_site_id
 _symmetry_equiv_pos_as_xyz
  1  'x, y, z'
loop_
 _atom_site_type_symbol
 _atom_site_label
 _atom_site_symmetry_multiplicity
 _atom_site_fract_x
 _atom_site_fract_y
 _atom_site_fract_z
 _atom_site_occupancy
  O  O0  1  0.140052  0.258537  0.765959  1
  O  O1  1  0.859948  0.758537  0.734041  1
  O  O2  1  0.859948  0.741463  0.234041  1
  O  O3  1  0.140052  0.241463  0.265959  1
  O  O4  1  0.352706  0.199938  0.657250  1
  O  O5  1  0.647294  0.699938  0.842750  1
  O  O6  1  0.647294  0.800062  0.342750  1
  O  O7  1  0.352706  0.300062  0.157250  1
  O  O8  1  0.517256  0.409175  0.730107  1
  O  O9  1  0.482744  0.909175  0.769893  1
  O  O10  1  0.482744  0.590825  0.269893  1
  O  O11  1  0.517256  0.090825  0.230107  1
  O  O12  1  0.127034  0.458548  0.673078  1
  O  O13  1  0.872966  0.958548  0.826922  1
  O  O14  1  0.872966  0.541452  0.326922  1
  O  O15  1  0.127034  0.041452  0.173078  1
  O  O16  1  0.488817  0.200009  0.942117  1
  O  O17  1  0.511183  0.799991  0.057883  1
  O  O18  1  0.488817  0.299991  0.442117  1
  O  O19  1  0.109207  0.659177  0.492665  1
  O  O20  1  0.722563  0.110033  0.538096  1
  O  O21  1  0.277437  0.610033  0.961904  1
  O  O22  1  0.277437  0.889967  0.461904  1
  O  O23  1  0.722563  0.389967  0.038096  1
  O  O24  1  0.193021  0.859064  0.594294  1
  O  O25  1  0.806979  0.359064  0.905706  1
  O  O26  1  0.806979  0.140936  0.405706  1
  O  O27  1  0.193021  0.640936  0.094294  1
  O  O28  1  0.109207  0.840823  0.992665  1
  O  O29  1  0.890793  0.340823  0.507335  1
  O  O30  1  0.890793  0.159177  0.007335  1
  O  O31  1  0.511183  0.700009  0.557883  1
  Fe  Fe32  1  0.281226  0.777799  0.525537  1
  Fe  Fe33  1  0.718774  0.277799  0.974463  1
  Fe  Fe34  1  0.718774  0.222201  0.474463  1
  Fe  Fe35  1  0.281226  0.722201  0.025537  1
  Fe  Fe36  1  0.718113  0.669054  0.294868  1
  Fe  Fe37  1  0.718113  0.830946  0.794868  1
  Fe  Fe38  1  0.281887  0.169054  0.205132  1
  Fe  Fe39  1  0.281887  0.330946  0.705132  1
  Rb  Rb40  1  0.414275  0.453444  0.866372  1
  Rb  Rb41  1  0.585725  0.953444  0.633628  1
  Rb  Rb42  1  0.585725  0.546556  0.133628  1
  Rb  Rb43  1  0.414275  0.046556  0.366372  1
  Rb  Rb44  1  0.197303  0.110134  0.533772  1
  Rb  Rb45  1  0.802697  0.610134  0.966228  1
  Rb  Rb46  1  0.802697  0.889866  0.466228  1
  Rb  Rb47  1  0.197303  0.389866  0.033772  1
  Rb  Rb48  1  0.097203  0.157763  0.885041  1
  Rb  Rb49  1  0.902797  0.657763  0.614959  1
  Rb  Rb50  1  0.902797  0.842237  0.114959  1
  Rb  Rb51  1  0.097203  0.342237  0.385041  1
  Rb  Rb52  1  0.599088  0.161740  0.803558  1
  Rb  Rb53  1  0.400912  0.661740  0.696442  1
  Rb  Rb54  1  0.400912  0.838260  0.196442  1
  Rb  Rb55  1  0.599088  0.338260  0.303558  1
  Rb  Rb56  1  0.288491  0.443171  0.547591  1
  Rb  Rb57  1  0.711509  0.943171  0.952409  1
  Rb  Rb58  1  0.711509  0.556829  0.452409  1
  Rb  Rb59  1  0.288491  0.056829  0.047591  1
  Rb  Rb60  1  0.117379  0.996858  0.715366  1
  Rb  Rb61  1  0.882621  0.496858  0.784634  1
  Rb  Rb62  1  0.882621  0.003142  0.284634  1
  Rb  Rb63  1  0.117379  0.503142  0.215366  1
  Rb  Rb64  1  0.780112  0.292272  0.637270  1
  Rb  Rb65  1  0.219888  0.792272  0.862730  1
  Rb  Rb66  1  0.219888  0.707728  0.362730  1
  Rb  Rb67  1  0.780112  0.207728  0.137270  1
