# generated using pymatgen
data_Ba6Nb14Si4O47
_symmetry_space_group_name_H-M   'P 1'
_cell_length_a   9.18155223
_cell_length_b   9.18155206
_cell_length_c   28.28056270
_cell_angle_alpha   90.00000000
_cell_angle_beta   90.00000000
_cell_angle_gamma   120.00000064
_symmetry_Int_Tables_number   1
_chemical_formula_structural   Ba6Nb14Si4O47
_chemical_formula_sum   'Ba12 Nb28 Si8 O94'
_cell_volume   2064.67113156
_cell_formula_units_Z   2
loop_
 _symmetry_equiv_pos_site_id
 _symmetry_equiv_pos_as_xyz
  1  'x, y, z'
loop_
 _atom_site_type_symbol
 _atom_site_label
 _atom_site_symmetry_multiplicity
 _atom_site_fract_x
 _atom_site_fract_y
 _atom_site_fract_z
 _atom_site_occupancy
  Ba  Ba0  1  0.000000  0.583276  0.014573  1
  Ba  Ba1  1  0.600101  0.000000  0.297398  1
  Ba  Ba2  1  0.583276  0.583276  0.514573  1
  Ba  Ba3  1  0.416724  0.416724  0.014573  1
  Ba  Ba4  1  0.600101  0.600101  0.797398  1
  Ba  Ba5  1  0.416724  0.000000  0.514573  1
  Ba  Ba6  1  0.399899  0.000000  0.797398  1
  Ba  Ba7  1  0.399899  0.399899  0.297398  1
  Ba  Ba8  1  0.000000  0.399899  0.797398  1
  Ba  Ba9  1  1.000000  0.416724  0.514573  1
  Ba  Ba10  1  0.583276  0.000000  0.014573  1
  Ba  Ba11  1  1.000000  0.600101  0.297398  1
  Nb  Nb12  1  0.216520  0.000000  0.949285  1
  Nb  Nb13  1  0.666667  0.333333  0.412094  1
  Nb  Nb14  1  0.000000  0.763262  0.589593  1
  Nb  Nb15  1  1.000000  0.783480  0.449285  1
  Nb  Nb16  1  0.000000  0.254782  0.361785  1
  Nb  Nb17  1  0.745218  0.745218  0.361785  1
  Nb  Nb18  1  0.763262  0.763262  0.089593  1
  Nb  Nb19  1  0.783480  0.783480  0.949285  1
  Nb  Nb20  1  0.254782  0.254782  0.861785  1
  Nb  Nb21  1  0.745218  0.000000  0.861785  1
  Nb  Nb22  1  1.000000  0.236738  0.089593  1
  Nb  Nb23  1  0.783480  0.000000  0.449285  1
  Nb  Nb24  1  0.333333  0.666667  0.912094  1
  Nb  Nb25  1  0.236738  0.000000  0.089593  1
  Nb  Nb26  1  0.238077  0.000000  0.222343  1
  Nb  Nb27  1  0.761923  0.761923  0.222343  1
  Nb  Nb28  1  0.216520  0.216520  0.449285  1
  Nb  Nb29  1  0.254782  0.000000  0.361785  1
  Nb  Nb30  1  1.000000  0.745218  0.861785  1
  Nb  Nb31  1  1.000000  0.238077  0.222343  1
  Nb  Nb32  1  0.666667  0.333333  0.912094  1
  Nb  Nb33  1  0.000000  0.216520  0.949285  1
  Nb  Nb34  1  0.761923  0.000000  0.722343  1
  Nb  Nb35  1  0.000000  0.761923  0.722343  1
  Nb  Nb36  1  0.238077  0.238077  0.722343  1
  Nb  Nb37  1  0.763262  0.000000  0.589593  1
  Nb  Nb38  1  0.236738  0.236738  0.589593  1
  Nb  Nb39  1  0.333333  0.666667  0.412094  1
  Si  Si40  1  0.666667  0.333333  0.214482  1
  Si  Si41  1  0.666667  0.333333  0.598917  1
  Si  Si42  1  0.666667  0.333333  0.714482  1
  Si  Si43  1  0.333333  0.666667  0.098917  1
  Si  Si44  1  0.666667  0.333333  0.098917  1
  Si  Si45  1  0.333333  0.666667  0.598917  1
  Si  Si46  1  0.333333  0.666667  0.714482  1
  Si  Si47  1  0.333333  0.666667  0.214482  1
  O  O48  1  1.000000  0.281847  0.156379  1
  O  O49  1  0.811683  0.811683  0.875154  1
  O  O50  1  0.693478  0.510755  0.236845  1
  O  O51  1  0.822983  0.822983  0.720583  1
  O  O52  1  1.000000  0.188317  0.875154  1
  O  O53  1  1.000000  0.176282  0.592106  1
  O  O54  1  0.000000  0.823718  0.092106  1
  O  O55  1  0.521884  0.833249  0.448135  1
  O  O56  1  0.000000  0.811683  0.375154  1
  O  O57  1  0.176282  0.000000  0.592106  1
  O  O58  1  0.188317  0.188317  0.375154  1
  O  O59  1  0.824738  0.310036  0.361450  1
  O  O60  1  0.510755  0.817277  0.736845  1
  O  O61  1  0.816014  0.511030  0.576330  1
  O  O62  1  0.695017  0.183986  0.576330  1
  O  O63  1  0.311365  0.478116  0.448135  1
  O  O64  1  1.000000  0.231872  0.439948  1
  O  O65  1  0.177017  0.177017  0.220583  1
  O  O66  1  0.511030  0.816014  0.576330  1
  O  O67  1  0.817277  0.306522  0.236845  1
  O  O68  1  0.822983  0.000000  0.220583  1
  O  O69  1  0.478116  0.311365  0.448135  1
  O  O70  1  0.666667  0.333333  0.656684  1
  O  O71  1  0.216903  0.000000  0.016070  1
  O  O72  1  0.304983  0.488970  0.576330  1
  O  O73  1  0.811683  0.000000  0.375154  1
  O  O74  1  0.689964  0.175262  0.861450  1
  O  O75  1  0.666667  0.333333  0.156684  1
  O  O76  1  0.689964  0.514702  0.361450  1
  O  O77  1  0.000000  0.768128  0.939948  1
  O  O78  1  0.695017  0.511030  0.076330  1
  O  O79  1  0.514702  0.824738  0.861450  1
  O  O80  1  0.281847  0.000000  0.156379  1
  O  O81  1  0.310036  0.824738  0.361450  1
  O  O82  1  0.304983  0.816014  0.076330  1
  O  O83  1  0.489245  0.182723  0.236845  1
  O  O84  1  0.514702  0.689964  0.361450  1
  O  O85  1  0.510755  0.693478  0.236845  1
  O  O86  1  0.306522  0.489245  0.736845  1
  O  O87  1  0.166751  0.478116  0.948135  1
  O  O88  1  0.306522  0.817277  0.236845  1
  O  O89  1  0.183986  0.488970  0.076330  1
  O  O90  1  0.833249  0.311365  0.948135  1
  O  O91  1  0.478116  0.166751  0.948135  1
  O  O92  1  0.000000  0.216903  0.016070  1
  O  O93  1  0.768128  0.000000  0.939948  1
  O  O94  1  0.000000  0.718153  0.656379  1
  O  O95  1  0.782225  0.000000  0.796406  1
  O  O96  1  0.177017  0.000000  0.720583  1
  O  O97  1  0.231872  0.000000  0.439948  1
  O  O98  1  0.823718  0.000000  0.092106  1
  O  O99  1  0.176282  0.176282  0.092106  1
  O  O100  1  0.333333  0.666667  0.656684  1
  O  O101  1  0.511030  0.695017  0.076330  1
  O  O102  1  0.333333  0.666667  0.156684  1
  O  O103  1  0.166751  0.688635  0.448135  1
  O  O104  1  0.718153  0.000000  0.656379  1
  O  O105  1  1.000000  0.783097  0.516070  1
  O  O106  1  0.688635  0.521884  0.948135  1
  O  O107  1  0.310036  0.485298  0.861450  1
  O  O108  1  0.175262  0.689964  0.861450  1
  O  O109  1  0.281847  0.281847  0.656379  1
  O  O110  1  0.000000  0.217775  0.296406  1
  O  O111  1  0.182723  0.489245  0.236845  1
  O  O112  1  0.216903  0.216903  0.516070  1
  O  O113  1  0.000000  0.822983  0.220583  1
  O  O114  1  0.816014  0.304983  0.076330  1
  O  O115  1  0.718153  0.718153  0.156379  1
  O  O116  1  0.783097  0.000000  0.516070  1
  O  O117  1  0.823718  0.823718  0.592106  1
  O  O118  1  0.783097  0.783097  0.016070  1
  O  O119  1  0.488970  0.304983  0.576330  1
  O  O120  1  0.217775  0.217775  0.796406  1
  O  O121  1  0.311365  0.833249  0.948135  1
  O  O122  1  0.824738  0.514702  0.861450  1
  O  O123  1  0.183986  0.695017  0.576330  1
  O  O124  1  0.485298  0.175262  0.361450  1
  O  O125  1  0.833249  0.521884  0.448135  1
  O  O126  1  0.817277  0.510755  0.736845  1
  O  O127  1  1.000000  0.782225  0.796406  1
  O  O128  1  0.485298  0.310036  0.861450  1
  O  O129  1  0.182723  0.693478  0.736845  1
  O  O130  1  0.175262  0.485298  0.361450  1
  O  O131  1  0.188317  0.000000  0.875154  1
  O  O132  1  0.521884  0.688635  0.948135  1
  O  O133  1  1.000000  0.177017  0.720583  1
  O  O134  1  0.768128  0.768128  0.439948  1
  O  O135  1  0.231872  0.231872  0.939948  1
  O  O136  1  0.693478  0.182723  0.736845  1
  O  O137  1  0.688635  0.166751  0.448135  1
  O  O138  1  0.489245  0.306522  0.736845  1
  O  O139  1  0.488970  0.183986  0.076330  1
  O  O140  1  0.217775  0.000000  0.296406  1
  O  O141  1  0.782225  0.782225  0.296406  1
