# generated using pymatgen
data_K2SN2O5
_symmetry_space_group_name_H-M   'P 1'
_cell_length_a   7.22897018
_cell_length_b   8.25686992
_cell_length_c   10.12715990
_cell_angle_alpha   90.00000000
_cell_angle_beta   90.00000000
_cell_angle_gamma   90.00000000
_symmetry_Int_Tables_number   1
_chemical_formula_structural   K2SN2O5
_chemical_formula_sum   'K8 S4 N8 O20'
_cell_volume   604.47666917
_cell_formula_units_Z   4
loop_
 _symmetry_equiv_pos_site_id
 _symmetry_equiv_pos_as_xyz
  1  'x, y, z'
loop_
 _atom_site_type_symbol
 _atom_site_label
 _atom_site_symmetry_multiplicity
 _atom_site_fract_x
 _atom_site_fract_y
 _atom_site_fract_z
 _atom_site_occupancy
  K  K0  1  0.552676  0.994511  0.311550  1
  K  K1  1  0.052676  0.505489  0.188450  1
  K  K2  1  0.447324  0.494511  0.688450  1
  K  K3  1  0.947324  0.494511  0.811550  1
  K  K4  1  0.447324  0.005489  0.688450  1
  K  K5  1  0.052676  0.994511  0.188450  1
  K  K6  1  0.947324  0.005489  0.811550  1
  K  K7  1  0.552676  0.505489  0.311550  1
  S  S8  1  0.141128  0.750000  0.501497  1
  S  S9  1  0.358872  0.250000  0.001497  1
  S  S10  1  0.858872  0.250000  0.498503  1
  S  S11  1  0.641128  0.750000  0.998503  1
  N  N12  1  0.715728  0.250000  0.063152  1
  N  N13  1  0.784272  0.750000  0.563152  1
  N  N14  1  0.215728  0.250000  0.436848  1
  N  N15  1  0.601615  0.250000  0.963529  1
  N  N16  1  0.898385  0.750000  0.463529  1
  N  N17  1  0.284272  0.750000  0.936848  1
  N  N18  1  0.101615  0.250000  0.536471  1
  N  N19  1  0.398385  0.750000  0.036471  1
  O  O20  1  0.293506  0.101377  0.939245  1
  O  O21  1  0.144811  0.250000  0.662063  1
  O  O22  1  0.846853  0.250000  0.354223  1
  O  O23  1  0.793506  0.101377  0.560755  1
  O  O24  1  0.653147  0.750000  0.854223  1
  O  O25  1  0.644811  0.250000  0.837937  1
  O  O26  1  0.153147  0.750000  0.645777  1
  O  O27  1  0.388915  0.250000  0.470970  1
  O  O28  1  0.346853  0.250000  0.145777  1
  O  O29  1  0.706494  0.601377  0.060755  1
  O  O30  1  0.206494  0.601377  0.439245  1
  O  O31  1  0.793506  0.398623  0.560755  1
  O  O32  1  0.888915  0.250000  0.029030  1
  O  O33  1  0.611085  0.750000  0.529030  1
  O  O34  1  0.206494  0.898623  0.439245  1
  O  O35  1  0.355189  0.750000  0.162063  1
  O  O36  1  0.706494  0.898623  0.060755  1
  O  O37  1  0.111085  0.750000  0.970970  1
  O  O38  1  0.855189  0.750000  0.337937  1
  O  O39  1  0.293506  0.398623  0.939245  1
