# generated using pymatgen
data_U2Ni12P7
_symmetry_space_group_name_H-M   'P 1'
_cell_length_a   9.06861251
_cell_length_b   9.06861285
_cell_length_c   3.67033567
_cell_angle_alpha   90.00000000
_cell_angle_beta   90.00000000
_cell_angle_gamma   119.99999871
_symmetry_Int_Tables_number   1
_chemical_formula_structural   U2Ni12P7
_chemical_formula_sum   'U2 Ni12 P7'
_cell_volume   261.40755140
_cell_formula_units_Z   1
loop_
 _symmetry_equiv_pos_site_id
 _symmetry_equiv_pos_as_xyz
  1  'x, y, z'
loop_
 _atom_site_type_symbol
 _atom_site_label
 _atom_site_symmetry_multiplicity
 _atom_site_fract_x
 _atom_site_fract_y
 _atom_site_fract_z
 _atom_site_occupancy
  U  U0  1  0.333333  0.666667  0.000000  1
  U  U1  1  0.666667  0.333333  0.500000  1
  Ni  Ni2  1  0.432977  0.056348  0.000000  1
  Ni  Ni3  1  0.623371  0.567023  0.000000  1
  Ni  Ni4  1  0.943652  0.376629  0.000000  1
  Ni  Ni5  1  0.153697  0.274295  0.000000  1
  Ni  Ni6  1  0.120598  0.846303  0.000000  1
  Ni  Ni7  1  0.725705  0.879402  0.000000  1
  Ni  Ni8  1  0.386956  0.430767  0.500000  1
  Ni  Ni9  1  0.043811  0.613044  0.500000  1
  Ni  Ni10  1  0.569233  0.956189  0.500000  1
  Ni  Ni11  1  0.215944  0.092187  0.500000  1
  Ni  Ni12  1  0.876242  0.784056  0.500000  1
  Ni  Ni13  1  0.907813  0.123758  0.500000  1
  P  P14  1  0.407006  0.291856  0.000000  1
  P  P15  1  0.884850  0.592994  0.000000  1
  P  P16  1  0.708144  0.115150  0.000000  1
  P  P17  1  0.114482  0.405620  0.500000  1
  P  P18  1  0.291138  0.885518  0.500000  1
  P  P19  1  0.594380  0.708862  0.500000  1
  P  P20  1  0.000000  0.000000  0.000000  1
