# generated using pymatgen
data_Rb4CO4
_symmetry_space_group_name_H-M   'P 1'
_cell_length_a   5.96313903
_cell_length_b   5.96315920
_cell_length_c   6.70256032
_cell_angle_alpha   116.41126950
_cell_angle_beta   116.41082968
_cell_angle_gamma   90.00175137
_symmetry_Int_Tables_number   1
_chemical_formula_structural   Rb4CO4
_chemical_formula_sum   'Rb4 C1 O4'
_cell_volume   185.27255469
_cell_formula_units_Z   1
loop_
 _symmetry_equiv_pos_site_id
 _symmetry_equiv_pos_as_xyz
  1  'x, y, z'
loop_
 _atom_site_type_symbol
 _atom_site_label
 _atom_site_symmetry_multiplicity
 _atom_site_fract_x
 _atom_site_fract_y
 _atom_site_fract_z
 _atom_site_occupancy
  Rb  Rb0  1  0.565159  0.144915  0.710106  1
  O  O1  1  0.943777  0.220444  0.164257  1
  Rb  Rb2  1  0.434833  0.434830  0.289845  1
  O  O3  1  0.779552  0.779553  0.835744  1
  O  O4  1  0.220443  0.943779  0.164258  1
  Rb  Rb5  1  0.855057  0.855056  0.289854  1
  C  C6  1  0.000006  0.000006  0.000020  1
  O  O7  1  0.056257  0.056257  0.835809  1
  Rb  Rb8  1  0.144917  0.565160  0.710107  1
