# generated using pymatgen
data_ZnAs2C6S12N12(OF2)6
_symmetry_space_group_name_H-M   'P 1'
_cell_length_a   12.13840469
_cell_length_b   12.13840438
_cell_length_c   6.86264646
_cell_angle_alpha   90.00000000
_cell_angle_beta   90.00000000
_cell_angle_gamma   120.00000081
_symmetry_Int_Tables_number   1
_chemical_formula_structural   ZnAs2C6S12N12(OF2)6
_chemical_formula_sum   'Zn1 As2 C6 S12 N12 O6 F12'
_cell_volume   875.68007592
_cell_formula_units_Z   1
loop_
 _symmetry_equiv_pos_site_id
 _symmetry_equiv_pos_as_xyz
  1  'x, y, z'
loop_
 _atom_site_type_symbol
 _atom_site_label
 _atom_site_symmetry_multiplicity
 _atom_site_fract_x
 _atom_site_fract_y
 _atom_site_fract_z
 _atom_site_occupancy
  Zn  Zn0  1  0.000000  0.000000  0.500000  1
  As  As1  1  0.666667  0.333333  0.542788  1
  As  As2  1  0.333333  0.666667  0.457212  1
  C  C3  1  0.242930  0.083178  0.756777  1
  C  C4  1  0.757070  0.916822  0.243223  1
  C  C5  1  0.159752  0.242930  0.243223  1
  C  C6  1  0.083178  0.840248  0.243223  1
  C  C7  1  0.916822  0.159752  0.756777  1
  C  C8  1  0.840248  0.757070  0.756777  1
  S  S9  1  0.308433  0.399839  1.004062  1
  S  S10  1  0.399839  0.091406  -0.004062  1
  S  S11  1  0.299511  0.981255  0.656182  1
  S  S12  1  0.318255  0.299511  0.343818  1
  S  S13  1  0.091406  0.691567  1.004062  1
  S  S14  1  0.981255  0.681745  0.343818  1
  S  S15  1  0.018745  0.318255  0.656182  1
  S  S16  1  0.908594  0.308433  -0.004062  1
  S  S17  1  0.700489  0.018745  0.343818  1
  S  S18  1  0.681745  0.700489  0.656182  1
  S  S19  1  0.600161  0.908594  1.004062  1
  S  S20  1  0.691567  0.600161  -0.004062  1
  N  N21  1  0.601417  0.602322  0.829442  1
  N  N22  1  0.167740  0.301303  0.071416  1
  N  N23  1  0.832260  0.698697  0.928584  1
  N  N24  1  0.398583  0.397678  0.170558  1
  N  N25  1  0.866437  0.167740  0.928584  1
  N  N26  1  0.133563  0.832260  0.071416  1
  N  N27  1  0.602322  0.000905  0.170558  1
  N  N28  1  0.301303  0.133563  0.928584  1
  N  N29  1  0.698697  0.866437  0.071416  1
  N  N30  1  0.999095  0.601417  0.170558  1
  N  N31  1  0.000905  0.398583  0.829442  1
  N  N32  1  0.397678  0.999095  0.829442  1
  O  O33  1  0.894733  0.058655  0.674404  1
  O  O34  1  0.105267  0.941345  0.325596  1
  O  O35  1  0.058655  0.163923  0.325596  1
  O  O36  1  0.836077  0.894733  0.325596  1
  O  O37  1  0.941345  0.836077  0.674404  1
  O  O38  1  0.163923  0.105267  0.674404  1
  F  F39  1  0.446843  0.791717  0.605875  1
  F  F40  1  0.655125  0.446843  0.394125  1
  F  F41  1  0.541185  0.320352  0.692959  1
  F  F42  1  0.208283  0.655125  0.605875  1
  F  F43  1  0.679648  0.220832  0.692959  1
  F  F44  1  0.458815  0.679648  0.307041  1
  F  F45  1  0.220832  0.541185  0.307041  1
  F  F46  1  0.553157  0.208283  0.394125  1
  F  F47  1  0.779168  0.458815  0.692959  1
  F  F48  1  0.320352  0.779168  0.307041  1
  F  F49  1  0.791717  0.344875  0.394125  1
  F  F50  1  0.344875  0.553157  0.605875  1
