# generated using pymatgen
data_Ba3Lu4O9
_symmetry_space_group_name_H-M   'P 1'
_cell_length_a   9.05077684
_cell_length_b   9.05077688
_cell_length_c   9.05077645
_cell_angle_alpha   38.90131010
_cell_angle_beta   38.90130970
_cell_angle_gamma   38.90131117
_symmetry_Int_Tables_number   1
_chemical_formula_structural   Ba3Lu4O9
_chemical_formula_sum   'Ba3 Lu4 O9'
_cell_volume   262.89481489
_cell_formula_units_Z   1
loop_
 _symmetry_equiv_pos_site_id
 _symmetry_equiv_pos_as_xyz
  1  'x, y, z'
loop_
 _atom_site_type_symbol
 _atom_site_label
 _atom_site_symmetry_multiplicity
 _atom_site_fract_x
 _atom_site_fract_y
 _atom_site_fract_z
 _atom_site_occupancy
  Ba  Ba0  1  0.997322  0.997322  0.997322  1
  Ba  Ba1  1  0.161337  0.161337  0.161337  1
  Ba  Ba2  1  0.581481  0.581481  0.581481  1
  Lu  Lu3  1  0.422157  0.422157  0.422157  1
  Lu  Lu4  1  0.860695  0.860695  0.860695  1
  Lu  Lu5  1  0.736519  0.736519  0.736519  1
  Lu  Lu6  1  0.297845  0.297845  0.297845  1
  O  O7  1  0.074348  0.084331  0.578901  1
  O  O8  1  0.578901  0.074348  0.084331  1
  O  O9  1  0.084331  0.578901  0.074348  1
  O  O10  1  0.122793  0.618594  0.664203  1
  O  O11  1  0.664203  0.122793  0.618594  1
  O  O12  1  0.618594  0.664203  0.122793  1
  O  O13  1  0.034019  0.482619  0.551537  1
  O  O14  1  0.551537  0.034019  0.482619  1
  O  O15  1  0.482619  0.551537  0.034019  1
