# generated using pymatgen
data_SbH6C2I
_symmetry_space_group_name_H-M   'P 1'
_cell_length_a   7.02305736
_cell_length_b   11.09532900
_cell_length_c   17.61680056
_cell_angle_alpha   90.00000000
_cell_angle_beta   90.00000000
_cell_angle_gamma   90.00000000
_symmetry_Int_Tables_number   1
_chemical_formula_structural   SbH6C2I
_chemical_formula_sum   'Sb8 H48 C16 I8'
_cell_volume   1372.75627537
_cell_formula_units_Z   8
loop_
 _symmetry_equiv_pos_site_id
 _symmetry_equiv_pos_as_xyz
  1  'x, y, z'
loop_
 _atom_site_type_symbol
 _atom_site_label
 _atom_site_symmetry_multiplicity
 _atom_site_fract_x
 _atom_site_fract_y
 _atom_site_fract_z
 _atom_site_occupancy
  Sb  Sb0  1  0.205943  0.867629  0.675704  1
  Sb  Sb1  1  0.794057  0.367629  0.824296  1
  Sb  Sb2  1  0.205943  0.632371  0.175704  1
  Sb  Sb3  1  0.294057  0.367629  0.675704  1
  Sb  Sb4  1  0.294057  0.132371  0.175704  1
  Sb  Sb5  1  0.705943  0.632371  0.324296  1
  Sb  Sb6  1  0.794057  0.132371  0.324296  1
  Sb  Sb7  1  0.705943  0.867629  0.824296  1
  H  H8  1  -0.000858  0.653724  0.424750  1
  H  H9  1  0.514758  0.650537  0.460613  1
  H  H10  1  0.526358  0.985274  0.626280  1
  H  H11  1  0.087790  0.702875  0.571706  1
  H  H12  1  0.618032  0.272841  0.612437  1
  H  H13  1  0.499142  0.846276  0.575250  1
  H  H14  1  0.026358  0.514726  0.373720  1
  H  H15  1  0.118032  0.227159  0.387563  1
  H  H16  1  0.499142  0.653724  0.075250  1
  H  H17  1  0.985242  0.150537  0.460613  1
  H  H18  1  0.618032  0.227159  0.112437  1
  H  H19  1  0.014758  0.650537  0.039387  1
  H  H20  1  0.412210  0.202875  0.571706  1
  H  H21  1  0.118032  0.272841  0.887563  1
  H  H22  1  0.973642  0.485274  0.626280  1
  H  H23  1  0.881968  0.772841  0.612437  1
  H  H24  1  0.858461  0.525336  0.450898  1
  H  H25  1  0.141539  0.025336  0.049102  1
  H  H26  1  0.641539  0.025336  0.450898  1
  H  H27  1  0.473642  0.485274  0.873720  1
  H  H28  1  0.587790  0.702875  0.928294  1
  H  H29  1  0.881968  0.727159  0.112437  1
  H  H30  1  0.087790  0.797125  0.071706  1
  H  H31  1  0.912210  0.297125  0.428294  1
  H  H32  1  0.985242  0.349463  0.960613  1
  H  H33  1  0.973642  0.014726  0.126280  1
  H  H34  1  0.587790  0.797125  0.428294  1
  H  H35  1  1.000858  0.346276  0.575250  1
  H  H36  1  0.412210  0.297125  0.071706  1
  H  H37  1  0.485242  0.349463  0.539387  1
  H  H38  1  1.000858  0.153724  0.075250  1
  H  H39  1  0.485242  0.150537  0.039387  1
  H  H40  1  -0.000858  0.846276  0.924750  1
  H  H41  1  0.912210  0.202875  0.928294  1
  H  H42  1  0.358461  0.525336  0.049102  1
  H  H43  1  0.026358  0.985274  0.873720  1
  H  H44  1  0.014758  0.849463  0.539387  1
  H  H45  1  0.141539  0.474664  0.549102  1
  H  H46  1  0.500858  0.153724  0.424750  1
  H  H47  1  0.473642  0.014726  0.373720  1
  H  H48  1  0.526358  0.514726  0.126280  1
  H  H49  1  0.514758  0.849463  0.960613  1
  H  H50  1  0.381968  0.772841  0.887563  1
  H  H51  1  0.858461  0.974664  0.950898  1
  H  H52  1  0.641539  0.474664  0.950898  1
  H  H53  1  0.500858  0.346276  0.924750  1
  H  H54  1  0.381968  0.727159  0.387563  1
  H  H55  1  0.358461  0.974664  0.549102  1
  C  C56  1  0.476284  0.210981  0.088446  1
  C  C57  1  0.925407  0.926683  0.903557  1
  C  C58  1  0.523716  0.710981  0.411554  1
  C  C59  1  0.074593  0.426683  0.596443  1
  C  C60  1  0.074593  0.073317  0.096443  1
  C  C61  1  0.476284  0.289019  0.588446  1
  C  C62  1  0.023716  0.710981  0.088446  1
  C  C63  1  0.425407  0.926683  0.596443  1
  C  C64  1  0.523716  0.789019  0.911554  1
  C  C65  1  0.023716  0.789019  0.588446  1
  C  C66  1  0.425407  0.573317  0.096443  1
  C  C67  1  0.976284  0.210981  0.411554  1
  C  C68  1  0.574593  0.426683  0.903557  1
  C  C69  1  0.925407  0.573317  0.403557  1
  C  C70  1  0.976284  0.289019  0.911554  1
  C  C71  1  0.574593  0.073317  0.403557  1
  I  I72  1  0.509906  0.093743  0.830528  1
  I  I73  1  0.490094  0.593743  0.669472  1
  I  I74  1  1.009906  0.406257  0.169472  1
  I  I75  1  0.509906  0.406257  0.330528  1
  I  I76  1  0.490094  0.906257  0.169472  1
  I  I77  1  -0.009906  0.593743  0.830528  1
  I  I78  1  -0.009906  0.906257  0.330528  1
  I  I79  1  1.009906  0.093743  0.669472  1
