# generated using pymatgen
data_Cr4Si2Br2O7
_symmetry_space_group_name_H-M   'P 1'
_cell_length_a   6.55092942
_cell_length_b   10.70892366
_cell_length_c   13.07069055
_cell_angle_alpha   90.00000000
_cell_angle_beta   90.00000000
_cell_angle_gamma   91.59501447
_symmetry_Int_Tables_number   1
_chemical_formula_structural   Cr4Si2Br2O7
_chemical_formula_sum   'Cr16 Si8 Br8 O28'
_cell_volume   916.59813972
_cell_formula_units_Z   4
loop_
 _symmetry_equiv_pos_site_id
 _symmetry_equiv_pos_as_xyz
  1  'x, y, z'
loop_
 _atom_site_type_symbol
 _atom_site_label
 _atom_site_symmetry_multiplicity
 _atom_site_fract_x
 _atom_site_fract_y
 _atom_site_fract_z
 _atom_site_occupancy
  Cr  Cr0  1  0.844003  0.092545  0.887340  1
  Cr  Cr1  1  0.844003  0.592545  0.112660  1
  Cr  Cr2  1  0.810521  0.117006  0.638378  1
  Cr  Cr3  1  0.178506  0.918734  0.722794  1
  Cr  Cr4  1  0.178506  0.418734  0.277206  1
  Cr  Cr5  1  0.783767  0.614639  0.627909  1
  Cr  Cr6  1  0.810521  0.617006  0.361622  1
  Cr  Cr7  1  0.783767  0.114639  0.372091  1
  Cr  Cr8  1  0.451212  0.417626  0.767834  1
  Cr  Cr9  1  0.451212  0.917626  0.232166  1
  Cr  Cr10  1  0.808465  0.099610  0.128526  1
  Cr  Cr11  1  0.183176  0.410826  0.963296  1
  Cr  Cr12  1  0.443134  0.317356  0.455476  1
  Cr  Cr13  1  0.808465  0.599610  0.871474  1
  Cr  Cr14  1  0.183176  0.910826  0.036704  1
  Cr  Cr15  1  0.443134  0.817356  0.544524  1
  Si  Si16  1  0.675417  0.362685  0.239137  1
  Si  Si17  1  0.677323  0.855091  0.998726  1
  Si  Si18  1  0.677323  0.355091  0.001274  1
  Si  Si19  1  0.934075  0.873297  0.505040  1
  Si  Si20  1  0.934075  0.373297  0.494960  1
  Si  Si21  1  0.675417  0.862685  0.760863  1
  Si  Si22  1  0.940745  0.353336  0.739018  1
  Si  Si23  1  0.940745  0.853336  0.260982  1
  Br  Br24  1  0.197522  0.222550  0.121985  1
  Br  Br25  1  0.255794  0.568930  0.121638  1
  Br  Br26  1  0.421703  0.705974  0.368478  1
  Br  Br27  1  0.421703  0.205974  0.631522  1
  Br  Br28  1  0.355146  0.053393  0.386987  1
  Br  Br29  1  0.197522  0.722550  0.878015  1
  Br  Br30  1  0.255794  0.068930  0.878362  1
  Br  Br31  1  0.355146  0.553393  0.613013  1
  O  O32  1  0.832706  0.720003  0.226589  1
  O  O33  1  0.868619  0.464385  0.263400  1
  O  O34  1  0.872466  0.958089  0.021624  1
  O  O35  1  0.746762  0.710392  1.000146  1
  O  O36  1  0.145948  0.389027  0.804131  1
  O  O37  1  0.145948  0.889027  0.195869  1
  O  O38  1  0.850903  0.016873  0.504784  1
  O  O39  1  0.620973  0.396306  0.119155  1
  O  O40  1  0.975977  0.827574  0.384918  1
  O  O41  1  0.773252  0.968325  0.252821  1
  O  O42  1  0.872466  0.458089  0.978376  1
  O  O43  1  0.620973  0.896306  0.880845  1
  O  O44  1  0.744267  0.218376  0.243652  1
  O  O45  1  0.975977  0.327574  0.615082  1
  O  O46  1  0.480040  0.892726  0.688890  1
  O  O47  1  0.751441  0.276053  0.455239  1
  O  O48  1  0.480040  0.392726  0.311110  1
  O  O49  1  0.746762  0.210392  -0.000146  1
  O  O50  1  0.488612  0.389194  0.925288  1
  O  O51  1  0.832706  0.220003  0.773411  1
  O  O52  1  0.773252  0.468325  0.747179  1
  O  O53  1  0.744267  0.718376  0.756348  1
  O  O54  1  0.140027  0.356482  0.426856  1
  O  O55  1  0.488612  0.889194  0.074712  1
  O  O56  1  0.850903  0.516873  0.495216  1
  O  O57  1  0.751441  0.776053  0.544761  1
  O  O58  1  0.868619  0.964385  0.736600  1
  O  O59  1  0.140027  0.856482  0.573144  1
