# generated using pymatgen
data_YbCu2(MoO4)3
_symmetry_space_group_name_H-M   'P 1'
_cell_length_a   5.11998228
_cell_length_b   8.82252567
_cell_length_c   11.15787337
_cell_angle_alpha   90.00000000
_cell_angle_beta   90.00000000
_cell_angle_gamma   93.71522543
_symmetry_Int_Tables_number   1
_chemical_formula_structural   YbCu2(MoO4)3
_chemical_formula_sum   'Yb2 Cu4 Mo6 O24'
_cell_volume   502.95503258
_cell_formula_units_Z   2
loop_
 _symmetry_equiv_pos_site_id
 _symmetry_equiv_pos_as_xyz
  1  'x, y, z'
loop_
 _atom_site_type_symbol
 _atom_site_label
 _atom_site_symmetry_multiplicity
 _atom_site_fract_x
 _atom_site_fract_y
 _atom_site_fract_z
 _atom_site_occupancy
  Yb  Yb0  1  0.703841  0.048688  0.750000  1
  Yb  Yb1  1  0.296159  0.951312  0.250000  1
  Cu  Cu2  1  0.737204  0.444985  0.578465  1
  Cu  Cu3  1  0.737204  0.444985  0.921535  1
  Cu  Cu4  1  0.262796  0.555015  0.078465  1
  Cu  Cu5  1  0.262796  0.555015  0.421535  1
  Mo  Mo6  1  0.818474  0.801890  0.026505  1
  Mo  Mo7  1  0.278704  0.611830  0.750000  1
  Mo  Mo8  1  0.721296  0.388170  0.250000  1
  Mo  Mo9  1  0.181526  0.198110  0.526505  1
  Mo  Mo10  1  0.181526  0.198110  0.973495  1
  Mo  Mo11  1  0.818474  0.801890  0.473495  1
  O  O12  1  0.422023  0.796713  0.750000  1
  O  O13  1  0.891858  0.249265  0.612676  1
  O  O14  1  0.577977  0.203287  0.250000  1
  O  O15  1  0.068938  0.578359  0.882320  1
  O  O16  1  0.408852  0.364001  0.486932  1
  O  O17  1  0.931062  0.421641  0.117680  1
  O  O18  1  0.626872  0.907342  0.379499  1
  O  O19  1  0.895223  0.910028  0.896153  1
  O  O20  1  0.108142  0.750735  0.387324  1
  O  O21  1  0.591148  0.635999  0.513068  1
  O  O22  1  0.373128  0.092658  0.879499  1
  O  O23  1  0.462209  0.523464  0.250000  1
  O  O24  1  0.373128  0.092658  0.620501  1
  O  O25  1  0.104777  0.089972  0.103847  1
  O  O26  1  0.931062  0.421641  0.382320  1
  O  O27  1  0.591148  0.635999  0.986932  1
  O  O28  1  0.626872  0.907342  0.120501  1
  O  O29  1  0.108142  0.750735  0.112676  1
  O  O30  1  0.408852  0.364001  0.013068  1
  O  O31  1  0.895223  0.910028  0.603847  1
  O  O32  1  0.537791  0.476536  0.750000  1
  O  O33  1  0.068938  0.578359  0.617680  1
  O  O34  1  0.104777  0.089972  0.396153  1
  O  O35  1  0.891858  0.249265  0.887324  1
