# generated using pymatgen
data_HgTe2C2(NF8)2
_symmetry_space_group_name_H-M   'P 1'
_cell_length_a   9.97804084
_cell_length_b   11.02366006
_cell_length_c   13.09967789
_cell_angle_alpha   90.00000000
_cell_angle_beta   90.00000000
_cell_angle_gamma   90.00000000
_symmetry_Int_Tables_number   1
_chemical_formula_structural   HgTe2C2(NF8)2
_chemical_formula_sum   'Hg4 Te8 C8 N8 F64'
_cell_volume   1440.89291639
_cell_formula_units_Z   4
loop_
 _symmetry_equiv_pos_site_id
 _symmetry_equiv_pos_as_xyz
  1  'x, y, z'
loop_
 _atom_site_type_symbol
 _atom_site_label
 _atom_site_symmetry_multiplicity
 _atom_site_fract_x
 _atom_site_fract_y
 _atom_site_fract_z
 _atom_site_occupancy
  Hg  Hg0  1  0.500000  0.000000  0.500000  1
  Hg  Hg1  1  0.500000  0.500000  0.000000  1
  Hg  Hg2  1  0.000000  0.000000  0.000000  1
  Hg  Hg3  1  0.000000  0.500000  0.500000  1
  Te  Te4  1  0.273328  0.422984  0.193889  1
  Te  Te5  1  0.726672  0.077016  0.693889  1
  Te  Te6  1  0.226672  0.922984  0.806111  1
  Te  Te7  1  0.726672  0.577016  0.806111  1
  Te  Te8  1  0.226672  0.422984  0.693889  1
  Te  Te9  1  0.273328  0.922984  0.306111  1
  Te  Te10  1  0.773328  0.577016  0.306111  1
  Te  Te11  1  0.773328  0.077016  0.193889  1
  C  C12  1  0.646661  0.737803  0.977879  1
  C  C13  1  0.353339  0.762197  0.477879  1
  C  C14  1  0.146661  0.762197  0.977879  1
  C  C15  1  0.146661  0.262197  0.522121  1
  C  C16  1  0.353339  0.262197  0.022121  1
  C  C17  1  0.646661  0.237803  0.522121  1
  C  C18  1  0.853339  0.237803  0.022121  1
  C  C19  1  0.853339  0.737803  0.477879  1
  N  N20  1  0.371158  0.376864  0.067835  1
  N  N21  1  0.128842  0.876864  0.932165  1
  N  N22  1  0.871158  0.123136  0.067835  1
  N  N23  1  0.628842  0.623136  0.932165  1
  N  N24  1  0.128842  0.376864  0.567835  1
  N  N25  1  0.371158  0.876864  0.432165  1
  N  N26  1  0.871158  0.623136  0.432165  1
  N  N27  1  0.628842  0.123136  0.567835  1
  F  F28  1  0.174693  0.278395  0.203326  1
  F  F29  1  0.903373  0.641422  0.218118  1
  F  F30  1  0.886865  0.332639  0.083856  1
  F  F31  1  0.674693  0.721605  0.296674  1
  F  F32  1  0.132826  0.071622  0.809178  1
  F  F33  1  0.276148  0.740431  0.008986  1
  F  F34  1  0.613135  0.332639  0.583856  1
  F  F35  1  0.131600  0.995764  0.377857  1
  F  F36  1  0.723852  0.259569  0.991014  1
  F  F37  1  0.368400  0.495764  0.622143  1
  F  F38  1  0.096627  0.358578  0.781882  1
  F  F39  1  0.867174  0.428378  0.309178  1
  F  F40  1  0.325307  0.778395  0.796674  1
  F  F41  1  0.903373  0.141422  0.281882  1
  F  F42  1  0.223852  0.240431  0.991014  1
  F  F43  1  0.825307  0.221605  0.703326  1
  F  F44  1  0.113135  0.667361  0.916144  1
  F  F45  1  0.932327  0.243833  0.937256  1
  F  F46  1  0.631600  0.004236  0.122143  1
  F  F47  1  0.674693  0.221605  0.203326  1
  F  F48  1  0.632826  0.428378  0.809178  1
  F  F49  1  0.868400  0.004236  0.622143  1
  F  F50  1  0.631600  0.504236  0.377857  1
  F  F51  1  0.596627  0.141422  0.781882  1
  F  F52  1  0.886865  0.832639  0.416144  1
  F  F53  1  0.596627  0.641422  0.718118  1
  F  F54  1  0.932327  0.743833  0.562744  1
  F  F55  1  0.223852  0.740431  0.508986  1
  F  F56  1  0.186578  0.478046  0.313132  1
  F  F57  1  0.613135  0.832639  0.916144  1
  F  F58  1  0.067673  0.256167  0.437256  1
  F  F59  1  0.686578  0.521954  0.186868  1
  F  F60  1  0.113135  0.167361  0.583856  1
  F  F61  1  0.386865  0.167361  0.083856  1
  F  F62  1  0.686578  0.021954  0.313132  1
  F  F63  1  0.313422  0.978046  0.686868  1
  F  F64  1  0.776148  0.759569  0.008986  1
  F  F65  1  0.867174  0.928378  0.190822  1
  F  F66  1  0.067673  0.756167  0.062744  1
  F  F67  1  0.868400  0.504236  0.877857  1
  F  F68  1  0.131600  0.495764  0.122143  1
  F  F69  1  0.776148  0.259569  0.491014  1
  F  F70  1  0.186578  0.978046  0.186868  1
  F  F71  1  0.276148  0.240431  0.491014  1
  F  F72  1  0.325307  0.278395  0.703326  1
  F  F73  1  0.174693  0.778395  0.296674  1
  F  F74  1  0.567673  0.243833  0.437256  1
  F  F75  1  0.632826  0.928378  0.690822  1
  F  F76  1  0.567673  0.743833  0.062744  1
  F  F77  1  0.403373  0.358578  0.281882  1
  F  F78  1  0.096627  0.858578  0.718118  1
  F  F79  1  0.368400  0.995764  0.877857  1
  F  F80  1  0.403373  0.858578  0.218118  1
  F  F81  1  0.367174  0.571622  0.190822  1
  F  F82  1  0.825307  0.721605  0.796674  1
  F  F83  1  0.432327  0.756167  0.562744  1
  F  F84  1  0.813422  0.521954  0.686868  1
  F  F85  1  0.386865  0.667361  0.416144  1
  F  F86  1  0.367174  0.071622  0.309178  1
  F  F87  1  0.313422  0.478046  0.813132  1
  F  F88  1  0.723852  0.759569  0.508986  1
  F  F89  1  0.432327  0.256167  0.937256  1
  F  F90  1  0.813422  0.021954  0.813132  1
  F  F91  1  0.132826  0.571622  0.690822  1
