# generated using pymatgen
data_As2S3(NF6)2
_symmetry_space_group_name_H-M   'P 1'
_cell_length_a   7.69953320
_cell_length_b   7.69953264
_cell_length_c   10.89052611
_cell_angle_alpha   88.09652715
_cell_angle_beta   88.09652729
_cell_angle_gamma   67.90745739
_symmetry_Int_Tables_number   1
_chemical_formula_structural   As2S3(NF6)2
_chemical_formula_sum   'As4 S6 N4 F24'
_cell_volume   597.73810102
_cell_formula_units_Z   2
loop_
 _symmetry_equiv_pos_site_id
 _symmetry_equiv_pos_as_xyz
  1  'x, y, z'
loop_
 _atom_site_type_symbol
 _atom_site_label
 _atom_site_symmetry_multiplicity
 _atom_site_fract_x
 _atom_site_fract_y
 _atom_site_fract_z
 _atom_site_occupancy
  S  S0  1  0.820064  0.468772  0.743966  1
  S  S1  1  0.531228  0.179936  0.256034  1
  S  S2  1  0.159523  0.250716  0.847686  1
  S  S3  1  0.749284  0.840477  0.152314  1
  S  S4  1  0.172843  0.255209  0.650421  1
  S  S5  1  0.744791  0.827157  0.349579  1
  N  N6  1  0.949935  0.381692  0.860412  1
  N  N7  1  0.618308  0.050065  0.139588  1
  N  N8  1  0.965307  0.387252  0.631619  1
  N  N9  1  0.612748  0.034693  0.368381  1
  As  As10  1  0.711628  0.017188  0.748613  1
  As  As11  1  0.982812  0.288372  0.251387  1
  F  F12  1  0.774615  0.836327  0.863415  1
  F  F13  1  0.163673  0.225385  0.136585  1
  F  F14  1  0.641274  0.194793  0.633278  1
  F  F15  1  0.805207  0.358726  0.366722  1
  F  F16  1  0.939588  0.021074  0.742984  1
  F  F17  1  0.978926  0.060412  0.257016  1
  F  F18  1  0.773808  0.842102  0.635198  1
  F  F19  1  0.157898  0.226192  0.364802  1
  F  F20  1  0.475020  0.019335  0.752839  1
  F  F21  1  0.980665  0.524980  0.247161  1
  F  F22  1  0.642910  0.187378  0.863894  1
  F  F23  1  0.812622  0.357090  0.136106  1
  As  As24  1  0.332216  0.667784  0.500000  1
  F  F25  1  0.559358  0.604470  0.561886  1
  F  F26  1  0.395530  0.440642  0.438114  1
  F  F27  1  0.267399  0.893717  0.562343  1
  F  F28  1  0.106283  0.732601  0.437657  1
  F  F29  1  0.254060  0.584655  0.636698  1
  F  F30  1  0.415345  0.745940  0.363302  1
  As  As31  1  0.324693  0.675307  1.000000  1
  F  F32  1  0.530825  0.592033  0.906767  1
  F  F33  1  0.407967  0.469175  0.093233  1
  F  F34  1  0.214739  0.565611  0.904534  1
  F  F35  1  0.434389  0.785261  0.095466  1
  F  F36  1  0.238622  0.882007  0.907088  1
  F  F37  1  0.117993  0.761378  0.092912  1
