# generated using pymatgen
data_Cs2Se
_symmetry_space_group_name_H-M   'P 1'
_cell_length_a   5.58805803
_cell_length_b   5.91599099
_cell_length_c   10.99562166
_cell_angle_alpha   83.10736202
_cell_angle_beta   75.27951168
_cell_angle_gamma   61.81732505
_symmetry_Int_Tables_number   1
_chemical_formula_structural   Cs2Se
_chemical_formula_sum   'Cs4 Se2'
_cell_volume   309.89173725
_cell_formula_units_Z   2
loop_
 _symmetry_equiv_pos_site_id
 _symmetry_equiv_pos_as_xyz
  1  'x, y, z'
loop_
 _atom_site_type_symbol
 _atom_site_label
 _atom_site_symmetry_multiplicity
 _atom_site_fract_x
 _atom_site_fract_y
 _atom_site_fract_z
 _atom_site_occupancy
  Cs  Cs0  1  0.437190  0.345866  0.873502  1
  Cs  Cs1  1  0.656558  0.654134  0.126498  1
  Cs  Cs2  1  0.533056  0.154134  0.373502  1
  Cs  Cs3  1  0.060692  0.845866  0.626498  1
  Se  Se4  1  0.029852  0.000000  1.000000  1
  Se  Se5  1  0.779852  0.500000  0.500000  1
