# generated using pymatgen
data_CuH5C5NCl
_symmetry_space_group_name_H-M   'P 1'
_cell_length_a   6.91666567
_cell_length_b   7.71157127
_cell_length_c   12.95572891
_cell_angle_alpha   90.00000000
_cell_angle_beta   97.06376909
_cell_angle_gamma   90.00000000
_symmetry_Int_Tables_number   1
_chemical_formula_structural   CuH5C5NCl
_chemical_formula_sum   'Cu4 H20 C20 N4 Cl4'
_cell_volume   685.79229255
_cell_formula_units_Z   4
loop_
 _symmetry_equiv_pos_site_id
 _symmetry_equiv_pos_as_xyz
  1  'x, y, z'
loop_
 _atom_site_type_symbol
 _atom_site_label
 _atom_site_symmetry_multiplicity
 _atom_site_fract_x
 _atom_site_fract_y
 _atom_site_fract_z
 _atom_site_occupancy
  Cu  Cu0  1  0.437018  0.363200  0.910847  1
  Cu  Cu1  1  0.062982  0.863200  0.589153  1
  Cu  Cu2  1  0.562982  0.636800  0.089153  1
  Cu  Cu3  1  0.937018  0.136800  0.410847  1
  H  H4  1  0.078902  0.302512  0.043040  1
  H  H5  1  0.689757  0.278853  0.268686  1
  H  H6  1  0.565300  0.133199  0.353807  1
  H  H7  1  0.310243  0.721147  0.731314  1
  H  H8  1  0.184263  0.542435  0.576738  1
  H  H9  1  0.189757  0.221147  0.768686  1
  H  H10  1  0.578902  0.197488  0.543040  1
  H  H11  1  0.921098  0.697488  0.956960  1
  H  H12  1  0.684263  0.957565  0.076738  1
  H  H13  1  0.203006  0.459712  0.392869  1
  H  H14  1  0.065300  0.366801  0.853807  1
  H  H15  1  0.810243  0.778853  0.231314  1
  H  H16  1  0.434700  0.866801  0.646193  1
  H  H17  1  0.315737  0.042435  0.923262  1
  H  H18  1  0.815737  0.457565  0.423262  1
  H  H19  1  0.796994  0.540288  0.607131  1
  H  H20  1  0.421098  0.802512  0.456960  1
  H  H21  1  0.703006  0.040288  0.892869  1
  H  H22  1  0.934700  0.633199  0.146193  1
  H  H23  1  0.296994  0.959712  0.107131  1
  C  C24  1  0.211263  0.077133  0.114882  1
  C  C25  1  0.862285  0.900194  0.789797  1
  C  C26  1  0.671642  0.236115  0.347204  1
  C  C27  1  0.670774  0.310431  0.533898  1
  C  C28  1  0.137715  0.099806  0.210203  1
  C  C29  1  0.235109  0.162225  0.933454  1
  C  C30  1  0.764891  0.837775  0.066546  1
  C  C31  1  0.711263  0.422867  0.614882  1
  C  C32  1  0.735109  0.337775  0.433454  1
  C  C33  1  0.171642  0.263885  0.847204  1
  C  C34  1  0.362285  0.599806  0.289797  1
  C  C35  1  0.264891  0.662225  0.566546  1
  C  C36  1  0.788737  0.922867  0.885118  1
  C  C37  1  0.829226  0.810431  0.966102  1
  C  C38  1  0.329226  0.689569  0.466102  1
  C  C39  1  0.828358  0.736115  0.152796  1
  C  C40  1  0.637715  0.400194  0.710203  1
  C  C41  1  0.170774  0.189569  0.033898  1
  C  C42  1  0.288737  0.577133  0.385118  1
  C  C43  1  0.328358  0.763885  0.652796  1
  N  N44  1  0.575602  0.386619  0.789963  1
  N  N45  1  0.424398  0.613381  0.210037  1
  N  N46  1  0.924398  0.886619  0.710037  1
  N  N47  1  0.075602  0.113381  0.289963  1
  Cl  Cl48  1  0.328326  0.660149  0.947405  1
  Cl  Cl49  1  0.828326  0.839851  0.447405  1
  Cl  Cl50  1  0.171674  0.160149  0.552595  1
  Cl  Cl51  1  0.671674  0.339851  0.052595  1
