# generated using pymatgen
data_ZnS
_symmetry_space_group_name_H-M   'P 1'
_cell_length_a   31.52757762
_cell_length_b   31.52757748
_cell_length_c   31.52757825
_cell_angle_alpha   7.01505789
_cell_angle_beta   7.01505986
_cell_angle_gamma   7.01505918
_symmetry_Int_Tables_number   1
_chemical_formula_structural   ZnS
_chemical_formula_sum   'Zn10 S10'
_cell_volume   405.31327996
_cell_formula_units_Z   10
loop_
 _symmetry_equiv_pos_site_id
 _symmetry_equiv_pos_as_xyz
  1  'x, y, z'
loop_
 _atom_site_type_symbol
 _atom_site_label
 _atom_site_symmetry_multiplicity
 _atom_site_fract_x
 _atom_site_fract_y
 _atom_site_fract_z
 _atom_site_occupancy
  Zn  Zn0  1  0.366412  0.366412  0.366412  1
  Zn  Zn1  1  0.933096  0.933096  0.933096  1
  Zn  Zn2  1  0.533092  0.533092  0.533092  1
  Zn  Zn3  1  0.099776  0.099776  0.099776  1
  Zn  Zn4  1  0.633091  0.633091  0.633091  1
  Zn  Zn5  1  0.466430  0.466430  0.466430  1
  Zn  Zn6  1  0.999754  0.999754  0.999754  1
  Zn  Zn7  1  0.233090  0.233090  0.233090  1
  Zn  Zn8  1  0.833094  0.833094  0.833094  1
  Zn  Zn9  1  0.733097  0.733097  0.733097  1
  S  S10  1  0.258078  0.258078  0.258078  1
  S  S11  1  0.124753  0.124753  0.124753  1
  S  S12  1  0.391403  0.391403  0.391403  1
  S  S13  1  0.858091  0.858091  0.858091  1
  S  S14  1  0.491392  0.491392  0.491392  1
  S  S15  1  0.658086  0.658086  0.658086  1
  S  S16  1  0.958058  0.958058  0.958058  1
  S  S17  1  0.558065  0.558065  0.558065  1
  S  S18  1  0.024726  0.024726  0.024726  1
  S  S19  1  0.758083  0.758083  0.758083  1
