# generated using pymatgen
data_NaLi2BO3
_symmetry_space_group_name_H-M   'P 1'
_cell_length_a   4.97813542
_cell_length_b   9.62073468
_cell_length_c   12.18007555
_cell_angle_alpha   90.00000000
_cell_angle_beta   90.00000000
_cell_angle_gamma   104.12012536
_symmetry_Int_Tables_number   1
_chemical_formula_structural   NaLi2BO3
_chemical_formula_sum   'Na8 Li16 B8 O24'
_cell_volume   565.71931801
_cell_formula_units_Z   8
loop_
 _symmetry_equiv_pos_site_id
 _symmetry_equiv_pos_as_xyz
  1  'x, y, z'
loop_
 _atom_site_type_symbol
 _atom_site_label
 _atom_site_symmetry_multiplicity
 _atom_site_fract_x
 _atom_site_fract_y
 _atom_site_fract_z
 _atom_site_occupancy
  Na  Na0  1  0.741925  0.396648  0.114833  1
  Na  Na1  1  0.202321  0.175922  0.802013  1
  Na  Na2  1  0.297679  0.324078  0.302013  1
  Na  Na3  1  0.241925  0.896648  0.385167  1
  Na  Na4  1  0.797679  0.824078  0.197987  1
  Na  Na5  1  0.758075  0.103352  0.614833  1
  Na  Na6  1  0.258075  0.603352  0.885167  1
  Na  Na7  1  0.702321  0.675922  0.697987  1
  Li  Li8  1  0.738712  0.979301  0.996189  1
  Li  Li9  1  0.583821  0.355601  0.652961  1
  Li  Li10  1  0.871883  0.059456  0.351218  1
  Li  Li11  1  0.628117  0.440544  0.851218  1
  Li  Li12  1  0.724988  0.202199  0.897665  1
  Li  Li13  1  0.775012  0.297801  0.397665  1
  Li  Li14  1  0.238712  0.479301  0.503811  1
  Li  Li15  1  0.261288  0.020699  0.003811  1
  Li  Li16  1  0.916179  0.144399  0.152961  1
  Li  Li17  1  0.275012  0.797801  0.102335  1
  Li  Li18  1  0.083821  0.855601  0.847039  1
  Li  Li19  1  0.371883  0.559456  0.148782  1
  Li  Li20  1  0.224988  0.702199  0.602335  1
  Li  Li21  1  0.416179  0.644399  0.347039  1
  Li  Li22  1  0.761288  0.520699  0.496189  1
  Li  Li23  1  0.128117  0.940544  0.648782  1
  B  B24  1  0.435798  0.076333  0.211479  1
  B  B25  1  0.064202  0.423667  0.711479  1
  B  B26  1  0.935798  0.576333  0.288521  1
  B  B27  1  0.733264  0.780705  0.478165  1
  B  B28  1  0.233264  0.280705  0.021835  1
  B  B29  1  0.766736  0.719295  0.978165  1
  B  B30  1  0.564202  0.923667  0.788521  1
  B  B31  1  0.266736  0.219295  0.521835  1
  O  O32  1  0.522034  0.659988  0.507488  1
  O  O33  1  0.310273  0.138738  0.611858  1
  O  O34  1  0.142925  0.677799  0.233896  1
  O  O35  1  0.840714  0.947137  0.759179  1
  O  O36  1  0.481919  0.003043  0.873275  1
  O  O37  1  0.977966  0.840012  0.007488  1
  O  O38  1  0.019834  0.192442  0.464490  1
  O  O39  1  0.477966  0.340012  0.492512  1
  O  O40  1  0.642925  0.177799  0.266104  1
  O  O41  1  0.519834  0.692442  0.035510  1
  O  O42  1  0.357075  0.822201  0.733896  1
  O  O43  1  0.518081  0.996957  0.126725  1
  O  O44  1  0.981919  0.503043  0.626725  1
  O  O45  1  0.659286  0.552863  0.259179  1
  O  O46  1  0.857075  0.322201  0.766104  1
  O  O47  1  0.810273  0.638738  0.888142  1
  O  O48  1  0.022034  0.159988  0.992512  1
  O  O49  1  0.340714  0.447137  0.740821  1
  O  O50  1  0.018081  0.496957  0.373275  1
  O  O51  1  0.189727  0.361262  0.111858  1
  O  O52  1  0.480166  0.307558  0.964490  1
  O  O53  1  0.689727  0.861262  0.388142  1
  O  O54  1  0.159286  0.052863  0.240821  1
  O  O55  1  0.980166  0.807558  0.535510  1
