# generated using pymatgen
data_K3GaS3
_symmetry_space_group_name_H-M   'P 1'
_cell_length_a   7.83411895
_cell_length_b   8.23976782
_cell_length_c   12.74268222
_cell_angle_alpha   90.00000000
_cell_angle_beta   90.00000000
_cell_angle_gamma   101.16436740
_symmetry_Int_Tables_number   1
_chemical_formula_structural   K3GaS3
_chemical_formula_sum   'K12 Ga4 S12'
_cell_volume   806.99070842
_cell_formula_units_Z   4
loop_
 _symmetry_equiv_pos_site_id
 _symmetry_equiv_pos_as_xyz
  1  'x, y, z'
loop_
 _atom_site_type_symbol
 _atom_site_label
 _atom_site_symmetry_multiplicity
 _atom_site_fract_x
 _atom_site_fract_y
 _atom_site_fract_z
 _atom_site_occupancy
  K  K0  1  0.265968  0.607451  0.089409  1
  K  K1  1  0.234032  0.892549  0.589409  1
  K  K2  1  0.734032  0.392549  0.910591  1
  K  K3  1  0.765968  0.107451  0.410591  1
  K  K4  1  0.284830  0.422757  0.811003  1
  K  K5  1  0.215170  0.077243  0.311003  1
  K  K6  1  0.715170  0.577243  0.188997  1
  K  K7  1  0.784830  0.922757  0.688997  1
  K  K8  1  0.144763  0.526460  0.373268  1
  K  K9  1  0.355237  0.973540  0.873268  1
  K  K10  1  0.855237  0.473540  0.626732  1
  K  K11  1  0.644763  0.026460  0.126732  1
  Ga  Ga12  1  0.098252  0.163922  0.060057  1
  Ga  Ga13  1  0.401748  0.336078  0.560057  1
  Ga  Ga14  1  0.901748  0.836078  0.939943  1
  Ga  Ga15  1  0.598252  0.663922  0.439943  1
  S  S16  1  0.466125  0.621621  0.606150  1
  S  S17  1  0.033875  0.878379  0.106150  1
  S  S18  1  0.533875  0.378379  0.393850  1
  S  S19  1  0.966125  0.121621  0.893850  1
  S  S20  1  0.465105  0.810472  0.324503  1
  S  S21  1  0.034895  0.689528  0.824503  1
  S  S22  1  0.534895  0.189528  0.675497  1
  S  S23  1  0.965105  0.310472  0.175497  1
  S  S24  1  0.888413  0.762647  0.454652  1
  S  S25  1  0.611587  0.737353  0.954652  1
  S  S26  1  0.111587  0.237353  0.545348  1
  S  S27  1  0.388413  0.262647  0.045348  1
