# generated using pymatgen
data_SiO2
_symmetry_space_group_name_H-M   'P 1'
_cell_length_a   5.28304605
_cell_length_b   11.41032974
_cell_length_c   22.08025711
_cell_angle_alpha   90.00000000
_cell_angle_beta   90.00000000
_cell_angle_gamma   90.00000000
_symmetry_Int_Tables_number   1
_chemical_formula_structural   SiO2
_chemical_formula_sum   'Si24 O48'
_cell_volume   1331.02654689
_cell_formula_units_Z   24
loop_
 _symmetry_equiv_pos_site_id
 _symmetry_equiv_pos_as_xyz
  1  'x, y, z'
loop_
 _atom_site_type_symbol
 _atom_site_label
 _atom_site_symmetry_multiplicity
 _atom_site_fract_x
 _atom_site_fract_y
 _atom_site_fract_z
 _atom_site_occupancy
  Si  Si0  1  0.250000  0.726001  0.077635  1
  Si  Si1  1  0.250000  0.399300  0.621875  1
  Si  Si2  1  0.750000  0.008713  0.542074  1
  Si  Si3  1  0.250000  0.726001  0.422365  1
  Si  Si4  1  0.750000  0.770738  0.883042  1
  Si  Si5  1  0.750000  0.273999  0.577635  1
  Si  Si6  1  0.250000  0.646224  0.562789  1
  Si  Si7  1  0.750000  0.468250  0.250000  1
  Si  Si8  1  0.250000  0.991287  0.457926  1
  Si  Si9  1  0.750000  0.353776  0.062789  1
  Si  Si10  1  0.250000  0.229262  0.116958  1
  Si  Si11  1  0.750000  0.600700  0.121875  1
  Si  Si12  1  0.250000  0.531750  0.750000  1
  Si  Si13  1  0.250000  0.646224  0.937211  1
  Si  Si14  1  0.750000  0.273999  0.922365  1
  Si  Si15  1  0.250000  0.229262  0.383042  1
  Si  Si16  1  0.750000  0.770738  0.616958  1
  Si  Si17  1  0.750000  0.695163  0.750000  1
  Si  Si18  1  0.750000  0.600700  0.378125  1
  Si  Si19  1  0.750000  0.008713  0.957926  1
  Si  Si20  1  0.750000  0.353776  0.437211  1
  Si  Si21  1  0.250000  0.399300  0.878125  1
  Si  Si22  1  0.250000  0.304837  0.250000  1
  Si  Si23  1  0.250000  0.991287  0.042074  1
  O  O24  1  1.000370  0.386876  0.250000  1
  O  O25  1  0.499731  0.318919  0.612940  1
  O  O26  1  0.500269  0.681081  0.387060  1
  O  O27  1  0.500000  0.000000  0.000000  1
  O  O28  1  0.750000  0.495387  0.071704  1
  O  O29  1  0.500533  0.700473  0.905557  1
  O  O30  1  0.000269  0.318919  0.612940  1
  O  O31  1  0.750000  0.323797  0.991264  1
  O  O32  1  0.250000  0.676203  0.008736  1
  O  O33  1  0.999731  0.681081  0.387060  1
  O  O34  1  0.250000  0.221122  0.190447  1
  O  O35  1  0.250000  0.449864  0.809727  1
  O  O36  1  0.250000  0.676203  0.491264  1
  O  O37  1  0.250000  0.504613  0.928296  1
  O  O38  1  0.499467  0.299527  0.405557  1
  O  O39  1  0.750000  0.131814  0.921410  1
  O  O40  1  -0.000370  0.613124  0.750000  1
  O  O41  1  0.750000  0.550136  0.190273  1
  O  O42  1  0.499467  0.299527  0.094443  1
  O  O43  1  0.750000  0.778878  0.809553  1
  O  O44  1  0.999467  0.700473  0.594443  1
  O  O45  1  0.499731  0.318919  0.887060  1
  O  O46  1  0.999467  0.700473  0.905557  1
  O  O47  1  0.750000  0.495387  0.428296  1
  O  O48  1  0.750000  0.778878  0.690447  1
  O  O49  1  0.750000  0.903197  0.591010  1
  O  O50  1  0.750000  0.550136  0.309727  1
  O  O51  1  0.250000  0.449864  0.690273  1
  O  O52  1  0.750000  0.903197  0.908990  1
  O  O53  1  0.750000  0.131814  0.578590  1
  O  O54  1  0.500370  0.613124  0.750000  1
  O  O55  1  0.250000  0.868186  0.078590  1
  O  O56  1  0.250000  0.504613  0.571704  1
  O  O57  1  0.500269  0.681081  0.112940  1
  O  O58  1  0.750000  0.323797  0.508736  1
  O  O59  1  0.250000  0.096803  0.091010  1
  O  O60  1  0.250000  0.868186  0.421410  1
  O  O61  1  0.000269  0.318919  0.887060  1
  O  O62  1  0.500533  0.700473  0.594443  1
  O  O63  1  0.499630  0.386876  0.250000  1
  O  O64  1  0.250000  0.221122  0.309553  1
  O  O65  1  0.999731  0.681081  0.112940  1
  O  O66  1  0.500000  0.000000  0.500000  1
  O  O67  1  0.250000  0.096803  0.408990  1
  O  O68  1  0.000533  0.299527  0.405557  1
  O  O69  1  0.000533  0.299527  0.094443  1
  O  O70  1  0.000000  0.000000  0.000000  1
  O  O71  1  0.000000  0.000000  0.500000  1
