# generated using pymatgen
data_CS5N5O3F
_symmetry_space_group_name_H-M   'P 1'
_cell_length_a   7.34429159
_cell_length_b   8.39505272
_cell_length_c   8.97647817
_cell_angle_alpha   96.81838992
_cell_angle_beta   92.58770886
_cell_angle_gamma   106.80405866
_symmetry_Int_Tables_number   1
_chemical_formula_structural   CS5N5O3F
_chemical_formula_sum   'C2 S10 N10 O6 F2'
_cell_volume   524.22920672
_cell_formula_units_Z   2
loop_
 _symmetry_equiv_pos_site_id
 _symmetry_equiv_pos_as_xyz
  1  'x, y, z'
loop_
 _atom_site_type_symbol
 _atom_site_label
 _atom_site_symmetry_multiplicity
 _atom_site_fract_x
 _atom_site_fract_y
 _atom_site_fract_z
 _atom_site_occupancy
  C  C0  1  0.893610  0.479223  0.806883  1
  C  C1  1  0.106390  0.520777  0.193117  1
  S  S2  1  0.911902  0.187282  0.164709  1
  S  S3  1  0.088098  0.812718  0.835291  1
  S  S4  1  0.662499  0.182694  0.762943  1
  S  S5  1  0.492111  0.329725  0.303628  1
  S  S6  1  0.507889  0.670275  0.696372  1
  S  S7  1  0.867911  0.785146  0.543847  1
  S  S8  1  0.132089  0.214854  0.456153  1
  S  S9  1  0.256472  0.296617  0.019887  1
  S  S10  1  0.743528  0.703383  0.980113  1
  S  S11  1  0.337501  0.817306  0.237057  1
  N  N12  1  0.087529  0.349189  0.118844  1
  N  N13  1  0.034358  0.846292  0.670713  1
  N  N14  1  0.665275  0.671630  0.579515  1
  N  N15  1  0.334725  0.328370  0.420485  1
  N  N16  1  0.431885  0.299806  0.131295  1
  N  N17  1  0.965642  0.153708  0.329287  1
  N  N18  1  0.720280  0.377056  0.824960  1
  N  N19  1  0.568115  0.700194  0.868705  1
  N  N20  1  0.279720  0.622944  0.175040  1
  N  N21  1  0.912471  0.650811  0.881156  1
  O  O22  1  0.796937  0.095895  0.803581  1
  O  O23  1  0.968484  0.539455  0.258156  1
  O  O24  1  0.031516  0.460545  0.741844  1
  O  O25  1  0.536289  0.891417  0.219575  1
  O  O26  1  0.203063  0.904105  0.196419  1
  O  O27  1  0.463711  0.108583  0.780425  1
  F  F28  1  0.327127  0.818726  0.418556  1
  F  F29  1  0.672873  0.181274  0.581444  1
