# generated using pymatgen
data_NaCuAsO4
_symmetry_space_group_name_H-M   'P 1'
_cell_length_a   6.13959712
_cell_length_b   10.58280962
_cell_length_c   10.90796261
_cell_angle_alpha   90.00000000
_cell_angle_beta   90.00000000
_cell_angle_gamma   91.48489007
_symmetry_Int_Tables_number   1
_chemical_formula_structural   NaCuAsO4
_chemical_formula_sum   'Na8 Cu8 As8 O32'
_cell_volume   708.49800940
_cell_formula_units_Z   8
loop_
 _symmetry_equiv_pos_site_id
 _symmetry_equiv_pos_as_xyz
  1  'x, y, z'
loop_
 _atom_site_type_symbol
 _atom_site_label
 _atom_site_symmetry_multiplicity
 _atom_site_fract_x
 _atom_site_fract_y
 _atom_site_fract_z
 _atom_site_occupancy
  Na  Na0  1  0.632083  0.381429  0.630684  1
  Na  Na1  1  0.871686  0.617641  0.347402  1
  Na  Na2  1  0.367917  0.618571  0.369316  1
  Na  Na3  1  0.128314  0.882359  0.847402  1
  Na  Na4  1  0.632083  0.881429  0.869316  1
  Na  Na5  1  0.128314  0.382359  0.652598  1
  Na  Na6  1  0.367917  0.118571  0.130684  1
  Na  Na7  1  0.871686  0.117641  0.152598  1
  Cu  Cu8  1  0.615668  0.722942  0.099697  1
  Cu  Cu9  1  0.168813  0.510854  0.120354  1
  Cu  Cu10  1  0.384332  0.777058  0.599697  1
  Cu  Cu11  1  0.615668  0.222942  0.400303  1
  Cu  Cu12  1  0.168813  0.010854  0.379646  1
  Cu  Cu13  1  0.384332  0.277058  0.900303  1
  Cu  Cu14  1  0.831187  0.489146  0.879646  1
  Cu  Cu15  1  0.831187  0.989146  0.620354  1
  As  As16  1  0.377729  0.091184  0.635476  1
  As  As17  1  0.377729  0.591184  0.864524  1
  As  As18  1  0.872882  0.678626  0.620951  1
  As  As19  1  0.622271  0.908816  0.364524  1
  As  As20  1  0.872882  0.178626  0.879049  1
  As  As21  1  0.127118  0.321374  0.379049  1
  As  As22  1  0.127118  0.821374  0.120951  1
  As  As23  1  0.622271  0.408816  0.135476  1
  O  O24  1  0.365109  0.840248  0.035265  1
  O  O25  1  0.597649  0.552529  0.205290  1
  O  O26  1  0.870726  0.817073  0.704017  1
  O  O27  1  0.845329  0.411866  0.038371  1
  O  O28  1  0.845329  0.911866  0.461629  1
  O  O29  1  0.879103  0.046314  0.784431  1
  O  O30  1  0.129274  0.682927  0.204017  1
  O  O31  1  0.099149  0.665737  0.529141  1
  O  O32  1  0.625754  0.122292  0.553500  1
  O  O33  1  0.625754  0.622292  0.946500  1
  O  O34  1  0.653400  0.783506  0.268242  1
  O  O35  1  0.900851  0.334263  0.470859  1
  O  O36  1  0.634891  0.659752  0.535265  1
  O  O37  1  0.099149  0.165737  0.970859  1
  O  O38  1  0.346600  0.716494  0.768242  1
  O  O39  1  0.402351  0.447471  0.794710  1
  O  O40  1  0.154671  0.588134  0.961629  1
  O  O41  1  0.402351  0.947471  0.705290  1
  O  O42  1  0.879103  0.546314  0.715569  1
  O  O43  1  0.365109  0.340248  0.464735  1
  O  O44  1  0.374246  0.377708  0.053500  1
  O  O45  1  0.374246  0.877708  0.446500  1
  O  O46  1  0.597649  0.052529  0.294710  1
  O  O47  1  0.346600  0.216494  0.731758  1
  O  O48  1  0.653400  0.283506  0.231758  1
  O  O49  1  0.154671  0.088134  0.538371  1
  O  O50  1  0.129274  0.182927  0.295983  1
  O  O51  1  0.120897  0.453686  0.284431  1
  O  O52  1  0.634891  0.159752  0.964735  1
  O  O53  1  0.870726  0.317073  0.795983  1
  O  O54  1  0.900851  0.834263  0.029141  1
  O  O55  1  0.120897  0.953686  0.215569  1
