# generated using pymatgen
data_Ca3Mg(SiO4)2
_symmetry_space_group_name_H-M   'P 1'
_cell_length_a   5.26933663
_cell_length_b   9.96782530
_cell_length_c   13.67008167
_cell_angle_alpha   97.71951314
_cell_angle_beta   90.00000000
_cell_angle_gamma   90.00000000
_symmetry_Int_Tables_number   1
_chemical_formula_structural   Ca3Mg(SiO4)2
_chemical_formula_sum   'Ca12 Mg4 Si8 O32'
_cell_volume   711.49809129
_cell_formula_units_Z   4
loop_
 _symmetry_equiv_pos_site_id
 _symmetry_equiv_pos_as_xyz
  1  'x, y, z'
loop_
 _atom_site_type_symbol
 _atom_site_label
 _atom_site_symmetry_multiplicity
 _atom_site_fract_x
 _atom_site_fract_y
 _atom_site_fract_z
 _atom_site_occupancy
  Ca  Ca0  1  0.258981  0.071151  0.404617  1
  Ca  Ca1  1  0.247404  0.738825  0.977813  1
  Ca  Ca2  1  0.268879  0.475835  0.621451  1
  Ca  Ca3  1  0.231121  0.475835  0.121451  1
  Ca  Ca4  1  0.768879  0.524165  0.878549  1
  Ca  Ca5  1  0.747404  0.261175  0.522187  1
  Ca  Ca6  1  0.758981  0.928849  0.095383  1
  Ca  Ca7  1  0.241019  0.071151  0.904617  1
  Ca  Ca8  1  0.731121  0.524165  0.378549  1
  Ca  Ca9  1  0.741019  0.928849  0.595383  1
  Ca  Ca10  1  0.252596  0.738825  0.477813  1
  Ca  Ca11  1  0.752596  0.261175  0.022187  1
  Mg  Mg12  1  0.733175  0.171761  0.788298  1
  Mg  Mg13  1  0.766825  0.171761  0.288298  1
  Mg  Mg14  1  0.266825  0.828239  0.211702  1
  Mg  Mg15  1  0.233175  0.828239  0.711702  1
  Si  Si16  1  0.788316  0.889938  0.362200  1
  Si  Si17  1  0.729926  0.624349  0.640218  1
  Si  Si18  1  0.711684  0.889938  0.862200  1
  Si  Si19  1  0.211684  0.110062  0.637800  1
  Si  Si20  1  0.770074  0.624349  0.140218  1
  Si  Si21  1  0.229926  0.375651  0.859782  1
  Si  Si22  1  0.270074  0.375651  0.359782  1
  Si  Si23  1  0.288316  0.110062  0.137800  1
  O  O24  1  -0.016125  0.311022  0.367823  1
  O  O25  1  0.592745  0.147001  0.157476  1
  O  O26  1  0.824523  0.779009  0.929610  1
  O  O27  1  0.618491  0.572307  0.738725  1
  O  O28  1  0.381509  0.427693  0.261275  1
  O  O29  1  0.482902  0.259346  0.381964  1
  O  O30  1  0.208624  0.957086  0.568220  1
  O  O31  1  0.516125  0.311022  0.867823  1
  O  O32  1  1.017098  0.259346  0.881964  1
  O  O33  1  0.227841  0.510559  0.945411  1
  O  O34  1  0.175478  0.220991  0.070390  1
  O  O35  1  0.108237  0.080767  0.231152  1
  O  O36  1  0.708624  0.042914  0.931780  1
  O  O37  1  0.907255  0.147001  0.657476  1
  O  O38  1  0.483875  0.688978  0.132177  1
  O  O39  1  0.291376  0.957086  0.068220  1
  O  O40  1  0.791376  0.042914  0.431780  1
  O  O41  1  0.517098  0.740654  0.618036  1
  O  O42  1  0.272159  0.510559  0.445411  1
  O  O43  1  0.608237  0.919233  0.268848  1
  O  O44  1  0.391763  0.080767  0.731152  1
  O  O45  1  0.092745  0.852999  0.342524  1
  O  O46  1  0.407255  0.852999  0.842524  1
  O  O47  1  0.881509  0.572307  0.238725  1
  O  O48  1  0.772159  0.489441  0.054589  1
  O  O49  1  1.016125  0.688978  0.632177  1
  O  O50  1  0.675477  0.779009  0.429610  1
  O  O51  1  0.118491  0.427693  0.761275  1
  O  O52  1  -0.017098  0.740654  0.118036  1
  O  O53  1  0.891763  0.919233  0.768848  1
  O  O54  1  0.727841  0.489441  0.554589  1
  O  O55  1  0.324522  0.220991  0.570390  1
