# generated using pymatgen
data_SrZnNi(PO4)2
_symmetry_space_group_name_H-M   'P 1'
_cell_length_a   5.48173131
_cell_length_b   6.95239240
_cell_length_c   9.36338884
_cell_angle_alpha   110.67820564
_cell_angle_beta   101.76320670
_cell_angle_gamma   98.15171677
_symmetry_Int_Tables_number   1
_chemical_formula_structural   SrZnNi(PO4)2
_chemical_formula_sum   'Sr2 Zn2 Ni2 P4 O16'
_cell_volume   317.82126790
_cell_formula_units_Z   2
loop_
 _symmetry_equiv_pos_site_id
 _symmetry_equiv_pos_as_xyz
  1  'x, y, z'
loop_
 _atom_site_type_symbol
 _atom_site_label
 _atom_site_symmetry_multiplicity
 _atom_site_fract_x
 _atom_site_fract_y
 _atom_site_fract_z
 _atom_site_occupancy
  Sr  Sr0  1  0.248658  0.798980  0.051165  1
  Sr  Sr1  1  0.751342  0.201020  0.948835  1
  Zn  Zn2  1  0.989820  0.384141  0.647233  1
  Zn  Zn3  1  0.010180  0.615859  0.352767  1
  Ni  Ni4  1  0.638431  0.852706  0.560593  1
  Ni  Ni5  1  0.361569  0.147294  0.439407  1
  P  P6  1  0.395776  0.424390  0.236578  1
  P  P7  1  0.604224  0.575610  0.763422  1
  P  P8  1  0.842889  0.024026  0.302393  1
  P  P9  1  0.157111  0.975974  0.697607  1
  O  O10  1  0.812253  0.554331  0.892192  1
  O  O11  1  0.664881  0.474706  0.209228  1
  O  O12  1  0.658905  0.798342  0.761866  1
  O  O13  1  0.952602  0.115399  0.695599  1
  O  O14  1  0.335119  0.525294  0.790772  1
  O  O15  1  0.995864  0.748203  0.578151  1
  O  O16  1  0.004136  0.251797  0.421849  1
  O  O17  1  0.262056  0.996779  0.867123  1
  O  O18  1  0.341095  0.201658  0.238134  1
  O  O19  1  0.737944  0.003221  0.132877  1
  O  O20  1  0.187747  0.445669  0.107808  1
  O  O21  1  0.377376  0.591571  0.398301  1
  O  O22  1  0.622624  0.408429  0.601699  1
  O  O23  1  0.621244  0.953816  0.368921  1
  O  O24  1  0.047398  0.884601  0.304401  1
  O  O25  1  0.378756  0.046184  0.631079  1
