# generated using pymatgen
data_Zr5Si3
_symmetry_space_group_name_H-M   'P 1'
_cell_length_a   8.02451985
_cell_length_b   8.02451917
_cell_length_c   5.58605717
_cell_angle_alpha   90.00000000
_cell_angle_beta   90.00000000
_cell_angle_gamma   119.99999864
_symmetry_Int_Tables_number   1
_chemical_formula_structural   Zr5Si3
_chemical_formula_sum   'Zr10 Si6'
_cell_volume   311.51150311
_cell_formula_units_Z   2
loop_
 _symmetry_equiv_pos_site_id
 _symmetry_equiv_pos_as_xyz
  1  'x, y, z'
loop_
 _atom_site_type_symbol
 _atom_site_label
 _atom_site_symmetry_multiplicity
 _atom_site_fract_x
 _atom_site_fract_y
 _atom_site_fract_z
 _atom_site_occupancy
  Zr  Zr0  1  0.746366  0.746366  0.250000  1
  Zr  Zr1  1  0.000000  0.253634  0.250000  1
  Zr  Zr2  1  0.746366  0.000000  0.750000  1
  Zr  Zr3  1  0.333333  0.666667  0.500000  1
  Zr  Zr4  1  0.253634  1.000000  0.250000  1
  Zr  Zr5  1  0.666667  0.333333  0.500000  1
  Zr  Zr6  1  1.000000  0.746366  0.750000  1
  Zr  Zr7  1  0.333333  0.666667  0.000000  1
  Zr  Zr8  1  0.253634  0.253634  0.750000  1
  Zr  Zr9  1  0.666667  0.333333  0.000000  1
  Si  Si10  1  0.610785  0.610785  0.750000  1
  Si  Si11  1  0.389215  1.000000  0.750000  1
  Si  Si12  1  0.610785  0.000000  0.250000  1
  Si  Si13  1  0.000000  0.389215  0.750000  1
  Si  Si14  1  0.389215  0.389215  0.250000  1
  Si  Si15  1  1.000000  0.610785  0.250000  1
