# generated using pymatgen
data_B4CCl6O
_symmetry_space_group_name_H-M   'P 1'
_cell_length_a   7.16338057
_cell_length_b   7.16337120
_cell_length_c   7.16338397
_cell_angle_alpha   107.53288359
_cell_angle_beta   107.53291410
_cell_angle_gamma   107.53288760
_symmetry_Int_Tables_number   1
_chemical_formula_structural   B4CCl6O
_chemical_formula_sum   'B4 C1 Cl6 O1'
_cell_volume   301.56470639
_cell_formula_units_Z   1
loop_
 _symmetry_equiv_pos_site_id
 _symmetry_equiv_pos_as_xyz
  1  'x, y, z'
loop_
 _atom_site_type_symbol
 _atom_site_label
 _atom_site_symmetry_multiplicity
 _atom_site_fract_x
 _atom_site_fract_y
 _atom_site_fract_z
 _atom_site_occupancy
  C  C0  1  0.493907  0.493907  0.493907  1
  Cl  Cl1  1  0.085314  0.531216  0.531216  1
  B  B2  1  0.071775  0.317676  0.317676  1
  O  O3  1  0.640623  0.640623  0.640624  1
  Cl  Cl4  1  0.812727  0.121666  0.121665  1
  B  B5  1  0.317676  0.317676  0.071775  1
  Cl  Cl6  1  0.121666  0.121666  0.812727  1
  Cl  Cl7  1  0.121665  0.812727  0.121665  1
  Cl  Cl8  1  0.531215  0.085313  0.531215  1
  Cl  Cl9  1  0.531216  0.531216  0.085314  1
  B  B10  1  0.302241  0.302241  0.302241  1
  B  B11  1  0.317676  0.071774  0.317676  1
