# generated using pymatgen
data_Li4CO4
_symmetry_space_group_name_H-M   'P 1'
_cell_length_a   4.24356557
_cell_length_b   4.24357220
_cell_length_c   4.97440032
_cell_angle_alpha   115.35890675
_cell_angle_beta   115.35910272
_cell_angle_gamma   90.19812204
_symmetry_Int_Tables_number   1
_chemical_formula_structural   Li4CO4
_chemical_formula_sum   'Li4 C1 O4'
_cell_volume   71.20535801
_cell_formula_units_Z   1
loop_
 _symmetry_equiv_pos_site_id
 _symmetry_equiv_pos_as_xyz
  1  'x, y, z'
loop_
 _atom_site_type_symbol
 _atom_site_label
 _atom_site_symmetry_multiplicity
 _atom_site_fract_x
 _atom_site_fract_y
 _atom_site_fract_z
 _atom_site_occupancy
  Li  Li0  1  0.471153  0.471145  0.299153  1
  Li  Li1  1  0.151786  0.751530  0.877339  1
  O  O2  1  0.619487  0.619489  0.804955  1
  Li  Li3  1  0.876456  0.876451  0.306428  1
  Li  Li4  1  0.751529  0.151785  0.877336  1
  O  O5  1  0.404923  0.022571  0.378425  1
  C  C6  1  0.320867  0.320870  0.591288  1
  O  O7  1  0.022568  0.404926  0.378425  1
  O  O8  1  0.234391  0.234392  0.802562  1
