# generated using pymatgen
data_Ce4Si2Se3O7
_symmetry_space_group_name_H-M   'P 1'
_cell_length_a   11.31337148
_cell_length_b   11.31337126
_cell_length_c   11.31337143
_cell_angle_alpha   99.78134801
_cell_angle_beta   114.52282379
_cell_angle_gamma   114.52281860
_symmetry_Int_Tables_number   1
_chemical_formula_structural   Ce4Si2Se3O7
_chemical_formula_sum   'Ce16 Si8 Se12 O28'
_cell_volume   1091.37459933
_cell_formula_units_Z   4
loop_
 _symmetry_equiv_pos_site_id
 _symmetry_equiv_pos_as_xyz
  1  'x, y, z'
loop_
 _atom_site_type_symbol
 _atom_site_label
 _atom_site_symmetry_multiplicity
 _atom_site_fract_x
 _atom_site_fract_y
 _atom_site_fract_z
 _atom_site_occupancy
  Ce  Ce0  1  0.011226  0.345902  0.334676  1
  Ce  Ce1  1  0.988774  0.334676  0.823450  1
  Ce  Ce2  1  0.511226  0.334676  0.345902  1
  Ce  Ce3  1  0.511226  0.176550  0.665324  1
  Ce  Ce4  1  0.988774  0.654098  0.665324  1
  Ce  Ce5  1  0.488774  0.823450  0.334676  1
  Ce  Ce6  1  0.488774  0.665324  0.654098  1
  Ce  Ce7  1  0.011226  0.665324  0.176550  1
  Ce  Ce8  1  0.594993  0.297496  0.047496  1
  Ce  Ce9  1  0.750000  0.047496  0.952504  1
  Ce  Ce10  1  0.750000  0.702504  0.297496  1
  Ce  Ce11  1  0.905007  0.952504  0.702504  1
  Ce  Ce12  1  0.405007  0.702504  0.952504  1
  Ce  Ce13  1  0.250000  0.952504  0.047496  1
  Ce  Ce14  1  0.250000  0.297496  0.702504  1
  Ce  Ce15  1  0.094993  0.047496  0.297496  1
  Si  Si16  1  0.373611  0.466875  0.093264  1
  Si  Si17  1  0.626389  0.093264  0.219654  1
  Si  Si18  1  0.873611  0.093264  0.466875  1
  Si  Si19  1  0.873611  0.780346  0.906736  1
  Si  Si20  1  0.626389  0.533125  0.906736  1
  Si  Si21  1  0.126389  0.219654  0.093264  1
  Si  Si22  1  0.126389  0.906736  0.533125  1
  Si  Si23  1  0.373611  0.906736  0.780346  1
  Se  Se24  1  0.353355  0.000000  0.353355  1
  Se  Se25  1  0.353355  0.353355  0.500000  1
  Se  Se26  1  0.146645  0.646645  0.000000  1
  Se  Se27  1  0.146645  0.500000  0.646645  1
  Se  Se28  1  0.646645  0.000000  0.646645  1
  Se  Se29  1  0.646645  0.646645  0.500000  1
  Se  Se30  1  0.853355  0.353355  0.000000  1
  Se  Se31  1  0.853355  0.500000  0.353355  1
  Se  Se32  1  0.250000  0.625000  0.375000  1
  Se  Se33  1  0.750000  0.375000  0.625000  1
  Se  Se34  1  0.750000  0.875000  0.125000  1
  Se  Se35  1  0.250000  0.125000  0.875000  1
  O  O36  1  0.227292  0.150203  0.157917  1
  O  O37  1  0.007714  0.157917  0.430626  1
  O  O38  1  0.492286  0.922912  0.150203  1
  O  O39  1  0.492286  0.569374  0.842083  1
  O  O40  1  0.007714  0.849797  0.077088  1
  O  O41  1  0.272708  0.430626  0.922912  1
  O  O42  1  0.272708  0.842083  0.849797  1
  O  O43  1  0.227292  0.077088  0.569374  1
  O  O44  1  0.772708  0.849797  0.842083  1
  O  O45  1  0.992286  0.842083  0.569374  1
  O  O46  1  0.507714  0.077088  0.849797  1
  O  O47  1  0.507714  0.430626  0.157917  1
  O  O48  1  0.992286  0.150203  0.922912  1
  O  O49  1  0.727292  0.569374  0.077088  1
  O  O50  1  0.727292  0.157917  0.150203  1
  O  O51  1  0.772708  0.922912  0.430626  1
  O  O52  1  0.025357  0.195013  0.169656  1
  O  O53  1  0.974643  0.169656  0.644299  1
  O  O54  1  0.525357  0.169656  0.195013  1
  O  O55  1  0.525357  0.355701  0.830344  1
  O  O56  1  0.974643  0.804987  0.830344  1
  O  O57  1  0.474643  0.644299  0.169656  1
  O  O58  1  0.474643  0.830344  0.804987  1
  O  O59  1  0.025357  0.830344  0.355701  1
  O  O60  1  0.250000  0.860393  0.610393  1
  O  O61  1  0.750000  0.610393  0.860393  1
  O  O62  1  0.750000  0.139607  0.389607  1
  O  O63  1  0.250000  0.389607  0.139607  1
