# generated using pymatgen
data_CsPr(PO3)4
_symmetry_space_group_name_H-M   'P 1'
_cell_length_a   9.19967572
_cell_length_b   10.67484319
_cell_length_c   11.39748980
_cell_angle_alpha   106.60909834
_cell_angle_beta   90.00000000
_cell_angle_gamma   90.00000000
_symmetry_Int_Tables_number   1
_chemical_formula_structural   CsPr(PO3)4
_chemical_formula_sum   'Cs4 Pr4 P16 O48'
_cell_volume   1072.59159424
_cell_formula_units_Z   4
loop_
 _symmetry_equiv_pos_site_id
 _symmetry_equiv_pos_as_xyz
  1  'x, y, z'
loop_
 _atom_site_type_symbol
 _atom_site_label
 _atom_site_symmetry_multiplicity
 _atom_site_fract_x
 _atom_site_fract_y
 _atom_site_fract_z
 _atom_site_occupancy
  Cs  Cs0  1  0.433985  0.313109  0.539258  1
  Cs  Cs1  1  0.933985  0.186891  0.960742  1
  Cs  Cs2  1  0.566015  0.686891  0.460742  1
  Cs  Cs3  1  0.066015  0.813109  0.039258  1
  Pr  Pr4  1  0.274240  0.498426  0.181751  1
  Pr  Pr5  1  0.774240  0.001574  0.318249  1
  Pr  Pr6  1  0.225760  0.998426  0.681751  1
  Pr  Pr7  1  0.725760  0.501574  0.818249  1
  P  P8  1  0.602353  0.824900  0.024737  1
  P  P9  1  0.969112  0.748733  0.715667  1
  P  P10  1  0.530888  0.248733  0.215667  1
  P  P11  1  0.406555  0.856290  0.240645  1
  P  P12  1  0.324447  0.538876  0.862680  1
  P  P13  1  0.906555  0.643710  0.259355  1
  P  P14  1  0.175553  0.038876  0.362680  1
  P  P15  1  0.030888  0.251267  0.284333  1
  P  P16  1  0.593445  0.143710  0.759355  1
  P  P17  1  0.675553  0.461124  0.137320  1
  P  P18  1  0.093445  0.356290  0.740645  1
  P  P19  1  0.897647  0.324900  0.524737  1
  P  P20  1  0.469112  0.751267  0.784333  1
  P  P21  1  0.102353  0.675100  0.475263  1
  P  P22  1  0.397647  0.175100  0.975263  1
  P  P23  1  0.824447  0.961124  0.637320  1
  O  O24  1  0.538049  0.857065  0.903699  1
  O  O25  1  0.323272  0.739454  0.251390  1
  O  O26  1  0.962948  0.036889  0.670582  1
  O  O27  1  0.159900  0.183675  0.343193  1
  O  O28  1  0.461951  0.142935  0.096301  1
  O  O29  1  0.964255  0.400886  0.822351  1
  O  O30  1  0.340100  0.683675  0.843193  1
  O  O31  1  0.449943  0.834697  0.099254  1
  O  O32  1  0.656553  0.686727  0.986880  1
  O  O33  1  0.462948  0.463111  0.829418  1
  O  O34  1  0.205253  0.569696  0.407993  1
  O  O35  1  0.920734  0.148641  0.223957  1
  O  O36  1  0.176728  0.239454  0.751390  1
  O  O37  1  0.294086  0.977779  0.255180  1
  O  O38  1  0.579266  0.648641  0.723957  1
  O  O39  1  0.550057  0.165303  0.900746  1
  O  O40  1  0.794747  0.430304  0.592007  1
  O  O41  1  0.535745  0.900886  0.322351  1
  O  O42  1  0.705253  0.930304  0.092007  1
  O  O43  1  0.676728  0.260546  0.748610  1
  O  O44  1  0.343447  0.313273  0.013120  1
  O  O45  1  0.050057  0.334697  0.599254  1
  O  O46  1  0.037052  0.963111  0.329418  1
  O  O47  1  0.705914  0.022221  0.744820  1
  O  O48  1  0.949943  0.665303  0.400746  1
  O  O49  1  0.537052  0.536889  0.170582  1
  O  O50  1  0.156553  0.813273  0.513120  1
  O  O51  1  0.823272  0.760546  0.248610  1
  O  O52  1  0.401656  0.827374  0.706572  1
  O  O53  1  0.598344  0.172626  0.293428  1
  O  O54  1  0.901656  0.672626  0.793428  1
  O  O55  1  0.744495  0.440959  0.014194  1
  O  O56  1  0.035745  0.599114  0.177649  1
  O  O57  1  0.038049  0.642935  0.596301  1
  O  O58  1  0.840100  0.816325  0.656807  1
  O  O59  1  0.294747  0.069696  0.907993  1
  O  O60  1  0.079266  0.851359  0.776043  1
  O  O61  1  0.098344  0.327374  0.206572  1
  O  O62  1  0.843447  0.186727  0.486880  1
  O  O63  1  0.755505  0.940959  0.514194  1
  O  O64  1  0.659900  0.316325  0.156807  1
  O  O65  1  0.244495  0.059041  0.485806  1
  O  O66  1  0.205914  0.477779  0.755180  1
  O  O67  1  0.420734  0.351359  0.276043  1
  O  O68  1  0.255505  0.559041  0.985806  1
  O  O69  1  0.464255  0.099114  0.677649  1
  O  O70  1  0.794086  0.522221  0.244820  1
  O  O71  1  0.961951  0.357065  0.403699  1
