# generated using pymatgen
data_Dy6Fe16O
_symmetry_space_group_name_H-M   'P 1'
_cell_length_a   8.11871763
_cell_length_b   8.11871785
_cell_length_c   8.11871852
_cell_angle_alpha   109.47122521
_cell_angle_beta   109.47122579
_cell_angle_gamma   109.47121903
_symmetry_Int_Tables_number   1
_chemical_formula_structural   Dy6Fe16O
_chemical_formula_sum   'Dy6 Fe16 O1'
_cell_volume   411.94613807
_cell_formula_units_Z   1
loop_
 _symmetry_equiv_pos_site_id
 _symmetry_equiv_pos_as_xyz
  1  'x, y, z'
loop_
 _atom_site_type_symbol
 _atom_site_label
 _atom_site_symmetry_multiplicity
 _atom_site_fract_x
 _atom_site_fract_y
 _atom_site_fract_z
 _atom_site_occupancy
  Dy  Dy0  1  1.000000  0.268126  0.268126  1
  Dy  Dy1  1  0.268126  1.000000  0.268126  1
  Dy  Dy2  1  0.731874  0.000000  0.731874  1
  Dy  Dy3  1  0.731874  0.731874  0.000000  1
  Dy  Dy4  1  0.268126  0.268126  1.000000  1
  Dy  Dy5  1  0.000000  0.731874  0.731874  1
  Fe  Fe6  1  0.500000  0.500000  0.500000  1
  Fe  Fe7  1  0.500000  0.000000  0.000000  1
  Fe  Fe8  1  0.000000  0.500000  0.000000  1
  Fe  Fe9  1  0.000000  0.000000  0.500000  1
  Fe  Fe10  1  0.326193  0.663097  0.663097  1
  Fe  Fe11  1  0.663097  0.000000  0.336903  1
  Fe  Fe12  1  0.663097  0.326193  0.663097  1
  Fe  Fe13  1  0.663097  0.663097  0.326193  1
  Fe  Fe14  1  0.663097  0.336903  1.000000  1
  Fe  Fe15  1  0.000000  0.663097  0.336903  1
  Fe  Fe16  1  1.000000  0.336903  0.663097  1
  Fe  Fe17  1  0.336903  0.336903  0.673807  1
  Fe  Fe18  1  0.336903  1.000000  0.663097  1
  Fe  Fe19  1  0.336903  0.663097  0.000000  1
  Fe  Fe20  1  0.336903  0.673807  0.336903  1
  Fe  Fe21  1  0.673807  0.336903  0.336903  1
  O  O22  1  0.000000  0.000000  0.000000  1
