# generated using pymatgen
data_Si2Mo4P6O25
_symmetry_space_group_name_H-M   'P 1'
_cell_length_a   15.01160871
_cell_length_b   15.01160911
_cell_length_c   7.59588708
_cell_angle_alpha   90.00000000
_cell_angle_beta   90.00000000
_cell_angle_gamma   119.99999911
_symmetry_Int_Tables_number   1
_chemical_formula_structural   Si2Mo4P6O25
_chemical_formula_sum   'Si6 Mo12 P18 O75'
_cell_volume   1482.39389741
_cell_formula_units_Z   3
loop_
 _symmetry_equiv_pos_site_id
 _symmetry_equiv_pos_as_xyz
  1  'x, y, z'
loop_
 _atom_site_type_symbol
 _atom_site_label
 _atom_site_symmetry_multiplicity
 _atom_site_fract_x
 _atom_site_fract_y
 _atom_site_fract_z
 _atom_site_occupancy
  Si  Si0  1  0.000000  0.000000  0.290760  1
  Si  Si1  1  0.333333  0.666667  0.207627  1
  Si  Si2  1  0.333333  0.666667  0.789423  1
  Si  Si3  1  0.666667  0.333333  0.210577  1
  Si  Si4  1  0.666667  0.333333  0.792373  1
  Si  Si5  1  0.000000  0.000000  0.709240  1
  Mo  Mo6  1  0.000566  0.661016  0.070758  1
  Mo  Mo7  1  0.673234  0.002608  0.422241  1
  Mo  Mo8  1  0.661016  0.660450  0.929242  1
  Mo  Mo9  1  0.002608  0.329374  0.577759  1
  Mo  Mo10  1  0.660450  0.999434  0.070758  1
  Mo  Mo11  1  0.670626  0.673234  0.577759  1
  Mo  Mo12  1  0.999434  0.338984  0.929242  1
  Mo  Mo13  1  0.329374  0.326766  0.422241  1
  Mo  Mo14  1  0.326766  0.997392  0.577759  1
  Mo  Mo15  1  0.339550  0.000566  0.929242  1
  Mo  Mo16  1  0.338984  0.339550  0.070758  1
  Mo  Mo17  1  0.997392  0.670626  0.422241  1
  P  P18  1  0.419140  0.895867  0.256126  1
  P  P19  1  0.104133  0.523273  0.256126  1
  P  P20  1  0.769905  0.855886  0.249452  1
  P  P21  1  0.476727  0.580860  0.256126  1
  P  P22  1  0.855886  0.085981  0.750548  1
  P  P23  1  0.230095  0.144114  0.750548  1
  P  P24  1  0.751444  0.562982  0.252550  1
  P  P25  1  0.914019  0.769905  0.750548  1
  P  P26  1  0.248556  0.437018  0.747450  1
  P  P27  1  0.580860  0.104133  0.743874  1
  P  P28  1  0.144114  0.914019  0.249452  1
  P  P29  1  0.811539  0.248556  0.252550  1
  P  P30  1  0.562982  0.811539  0.747450  1
  P  P31  1  0.085981  0.230095  0.249452  1
  P  P32  1  0.895867  0.476727  0.743874  1
  P  P33  1  0.523273  0.419140  0.743874  1
  P  P34  1  0.437018  0.188461  0.252550  1
  P  P35  1  0.188461  0.751444  0.747450  1
  O  O36  1  0.474438  0.379036  0.923109  1
  O  O37  1  0.285913  0.410274  0.582462  1
  O  O38  1  0.402420  0.783419  0.280846  1
  O  O39  1  0.912392  0.544964  0.586874  1
  O  O40  1  0.783419  0.380999  0.719154  1
  O  O41  1  0.087608  0.455036  0.413126  1
  O  O42  1  0.619001  0.402420  0.719154  1
  O  O43  1  0.620964  0.095402  0.923109  1
  O  O44  1  0.908351  0.206308  0.758525  1
  O  O45  1  0.948628  0.065522  0.783913  1
  O  O46  1  0.714087  0.589726  0.417538  1
  O  O47  1  0.235980  0.189289  0.568745  1
  O  O48  1  0.758948  0.128373  0.239772  1
  O  O49  1  0.300002  0.434929  0.918556  1
  O  O50  1  0.450163  0.718110  0.715015  1
  O  O51  1  0.883105  0.948628  0.216087  1
  O  O52  1  0.369425  0.241052  0.239772  1
  O  O53  1  0.732053  0.450163  0.284985  1
  O  O54  1  0.091649  0.793692  0.241475  1
  O  O55  1  0.934478  0.883105  0.783913  1
  O  O56  1  0.666667  0.333333  0.001508  1
  O  O57  1  0.134927  0.699998  0.918556  1
  O  O58  1  0.333333  0.666667  0.998492  1
  O  O59  1  0.565071  0.865073  0.918556  1
  O  O60  1  0.241052  0.871627  0.760228  1
  O  O61  1  0.189289  0.953309  0.431255  1
  O  O62  1  0.953309  0.764020  0.568745  1
  O  O63  1  0.904598  0.525562  0.923109  1
  O  O64  1  0.632572  0.087608  0.586874  1
  O  O65  1  0.783158  0.035882  0.902824  1
  O  O66  1  0.573033  0.539276  0.739202  1
  O  O67  1  0.434929  0.134927  0.081444  1
  O  O68  1  0.000000  0.000000  0.500000  1
  O  O69  1  0.128373  0.369425  0.760228  1
  O  O70  1  0.206308  0.297957  0.241475  1
  O  O71  1  0.116895  0.051372  0.783913  1
  O  O72  1  0.589726  0.875639  0.582462  1
  O  O73  1  0.252724  0.216842  0.902824  1
  O  O74  1  0.379036  0.904598  0.076891  1
  O  O75  1  0.051372  0.934478  0.216087  1
  O  O76  1  0.124361  0.714087  0.582462  1
  O  O77  1  0.702043  0.908351  0.241475  1
  O  O78  1  0.871627  0.630575  0.239772  1
  O  O79  1  0.216581  0.619001  0.280846  1
  O  O80  1  0.426967  0.460724  0.260798  1
  O  O81  1  0.035882  0.252724  0.097176  1
  O  O82  1  0.630575  0.758948  0.760228  1
  O  O83  1  0.875639  0.285913  0.417538  1
  O  O84  1  0.367428  0.912392  0.413126  1
  O  O85  1  0.216842  0.964118  0.097176  1
  O  O86  1  0.597580  0.216581  0.719154  1
  O  O87  1  0.033757  0.573033  0.260798  1
  O  O88  1  0.297957  0.091649  0.758525  1
  O  O89  1  0.549837  0.281890  0.284985  1
  O  O90  1  0.810711  0.046691  0.568745  1
  O  O91  1  0.046691  0.235980  0.431255  1
  O  O92  1  0.410274  0.124361  0.417538  1
  O  O93  1  0.380999  0.597580  0.280846  1
  O  O94  1  0.281890  0.732053  0.715015  1
  O  O95  1  0.455036  0.367428  0.586874  1
  O  O96  1  0.267947  0.549837  0.715015  1
  O  O97  1  0.095402  0.474438  0.076891  1
  O  O98  1  0.525562  0.620964  0.076891  1
  O  O99  1  0.964118  0.747276  0.902824  1
  O  O100  1  0.718110  0.267947  0.284985  1
  O  O101  1  0.539276  0.966243  0.260798  1
  O  O102  1  0.544964  0.632572  0.413126  1
  O  O103  1  0.460724  0.033757  0.739202  1
  O  O104  1  0.793692  0.702043  0.758525  1
  O  O105  1  0.966243  0.426967  0.739202  1
  O  O106  1  0.699998  0.565071  0.081444  1
  O  O107  1  0.065522  0.116895  0.216087  1
  O  O108  1  0.747276  0.783158  0.097176  1
  O  O109  1  0.865073  0.300002  0.081444  1
  O  O110  1  0.764020  0.810711  0.431255  1
