# generated using pymatgen
data_Na2Zr12B2I5Cl23
_symmetry_space_group_name_H-M   'P 1'
_cell_length_a   13.49807200
_cell_length_b   13.62145260
_cell_length_c   13.49946432
_cell_angle_alpha   90.00000000
_cell_angle_beta   89.96676851
_cell_angle_gamma   90.00000000
_symmetry_Int_Tables_number   1
_chemical_formula_structural   Na2Zr12B2I5Cl23
_chemical_formula_sum   'Na4 Zr24 B4 I10 Cl46'
_cell_volume   2482.05628875
_cell_formula_units_Z   2
loop_
 _symmetry_equiv_pos_site_id
 _symmetry_equiv_pos_as_xyz
  1  'x, y, z'
loop_
 _atom_site_type_symbol
 _atom_site_label
 _atom_site_symmetry_multiplicity
 _atom_site_fract_x
 _atom_site_fract_y
 _atom_site_fract_z
 _atom_site_occupancy
  B  B0  1  0.003095  1.000670  0.999064  1
  B  B1  1  0.003095  0.499330  0.499064  1
  B  B2  1  0.496654  0.000816  0.500326  1
  B  B3  1  0.496654  0.499184  0.000326  1
  Cl  Cl4  1  0.019880  0.116431  0.238859  1
  Cl  Cl5  1  0.019880  0.383569  0.738859  1
  Cl  Cl6  1  0.097661  0.374709  0.283871  1
  Cl  Cl7  1  0.097661  0.125291  0.783871  1
  Cl  Cl8  1  0.117816  0.237781  0.021279  1
  Cl  Cl9  1  0.117816  0.262219  0.521279  1
  Cl  Cl10  1  0.126260  0.788372  0.096564  1
  Cl  Cl11  1  0.126260  0.711628  0.596564  1
  Cl  Cl12  1  0.219866  0.594564  0.379127  1
  Cl  Cl13  1  0.219866  0.905436  0.879127  1
  Cl  Cl14  1  0.239080  0.023100  0.117346  1
  Cl  Cl15  1  0.239080  0.476900  0.617346  1
  Cl  Cl16  1  0.260584  0.520233  0.117573  1
  Cl  Cl17  1  0.260584  0.979767  0.617573  1
  Cl  Cl18  1  0.282279  0.096722  0.377846  1
  Cl  Cl19  1  0.282279  0.403278  0.877846  1
  Cl  Cl20  1  0.379943  0.283333  0.098184  1
  Cl  Cl21  1  0.379943  0.216667  0.598184  1
  Cl  Cl22  1  0.381752  0.736425  0.019967  1
  Cl  Cl23  1  0.381752  0.763575  0.519967  1
  Cl  Cl24  1  0.402257  0.880610  0.282427  1
  Cl  Cl25  1  0.402257  0.619390  0.782427  1
  Cl  Cl26  1  0.479841  0.615173  0.239060  1
  Cl  Cl27  1  0.479841  0.884827  0.739060  1
  Cl  Cl28  1  0.523017  0.119208  0.261208  1
  Cl  Cl29  1  0.523017  0.380792  0.761208  1
  Cl  Cl30  1  0.597566  0.379950  0.217964  1
  Cl  Cl31  1  0.597566  0.120050  0.717964  1
  Cl  Cl32  1  0.618029  0.262569  0.977130  1
  Cl  Cl33  1  0.618029  0.237431  0.477130  1
  Cl  Cl34  1  0.619438  0.784068  0.402817  1
  Cl  Cl35  1  0.619438  0.715932  0.902817  1
  Cl  Cl36  1  0.717030  0.597499  0.118283  1
  Cl  Cl37  1  0.717030  0.902501  0.618283  1
  Cl  Cl38  1  0.737996  0.022159  0.381242  1
  Cl  Cl39  1  0.737996  0.477841  0.881242  1
  Cl  Cl40  1  0.761413  0.519879  0.381140  1
  Cl  Cl41  1  0.761413  0.980121  0.881140  1
  Cl  Cl42  1  0.781671  0.097812  0.118439  1
  Cl  Cl43  1  0.781671  0.402188  0.618439  1
  Cl  Cl44  1  0.878826  0.219826  0.904350  1
  Cl  Cl45  1  0.878826  0.280174  0.404350  1
  Cl  Cl46  1  0.883281  0.763576  0.977168  1
  Cl  Cl47  1  0.883281  0.736424  0.477168  1
  Cl  Cl48  1  0.901982  0.883223  0.217442  1
  Cl  Cl49  1  0.901982  0.616777  0.717442  1
  I  I50  1  0.131750  0.866916  0.369432  1
  I  I51  1  0.131750  0.633084  0.869432  1
  I  I52  1  0.368663  0.366500  0.368593  1
  I  I53  1  0.368663  0.133500  0.868593  1
  I  I54  1  0.635433  0.635257  0.634904  1
  I  I55  1  0.635433  0.864743  0.134904  1
  I  I56  1  0.862899  0.138432  0.636641  1
  I  I57  1  0.862899  0.361568  0.136641  1
  I  I58  1  0.983108  0.621858  0.232184  1
  I  I59  1  0.983108  0.878142  0.732184  1
  Na  Na60  1  0.715739  0.215999  0.282782  1
  Na  Na61  1  0.715739  0.284001  0.782782  1
  Na  Na62  1  0.776162  0.719722  0.284277  1
  Na  Na63  1  0.776162  0.780278  0.784277  1
  Zr  Zr64  1  0.051076  0.650995  0.436574  1
  Zr  Zr65  1  0.051076  0.849005  0.936574  1
  Zr  Zr66  1  0.066641  0.956243  0.152035  1
  Zr  Zr67  1  0.066641  0.543757  0.652035  1
  Zr  Zr68  1  0.154592  0.434578  0.453363  1
  Zr  Zr69  1  0.154592  0.065422  0.953363  1
  Zr  Zr70  1  0.345341  0.936703  0.453744  1
  Zr  Zr71  1  0.345341  0.563297  0.953744  1
  Zr  Zr72  1  0.433192  0.453948  0.152692  1
  Zr  Zr73  1  0.433192  0.046052  0.652692  1
  Zr  Zr74  1  0.450619  0.151894  0.436991  1
  Zr  Zr75  1  0.450619  0.348106  0.936991  1
  Zr  Zr76  1  0.541760  0.650078  0.064477  1
  Zr  Zr77  1  0.541760  0.849922  0.564477  1
  Zr  Zr78  1  0.560547  0.955036  0.348001  1
  Zr  Zr79  1  0.560547  0.544964  0.848001  1
  Zr  Zr80  1  0.649774  0.436868  0.045388  1
  Zr  Zr81  1  0.649774  0.063132  0.545388  1
  Zr  Zr82  1  0.850178  0.561958  0.544191  1
  Zr  Zr83  1  0.850178  0.938042  0.044191  1
  Zr  Zr84  1  0.938019  0.050762  0.847868  1
  Zr  Zr85  1  0.938019  0.449238  0.347868  1
  Zr  Zr86  1  0.957192  0.151582  0.064687  1
  Zr  Zr87  1  0.957192  0.348418  0.564687  1
