# generated using pymatgen
data_Ce7C3I10
_symmetry_space_group_name_H-M   'P 1'
_cell_length_a   9.73353476
_cell_length_b   11.71413248
_cell_length_c   13.89177470
_cell_angle_alpha   79.57878501
_cell_angle_beta   71.26521898
_cell_angle_gamma   66.17156892
_symmetry_Int_Tables_number   1
_chemical_formula_structural   Ce7C3I10
_chemical_formula_sum   'Ce14 C6 I20'
_cell_volume   1369.76095895
_cell_formula_units_Z   2
loop_
 _symmetry_equiv_pos_site_id
 _symmetry_equiv_pos_as_xyz
  1  'x, y, z'
loop_
 _atom_site_type_symbol
 _atom_site_label
 _atom_site_symmetry_multiplicity
 _atom_site_fract_x
 _atom_site_fract_y
 _atom_site_fract_z
 _atom_site_occupancy
  Ce  Ce0  1  0.954751  0.114283  0.826995  1
  Ce  Ce1  1  0.834443  0.244260  0.099313  1
  Ce  Ce2  1  0.544642  0.794843  0.307314  1
  Ce  Ce3  1  0.247645  0.051941  0.920488  1
  Ce  Ce4  1  0.136079  0.274386  0.587492  1
  Ce  Ce5  1  0.376531  0.926612  0.640996  1
  Ce  Ce6  1  0.752355  0.948059  0.079512  1
  Ce  Ce7  1  0.956616  0.581520  0.159525  1
  Ce  Ce8  1  0.043384  0.418480  0.840475  1
  Ce  Ce9  1  0.455358  0.205157  0.692686  1
  Ce  Ce10  1  0.165557  0.755740  0.900687  1
  Ce  Ce11  1  0.623469  0.073388  0.359004  1
  Ce  Ce12  1  0.045249  0.885717  0.173005  1
  Ce  Ce13  1  0.863921  0.725614  0.412508  1
  C  C14  1  0.243176  0.110109  0.725328  1
  C  C15  1  0.038668  0.942577  0.976770  1
  C  C16  1  0.961332  0.057423  0.023230  1
  C  C17  1  0.165073  0.225802  0.771775  1
  C  C18  1  0.756824  0.889891  0.274672  1
  C  C19  1  0.834927  0.774198  0.228225  1
  I  I20  1  0.852869  0.697419  0.955338  1
  I  I21  1  0.393345  0.921436  0.120750  1
  I  I22  1  0.931915  0.130292  0.303641  1
  I  I23  1  0.958811  0.565294  0.638413  1
  I  I24  1  0.186784  0.752996  0.373461  1
  I  I25  1  0.437565  0.344394  0.476005  1
  I  I26  1  0.715576  0.391050  0.908255  1
  I  I27  1  0.285781  0.046899  0.430425  1
  I  I28  1  0.714219  0.953101  0.569575  1
  I  I29  1  0.041189  0.434706  0.361587  1
  I  I30  1  0.351584  0.477689  0.776367  1
  I  I31  1  0.648416  0.522311  0.223633  1
  I  I32  1  0.562435  0.655606  0.523995  1
  I  I33  1  0.504171  0.218607  0.168399  1
  I  I34  1  0.068085  0.869708  0.696359  1
  I  I35  1  0.147131  0.302581  0.044662  1
  I  I36  1  0.813216  0.247004  0.626539  1
  I  I37  1  0.606655  0.078564  0.879250  1
  I  I38  1  0.495829  0.781393  0.831601  1
  I  I39  1  0.284424  0.608950  0.091745  1
