# generated using pymatgen
data_Sm(AlZn)2
_symmetry_space_group_name_H-M   'P 1'
_cell_length_a   4.16704009
_cell_length_b   4.16703598
_cell_length_c   6.23900743
_cell_angle_alpha   109.50646474
_cell_angle_beta   109.50655880
_cell_angle_gamma   90.00126003
_symmetry_Int_Tables_number   1
_chemical_formula_structural   Sm(AlZn)2
_chemical_formula_sum   'Sm1 Al2 Zn2'
_cell_volume   95.49494438
_cell_formula_units_Z   1
loop_
 _symmetry_equiv_pos_site_id
 _symmetry_equiv_pos_as_xyz
  1  'x, y, z'
loop_
 _atom_site_type_symbol
 _atom_site_label
 _atom_site_symmetry_multiplicity
 _atom_site_fract_x
 _atom_site_fract_y
 _atom_site_fract_z
 _atom_site_occupancy
  Sm  Sm0  1  0.000000  0.000000  0.000000  1
  Al  Al1  1  0.249963  0.750037  0.500000  1
  Al  Al2  1  0.750037  0.249963  0.500000  1
  Zn  Zn3  1  0.610405  0.610404  0.220778  1
  Zn  Zn4  1  0.389595  0.389596  0.779222  1
