# generated using pymatgen
data_ReAsC5SNO5F7
_symmetry_space_group_name_H-M   'P 1'
_cell_length_a   6.82286876
_cell_length_b   11.36689069
_cell_length_c   17.54944289
_cell_angle_alpha   90.00000000
_cell_angle_beta   90.00000000
_cell_angle_gamma   90.00000000
_symmetry_Int_Tables_number   1
_chemical_formula_structural   ReAsC5SNO5F7
_chemical_formula_sum   'Re4 As4 C20 S4 N4 O20 F28'
_cell_volume   1361.04359289
_cell_formula_units_Z   4
loop_
 _symmetry_equiv_pos_site_id
 _symmetry_equiv_pos_as_xyz
  1  'x, y, z'
loop_
 _atom_site_type_symbol
 _atom_site_label
 _atom_site_symmetry_multiplicity
 _atom_site_fract_x
 _atom_site_fract_y
 _atom_site_fract_z
 _atom_site_occupancy
  Re  Re0  1  0.768450  0.466786  0.129289  1
  Re  Re1  1  0.231550  0.966786  0.370711  1
  Re  Re2  1  0.731550  0.533214  0.629289  1
  Re  Re3  1  0.268450  0.033214  0.870711  1
  As  As4  1  0.783871  0.003346  0.630558  1
  As  As5  1  0.716129  0.996654  0.130558  1
  As  As6  1  0.216129  0.503346  0.869442  1
  As  As7  1  0.283871  0.496654  0.369442  1
  C  C8  1  0.841211  0.398654  0.693694  1
  C  C9  1  0.530010  0.948959  0.871489  1
  C  C10  1  0.839513  0.373807  0.222228  1
  C  C11  1  0.158789  0.898654  0.806306  1
  C  C12  1  0.501634  0.886059  0.373078  1
  C  C13  1  0.498366  0.386059  0.126922  1
  C  C14  1  0.969990  0.051041  0.371489  1
  C  C15  1  0.889053  0.336703  0.064075  1
  C  C16  1  0.469990  0.448959  0.628511  1
  C  C17  1  0.110947  0.836703  0.435925  1
  C  C18  1  0.389053  0.163297  0.935925  1
  C  C19  1  0.610947  0.663297  0.564075  1
  C  C20  1  0.341211  0.101346  0.306306  1
  C  C21  1  0.339513  0.126193  0.777772  1
  C  C22  1  0.658789  0.601346  0.193694  1
  C  C23  1  0.001634  0.613941  0.626922  1
  C  C24  1  0.160487  0.873807  0.277772  1
  C  C25  1  0.030010  0.551041  0.128511  1
  C  C26  1  0.998366  0.113941  0.873078  1
  C  C27  1  0.660487  0.626193  0.722228  1
  S  S28  1  0.200752  0.867443  0.034775  1
  S  S29  1  0.299248  0.132557  0.534775  1
  S  S30  1  0.799248  0.367443  0.465225  1
  S  S31  1  0.700752  0.632557  0.965225  1
  N  N32  1  0.307649  0.056188  0.469179  1
  N  N33  1  0.192351  0.943812  0.969179  1
  N  N34  1  0.807649  0.443812  0.530821  1
  N  N35  1  0.692351  0.556188  0.030821  1
  O  O36  1  0.962700  0.265417  0.027615  1
  O  O37  1  0.898508  0.322785  0.730604  1
  O  O38  1  0.177113  0.600485  0.127588  1
  O  O39  1  0.624348  0.683089  0.774877  1
  O  O40  1  0.124348  0.816911  0.225123  1
  O  O41  1  0.347711  0.340797  0.125737  1
  O  O42  1  0.822887  0.100485  0.372412  1
  O  O43  1  0.652289  0.840797  0.374263  1
  O  O44  1  0.537300  0.734583  0.527615  1
  O  O45  1  0.601492  0.677215  0.230604  1
  O  O46  1  0.152289  0.659203  0.625737  1
  O  O47  1  0.322887  0.399515  0.627588  1
  O  O48  1  0.375652  0.183089  0.725123  1
  O  O49  1  0.462700  0.234583  0.972385  1
  O  O50  1  0.875652  0.316911  0.274877  1
  O  O51  1  0.101492  0.822785  0.769396  1
  O  O52  1  0.677113  0.899515  0.872412  1
  O  O53  1  0.037300  0.765417  0.472385  1
  O  O54  1  0.847711  0.159203  0.874263  1
  O  O55  1  0.398508  0.177215  0.269396  1
  F  F56  1  0.167781  0.351050  0.857516  1
  F  F57  1  0.470484  0.473253  0.877231  1
  F  F58  1  0.970484  0.026747  0.122769  1
  F  F59  1  0.108308  0.226716  0.532871  1
  F  F60  1  0.038474  0.032873  0.640015  1
  F  F61  1  0.891692  0.726716  0.967129  1
  F  F62  1  0.769982  0.845666  0.116877  1
  F  F63  1  0.461526  0.967127  0.140015  1
  F  F64  1  0.391692  0.773284  0.032871  1
  F  F65  1  0.810936  0.987559  0.530277  1
  F  F66  1  0.529516  0.973253  0.622769  1
  F  F67  1  0.667781  0.148950  0.142484  1
  F  F68  1  0.689064  0.012441  0.030277  1
  F  F69  1  0.608308  0.273284  0.467129  1
  F  F70  1  0.832219  0.851050  0.642484  1
  F  F71  1  0.332219  0.648950  0.357516  1
  F  F72  1  0.259178  0.478358  0.269570  1
  F  F73  1  0.759178  0.021642  0.730430  1
  F  F74  1  0.740822  0.978358  0.230430  1
  F  F75  1  0.730018  0.154334  0.616877  1
  F  F76  1  0.538474  0.467127  0.359985  1
  F  F77  1  0.310936  0.512441  0.469723  1
  F  F78  1  0.029516  0.526747  0.377231  1
  F  F79  1  0.189064  0.487559  0.969723  1
  F  F80  1  0.230018  0.345666  0.383123  1
  F  F81  1  0.240822  0.521642  0.769570  1
  F  F82  1  0.961526  0.532873  0.859985  1
  F  F83  1  0.269982  0.654334  0.883123  1
