# generated using pymatgen
data_K3Cu(NO3)5
_symmetry_space_group_name_H-M   'P 1'
_cell_length_a   8.41317655
_cell_length_b   11.93978242
_cell_length_c   14.46184388
_cell_angle_alpha   90.00000000
_cell_angle_beta   90.00000000
_cell_angle_gamma   90.33184175
_symmetry_Int_Tables_number   1
_chemical_formula_structural   K3Cu(NO3)5
_chemical_formula_sum   'K12 Cu4 N20 O60'
_cell_volume   1452.68950830
_cell_formula_units_Z   4
loop_
 _symmetry_equiv_pos_site_id
 _symmetry_equiv_pos_as_xyz
  1  'x, y, z'
loop_
 _atom_site_type_symbol
 _atom_site_label
 _atom_site_symmetry_multiplicity
 _atom_site_fract_x
 _atom_site_fract_y
 _atom_site_fract_z
 _atom_site_occupancy
  K  K0  1  0.274077  0.050858  0.527763  1
  K  K1  1  0.261640  0.956360  0.040382  1
  K  K2  1  0.274077  0.550858  0.972237  1
  K  K3  1  0.738360  0.543640  0.540382  1
  K  K4  1  0.390188  0.286734  0.771392  1
  K  K5  1  0.261640  0.456360  0.459618  1
  K  K6  1  0.609812  0.713266  0.228608  1
  K  K7  1  0.390188  0.786734  0.728608  1
  K  K8  1  0.725923  0.449142  0.027763  1
  K  K9  1  0.725923  0.949142  0.472237  1
  K  K10  1  0.738360  0.043640  0.959618  1
  K  K11  1  0.609812  0.213266  0.271392  1
  Cu  Cu12  1  0.920718  0.680038  0.773376  1
  Cu  Cu13  1  0.079282  0.319962  0.226624  1
  Cu  Cu14  1  0.920718  0.180038  0.726624  1
  Cu  Cu15  1  0.079282  0.819962  0.273376  1
  N  N16  1  0.857575  0.969726  0.206499  1
  N  N17  1  0.652312  0.551963  0.804846  1
  N  N18  1  0.142425  0.530274  0.706499  1
  N  N19  1  0.036833  0.170054  0.368067  1
  N  N20  1  0.652312  0.051963  0.695154  1
  N  N21  1  0.036833  0.670054  0.131933  1
  N  N22  1  0.347688  0.948037  0.304846  1
  N  N23  1  0.962221  0.802419  0.923446  1
  N  N24  1  0.142425  0.030274  0.793501  1
  N  N25  1  0.963167  0.329946  0.868067  1
  N  N26  1  0.037779  0.697581  0.423446  1
  N  N27  1  0.538770  0.760710  0.995511  1
  N  N28  1  0.962221  0.302419  0.576554  1
  N  N29  1  0.963167  0.829946  0.631933  1
  N  N30  1  0.037779  0.197581  0.076554  1
  N  N31  1  0.347688  0.448037  0.195154  1
  N  N32  1  0.538770  0.260710  0.504489  1
  N  N33  1  0.857575  0.469726  0.293501  1
  N  N34  1  0.461230  0.739290  0.495511  1
  N  N35  1  0.461230  0.239290  0.004489  1
  O  O36  1  0.048777  0.631136  0.489472  1
  O  O37  1  0.787535  0.572603  0.845738  1
  O  O38  1  0.463375  0.761353  0.919575  1
  O  O39  1  0.851164  0.802527  0.860177  1
  O  O40  1  0.851164  0.302527  0.639823  1
  O  O41  1  0.434906  0.148146  0.961316  1
  O  O42  1  0.204158  0.957625  0.843376  1
  O  O43  1  0.434906  0.648146  0.538684  1
  O  O44  1  0.559005  0.485399  0.843672  1
  O  O45  1  0.212465  0.927397  0.345738  1
  O  O46  1  0.075001  0.235319  0.586152  1
  O  O47  1  0.951223  0.868864  0.989472  1
  O  O48  1  0.584202  0.168794  0.469673  1
  O  O49  1  0.536625  0.238647  0.080425  1
  O  O50  1  0.463375  0.261353  0.580425  1
  O  O51  1  0.376975  0.400625  0.270732  1
  O  O52  1  0.049516  0.289644  0.800455  1
  O  O53  1  0.822446  0.795936  0.624067  1
  O  O54  1  0.565094  0.351854  0.461316  1
  O  O55  1  0.006603  0.443985  0.308261  1
  O  O56  1  0.376975  0.900625  0.229268  1
  O  O57  1  0.975195  0.099763  0.420574  1
  O  O58  1  0.924999  0.264681  0.086152  1
  O  O59  1  0.536625  0.738647  0.419575  1
  O  O60  1  0.623025  0.599375  0.729268  1
  O  O61  1  0.415798  0.331206  0.969673  1
  O  O62  1  0.215253  0.579193  0.770638  1
  O  O63  1  0.924999  0.764681  0.413848  1
  O  O64  1  0.993397  0.556015  0.691739  1
  O  O65  1  0.048777  0.131136  0.010528  1
  O  O66  1  0.950484  0.710356  0.199545  1
  O  O67  1  0.565094  0.851854  0.038684  1
  O  O68  1  0.212465  0.427397  0.154262  1
  O  O69  1  0.795842  0.042375  0.156624  1
  O  O70  1  0.215253  0.079193  0.729362  1
  O  O71  1  0.559005  0.985399  0.656328  1
  O  O72  1  0.006603  0.943985  0.191739  1
  O  O73  1  0.993397  0.056015  0.808261  1
  O  O74  1  0.784747  0.420807  0.229362  1
  O  O75  1  0.623025  0.099375  0.770732  1
  O  O76  1  0.075001  0.735319  0.913848  1
  O  O77  1  0.024805  0.400237  0.920574  1
  O  O78  1  0.784747  0.920807  0.270638  1
  O  O79  1  0.177554  0.704064  0.124067  1
  O  O80  1  0.822446  0.295936  0.875933  1
  O  O81  1  0.795842  0.542375  0.343376  1
  O  O82  1  0.440995  0.514601  0.156328  1
  O  O83  1  0.148836  0.697473  0.360177  1
  O  O84  1  0.975195  0.599763  0.079426  1
  O  O85  1  0.148836  0.197473  0.139823  1
  O  O86  1  0.204158  0.457625  0.656624  1
  O  O87  1  0.177554  0.204064  0.375933  1
  O  O88  1  0.787535  0.072603  0.654262  1
  O  O89  1  0.024805  0.900237  0.579426  1
  O  O90  1  0.415798  0.831206  0.530327  1
  O  O91  1  0.951223  0.368864  0.510528  1
  O  O92  1  0.950484  0.210356  0.300455  1
  O  O93  1  0.440995  0.014601  0.343672  1
  O  O94  1  0.584202  0.668794  0.030327  1
  O  O95  1  0.049516  0.789644  0.699545  1
