# generated using pymatgen
data_Zr(WO4)2
_symmetry_space_group_name_H-M   'P 1'
_cell_length_a   9.00033775
_cell_length_b   9.29979848
_cell_length_c   27.56120030
_cell_angle_alpha   90.00000000
_cell_angle_beta   90.00000000
_cell_angle_gamma   90.00000000
_symmetry_Int_Tables_number   1
_chemical_formula_structural   Zr(WO4)2
_chemical_formula_sum   'Zr12 W24 O96'
_cell_volume   2306.90904783
_cell_formula_units_Z   12
loop_
 _symmetry_equiv_pos_site_id
 _symmetry_equiv_pos_as_xyz
  1  'x, y, z'
loop_
 _atom_site_type_symbol
 _atom_site_label
 _atom_site_symmetry_multiplicity
 _atom_site_fract_x
 _atom_site_fract_y
 _atom_site_fract_z
 _atom_site_occupancy
  Zr  Zr0  1  0.727131  0.777082  0.575669  1
  Zr  Zr1  1  0.231838  0.757463  0.745941  1
  Zr  Zr2  1  0.176374  0.711529  0.077530  1
  Zr  Zr3  1  0.772869  0.222918  0.075669  1
  Zr  Zr4  1  0.268162  0.242537  0.245941  1
  Zr  Zr5  1  0.823626  0.211529  0.422470  1
  Zr  Zr6  1  0.676374  0.788471  0.922470  1
  Zr  Zr7  1  0.227131  0.722918  0.424331  1
  Zr  Zr8  1  0.731838  0.742537  0.254059  1
  Zr  Zr9  1  0.272869  0.277082  0.924331  1
  Zr  Zr10  1  0.768162  0.257463  0.754059  1
  Zr  Zr11  1  0.323626  0.288471  0.577530  1
  W  W12  1  0.224879  0.119487  0.378076  1
  W  W13  1  0.585944  0.900190  0.375119  1
  W  W14  1  0.961075  0.101809  0.552249  1
  W  W15  1  0.775121  0.619487  0.121924  1
  W  W16  1  0.648131  0.856380  0.716422  1
  W  W17  1  0.851869  0.143620  0.216422  1
  W  W18  1  0.414056  0.400190  0.124881  1
  W  W19  1  0.038925  0.601809  0.947751  1
  W  W20  1  0.085944  0.599810  0.624881  1
  W  W21  1  0.310003  0.876122  0.553717  1
  W  W22  1  0.914056  0.099810  0.875119  1
  W  W23  1  0.117201  0.126440  0.684666  1
  W  W24  1  0.461075  0.398191  0.447751  1
  W  W25  1  0.382799  0.873560  0.184666  1
  W  W26  1  0.689997  0.376122  0.946283  1
  W  W27  1  0.882799  0.626440  0.815334  1
  W  W28  1  0.351869  0.356380  0.783578  1
  W  W29  1  0.810003  0.623878  0.446283  1
  W  W30  1  0.617201  0.373560  0.315334  1
  W  W31  1  0.724879  0.380513  0.621924  1
  W  W32  1  0.275121  0.880513  0.878076  1
  W  W33  1  0.189997  0.123878  0.053717  1
  W  W34  1  0.148131  0.643620  0.283578  1
  W  W35  1  0.538925  0.898191  0.052249  1
  O  O36  1  0.718483  0.293388  0.006393  1
  O  O37  1  0.299756  0.522580  0.432552  1
  O  O38  1  0.948133  0.458734  0.637748  1
  O  O39  1  0.255919  0.765261  0.247278  1
  O  O40  1  0.799756  0.977420  0.567448  1
  O  O41  1  0.823243  0.257786  0.581150  1
  O  O42  1  0.597381  0.542509  0.458682  1
  O  O43  1  0.735138  0.721930  0.394843  1
  O  O44  1  0.097143  0.642718  0.010424  1
  O  O45  1  0.195178  0.670790  0.346508  1
  O  O46  1  0.013119  0.068715  0.632027  1
  O  O47  1  0.640194  0.851446  0.312715  1
  O  O48  1  0.327244  0.046285  0.212804  1
  O  O49  1  0.172756  0.953715  0.712804  1
  O  O50  1  0.551867  0.541266  0.137748  1
  O  O51  1  0.963779  0.684835  0.108347  1
  O  O52  1  0.676757  0.742214  0.081150  1
  O  O53  1  0.817437  0.955753  0.233332  1
  O  O54  1  0.176757  0.757786  0.918850  1
  O  O55  1  0.281517  0.793388  0.493607  1
  O  O56  1  0.965848  0.217030  0.718052  1
  O  O57  1  0.902857  0.142718  0.489576  1
  O  O58  1  0.452587  0.808388  0.723535  1
  O  O59  1  0.536221  0.315165  0.608347  1
  O  O60  1  0.191340  0.937694  0.399522  1
  O  O61  1  0.227809  0.492717  0.592914  1
  O  O62  1  0.288226  0.851513  0.811921  1
  O  O63  1  0.858476  0.431934  0.436363  1
  O  O64  1  0.051867  0.958734  0.862252  1
  O  O65  1  0.358476  0.068066  0.563637  1
  O  O66  1  0.448133  0.041266  0.362252  1
  O  O67  1  0.691340  0.562306  0.600478  1
  O  O68  1  0.827244  0.453715  0.787196  1
  O  O69  1  0.547513  0.286109  0.093488  1
  O  O70  1  0.036221  0.184835  0.391653  1
  O  O71  1  0.695178  0.829210  0.653492  1
  O  O72  1  0.047513  0.213891  0.906512  1
  O  O73  1  0.242095  0.772488  0.151192  1
  O  O74  1  0.757905  0.272488  0.348808  1
  O  O75  1  0.463779  0.815165  0.891653  1
  O  O76  1  0.218483  0.206612  0.993607  1
  O  O77  1  0.141524  0.931934  0.063637  1
  O  O78  1  0.211774  0.148487  0.311921  1
  O  O79  1  0.993153  0.186491  0.060492  1
  O  O80  1  0.465848  0.282970  0.281948  1
  O  O81  1  0.264862  0.221930  0.105157  1
  O  O82  1  0.672756  0.546285  0.287196  1
  O  O83  1  0.788226  0.648487  0.188079  1
  O  O84  1  0.700244  0.022580  0.067448  1
  O  O85  1  0.110496  0.241436  0.557345  1
  O  O86  1  0.682563  0.044247  0.733332  1
  O  O87  1  0.006847  0.686491  0.439508  1
  O  O88  1  0.808660  0.437694  0.100478  1
  O  O89  1  0.610496  0.258564  0.442655  1
  O  O90  1  0.034152  0.717030  0.781948  1
  O  O91  1  0.097381  0.957491  0.541318  1
  O  O92  1  0.304822  0.329210  0.846508  1
  O  O93  1  0.047413  0.191612  0.223535  1
  O  O94  1  0.804822  0.170790  0.153492  1
  O  O95  1  0.235138  0.778070  0.605157  1
  O  O96  1  0.359806  0.351446  0.187285  1
  O  O97  1  0.902619  0.457491  0.958682  1
  O  O98  1  0.493153  0.313509  0.939508  1
  O  O99  1  0.317437  0.544247  0.766668  1
  O  O100  1  0.534152  0.782970  0.218052  1
  O  O101  1  0.244081  0.234739  0.747278  1
  O  O102  1  0.182563  0.455753  0.266668  1
  O  O103  1  0.140194  0.648554  0.687285  1
  O  O104  1  0.755919  0.734739  0.752722  1
  O  O105  1  0.772191  0.992717  0.907086  1
  O  O106  1  0.402857  0.357282  0.510424  1
  O  O107  1  0.597143  0.857282  0.989576  1
  O  O108  1  0.323243  0.242214  0.418850  1
  O  O109  1  0.452487  0.786109  0.406512  1
  O  O110  1  0.200244  0.477420  0.932552  1
  O  O111  1  0.547413  0.308388  0.776465  1
  O  O112  1  0.986881  0.568715  0.867973  1
  O  O113  1  0.641524  0.568066  0.936363  1
  O  O114  1  0.744081  0.265261  0.252722  1
  O  O115  1  0.257905  0.227512  0.651192  1
  O  O116  1  0.727809  0.007283  0.407086  1
  O  O117  1  0.389504  0.758564  0.057345  1
  O  O118  1  0.506847  0.813509  0.560492  1
  O  O119  1  0.764862  0.278070  0.894843  1
  O  O120  1  0.308660  0.062306  0.899522  1
  O  O121  1  0.402619  0.042509  0.041318  1
  O  O122  1  0.952487  0.713891  0.593488  1
  O  O123  1  0.486881  0.931285  0.132027  1
  O  O124  1  0.513119  0.431285  0.367973  1
  O  O125  1  0.889504  0.741436  0.942655  1
  O  O126  1  0.742095  0.727512  0.848808  1
  O  O127  1  0.952587  0.691612  0.276465  1
  O  O128  1  0.859806  0.148554  0.812715  1
  O  O129  1  0.272191  0.507283  0.092914  1
  O  O130  1  0.711774  0.351513  0.688079  1
  O  O131  1  0.781517  0.706612  0.506393  1
