# generated using pymatgen
data_BaBi4(ClO3)2
_symmetry_space_group_name_H-M   'P 1'
_cell_length_a   3.99853868
_cell_length_b   3.99853838
_cell_length_c   16.84739183
_cell_angle_alpha   96.81531886
_cell_angle_beta   96.81531810
_cell_angle_gamma   90.00000497
_symmetry_Int_Tables_number   1
_chemical_formula_structural   BaBi4(ClO3)2
_chemical_formula_sum   'Ba1 Bi4 Cl2 O6'
_cell_volume   265.54097372
_cell_formula_units_Z   1
loop_
 _symmetry_equiv_pos_site_id
 _symmetry_equiv_pos_as_xyz
  1  'x, y, z'
loop_
 _atom_site_type_symbol
 _atom_site_label
 _atom_site_symmetry_multiplicity
 _atom_site_fract_x
 _atom_site_fract_y
 _atom_site_fract_z
 _atom_site_occupancy
  Ba  Ba0  1  0.500000  0.500000  0.000000  1
  Bi  Bi1  1  0.212778  0.212778  0.425555  1
  Bi  Bi2  1  0.787222  0.787222  0.574445  1
  Bi  Bi3  1  0.914959  0.914959  0.829919  1
  Bi  Bi4  1  0.085041  0.085041  0.170081  1
  Cl  Cl5  1  0.329688  0.329688  0.659377  1
  Cl  Cl6  1  0.670312  0.670312  0.340623  1
  O  O7  1  0.443835  0.943835  0.887670  1
  O  O8  1  0.056165  0.556165  0.112330  1
  O  O9  1  0.556165  0.056165  0.112330  1
  O  O10  1  0.943835  0.443835  0.887670  1
  O  O11  1  0.250000  0.750000  0.500000  1
  O  O12  1  0.750000  0.250000  0.500000  1
