# generated using pymatgen
data_PbCClO2
_symmetry_space_group_name_H-M   'P 1'
_cell_length_a   4.24401597
_cell_length_b   4.24401976
_cell_length_c   9.51729224
_cell_angle_alpha   86.48744111
_cell_angle_beta   86.48971001
_cell_angle_gamma   89.38685082
_symmetry_Int_Tables_number   1
_chemical_formula_structural   PbCClO2
_chemical_formula_sum   'Pb2 C2 Cl2 O4'
_cell_volume   170.77528814
_cell_formula_units_Z   2
loop_
 _symmetry_equiv_pos_site_id
 _symmetry_equiv_pos_as_xyz
  1  'x, y, z'
loop_
 _atom_site_type_symbol
 _atom_site_label
 _atom_site_symmetry_multiplicity
 _atom_site_fract_x
 _atom_site_fract_y
 _atom_site_fract_z
 _atom_site_occupancy
  C  C0  1  0.630424  0.369577  0.499999  1
  Pb  Pb1  1  0.771501  0.771496  0.777149  1
  C  C2  1  0.369573  0.630405  0.499977  1
  O  O3  1  0.328855  0.785874  0.609471  1
  O  O4  1  0.214152  0.671143  0.390549  1
  Cl  Cl5  1  0.727077  0.727078  0.116244  1
  Pb  Pb6  1  0.228493  0.228505  0.222854  1
  O  O7  1  0.785860  0.328855  0.609459  1
  O  O8  1  0.671142  0.214144  0.390543  1
  Cl  Cl9  1  0.272923  0.272922  0.883755  1
