# generated using pymatgen
data_Sm2Si5Ru3
_symmetry_space_group_name_H-M   'P 1'
_cell_length_a   5.68789615
_cell_length_b   11.06021046
_cell_length_c   11.06021046
_cell_angle_alpha   90.00000000
_cell_angle_beta   90.00000000
_cell_angle_gamma   90.00000000
_symmetry_Int_Tables_number   1
_chemical_formula_structural   Sm2Si5Ru3
_chemical_formula_sum   'Sm8 Si20 Ru12'
_cell_volume   695.79041304
_cell_formula_units_Z   4
loop_
 _symmetry_equiv_pos_site_id
 _symmetry_equiv_pos_as_xyz
  1  'x, y, z'
loop_
 _atom_site_type_symbol
 _atom_site_label
 _atom_site_symmetry_multiplicity
 _atom_site_fract_x
 _atom_site_fract_y
 _atom_site_fract_z
 _atom_site_occupancy
  Sm  Sm0  1  0.000000  0.280845  0.408584  1
  Sm  Sm1  1  0.000000  0.591416  0.280845  1
  Sm  Sm2  1  0.000000  0.408584  0.719155  1
  Sm  Sm3  1  0.000000  0.719155  0.591416  1
  Sm  Sm4  1  0.500000  0.780845  0.091416  1
  Sm  Sm5  1  0.500000  0.219155  0.908584  1
  Sm  Sm6  1  0.500000  0.908584  0.780845  1
  Sm  Sm7  1  0.500000  0.091416  0.219155  1
  Ru  Ru8  1  0.000000  0.000000  0.500000  1
  Ru  Ru9  1  0.000000  0.500000  0.000000  1
  Ru  Ru10  1  0.500000  0.500000  0.000000  1
  Ru  Ru11  1  0.500000  0.000000  0.500000  1
  Ru  Ru12  1  0.000000  0.157589  0.108109  1
  Ru  Ru13  1  0.000000  0.891891  0.157589  1
  Ru  Ru14  1  0.000000  0.108109  0.842411  1
  Ru  Ru15  1  0.000000  0.842411  0.891891  1
  Ru  Ru16  1  0.500000  0.657589  0.391891  1
  Ru  Ru17  1  0.500000  0.342411  0.608109  1
  Ru  Ru18  1  0.500000  0.608109  0.657589  1
  Ru  Ru19  1  0.500000  0.391891  0.342411  1
  Si  Si20  1  0.000000  0.296383  0.948194  1
  Si  Si21  1  0.000000  0.051806  0.296383  1
  Si  Si22  1  0.000000  0.948194  0.703617  1
  Si  Si23  1  0.000000  0.703617  0.051806  1
  Si  Si24  1  0.500000  0.796383  0.551806  1
  Si  Si25  1  0.500000  0.203617  0.448194  1
  Si  Si26  1  0.500000  0.448194  0.796383  1
  Si  Si27  1  0.500000  0.551806  0.203617  1
  Si  Si28  1  0.250000  0.140419  0.640419  1
  Si  Si29  1  0.250000  0.359581  0.140419  1
  Si  Si30  1  0.250000  0.640419  0.859581  1
  Si  Si31  1  0.250000  0.859581  0.359581  1
  Si  Si32  1  0.750000  0.859581  0.359581  1
  Si  Si33  1  0.750000  0.640419  0.859581  1
  Si  Si34  1  0.750000  0.359581  0.140419  1
  Si  Si35  1  0.750000  0.140419  0.640419  1
  Si  Si36  1  0.227945  0.000000  0.000000  1
  Si  Si37  1  0.272055  0.500000  0.500000  1
  Si  Si38  1  0.772055  0.000000  0.000000  1
  Si  Si39  1  0.727945  0.500000  0.500000  1
