# generated using pymatgen
data_K2Nd(PO3)5
_symmetry_space_group_name_H-M   'P 1'
_cell_length_a   7.25722265
_cell_length_b   7.25722321
_cell_length_c   13.40959957
_cell_angle_alpha   90.40402407
_cell_angle_beta   90.40402410
_cell_angle_gamma   108.10139785
_symmetry_Int_Tables_number   1
_chemical_formula_structural   K2Nd(PO3)5
_chemical_formula_sum   'K4 Nd2 P10 O30'
_cell_volume   671.24529194
_cell_formula_units_Z   2
loop_
 _symmetry_equiv_pos_site_id
 _symmetry_equiv_pos_as_xyz
  1  'x, y, z'
loop_
 _atom_site_type_symbol
 _atom_site_label
 _atom_site_symmetry_multiplicity
 _atom_site_fract_x
 _atom_site_fract_y
 _atom_site_fract_z
 _atom_site_occupancy
  K  K0  1  0.441011  0.204966  0.943323  1
  K  K1  1  0.299304  0.687790  0.745861  1
  K  K2  1  0.204966  0.441011  0.443323  1
  K  K3  1  0.687790  0.299304  0.245861  1
  Nd  Nd4  1  0.904172  0.096008  0.749605  1
  Nd  Nd5  1  0.096008  0.904172  0.249605  1
  P  P6  1  0.390704  0.996871  0.490097  1
  P  P7  1  0.613572  0.763846  0.941032  1
  P  P8  1  0.437760  0.229259  0.674025  1
  P  P9  1  0.814775  0.035076  0.470135  1
  P  P10  1  0.763846  0.613572  0.441032  1
  P  P11  1  0.803641  0.555114  0.658666  1
  P  P12  1  0.555114  0.803641  0.158666  1
  P  P13  1  0.035076  0.814775  0.970135  1
  P  P14  1  0.229259  0.437760  0.174025  1
  P  P15  1  0.996871  0.390704  0.990097  1
  O  O16  1  0.762772  0.842471  0.189392  1
  O  O17  1  0.917561  0.087846  0.372418  1
  O  O18  1  0.087846  0.917561  0.872418  1
  O  O19  1  0.569350  0.455655  0.666042  1
  O  O20  1  0.174390  0.370241  0.060357  1
  O  O21  1  0.805634  0.728808  0.983498  1
  O  O22  1  0.345944  0.812579  0.546749  1
  O  O23  1  0.812579  0.345944  0.046749  1
  O  O24  1  0.842471  0.762772  0.689392  1
  O  O25  1  0.232528  0.259316  0.229488  1
  O  O26  1  0.659056  0.931193  0.869586  1
  O  O27  1  0.438243  0.912042  0.211625  1
  O  O28  1  0.455655  0.569350  0.166042  1
  O  O29  1  0.279186  0.007481  0.397109  1
  O  O30  1  0.574919  0.477092  0.407152  1
  O  O31  1  0.844240  0.535956  0.541266  1
  O  O32  1  0.477092  0.574919  0.907152  1
  O  O33  1  0.559581  0.111064  0.712631  1
  O  O34  1  0.912042  0.438243  0.711625  1
  O  O35  1  0.123762  0.919636  0.064596  1
  O  O36  1  0.087514  0.616671  0.960145  1
  O  O37  1  0.370241  0.174390  0.560357  1
  O  O38  1  0.007481  0.279186  0.897109  1
  O  O39  1  0.728808  0.805634  0.483498  1
  O  O40  1  0.535956  0.844240  0.041266  1
  O  O41  1  0.616671  0.087514  0.460145  1
  O  O42  1  0.919636  0.123762  0.564596  1
  O  O43  1  0.931193  0.659056  0.369586  1
  O  O44  1  0.111064  0.559581  0.212631  1
  O  O45  1  0.259316  0.232528  0.729488  1
