# generated using pymatgen
data_Ba2Cu7(AsO4)6
_symmetry_space_group_name_H-M   'P 1'
_cell_length_a   5.31412798
_cell_length_b   8.58294407
_cell_length_c   11.57883751
_cell_angle_alpha   89.50354735
_cell_angle_beta   89.11804576
_cell_angle_gamma   85.94023250
_symmetry_Int_Tables_number   1
_chemical_formula_structural   Ba2Cu7(AsO4)6
_chemical_formula_sum   'Ba2 Cu7 As6 O24'
_cell_volume   526.71798100
_cell_formula_units_Z   1
loop_
 _symmetry_equiv_pos_site_id
 _symmetry_equiv_pos_as_xyz
  1  'x, y, z'
loop_
 _atom_site_type_symbol
 _atom_site_label
 _atom_site_symmetry_multiplicity
 _atom_site_fract_x
 _atom_site_fract_y
 _atom_site_fract_z
 _atom_site_occupancy
  Ba  Ba0  1  0.997337  0.551050  0.825217  1
  Ba  Ba1  1  0.002663  0.448950  0.174783  1
  Cu  Cu2  1  0.458865  0.081282  0.182558  1
  Cu  Cu3  1  0.500000  0.000000  0.500000  1
  Cu  Cu4  1  0.475791  0.729098  0.333222  1
  Cu  Cu5  1  0.524209  0.270902  0.666778  1
  Cu  Cu6  1  0.541135  0.918718  0.817442  1
  Cu  Cu7  1  0.000000  0.000000  0.000000  1
  Cu  Cu8  1  0.000000  0.500000  0.500000  1
  As  As9  1  0.523902  0.338664  0.389712  1
  As  As10  1  0.976617  0.925095  0.277744  1
  As  As11  1  0.538705  0.261451  0.944248  1
  As  As12  1  0.476098  0.661336  0.610288  1
  As  As13  1  0.023383  0.074905  0.722256  1
  As  As14  1  0.461295  0.738549  0.055752  1
  O  O15  1  0.698819  0.502774  0.398539  1
  O  O16  1  0.879645  0.262965  0.720737  1
  O  O17  1  0.821790  0.987129  0.148622  1
  O  O18  1  0.235531  0.621452  0.015292  1
  O  O19  1  0.313233  0.241521  0.049087  1
  O  O20  1  0.396745  0.330190  0.817396  1
  O  O21  1  0.606288  0.257211  0.258836  1
  O  O22  1  0.691713  0.074722  0.914581  1
  O  O23  1  0.308287  0.925278  0.085419  1
  O  O24  1  0.615972  0.212623  0.503732  1
  O  O25  1  0.721845  0.907646  0.373180  1
  O  O26  1  0.191769  0.057198  0.311153  1
  O  O27  1  0.206968  0.394675  0.384686  1
  O  O28  1  0.393712  0.742789  0.741164  1
  O  O29  1  0.384028  0.787377  0.496268  1
  O  O30  1  0.278155  0.092354  0.626820  1
  O  O31  1  0.178210  0.012871  0.851378  1
  O  O32  1  0.603255  0.669810  0.182604  1
  O  O33  1  0.764469  0.378548  0.984708  1
  O  O34  1  0.301181  0.497226  0.601461  1
  O  O35  1  0.808231  0.942802  0.688847  1
  O  O36  1  0.793032  0.605325  0.615314  1
  O  O37  1  0.686767  0.758479  0.950913  1
  O  O38  1  0.120355  0.737035  0.279263  1
