# generated using pymatgen
data_Mo(SeCl6)2
_symmetry_space_group_name_H-M   'P 1'
_cell_length_a   9.00314627
_cell_length_b   9.00314592
_cell_length_c   12.80207752
_cell_angle_alpha   109.61228839
_cell_angle_beta   109.61228765
_cell_angle_gamma   92.60388249
_symmetry_Int_Tables_number   1
_chemical_formula_structural   Mo(SeCl6)2
_chemical_formula_sum   'Mo2 Se4 Cl24'
_cell_volume   906.05110701
_cell_formula_units_Z   2
loop_
 _symmetry_equiv_pos_site_id
 _symmetry_equiv_pos_as_xyz
  1  'x, y, z'
loop_
 _atom_site_type_symbol
 _atom_site_label
 _atom_site_symmetry_multiplicity
 _atom_site_fract_x
 _atom_site_fract_y
 _atom_site_fract_z
 _atom_site_occupancy
  Mo  Mo0  1  0.123643  0.623643  0.247285  1
  Mo  Mo1  1  0.873643  0.873643  0.747285  1
  Se  Se2  1  0.938248  0.982594  0.411085  1
  Se  Se3  1  0.232594  0.688248  0.911085  1
  Se  Se4  1  0.472836  0.428491  0.411085  1
  Se  Se5  1  0.678491  0.222836  0.911085  1
  Cl  Cl6  1  0.011725  0.363775  0.101932  1
  Cl  Cl7  1  0.232601  0.884714  0.401309  1
  Cl  Cl8  1  0.168708  0.516595  0.401309  1
  Cl  Cl9  1  0.830904  0.140714  0.753550  1
  Cl  Cl10  1  0.501923  0.334302  0.556326  1
  Cl  Cl11  1  0.988157  0.840207  0.601932  1
  Cl  Cl12  1  0.314117  0.662582  0.763462  1
  Cl  Cl13  1  0.689026  0.980372  0.401644  1
  Cl  Cl14  1  0.350880  0.199345  0.263462  1
  Cl  Cl15  1  0.584302  0.251923  0.056326  1
  Cl  Cl16  1  0.449345  0.100880  0.763462  1
  Cl  Cl17  1  0.862836  0.672646  0.253550  1
  Cl  Cl18  1  0.472024  0.804403  0.056326  1
  Cl  Cl19  1  0.613775  0.761725  0.601932  1
  Cl  Cl20  1  0.230372  0.439026  0.901644  1
  Cl  Cl21  1  0.054403  0.222024  0.556326  1
  Cl  Cl22  1  0.766595  0.918708  0.901309  1
  Cl  Cl23  1  0.712619  0.421272  0.401644  1
  Cl  Cl24  1  0.134714  0.982601  0.901309  1
  Cl  Cl25  1  0.090207  0.738157  0.101932  1
  Cl  Cl26  1  0.912582  0.064117  0.263462  1
  Cl  Cl27  1  0.390714  0.580904  0.253550  1
  Cl  Cl28  1  0.671272  0.462619  0.901644  1
  Cl  Cl29  1  0.922646  0.612836  0.753550  1
