# generated using pymatgen
data_TiP2Cl8O3
_symmetry_space_group_name_H-M   'P 1'
_cell_length_a   9.03420734
_cell_length_b   10.65722247
_cell_length_c   16.01733338
_cell_angle_alpha   90.00000000
_cell_angle_beta   90.00000000
_cell_angle_gamma   98.23585468
_symmetry_Int_Tables_number   1
_chemical_formula_structural   TiP2Cl8O3
_chemical_formula_sum   'Ti4 P8 Cl32 O12'
_cell_volume   1526.23732485
_cell_formula_units_Z   4
loop_
 _symmetry_equiv_pos_site_id
 _symmetry_equiv_pos_as_xyz
  1  'x, y, z'
loop_
 _atom_site_type_symbol
 _atom_site_label
 _atom_site_symmetry_multiplicity
 _atom_site_fract_x
 _atom_site_fract_y
 _atom_site_fract_z
 _atom_site_occupancy
  Ti  Ti0  1  0.425271  0.635785  0.366912  1
  Ti  Ti1  1  0.925271  0.135785  0.133088  1
  Ti  Ti2  1  0.574729  0.364215  0.633088  1
  Ti  Ti3  1  0.074729  0.864215  0.866912  1
  P  P4  1  0.203935  0.216207  0.570188  1
  P  P5  1  0.399081  0.620504  0.582623  1
  P  P6  1  0.796065  0.783793  0.429812  1
  P  P7  1  0.899081  0.120504  0.917377  1
  P  P8  1  0.100919  0.879496  0.082623  1
  P  P9  1  0.703935  0.716207  0.929812  1
  P  P10  1  0.296065  0.283793  0.070188  1
  P  P11  1  0.600919  0.379496  0.417377  1
  Cl  Cl12  1  0.023748  0.699600  0.114831  1
  Cl  Cl13  1  0.703639  0.083561  0.856150  1
  Cl  Cl14  1  0.961008  0.845161  0.741538  1
  Cl  Cl15  1  0.412492  0.301365  0.175355  1
  Cl  Cl16  1  0.881568  0.339204  0.126197  1
  Cl  Cl17  1  0.618432  0.160796  0.626197  1
  Cl  Cl18  1  0.721680  0.540247  0.965855  1
  Cl  Cl19  1  0.476252  0.800400  0.614830  1
  Cl  Cl20  1  0.523748  0.199600  0.385169  1
  Cl  Cl21  1  0.221680  0.040247  0.534145  1
  Cl  Cl22  1  0.700099  0.049953  0.177761  1
  Cl  Cl23  1  0.087508  0.198635  0.675355  1
  Cl  Cl24  1  0.118432  0.660796  0.873803  1
  Cl  Cl25  1  0.926855  0.717629  0.514011  1
  Cl  Cl26  1  0.426855  0.217629  0.985989  1
  Cl  Cl27  1  0.976252  0.300400  0.885170  1
  Cl  Cl28  1  0.299901  0.950047  0.822239  1
  Cl  Cl29  1  0.912492  0.801365  0.324645  1
  Cl  Cl30  1  0.573145  0.782371  0.014011  1
  Cl  Cl31  1  0.038992  0.154839  0.258462  1
  Cl  Cl32  1  0.796361  0.416439  0.356150  1
  Cl  Cl33  1  0.538992  0.654839  0.241538  1
  Cl  Cl34  1  0.073145  0.282371  0.485989  1
  Cl  Cl35  1  0.461008  0.345161  0.758462  1
  Cl  Cl36  1  0.200099  0.549953  0.322239  1
  Cl  Cl37  1  0.587508  0.698635  0.824645  1
  Cl  Cl38  1  0.778320  0.959753  0.465855  1
  Cl  Cl39  1  0.278320  0.459753  0.034145  1
  Cl  Cl40  1  0.799901  0.450047  0.677761  1
  Cl  Cl41  1  0.296361  0.916439  0.143850  1
  Cl  Cl42  1  0.381568  0.839204  0.373803  1
  Cl  Cl43  1  0.203639  0.583561  0.643850  1
  O  O44  1  0.850426  0.798779  0.923130  1
  O  O45  1  0.506610  0.537844  0.617277  1
  O  O46  1  0.133776  0.886058  0.990431  1
  O  O47  1  0.006610  0.037844  0.882723  1
  O  O48  1  0.493390  0.462156  0.382723  1
  O  O49  1  0.649574  0.701221  0.423130  1
  O  O50  1  0.993390  0.962156  0.117277  1
  O  O51  1  0.149574  0.201221  0.076870  1
  O  O52  1  0.350426  0.298779  0.576870  1
  O  O53  1  0.633776  0.386058  0.509569  1
  O  O54  1  0.866224  0.113942  0.009569  1
  O  O55  1  0.366224  0.613942  0.490431  1
