# generated using pymatgen
data_CaCuSn
_symmetry_space_group_name_H-M   'P 1'
_cell_length_a   4.61465273
_cell_length_b   7.96044862
_cell_length_c   11.93141745
_cell_angle_alpha   109.48693497
_cell_angle_beta   101.15024352
_cell_angle_gamma   90.00000082
_symmetry_Int_Tables_number   1
_chemical_formula_structural   CaCuSn
_chemical_formula_sum   'Ca6 Cu6 Sn6'
_cell_volume   404.40353915
_cell_formula_units_Z   6
loop_
 _symmetry_equiv_pos_site_id
 _symmetry_equiv_pos_as_xyz
  1  'x, y, z'
loop_
 _atom_site_type_symbol
 _atom_site_label
 _atom_site_symmetry_multiplicity
 _atom_site_fract_x
 _atom_site_fract_y
 _atom_site_fract_z
 _atom_site_occupancy
  Ca  Ca0  1  0.834877  0.909587  0.669753  1
  Ca  Ca1  1  0.668774  0.668347  0.337548  1
  Ca  Ca2  1  0.500000  0.574846  0.000000  1
  Ca  Ca3  1  0.000000  0.998735  0.000000  1
  Ca  Ca4  1  0.165123  0.239834  0.330247  1
  Ca  Ca5  1  0.331226  0.330799  0.662452  1
  Cu  Cu6  1  0.768038  0.470183  0.536075  1
  Cu  Cu7  1  0.927537  0.299495  0.855073  1
  Cu  Cu8  1  0.231962  0.934108  0.463925  1
  Cu  Cu9  1  0.603082  0.974009  0.206165  1
  Cu  Cu10  1  0.072463  0.444422  0.144927  1
  Cu  Cu11  1  0.396917  0.767844  0.793835  1
  Sn  Sn12  1  0.431410  0.132780  0.862820  1
  Sn  Sn13  1  0.902522  0.603154  0.805043  1
  Sn  Sn14  1  0.266020  0.639913  0.532041  1
  Sn  Sn15  1  0.733980  0.107873  0.467959  1
  Sn  Sn16  1  0.568590  0.269960  0.137180  1
  Sn  Sn17  1  0.097478  0.798111  0.194957  1
