# generated using pymatgen
data_TaPNCl7
_symmetry_space_group_name_H-M   'P 1'
_cell_length_a   6.90363799
_cell_length_b   11.72491123
_cell_length_c   15.19363601
_cell_angle_alpha   90.00000000
_cell_angle_beta   100.29186269
_cell_angle_gamma   90.00000000
_symmetry_Int_Tables_number   1
_chemical_formula_structural   TaPNCl7
_chemical_formula_sum   'Ta4 P4 N4 Cl28'
_cell_volume   1210.05428010
_cell_formula_units_Z   4
loop_
 _symmetry_equiv_pos_site_id
 _symmetry_equiv_pos_as_xyz
  1  'x, y, z'
loop_
 _atom_site_type_symbol
 _atom_site_label
 _atom_site_symmetry_multiplicity
 _atom_site_fract_x
 _atom_site_fract_y
 _atom_site_fract_z
 _atom_site_occupancy
  Ta  Ta0  1  0.599352  0.919904  0.619683  1
  Ta  Ta1  1  0.099352  0.580096  0.119683  1
  Ta  Ta2  1  0.900648  0.419904  0.880317  1
  Ta  Ta3  1  0.400648  0.080096  0.380317  1
  P  P4  1  0.551670  0.070464  0.182307  1
  P  P5  1  0.448330  0.929536  0.817693  1
  P  P6  1  0.948330  0.570464  0.317693  1
  P  P7  1  0.051670  0.429536  0.682307  1
  N  N8  1  0.998973  0.604817  0.225668  1
  N  N9  1  0.501027  0.104817  0.274332  1
  N  N10  1  0.001027  0.395183  0.774332  1
  N  N11  1  0.498973  0.895183  0.725668  1
  Cl  Cl12  1  0.265993  0.900508  0.336975  1
  Cl  Cl13  1  0.801141  0.477939  0.041219  1
  Cl  Cl14  1  0.301141  0.022061  0.541219  1
  Cl  Cl15  1  0.698859  0.977939  0.458781  1
  Cl  Cl16  1  0.907579  0.835330  0.652310  1
  Cl  Cl17  1  0.320203  0.008441  0.097584  1
  Cl  Cl18  1  0.734007  0.099492  0.663025  1
  Cl  Cl19  1  0.092421  0.164670  0.347690  1
  Cl  Cl20  1  0.967998  0.745455  0.043777  1
  Cl  Cl21  1  0.467998  0.754545  0.543777  1
  Cl  Cl22  1  0.592421  0.335330  0.847690  1
  Cl  Cl23  1  0.651679  0.199270  0.117859  1
  Cl  Cl24  1  0.679797  0.991559  0.902416  1
  Cl  Cl25  1  0.820203  0.491559  0.597584  1
  Cl  Cl26  1  0.198859  0.522061  0.958781  1
  Cl  Cl27  1  0.532002  0.245455  0.456223  1
  Cl  Cl28  1  0.234007  0.400508  0.163025  1
  Cl  Cl29  1  0.179797  0.508441  0.402416  1
  Cl  Cl30  1  0.151679  0.300730  0.617859  1
  Cl  Cl31  1  0.407579  0.664670  0.152310  1
  Cl  Cl32  1  0.241896  0.049973  0.809512  1
  Cl  Cl33  1  0.765993  0.599492  0.836975  1
  Cl  Cl34  1  0.848321  0.699270  0.382141  1
  Cl  Cl35  1  0.258104  0.549973  0.690488  1
  Cl  Cl36  1  0.032002  0.254545  0.956223  1
  Cl  Cl37  1  0.758104  0.950027  0.190488  1
  Cl  Cl38  1  0.348321  0.800730  0.882141  1
  Cl  Cl39  1  0.741896  0.450027  0.309512  1
