# generated using pymatgen
data_K2MoSeO6
_symmetry_space_group_name_H-M   'P 1'
_cell_length_a   6.29360705
_cell_length_b   7.77543268
_cell_length_c   15.55646478
_cell_angle_alpha   90.00000000
_cell_angle_beta   90.00000000
_cell_angle_gamma   112.68490529
_symmetry_Int_Tables_number   1
_chemical_formula_structural   K2MoSeO6
_chemical_formula_sum   'K8 Mo4 Se4 O24'
_cell_volume   702.37209521
_cell_formula_units_Z   4
loop_
 _symmetry_equiv_pos_site_id
 _symmetry_equiv_pos_as_xyz
  1  'x, y, z'
loop_
 _atom_site_type_symbol
 _atom_site_label
 _atom_site_symmetry_multiplicity
 _atom_site_fract_x
 _atom_site_fract_y
 _atom_site_fract_z
 _atom_site_occupancy
  K  K0  1  0.105761  0.313357  0.054324  1
  K  K1  1  0.641786  0.389187  0.198281  1
  K  K2  1  0.894239  0.686643  0.945676  1
  K  K3  1  0.105761  0.813357  0.445676  1
  K  K4  1  0.358214  0.610813  0.801719  1
  K  K5  1  0.358214  0.110813  0.698281  1
  K  K6  1  0.894239  0.186643  0.554324  1
  K  K7  1  0.641786  0.889187  0.301719  1
  Mo  Mo8  1  0.539392  0.183183  0.936940  1
  Mo  Mo9  1  0.460608  0.316817  0.436940  1
  Mo  Mo10  1  0.460608  0.816817  0.063060  1
  Mo  Mo11  1  0.539392  0.683183  0.563060  1
  Se  Se12  1  0.898425  0.121842  0.826158  1
  Se  Se13  1  0.898425  0.621842  0.673842  1
  Se  Se14  1  0.101575  0.878158  0.173842  1
  Se  Se15  1  0.101575  0.378158  0.326158  1
  O  O16  1  0.049079  0.277012  0.228631  1
  O  O17  1  0.629027  0.347962  0.022220  1
  O  O18  1  0.585164  0.709272  0.136771  1
  O  O19  1  0.404130  0.491416  0.335393  1
  O  O20  1  0.404130  0.991416  0.164607  1
  O  O21  1  0.291348  0.491931  0.519628  1
  O  O22  1  0.049079  0.777012  0.271369  1
  O  O23  1  0.708652  0.008069  0.019628  1
  O  O24  1  0.370973  0.152038  0.522220  1
  O  O25  1  0.894568  0.801677  0.604188  1
  O  O26  1  0.105432  0.198323  0.395812  1
  O  O27  1  0.291348  0.991931  0.980372  1
  O  O28  1  0.708652  0.508069  0.480372  1
  O  O29  1  0.629027  0.847962  0.477780  1
  O  O30  1  0.950921  0.722988  0.771369  1
  O  O31  1  0.894568  0.301677  0.895812  1
  O  O32  1  0.414836  0.790728  0.636771  1
  O  O33  1  0.585164  0.209272  0.363229  1
  O  O34  1  0.370973  0.652038  0.977780  1
  O  O35  1  0.950921  0.222988  0.728631  1
  O  O36  1  0.414836  0.290728  0.863229  1
  O  O37  1  0.595870  0.008584  0.835393  1
  O  O38  1  0.105432  0.698323  0.104188  1
  O  O39  1  0.595870  0.508584  0.664607  1
