# generated using pymatgen
data_NaP(WO4)2
_symmetry_space_group_name_H-M   'P 1'
_cell_length_a   5.55927655
_cell_length_b   6.76075016
_cell_length_c   9.11944427
_cell_angle_alpha   98.67060739
_cell_angle_beta   90.00000000
_cell_angle_gamma   90.00000000
_symmetry_Int_Tables_number   1
_chemical_formula_structural   NaP(WO4)2
_chemical_formula_sum   'Na2 P2 W4 O16'
_cell_volume   338.83601125
_cell_formula_units_Z   2
loop_
 _symmetry_equiv_pos_site_id
 _symmetry_equiv_pos_as_xyz
  1  'x, y, z'
loop_
 _atom_site_type_symbol
 _atom_site_label
 _atom_site_symmetry_multiplicity
 _atom_site_fract_x
 _atom_site_fract_y
 _atom_site_fract_z
 _atom_site_occupancy
  Na  Na0  1  0.250000  0.726080  0.565825  1
  Na  Na1  1  0.750000  0.273920  0.434175  1
  P  P2  1  0.250000  0.219142  0.623094  1
  P  P3  1  0.750000  0.780858  0.376906  1
  W  W4  1  0.750000  0.947513  0.753828  1
  W  W5  1  0.250000  0.637300  0.908026  1
  W  W6  1  0.750000  0.362700  0.091974  1
  W  W7  1  0.250000  0.052487  0.246172  1
  O  O8  1  0.482158  0.106522  0.650719  1
  O  O9  1  0.982158  0.893478  0.349281  1
  O  O10  1  0.250000  0.433945  0.709079  1
  O  O11  1  0.495725  0.778233  0.806209  1
  O  O12  1  0.004275  0.778233  0.806209  1
  O  O13  1  0.750000  0.566055  0.290921  1
  O  O14  1  0.517842  0.893478  0.349281  1
  O  O15  1  0.500000  0.500000  0.000000  1
  O  O16  1  0.250000  0.245861  0.455292  1
  O  O17  1  0.017842  0.106522  0.650719  1
  O  O18  1  0.750000  0.144652  0.915987  1
  O  O19  1  0.995725  0.221767  0.193791  1
  O  O20  1  0.504275  0.221767  0.193791  1
  O  O21  1  0.000000  0.500000  0.000000  1
  O  O22  1  0.750000  0.754139  0.544708  1
  O  O23  1  0.250000  0.855348  0.084013  1
