# generated using pymatgen
data_Er3(CuSi)4
_symmetry_space_group_name_H-M   'P 1'
_cell_length_a   4.10243033
_cell_length_b   6.52404880
_cell_length_c   7.81090605
_cell_angle_alpha   114.68615272
_cell_angle_beta   105.22493454
_cell_angle_gamma   90.00000004
_symmetry_Int_Tables_number   1
_chemical_formula_structural   Er3(CuSi)4
_chemical_formula_sum   'Er3 Si4 Cu4'
_cell_volume   181.84234093
_cell_formula_units_Z   1
loop_
 _symmetry_equiv_pos_site_id
 _symmetry_equiv_pos_as_xyz
  1  'x, y, z'
loop_
 _atom_site_type_symbol
 _atom_site_label
 _atom_site_symmetry_multiplicity
 _atom_site_fract_x
 _atom_site_fract_y
 _atom_site_fract_z
 _atom_site_occupancy
  Si  Si0  1  0.499994  0.814788  -0.000013  1
  Si  Si1  1  0.500006  0.185212  1.000013  1
  Si  Si2  1  0.783685  0.283703  0.567370  1
  Si  Si3  1  0.216315  0.716297  0.432630  1
  Cu  Cu4  1  0.331053  0.522386  0.662107  1
  Cu  Cu5  1  0.668927  0.860190  0.337854  1
  Cu  Cu6  1  0.331073  0.139810  0.662146  1
  Cu  Cu7  1  0.668947  0.477614  0.337893  1
  Er  Er8  1  0.870614  0.870627  0.741227  1
  Er  Er9  1  0.129386  0.129373  0.258773  1
  Er  Er10  1  0.000000  0.500000  0.000000  1
