# generated using pymatgen
data_Sr11InSb9
_symmetry_space_group_name_H-M   'P 1'
_cell_length_a   12.54396052
_cell_length_b   12.71774106
_cell_length_c   12.71774105
_cell_angle_alpha   62.84564151
_cell_angle_beta   60.45099355
_cell_angle_gamma   60.45099336
_symmetry_Int_Tables_number   1
_chemical_formula_structural   Sr11InSb9
_chemical_formula_sum   'Sr22 In2 Sb18'
_cell_volume   1473.24717847
_cell_formula_units_Z   2
loop_
 _symmetry_equiv_pos_site_id
 _symmetry_equiv_pos_as_xyz
  1  'x, y, z'
loop_
 _atom_site_type_symbol
 _atom_site_label
 _atom_site_symmetry_multiplicity
 _atom_site_fract_x
 _atom_site_fract_y
 _atom_site_fract_z
 _atom_site_occupancy
  Sr  Sr0  1  0.321416  0.678584  0.678584  1
  Sr  Sr1  1  0.159542  0.826418  0.173423  1
  Sr  Sr2  1  0.247963  0.114890  0.568490  1
  Sr  Sr3  1  0.821416  0.178584  0.178584  1
  Sr  Sr4  1  0.316446  0.427877  0.310970  1
  Sr  Sr5  1  0.055237  0.682270  0.574392  1
  Sr  Sr6  1  0.340617  0.326418  0.673423  1
  Sr  Sr7  1  0.555237  0.074392  0.182270  1
  Sr  Sr8  1  0.269280  0.935478  0.379523  1
  Sr  Sr9  1  0.068657  0.568490  0.114890  1
  Sr  Sr10  1  0.915719  0.435478  0.879523  1
  Sr  Sr11  1  0.444706  0.927877  0.810970  1
  Sr  Sr12  1  0.188101  0.182270  0.074392  1
  Sr  Sr13  1  0.747963  0.068490  0.614890  1
  Sr  Sr14  1  0.415719  0.379523  0.935478  1
  Sr  Sr15  1  0.769280  0.879523  0.435478  1
  Sr  Sr16  1  0.568657  0.614890  0.068490  1
  Sr  Sr17  1  0.659542  0.673423  0.326418  1
  Sr  Sr18  1  0.944706  0.310970  0.427877  1
  Sr  Sr19  1  0.840617  0.173423  0.826418  1
  Sr  Sr20  1  0.816446  0.810970  0.927877  1
  Sr  Sr21  1  0.688101  0.574392  0.682270  1
  In  In22  1  0.607344  0.392656  0.392656  1
  In  In23  1  0.107344  0.892656  0.892656  1
  Sb  Sb24  1  0.994183  0.004686  0.360866  1
  Sb  Sb25  1  0.036875  0.392315  0.601431  1
  Sb  Sb26  1  0.640266  0.360866  0.004686  1
  Sb  Sb27  1  0.367846  0.620083  0.386219  1
  Sb  Sb28  1  0.336692  0.671314  0.949767  1
  Sb  Sb29  1  0.748993  0.751007  0.751007  1
  Sb  Sb30  1  0.542227  0.171314  0.449767  1
  Sb  Sb31  1  0.248993  0.251007  0.251007  1
  Sb  Sb32  1  0.867846  0.886219  0.120083  1
  Sb  Sb33  1  0.494183  0.860866  0.504686  1
  Sb  Sb34  1  0.140266  0.504686  0.860866  1
  Sb  Sb35  1  0.625851  0.386219  0.620083  1
  Sb  Sb36  1  0.042227  0.949767  0.671314  1
  Sb  Sb37  1  0.469380  0.892315  0.101431  1
  Sb  Sb38  1  0.536875  0.101431  0.892315  1
  Sb  Sb39  1  0.836692  0.449767  0.171314  1
  Sb  Sb40  1  0.969380  0.601431  0.392315  1
  Sb  Sb41  1  0.125851  0.120083  0.886219  1
