# generated using pymatgen
data_Nd2As4O9
_symmetry_space_group_name_H-M   'P 1'
_cell_length_a   6.97709961
_cell_length_b   7.75732842
_cell_length_c   9.79664520
_cell_angle_alpha   96.24429745
_cell_angle_beta   103.43046928
_cell_angle_gamma   104.60455443
_symmetry_Int_Tables_number   1
_chemical_formula_structural   Nd2As4O9
_chemical_formula_sum   'Nd4 As8 O18'
_cell_volume   491.11591927
_cell_formula_units_Z   2
loop_
 _symmetry_equiv_pos_site_id
 _symmetry_equiv_pos_as_xyz
  1  'x, y, z'
loop_
 _atom_site_type_symbol
 _atom_site_label
 _atom_site_symmetry_multiplicity
 _atom_site_fract_x
 _atom_site_fract_y
 _atom_site_fract_z
 _atom_site_occupancy
  Nd  Nd0  1  0.748389  0.943117  0.120297  1
  Nd  Nd1  1  0.778833  0.469127  0.095166  1
  Nd  Nd2  1  0.251611  0.056883  0.879703  1
  Nd  Nd3  1  0.221167  0.530873  0.904834  1
  As  As4  1  0.822118  0.228572  0.437337  1
  As  As5  1  0.319661  0.239997  0.579773  1
  As  As6  1  0.680339  0.760003  0.420227  1
  As  As7  1  0.177882  0.771428  0.562663  1
  As  As8  1  0.695337  0.648856  0.795623  1
  As  As9  1  0.304663  0.351144  0.204377  1
  As  As10  1  0.246362  0.920474  0.212286  1
  As  As11  1  0.753638  0.079526  0.787714  1
  O  O12  1  0.866513  0.896221  0.855479  1
  O  O13  1  0.125058  0.458640  0.125421  1
  O  O14  1  0.630942  0.662712  0.240833  1
  O  O15  1  0.658244  0.129435  0.939818  1
  O  O16  1  0.102858  0.320184  0.493813  1
  O  O17  1  0.874942  0.541360  0.874579  1
  O  O18  1  0.004721  0.224117  0.827682  1
  O  O19  1  0.133487  0.103779  0.144521  1
  O  O20  1  0.592084  0.667024  0.948981  1
  O  O21  1  0.813932  0.985665  0.384686  1
  O  O22  1  0.369058  0.337288  0.759167  1
  O  O23  1  0.995279  0.775883  0.172318  1
  O  O24  1  0.225075  0.748243  0.743584  1
  O  O25  1  0.407916  0.332976  0.051019  1
  O  O26  1  0.186068  0.014335  0.615314  1
  O  O27  1  0.341756  0.870565  0.060182  1
  O  O28  1  0.774925  0.251757  0.256416  1
  O  O29  1  0.897142  0.679816  0.506187  1
