# generated using pymatgen
data_Na2Li5Sn4
_symmetry_space_group_name_H-M   'P 1'
_cell_length_a   24.39388526
_cell_length_b   24.39388520
_cell_length_c   24.39388552
_cell_angle_alpha   11.70688208
_cell_angle_beta   11.70688281
_cell_angle_gamma   11.70688253
_symmetry_Int_Tables_number   1
_chemical_formula_structural   Na2Li5Sn4
_chemical_formula_sum   'Na4 Li10 Sn8'
_cell_volume   519.35816856
_cell_formula_units_Z   2
loop_
 _symmetry_equiv_pos_site_id
 _symmetry_equiv_pos_as_xyz
  1  'x, y, z'
loop_
 _atom_site_type_symbol
 _atom_site_label
 _atom_site_symmetry_multiplicity
 _atom_site_fract_x
 _atom_site_fract_y
 _atom_site_fract_z
 _atom_site_occupancy
  Na  Na0  1  0.242295  0.242295  0.242295  1
  Na  Na1  1  0.047235  0.047235  0.047235  1
  Na  Na2  1  0.952765  0.952765  0.952765  1
  Na  Na3  1  0.757705  0.757705  0.757705  1
  Li  Li4  1  0.520798  0.520798  0.520798  1
  Li  Li5  1  0.322502  0.322502  0.322502  1
  Li  Li6  1  0.200188  0.200188  0.200188  1
  Li  Li7  1  0.283711  0.283711  0.283711  1
  Li  Li8  1  0.677498  0.677498  0.677498  1
  Li  Li9  1  0.558724  0.558724  0.558724  1
  Li  Li10  1  0.799812  0.799812  0.799812  1
  Li  Li11  1  0.479202  0.479202  0.479202  1
  Li  Li12  1  0.441276  0.441276  0.441276  1
  Li  Li13  1  0.716289  0.716289  0.716289  1
  Sn  Sn14  1  0.361917  0.361917  0.361917  1
  Sn  Sn15  1  0.839984  0.839984  0.839984  1
  Sn  Sn16  1  0.638083  0.638083  0.638083  1
  Sn  Sn17  1  0.880102  0.880102  0.880102  1
  Sn  Sn18  1  0.400835  0.400835  0.400835  1
  Sn  Sn19  1  0.119898  0.119898  0.119898  1
  Sn  Sn20  1  0.160016  0.160016  0.160016  1
  Sn  Sn21  1  0.599165  0.599165  0.599165  1
