# generated using pymatgen
data_LiFe2(PO4)3
_symmetry_space_group_name_H-M   'P 1'
_cell_length_a   8.48079228
_cell_length_b   9.01155403
_cell_length_c   8.41693608
_cell_angle_alpha   117.84175020
_cell_angle_beta   60.27837907
_cell_angle_gamma   117.80422713
_symmetry_Int_Tables_number   1
_chemical_formula_structural   LiFe2(PO4)3
_chemical_formula_sum   'Li2 Fe4 P6 O24'
_cell_volume   470.29344205
_cell_formula_units_Z   2
loop_
 _symmetry_equiv_pos_site_id
 _symmetry_equiv_pos_as_xyz
  1  'x, y, z'
loop_
 _atom_site_type_symbol
 _atom_site_label
 _atom_site_symmetry_multiplicity
 _atom_site_fract_x
 _atom_site_fract_y
 _atom_site_fract_z
 _atom_site_occupancy
  Li  Li0  1  0.068396  0.133276  0.755985  1
  Li  Li1  1  0.931603  0.866723  0.244016  1
  O  O2  1  0.544782  0.196624  0.172365  1
  O  O3  1  1.005365  0.585992  0.374273  1
  O  O4  1  0.615248  0.427612  0.796398  1
  O  O5  1  0.823813  0.794263  0.500899  1
  O  O6  1  0.176187  0.205737  0.499102  1
  O  O7  1  0.123167  0.270383  0.266323  1
  O  O8  1  -0.005365  0.414007  0.625726  1
  O  O9  1  0.262648  0.261883  0.879151  1
  O  O10  1  0.490644  0.106546  0.774802  1
  O  O11  1  0.489850  0.202469  0.534547  1
  O  O12  1  0.876833  0.729618  0.733676  1
  O  O13  1  0.788412  0.105270  0.832915  1
  O  O14  1  0.218201  0.575948  0.986903  1
  O  O15  1  0.509356  0.893455  0.225198  1
  O  O16  1  0.098302  0.727631  0.900668  1
  O  O17  1  0.384752  0.572389  0.203603  1
  O  O18  1  0.737352  0.738117  0.120849  1
  O  O19  1  0.901698  0.272369  0.099331  1
  O  O20  1  0.142752  0.917008  0.538582  1
  O  O21  1  0.781799  0.424052  0.013097  1
  O  O22  1  0.211589  0.894730  0.167086  1
  O  O23  1  0.455217  0.803376  0.827635  1
  O  O24  1  0.510150  0.797531  0.465452  1
  O  O25  1  0.857249  0.082992  0.461418  1
  P  P26  1  0.466472  0.250079  0.744410  1
  P  P27  1  0.749325  0.250183  0.033783  1
  P  P28  1  0.250675  0.749817  0.966218  1
  P  P29  1  0.533528  0.749921  0.255590  1
  P  P30  1  0.038711  0.248328  0.466021  1
  P  P31  1  0.961289  0.751673  0.533980  1
  Fe  Fe32  1  0.641636  0.944185  0.653881  1
  Fe  Fe33  1  0.853315  0.570133  0.854531  1
  Fe  Fe34  1  0.146685  0.429867  0.145470  1
  Fe  Fe35  1  0.358365  0.055815  0.346119  1
