# generated using pymatgen
data_K2Sr3Mn2(P2O7)3
_symmetry_space_group_name_H-M   'P 1'
_cell_length_a   5.41353255
_cell_length_b   13.43990151
_cell_length_c   14.01814240
_cell_angle_alpha   99.67137013
_cell_angle_beta   90.00000000
_cell_angle_gamma   90.00000000
_symmetry_Int_Tables_number   1
_chemical_formula_structural   K2Sr3Mn2(P2O7)3
_chemical_formula_sum   'K4 Sr6 Mn4 P12 O42'
_cell_volume   1005.42719823
_cell_formula_units_Z   2
loop_
 _symmetry_equiv_pos_site_id
 _symmetry_equiv_pos_as_xyz
  1  'x, y, z'
loop_
 _atom_site_type_symbol
 _atom_site_label
 _atom_site_symmetry_multiplicity
 _atom_site_fract_x
 _atom_site_fract_y
 _atom_site_fract_z
 _atom_site_occupancy
  K  K0  1  0.126965  0.566325  0.398500  1
  K  K1  1  0.626965  0.433675  0.601500  1
  K  K2  1  0.168039  0.440787  0.085421  1
  K  K3  1  0.668039  0.559213  0.914579  1
  Sr  Sr4  1  0.173149  0.245916  0.353117  1
  Sr  Sr5  1  0.617886  0.222585  0.836272  1
  Sr  Sr6  1  0.639108  0.008971  0.251189  1
  Sr  Sr7  1  0.139108  0.991029  0.748811  1
  Sr  Sr8  1  0.673149  0.754084  0.646883  1
  Sr  Sr9  1  0.117886  0.777415  0.163728  1
  Mn  Mn10  1  0.622999  0.226583  0.117399  1
  Mn  Mn11  1  0.659599  0.787613  0.374894  1
  Mn  Mn12  1  0.159599  0.212387  0.625106  1
  Mn  Mn13  1  0.122999  0.773417  0.882601  1
  P  P14  1  0.123377  0.592512  0.691514  1
  P  P15  1  0.660952  0.058912  0.624242  1
  P  P16  1  0.665478  0.189573  0.480165  1
  P  P17  1  0.160952  0.941088  0.375758  1
  P  P18  1  0.618410  0.811350  0.027774  1
  P  P19  1  0.120358  0.076060  0.131050  1
  P  P20  1  0.620358  0.923940  0.868950  1
  P  P21  1  0.118410  0.188650  0.972226  1
  P  P22  1  0.623377  0.407488  0.308486  1
  P  P23  1  0.614712  0.594347  0.207539  1
  P  P24  1  0.114712  0.405653  0.792461  1
  P  P25  1  0.165478  0.810427  0.519835  1
  O  O26  1  0.862710  0.756737  0.996550  1
  O  O27  1  0.190965  0.052092  0.372849  1
  O  O28  1  0.224165  0.465948  0.883689  1
  O  O29  1  0.371969  0.876722  0.321557  1
  O  O30  1  0.281161  0.316275  0.745154  1
  O  O31  1  0.168385  0.829939  0.629737  1
  O  O32  1  0.903940  0.141022  0.179175  1
  O  O33  1  0.413125  0.103035  0.666948  1
  O  O34  1  0.866527  0.876295  0.828395  1
  O  O35  1  0.105924  0.473565  0.704260  1
  O  O36  1  0.968804  0.596485  0.601008  1
  O  O37  1  0.398179  0.615540  0.683859  1
  O  O38  1  0.593462  0.033696  0.858912  1
  O  O39  1  0.996512  0.655296  0.781241  1
  O  O40  1  0.398200  0.752288  0.478826  1
  O  O41  1  0.898200  0.247712  0.521174  1
  O  O42  1  0.426007  0.240704  0.521244  1
  O  O43  1  0.104783  0.156484  0.863345  1
  O  O44  1  0.114608  0.083176  0.016528  1
  O  O45  1  0.174152  0.922737  0.487295  1
  O  O46  1  0.890297  0.250739  0.011358  1
  O  O47  1  0.913125  0.896965  0.333052  1
  O  O48  1  0.604783  0.843516  0.136655  1
  O  O49  1  0.345491  0.626831  0.198345  1
  O  O50  1  0.403940  0.858978  0.820825  1
  O  O51  1  0.362710  0.243263  0.003450  1
  O  O52  1  0.690965  0.947908  0.627151  1
  O  O53  1  0.781161  0.683725  0.254846  1
  O  O54  1  0.496512  0.344704  0.218759  1
  O  O55  1  0.674152  0.077263  0.512705  1
  O  O56  1  0.390297  0.749261  0.988642  1
  O  O57  1  0.871969  0.123278  0.678443  1
  O  O58  1  0.668385  0.170061  0.370263  1
  O  O59  1  0.468804  0.403515  0.398992  1
  O  O60  1  0.093462  0.966304  0.141088  1
  O  O61  1  0.366527  0.123705  0.171605  1
  O  O62  1  0.724165  0.534052  0.116311  1
  O  O63  1  0.614608  0.916824  0.983472  1
  O  O64  1  0.898179  0.384460  0.316141  1
  O  O65  1  0.605924  0.526435  0.295740  1
  O  O66  1  0.926007  0.759296  0.478756  1
  O  O67  1  0.845491  0.373169  0.801655  1
