# generated using pymatgen
data_K2Ce(PO4)2
_symmetry_space_group_name_H-M   'P 1'
_cell_length_a   6.92736141
_cell_length_b   6.92736133
_cell_length_c   10.16950837
_cell_angle_alpha   109.91311465
_cell_angle_beta   109.91311433
_cell_angle_gamma   89.99999685
_symmetry_Int_Tables_number   1
_chemical_formula_structural   K2Ce(PO4)2
_chemical_formula_sum   'K4 Ce2 P4 O16'
_cell_volume   427.67468836
_cell_formula_units_Z   2
loop_
 _symmetry_equiv_pos_site_id
 _symmetry_equiv_pos_as_xyz
  1  'x, y, z'
loop_
 _atom_site_type_symbol
 _atom_site_label
 _atom_site_symmetry_multiplicity
 _atom_site_fract_x
 _atom_site_fract_y
 _atom_site_fract_z
 _atom_site_occupancy
  K  K0  1  0.000000  0.500000  0.000000  1
  K  K1  1  0.500000  0.000000  0.500000  1
  K  K2  1  0.000000  0.000000  0.000000  1
  K  K3  1  0.000000  0.000000  0.500000  1
  Ce  Ce4  1  0.625000  0.375000  0.250000  1
  Ce  Ce5  1  0.375000  0.625000  0.750000  1
  P  P6  1  0.552225  0.802225  0.104450  1
  P  P7  1  0.447775  0.197775  0.895550  1
  P  P8  1  0.197775  0.447775  0.395550  1
  P  P9  1  0.802225  0.552225  0.604450  1
  O  O10  1  0.033257  0.605423  0.710847  1
  O  O11  1  0.249691  0.679175  0.499382  1
  O  O12  1  0.677589  0.605423  0.710847  1
  O  O13  1  0.249691  0.320207  0.499382  1
  O  O14  1  0.966743  0.394577  0.289153  1
  O  O15  1  0.394577  0.966743  0.789153  1
  O  O16  1  0.750309  0.320825  0.500618  1
  O  O17  1  0.322411  0.394577  0.289153  1
  O  O18  1  0.320207  0.249691  0.999382  1
  O  O19  1  0.605423  0.033257  0.210847  1
  O  O20  1  0.394577  0.322411  0.789153  1
  O  O21  1  0.605423  0.677589  0.210847  1
  O  O22  1  0.750309  0.679793  0.500618  1
  O  O23  1  0.320825  0.750309  0.000618  1
  O  O24  1  0.679175  0.249691  0.999382  1
  O  O25  1  0.679793  0.750309  0.000618  1
