# generated using pymatgen
data_KTbCr2O8
_symmetry_space_group_name_H-M   'P 1'
_cell_length_a   5.81300297
_cell_length_b   9.19933128
_cell_length_c   13.91215107
_cell_angle_alpha   90.00000000
_cell_angle_beta   90.00000000
_cell_angle_gamma   90.00000000
_symmetry_Int_Tables_number   1
_chemical_formula_structural   KTbCr2O8
_chemical_formula_sum   'K4 Tb4 Cr8 O32'
_cell_volume   743.96257419
_cell_formula_units_Z   4
loop_
 _symmetry_equiv_pos_site_id
 _symmetry_equiv_pos_as_xyz
  1  'x, y, z'
loop_
 _atom_site_type_symbol
 _atom_site_label
 _atom_site_symmetry_multiplicity
 _atom_site_fract_x
 _atom_site_fract_y
 _atom_site_fract_z
 _atom_site_occupancy
  Tb  Tb0  1  0.223805  0.041319  0.858048  1
  Tb  Tb1  1  0.723805  0.458681  0.141952  1
  Tb  Tb2  1  0.276195  0.958681  0.358048  1
  Tb  Tb3  1  0.776195  0.541319  0.641952  1
  K  K4  1  0.739449  0.089067  0.586701  1
  K  K5  1  0.760551  0.910933  0.086701  1
  K  K6  1  0.260551  0.589067  0.913299  1
  K  K7  1  0.239449  0.410933  0.413299  1
  Cr  Cr8  1  0.732575  0.153783  0.337745  1
  Cr  Cr9  1  0.267425  0.653783  0.162254  1
  Cr  Cr10  1  0.270703  0.815092  0.617405  1
  Cr  Cr11  1  0.729297  0.315092  0.882595  1
  Cr  Cr12  1  0.232575  0.346217  0.662254  1
  Cr  Cr13  1  0.767425  0.846217  0.837746  1
  Cr  Cr14  1  0.229297  0.184908  0.117405  1
  Cr  Cr15  1  0.770703  0.684908  0.382595  1
  O  O16  1  0.482636  0.695850  0.603665  1
  O  O17  1  0.981768  0.231788  0.892946  1
  O  O18  1  0.017364  0.304150  0.103665  1
  O  O19  1  0.253449  0.189884  0.720987  1
  O  O20  1  0.792132  0.555052  0.465946  1
  O  O21  1  0.982636  0.804150  0.396335  1
  O  O22  1  0.172827  0.484264  0.733385  1
  O  O23  1  0.292132  0.944948  0.534054  1
  O  O24  1  0.793627  0.611464  0.273793  1
  O  O25  1  0.327173  0.515736  0.233385  1
  O  O26  1  0.753449  0.310116  0.279013  1
  O  O27  1  0.672827  0.015736  0.266615  1
  O  O28  1  0.207868  0.055052  0.034054  1
  O  O29  1  0.495073  0.657313  0.087383  1
  O  O30  1  0.028093  0.621538  0.098201  1
  O  O31  1  0.706373  0.388536  0.773793  1
  O  O32  1  0.018232  0.731788  0.607054  1
  O  O33  1  0.518232  0.768212  0.392946  1
  O  O34  1  0.504927  0.157313  0.412617  1
  O  O35  1  0.206373  0.111464  0.226207  1
  O  O36  1  0.004927  0.342687  0.587383  1
  O  O37  1  0.517364  0.195850  0.896335  1
  O  O38  1  0.707868  0.444948  0.965946  1
  O  O39  1  0.746551  0.689884  0.779013  1
  O  O40  1  0.971907  0.121538  0.401799  1
  O  O41  1  0.995073  0.842687  0.912617  1
  O  O42  1  0.293627  0.888536  0.726207  1
  O  O43  1  0.471907  0.378462  0.598201  1
  O  O44  1  0.246551  0.810116  0.220987  1
  O  O45  1  0.827173  0.984264  0.766615  1
  O  O46  1  0.481768  0.268212  0.107054  1
  O  O47  1  0.528093  0.878462  0.901799  1
