# generated using pymatgen
data_La10S19
_symmetry_space_group_name_H-M   'P 1'
_cell_length_a   9.14949893
_cell_length_b   9.14949893
_cell_length_c   16.36936022
_cell_angle_alpha   90.00000000
_cell_angle_beta   90.00000000
_cell_angle_gamma   90.00000000
_symmetry_Int_Tables_number   1
_chemical_formula_structural   La10S19
_chemical_formula_sum   'La20 S38'
_cell_volume   1370.33366495
_cell_formula_units_Z   2
loop_
 _symmetry_equiv_pos_site_id
 _symmetry_equiv_pos_as_xyz
  1  'x, y, z'
loop_
 _atom_site_type_symbol
 _atom_site_label
 _atom_site_symmetry_multiplicity
 _atom_site_fract_x
 _atom_site_fract_y
 _atom_site_fract_z
 _atom_site_occupancy
  La  La0  1  0.541084  0.848185  0.877278  1
  La  La1  1  0.151815  0.041084  0.377277  1
  La  La2  1  0.444189  0.146390  0.601462  1
  La  La3  1  0.651815  0.541084  0.622722  1
  La  La4  1  0.458916  0.151815  0.122722  1
  La  La5  1  0.146390  0.055811  0.898538  1
  La  La6  1  0.750000  0.250000  0.887017  1
  La  La7  1  0.555811  0.853610  0.398538  1
  La  La8  1  0.958916  0.651815  0.877278  1
  La  La9  1  0.750000  0.250000  0.387017  1
  La  La10  1  0.348185  0.458916  0.377277  1
  La  La11  1  0.250000  0.750000  0.612983  1
  La  La12  1  0.041084  0.348185  0.122722  1
  La  La13  1  0.353610  0.444189  0.898538  1
  La  La14  1  0.250000  0.750000  0.112983  1
  La  La15  1  0.848185  0.958916  0.622722  1
  La  La16  1  0.646390  0.555811  0.101462  1
  La  La17  1  0.853610  0.944189  0.101462  1
  La  La18  1  0.944189  0.646390  0.398538  1
  La  La19  1  0.055811  0.353610  0.601462  1
  S  S20  1  0.147912  0.053725  0.562260  1
  S  S21  1  0.053725  0.352088  0.937740  1
  S  S22  1  0.451314  0.151087  0.424490  1
  S  S23  1  0.418814  0.609479  0.750049  1
  S  S24  1  0.750000  0.250000  0.567185  1
  S  S25  1  0.198584  0.530399  0.748920  1
  S  S26  1  0.969601  0.198584  0.751080  1
  S  S27  1  0.030399  0.801416  0.248920  1
  S  S28  1  0.609479  0.081186  0.749951  1
  S  S29  1  0.951314  0.651087  0.575510  1
  S  S30  1  0.651087  0.548686  0.924490  1
  S  S31  1  0.352088  0.446275  0.562260  1
  S  S32  1  0.890521  0.418814  0.749951  1
  S  S33  1  0.151087  0.048686  0.075510  1
  S  S34  1  0.750000  0.250000  0.067185  1
  S  S35  1  0.581186  0.390521  0.249951  1
  S  S36  1  0.553725  0.852088  0.062260  1
  S  S37  1  0.647912  0.553725  0.437740  1
  S  S38  1  0.801416  0.469601  0.251080  1
  S  S39  1  0.301416  0.969601  0.748920  1
  S  S40  1  0.918814  0.109479  0.249951  1
  S  S41  1  0.048686  0.348913  0.424490  1
  S  S42  1  0.750000  0.750000  0.750000  1
  S  S43  1  0.081186  0.890521  0.750049  1
  S  S44  1  0.250000  0.750000  0.432815  1
  S  S45  1  0.469601  0.698584  0.248920  1
  S  S46  1  0.530399  0.301416  0.751080  1
  S  S47  1  0.852088  0.946275  0.437740  1
  S  S48  1  0.390521  0.918814  0.250049  1
  S  S49  1  0.946275  0.647912  0.062260  1
  S  S50  1  0.698584  0.030399  0.251080  1
  S  S51  1  0.446275  0.147912  0.937740  1
  S  S52  1  0.848913  0.951314  0.924490  1
  S  S53  1  0.348913  0.451314  0.075510  1
  S  S54  1  0.250000  0.250000  0.250000  1
  S  S55  1  0.250000  0.750000  0.932815  1
  S  S56  1  0.109479  0.581186  0.250049  1
  S  S57  1  0.548686  0.848913  0.575510  1
