# generated using pymatgen
data_BaCu(SiO3)2
_symmetry_space_group_name_H-M   'P 1'
_cell_length_a   7.18636797
_cell_length_b   7.18636818
_cell_length_c   7.55834024
_cell_angle_alpha   118.38385401
_cell_angle_beta   118.38495880
_cell_angle_gamma   89.99999787
_symmetry_Int_Tables_number   1
_chemical_formula_structural   BaCu(SiO3)2
_chemical_formula_sum   'Ba2 Cu2 Si4 O12'
_cell_volume   288.96351542
_cell_formula_units_Z   2
loop_
 _symmetry_equiv_pos_site_id
 _symmetry_equiv_pos_as_xyz
  1  'x, y, z'
loop_
 _atom_site_type_symbol
 _atom_site_label
 _atom_site_symmetry_multiplicity
 _atom_site_fract_x
 _atom_site_fract_y
 _atom_site_fract_z
 _atom_site_occupancy
  Ba  Ba0  1  0.749999  0.249992  0.499998  1
  Ba  Ba1  1  0.250001  0.749999  0.500002  1
  Cu  Cu2  1  0.121069  0.121064  0.242137  1
  Si  Si3  1  0.273922  0.726075  0.999998  1
  Si  Si4  1  0.273924  0.273924  1.000003  1
  Si  Si5  1  0.726079  0.273924  1.000003  1
  Si  Si6  1  0.726076  0.726075  0.999998  1
  Cu  Cu7  1  0.878929  0.878934  0.757858  1
  O  O8  1  0.237866  0.502574  0.005144  1
  O  O9  1  0.066392  0.681391  0.749965  1
  O  O10  1  0.066400  0.068599  0.749978  1
  O  O11  1  0.497430  0.232723  0.994860  1
  O  O12  1  0.931418  0.316421  0.250040  1
  O  O13  1  0.767279  0.502574  0.005144  1
  O  O14  1  0.497427  0.762137  0.994854  1
  O  O15  1  0.683578  0.068599  0.749978  1
  O  O16  1  0.318621  0.316421  0.250040  1
  O  O17  1  0.931410  0.933590  0.250018  1
  O  O18  1  0.318608  0.933590  0.250018  1
  O  O19  1  0.683573  0.681391  0.749965  1
