# generated using pymatgen
data_Ba3Zr2S7
_symmetry_space_group_name_H-M   'P 1'
_cell_length_a   7.12167045
_cell_length_b   7.14977286
_cell_length_c   13.39937427
_cell_angle_alpha   105.47364225
_cell_angle_beta   90.00000000
_cell_angle_gamma   90.00000000
_symmetry_Int_Tables_number   1
_chemical_formula_structural   Ba3Zr2S7
_chemical_formula_sum   'Ba6 Zr4 S14'
_cell_volume   657.54353087
_cell_formula_units_Z   2
loop_
 _symmetry_equiv_pos_site_id
 _symmetry_equiv_pos_as_xyz
  1  'x, y, z'
loop_
 _atom_site_type_symbol
 _atom_site_label
 _atom_site_symmetry_multiplicity
 _atom_site_fract_x
 _atom_site_fract_y
 _atom_site_fract_z
 _atom_site_occupancy
  Ba  Ba0  1  0.000000  0.693594  0.861428  1
  Ba  Ba1  1  0.000000  0.306406  0.138572  1
  Ba  Ba2  1  0.500000  0.167834  0.861428  1
  Ba  Ba3  1  0.500000  0.832166  0.138572  1
  Ba  Ba4  1  0.500000  0.000000  0.500000  1
  Ba  Ba5  1  0.000000  0.500000  0.500000  1
  Zr  Zr6  1  0.000000  0.899444  0.299133  1
  Zr  Zr7  1  0.500000  0.600310  0.700867  1
  Zr  Zr8  1  0.000000  0.100556  0.700867  1
  Zr  Zr9  1  0.500000  0.399690  0.299133  1
  S  S10  1  0.750000  0.348584  0.697168  1
  S  S11  1  0.250000  0.348584  0.697168  1
  S  S12  1  0.000000  0.000000  0.500000  1
  S  S13  1  0.750000  0.844241  0.688481  1
  S  S14  1  0.000000  0.818039  0.103491  1
  S  S15  1  0.250000  0.651416  0.302832  1
  S  S16  1  0.250000  0.155759  0.311519  1
  S  S17  1  0.500000  0.285453  0.103491  1
  S  S18  1  0.500000  0.500000  0.500000  1
  S  S19  1  0.750000  0.651416  0.302832  1
  S  S20  1  0.000000  0.181961  0.896509  1
  S  S21  1  0.250000  0.844241  0.688481  1
  S  S22  1  0.750000  0.155759  0.311519  1
  S  S23  1  0.500000  0.714547  0.896509  1
