# generated using pymatgen
data_Sr2FeBrO3
_symmetry_space_group_name_H-M   'P 1'
_cell_length_a   3.99436478
_cell_length_b   3.99436478
_cell_length_c   15.39877512
_cell_angle_alpha   90.00000000
_cell_angle_beta   90.00000000
_cell_angle_gamma   90.00000000
_symmetry_Int_Tables_number   1
_chemical_formula_structural   Sr2FeBrO3
_chemical_formula_sum   'Sr4 Fe2 Br2 O6'
_cell_volume   245.68668703
_cell_formula_units_Z   2
loop_
 _symmetry_equiv_pos_site_id
 _symmetry_equiv_pos_as_xyz
  1  'x, y, z'
loop_
 _atom_site_type_symbol
 _atom_site_label
 _atom_site_symmetry_multiplicity
 _atom_site_fract_x
 _atom_site_fract_y
 _atom_site_fract_z
 _atom_site_occupancy
  Sr  Sr0  1  0.750000  0.750000  0.678278  1
  Sr  Sr1  1  0.250000  0.250000  0.090118  1
  Sr  Sr2  1  0.750000  0.750000  0.909882  1
  Sr  Sr3  1  0.250000  0.250000  0.321722  1
  Fe  Fe4  1  0.250000  0.250000  0.805723  1
  Fe  Fe5  1  0.750000  0.750000  0.194277  1
  Br  Br6  1  0.750000  0.750000  0.413216  1
  Br  Br7  1  0.250000  0.250000  0.586784  1
  O  O8  1  0.750000  0.250000  0.784013  1
  O  O9  1  0.250000  0.750000  0.784013  1
  O  O10  1  0.750000  0.250000  0.215987  1
  O  O11  1  0.250000  0.750000  0.215987  1
  O  O12  1  0.750000  0.750000  0.069909  1
  O  O13  1  0.250000  0.250000  0.930091  1
