# generated using pymatgen
data_K2(TcSe2)3
_symmetry_space_group_name_H-M   'P 1'
_cell_length_a   10.11503941
_cell_length_b   10.11503976
_cell_length_c   12.53604729
_cell_angle_alpha   88.70397048
_cell_angle_beta   88.70397045
_cell_angle_gamma   60.58502365
_symmetry_Int_Tables_number   1
_chemical_formula_structural   K2(TcSe2)3
_chemical_formula_sum   'K8 Tc12 Se24'
_cell_volume   1116.88257080
_cell_formula_units_Z   4
loop_
 _symmetry_equiv_pos_site_id
 _symmetry_equiv_pos_as_xyz
  1  'x, y, z'
loop_
 _atom_site_type_symbol
 _atom_site_label
 _atom_site_symmetry_multiplicity
 _atom_site_fract_x
 _atom_site_fract_y
 _atom_site_fract_z
 _atom_site_occupancy
  K  K0  1  0.397279  0.602721  0.750000  1
  K  K1  1  0.602721  0.397279  0.250000  1
  K  K2  1  0.783273  0.216727  0.750000  1
  K  K3  1  0.216727  0.783273  0.250000  1
  K  K4  1  0.648146  0.122253  0.018885  1
  K  K5  1  0.877747  0.351854  0.481115  1
  K  K6  1  0.351854  0.877747  0.981115  1
  K  K7  1  0.122253  0.648146  0.518885  1
  Tc  Tc8  1  0.315917  0.003698  0.526664  1
  Tc  Tc9  1  0.996302  0.684083  0.973336  1
  Tc  Tc10  1  0.684083  0.996302  0.473336  1
  Tc  Tc11  1  0.003698  0.315917  0.026664  1
  Tc  Tc12  1  0.472016  0.111203  0.625666  1
  Tc  Tc13  1  0.888797  0.527984  0.874334  1
  Tc  Tc14  1  0.527984  0.888797  0.374334  1
  Tc  Tc15  1  0.111203  0.472016  0.125666  1
  Tc  Tc16  1  0.601653  0.817557  0.579770  1
  Tc  Tc17  1  0.182443  0.398347  0.920230  1
  Tc  Tc18  1  0.398347  0.182443  0.420230  1
  Tc  Tc19  1  0.817557  0.601653  0.079770  1
  Se  Se20  1  0.252121  0.074799  0.333667  1
  Se  Se21  1  0.925201  0.747879  0.166333  1
  Se  Se22  1  0.747879  0.925201  0.666333  1
  Se  Se23  1  0.074799  0.252121  0.833667  1
  Se  Se24  1  0.717072  0.796566  0.928616  1
  Se  Se25  1  0.203434  0.282928  0.571384  1
  Se  Se26  1  0.282928  0.203434  0.071384  1
  Se  Se27  1  0.796566  0.717072  0.428616  1
  Se  Se28  1  0.607433  0.061307  0.280831  1
  Se  Se29  1  0.938693  0.392567  0.219169  1
  Se  Se30  1  0.392567  0.938693  0.719169  1
  Se  Se31  1  0.061307  0.607433  0.780831  1
  Se  Se32  1  0.552235  0.278156  0.519165  1
  Se  Se33  1  0.721844  0.447765  0.980835  1
  Se  Se34  1  0.447765  0.721844  0.480835  1
  Se  Se35  1  0.278156  0.552235  0.019165  1
  Se  Se36  1  0.996878  0.066844  0.081306  1
  Se  Se37  1  0.933156  0.003122  0.418694  1
  Se  Se38  1  0.003122  0.933156  0.918694  1
  Se  Se39  1  0.066844  0.996878  0.581306  1
  Se  Se40  1  0.441213  0.262757  0.805530  1
  Se  Se41  1  0.737243  0.558787  0.694470  1
  Se  Se42  1  0.558787  0.737243  0.194470  1
  Se  Se43  1  0.262757  0.441213  0.305530  1
