# generated using pymatgen
data_Y7FeI12
_symmetry_space_group_name_H-M   'P 1'
_cell_length_a   9.72451406
_cell_length_b   9.72451370
_cell_length_c   9.72451410
_cell_angle_alpha   107.01271996
_cell_angle_beta   107.01271936
_cell_angle_gamma   107.01271317
_symmetry_Int_Tables_number   1
_chemical_formula_structural   Y7FeI12
_chemical_formula_sum   'Y7 Fe1 I12'
_cell_volume   765.59420965
_cell_formula_units_Z   1
loop_
 _symmetry_equiv_pos_site_id
 _symmetry_equiv_pos_as_xyz
  1  'x, y, z'
loop_
 _atom_site_type_symbol
 _atom_site_label
 _atom_site_symmetry_multiplicity
 _atom_site_fract_x
 _atom_site_fract_y
 _atom_site_fract_z
 _atom_site_occupancy
  Y  Y0  1  0.021936  0.091602  0.290363  1
  Y  Y1  1  0.091602  0.290363  0.021936  1
  Y  Y2  1  0.500000  0.500000  0.500000  1
  Y  Y3  1  0.709637  0.978064  0.908398  1
  Y  Y4  1  0.978064  0.908398  0.709637  1
  Y  Y5  1  0.290363  0.021936  0.091602  1
  Y  Y6  1  0.908398  0.709637  0.978064  1
  Fe  Fe7  1  0.000000  0.000000  0.000000  1
  I  I8  1  0.772319  0.321802  0.927297  1
  I  I9  1  0.840824  0.535725  0.613419  1
  I  I10  1  0.159176  0.464275  0.386581  1
  I  I11  1  0.321802  0.927297  0.772319  1
  I  I12  1  0.678198  0.072703  0.227681  1
  I  I13  1  0.927297  0.772319  0.321802  1
  I  I14  1  0.386581  0.159176  0.464275  1
  I  I15  1  0.464275  0.386581  0.159176  1
  I  I16  1  0.227681  0.678198  0.072703  1
  I  I17  1  0.072703  0.227681  0.678198  1
  I  I18  1  0.613419  0.840824  0.535725  1
  I  I19  1  0.535725  0.613419  0.840824  1
