# generated using pymatgen
data_Na2Nb4O11
_symmetry_space_group_name_H-M   'P 1'
_cell_length_a   6.30625708
_cell_length_b   6.31281425
_cell_length_c   12.94178961
_cell_angle_alpha   75.91658639
_cell_angle_beta   75.89263599
_cell_angle_gamma   60.00222671
_symmetry_Int_Tables_number   1
_chemical_formula_structural   Na2Nb4O11
_chemical_formula_sum   'Na4 Nb8 O22'
_cell_volume   428.19324406
_cell_formula_units_Z   2
loop_
 _symmetry_equiv_pos_site_id
 _symmetry_equiv_pos_as_xyz
  1  'x, y, z'
loop_
 _atom_site_type_symbol
 _atom_site_label
 _atom_site_symmetry_multiplicity
 _atom_site_fract_x
 _atom_site_fract_y
 _atom_site_fract_z
 _atom_site_occupancy
  Nb  Nb0  1  0.250820  0.113113  0.249578  1
  Nb  Nb1  1  0.613659  0.386645  0.250416  1
  Nb  Nb2  1  0.749180  0.886888  0.750422  1
  Nb  Nb3  1  0.386341  0.613355  0.749584  1
  Nb  Nb4  1  0.887363  0.749897  0.249985  1
  Nb  Nb5  1  0.112637  0.250103  0.750015  1
  Nb  Nb6  1  0.500000  0.000000  0.500000  1
  Nb  Nb7  1  0.000000  0.500000  0.000000  1
  Na  Na8  1  0.667535  0.166887  0.999741  1
  Na  Na9  1  0.834167  0.333137  0.500260  1
  Na  Na10  1  0.332465  0.833113  0.000259  1
  Na  Na11  1  0.165833  0.666863  0.499740  1
  O  O12  1  0.255022  0.062196  0.407316  1
  O  O13  1  0.724446  0.437987  0.092686  1
  O  O14  1  0.744978  0.937804  0.592684  1
  O  O15  1  0.275554  0.562013  0.907314  1
  O  O16  1  0.247096  0.223569  0.091868  1
  O  O17  1  0.562438  0.276451  0.408147  1
  O  O18  1  0.752904  0.776431  0.908132  1
  O  O19  1  0.437562  0.723549  0.591853  1
  O  O20  1  0.777492  0.754530  0.407793  1
  O  O21  1  0.939722  0.745512  0.092197  1
  O  O22  1  0.222508  0.245470  0.592207  1
  O  O23  1  0.060278  0.254488  0.907803  1
  O  O24  1  0.003947  0.997064  0.249911  1
  O  O25  1  0.250878  0.502867  0.250050  1
  O  O26  1  0.996053  0.002936  0.750089  1
  O  O27  1  0.749122  0.497133  0.749950  1
  O  O28  1  0.595491  0.094501  0.216740  1
  O  O29  1  0.906386  0.405611  0.283256  1
  O  O30  1  0.404509  0.905499  0.783260  1
  O  O31  1  0.093614  0.594389  0.716744  1
  O  O32  1  0.498935  0.750055  0.250021  1
  O  O33  1  0.501065  0.249945  0.749979  1
