# generated using pymatgen
data_Er3CoSi3
_symmetry_space_group_name_H-M   'P 1'
_cell_length_a   4.13872840
_cell_length_b   5.58480777
_cell_length_c   12.64573639
_cell_angle_alpha   84.86850397
_cell_angle_beta   80.58169499
_cell_angle_gamma   68.25140806
_symmetry_Int_Tables_number   1
_chemical_formula_structural   Er3CoSi3
_chemical_formula_sum   'Er6 Co2 Si6'
_cell_volume   267.69566980
_cell_formula_units_Z   2
loop_
 _symmetry_equiv_pos_site_id
 _symmetry_equiv_pos_as_xyz
  1  'x, y, z'
loop_
 _atom_site_type_symbol
 _atom_site_label
 _atom_site_symmetry_multiplicity
 _atom_site_fract_x
 _atom_site_fract_y
 _atom_site_fract_z
 _atom_site_occupancy
  Er  Er0  1  0.746640  0.735062  0.771659  1
  Er  Er1  1  0.398921  0.282488  0.919670  1
  Er  Er2  1  0.601079  0.717512  0.080330  1
  Er  Er3  1  0.474715  0.671294  0.379276  1
  Er  Er4  1  0.253360  0.264938  0.228341  1
  Er  Er5  1  0.525285  0.328706  0.620724  1
  Co  Co6  1  0.752971  0.077102  0.416956  1
  Co  Co7  1  0.247029  0.922898  0.583044  1
  Si  Si8  1  0.051716  0.137425  0.759144  1
  Si  Si9  1  0.139040  0.265873  0.456047  1
  Si  Si10  1  0.860960  0.734127  0.543953  1
  Si  Si11  1  0.948284  0.862575  0.240856  1
  Si  Si12  1  0.884631  0.154707  0.076032  1
  Si  Si13  1  0.115369  0.845293  0.923968  1
