# generated using pymatgen
data_Ce3(CuSn)4
_symmetry_space_group_name_H-M   'P 1'
_cell_length_a   4.62554232
_cell_length_b   6.97087566
_cell_length_c   8.57483971
_cell_angle_alpha   113.99046977
_cell_angle_beta   105.64286245
_cell_angle_gamma   90.00338625
_symmetry_Int_Tables_number   1
_chemical_formula_structural   Ce3(CuSn)4
_chemical_formula_sum   'Ce3 Cu4 Sn4'
_cell_volume   241.34869628
_cell_formula_units_Z   1
loop_
 _symmetry_equiv_pos_site_id
 _symmetry_equiv_pos_as_xyz
  1  'x, y, z'
loop_
 _atom_site_type_symbol
 _atom_site_label
 _atom_site_symmetry_multiplicity
 _atom_site_fract_x
 _atom_site_fract_y
 _atom_site_fract_z
 _atom_site_occupancy
  Ce  Ce0  1  0.133059  0.133019  0.266038  1
  Ce  Ce1  1  0.866941  0.866981  0.733962  1
  Ce  Ce2  1  0.000000  0.500000  0.000000  1
  Cu  Cu3  1  0.332418  0.515665  0.664648  1
  Cu  Cu4  1  0.667582  0.484335  0.335352  1
  Cu  Cu5  1  0.667594  0.850968  0.335351  1
  Cu  Cu6  1  0.332406  0.149032  0.664649  1
  Sn  Sn7  1  0.216350  0.716446  0.432974  1
  Sn  Sn8  1  0.783650  0.283554  0.567026  1
  Sn  Sn9  1  0.499873  0.202374  0.000016  1
  Sn  Sn10  1  0.500127  0.797626  0.999984  1
