# generated using pymatgen
data_La7Sb11Br4
_symmetry_space_group_name_H-M   'P 1'
_cell_length_a   4.34952232
_cell_length_b   19.87974177
_cell_length_c   31.25885401
_cell_angle_alpha   90.00000000
_cell_angle_beta   90.00000000
_cell_angle_gamma   90.00000000
_symmetry_Int_Tables_number   1
_chemical_formula_structural   La7Sb11Br4
_chemical_formula_sum   'La28 Sb44 Br16'
_cell_volume   2702.87122507
_cell_formula_units_Z   4
loop_
 _symmetry_equiv_pos_site_id
 _symmetry_equiv_pos_as_xyz
  1  'x, y, z'
loop_
 _atom_site_type_symbol
 _atom_site_label
 _atom_site_symmetry_multiplicity
 _atom_site_fract_x
 _atom_site_fract_y
 _atom_site_fract_z
 _atom_site_occupancy
  La  La0  1  0.750000  0.193210  0.113465  1
  La  La1  1  0.250000  0.028134  0.638472  1
  La  La2  1  0.250000  0.806790  0.886535  1
  La  La3  1  0.750000  0.470196  0.422439  1
  La  La4  1  0.250000  0.364197  0.257842  1
  La  La5  1  0.250000  0.141038  0.512073  1
  La  La6  1  0.250000  0.253240  0.386142  1
  La  La7  1  0.250000  0.970196  0.077561  1
  La  La8  1  0.250000  0.135803  0.757842  1
  La  La9  1  0.750000  0.080307  0.241468  1
  La  La10  1  0.250000  0.693210  0.386535  1
  La  La11  1  0.750000  0.419693  0.741468  1
  La  La12  1  0.750000  0.746760  0.613858  1
  La  La13  1  0.250000  0.529804  0.577561  1
  La  La14  1  0.750000  0.864197  0.242158  1
  La  La15  1  0.250000  0.246760  0.886142  1
  La  La16  1  0.750000  0.753240  0.113858  1
  La  La17  1  0.250000  0.358962  0.012073  1
  La  La18  1  0.750000  0.971866  0.361528  1
  La  La19  1  0.750000  0.528134  0.861528  1
  La  La20  1  0.750000  0.635803  0.742158  1
  La  La21  1  0.750000  0.641038  0.987927  1
  La  La22  1  0.750000  0.029804  0.922439  1
  La  La23  1  0.750000  0.858962  0.487927  1
  La  La24  1  0.750000  0.306790  0.613465  1
  La  La25  1  0.250000  0.580307  0.258532  1
  La  La26  1  0.250000  0.919693  0.758532  1
  La  La27  1  0.250000  0.471866  0.138472  1
  Sb  Sb28  1  0.750000  0.358587  0.339938  1
  Sb  Sb29  1  0.750000  0.527355  0.658448  1
  Sb  Sb30  1  0.750000  0.972645  0.158448  1
  Sb  Sb31  1  0.250000  0.972696  0.281880  1
  Sb  Sb32  1  0.750000  0.695767  0.216406  1
  Sb  Sb33  1  0.250000  0.304233  0.783594  1
  Sb  Sb34  1  0.750000  0.142850  0.342477  1
  Sb  Sb35  1  0.750000  0.914943  0.841573  1
  Sb  Sb36  1  0.750000  0.366104  0.092803  1
  Sb  Sb37  1  0.250000  0.751248  0.783884  1
  Sb  Sb38  1  0.750000  0.804233  0.716406  1
  Sb  Sb39  1  0.750000  0.027304  0.718120  1
  Sb  Sb40  1  0.250000  0.195893  0.656400  1
  Sb  Sb41  1  0.250000  0.195767  0.283594  1
  Sb  Sb42  1  0.750000  0.248752  0.216116  1
  Sb  Sb43  1  0.250000  0.414943  0.658427  1
  Sb  Sb44  1  0.750000  0.028304  0.466890  1
  Sb  Sb45  1  0.750000  0.471696  0.966890  1
  Sb  Sb46  1  0.250000  0.971696  0.533110  1
  Sb  Sb47  1  0.750000  0.251248  0.716116  1
  Sb  Sb48  1  0.250000  0.527304  0.781880  1
  Sb  Sb49  1  0.250000  0.858587  0.160062  1
  Sb  Sb50  1  0.250000  0.528304  0.033110  1
  Sb  Sb51  1  0.750000  0.141413  0.839938  1
  Sb  Sb52  1  0.250000  0.641413  0.660062  1
  Sb  Sb53  1  0.750000  0.582405  0.091439  1
  Sb  Sb54  1  0.750000  0.585057  0.341573  1
  Sb  Sb55  1  0.250000  0.417595  0.908561  1
  Sb  Sb56  1  0.750000  0.804107  0.343600  1
  Sb  Sb57  1  0.250000  0.866104  0.407197  1
  Sb  Sb58  1  0.250000  0.472645  0.341552  1
  Sb  Sb59  1  0.750000  0.472696  0.218120  1
  Sb  Sb60  1  0.250000  0.633896  0.907197  1
  Sb  Sb61  1  0.750000  0.133896  0.592803  1
  Sb  Sb62  1  0.250000  0.085057  0.158427  1
  Sb  Sb63  1  0.250000  0.857150  0.657523  1
  Sb  Sb64  1  0.250000  0.082405  0.408561  1
  Sb  Sb65  1  0.750000  0.917595  0.591439  1
  Sb  Sb66  1  0.250000  0.748752  0.283884  1
  Sb  Sb67  1  0.750000  0.357150  0.842477  1
  Sb  Sb68  1  0.750000  0.695893  0.843600  1
  Sb  Sb69  1  0.250000  0.304107  0.156400  1
  Sb  Sb70  1  0.250000  0.642850  0.157523  1
  Sb  Sb71  1  0.250000  0.027355  0.841552  1
  Br  Br72  1  0.250000  0.212215  0.047059  1
  Br  Br73  1  0.250000  0.772232  0.539846  1
  Br  Br74  1  0.750000  0.439179  0.539751  1
  Br  Br75  1  0.750000  0.272232  0.960154  1
  Br  Br76  1  0.750000  0.712215  0.452941  1
  Br  Br77  1  0.750000  0.060821  0.039751  1
  Br  Br78  1  0.250000  0.727768  0.039846  1
  Br  Br79  1  0.250000  0.560821  0.460249  1
  Br  Br80  1  0.250000  0.287785  0.547060  1
  Br  Br81  1  0.250000  0.373787  0.449284  1
  Br  Br82  1  0.750000  0.626213  0.550716  1
  Br  Br83  1  0.250000  0.939179  0.960249  1
  Br  Br84  1  0.250000  0.126213  0.949284  1
  Br  Br85  1  0.750000  0.873787  0.050716  1
  Br  Br86  1  0.750000  0.227768  0.460154  1
  Br  Br87  1  0.750000  0.787785  0.952940  1
