# generated using pymatgen
data_KLi4AlO4
_symmetry_space_group_name_H-M   'P 1'
_cell_length_a   5.60137217
_cell_length_b   10.66406231
_cell_length_c   15.59877449
_cell_angle_alpha   90.00000000
_cell_angle_beta   90.00000000
_cell_angle_gamma   100.03632890
_symmetry_Int_Tables_number   1
_chemical_formula_structural   KLi4AlO4
_chemical_formula_sum   'K8 Li32 Al8 O32'
_cell_volume   917.50913563
_cell_formula_units_Z   8
loop_
 _symmetry_equiv_pos_site_id
 _symmetry_equiv_pos_as_xyz
  1  'x, y, z'
loop_
 _atom_site_type_symbol
 _atom_site_label
 _atom_site_symmetry_multiplicity
 _atom_site_fract_x
 _atom_site_fract_y
 _atom_site_fract_z
 _atom_site_occupancy
  K  K0  1  0.365669  0.771658  0.797128  1
  K  K1  1  0.634331  0.228342  0.202872  1
  K  K2  1  0.617295  0.666270  0.428071  1
  K  K3  1  0.882705  0.833730  0.928071  1
  K  K4  1  0.382705  0.333730  0.571929  1
  K  K5  1  0.117295  0.166270  0.071929  1
  K  K6  1  0.865669  0.271658  0.702872  1
  K  K7  1  0.134331  0.728342  0.297128  1
  Li  Li8  1  0.481915  0.542500  0.922479  1
  Li  Li9  1  0.682272  0.770313  0.622767  1
  Li  Li10  1  0.297508  0.627973  0.620392  1
  Li  Li11  1  0.702492  0.372027  0.379608  1
  Li  Li12  1  0.412560  0.627794  0.161542  1
  Li  Li13  1  0.522273  0.992341  0.346680  1
  Li  Li14  1  0.018085  0.957500  0.422479  1
  Li  Li15  1  0.112289  0.423093  0.980128  1
  Li  Li16  1  0.022273  0.492341  0.153320  1
  Li  Li17  1  0.202492  0.872027  0.120392  1
  Li  Li18  1  0.117557  0.477667  0.432909  1
  Li  Li19  1  0.132153  0.023576  0.238559  1
  Li  Li20  1  0.981915  0.042500  0.577521  1
  Li  Li21  1  0.387711  0.076907  0.480128  1
  Li  Li22  1  0.477727  0.007659  0.653320  1
  Li  Li23  1  0.882443  0.522333  0.567091  1
  Li  Li24  1  0.087440  0.872206  0.661542  1
  Li  Li25  1  0.977727  0.507659  0.846680  1
  Li  Li26  1  0.912560  0.127794  0.338458  1
  Li  Li27  1  0.617557  0.977667  0.067091  1
  Li  Li28  1  0.587440  0.372206  0.838458  1
  Li  Li29  1  0.317728  0.229687  0.377233  1
  Li  Li30  1  0.817728  0.729687  0.122767  1
  Li  Li31  1  0.632153  0.523576  0.261441  1
  Li  Li32  1  0.612289  0.923093  0.519872  1
  Li  Li33  1  0.867847  0.976424  0.761441  1
  Li  Li34  1  0.887711  0.576907  0.019872  1
  Li  Li35  1  0.797508  0.127973  0.879608  1
  Li  Li36  1  0.367847  0.476424  0.738559  1
  Li  Li37  1  0.182272  0.270313  0.877233  1
  Li  Li38  1  0.518085  0.457500  0.077521  1
  Li  Li39  1  0.382443  0.022333  0.932909  1
  Al  Al40  1  0.807179  0.618873  0.726489  1
  Al  Al41  1  0.680390  0.296856  0.983730  1
  Al  Al42  1  0.319610  0.703144  0.016270  1
  Al  Al43  1  0.819610  0.203144  0.483730  1
  Al  Al44  1  0.692821  0.881127  0.226489  1
  Al  Al45  1  0.192821  0.381127  0.273511  1
  Al  Al46  1  0.180390  0.796856  0.516270  1
  Al  Al47  1  0.307179  0.118873  0.773511  1
  O  O48  1  0.374385  0.824959  0.609122  1
  O  O49  1  0.114774  0.077639  0.865630  1
  O  O50  1  0.922992  0.449173  0.284922  1
  O  O51  1  0.852946  0.951030  0.317772  1
  O  O52  1  0.385226  0.422361  0.365630  1
  O  O53  1  0.854025  0.788842  0.737010  1
  O  O54  1  0.885226  0.922361  0.134370  1
  O  O55  1  0.077008  0.550827  0.715078  1
  O  O56  1  0.367556  0.867858  0.997040  1
  O  O57  1  0.145975  0.211158  0.262990  1
  O  O58  1  0.125615  0.675041  0.109122  1
  O  O59  1  0.354025  0.288842  0.762990  1
  O  O60  1  0.867556  0.367858  0.502960  1
  O  O61  1  0.632444  0.132142  0.002960  1
  O  O62  1  0.161356  0.602044  0.936270  1
  O  O63  1  0.625615  0.175041  0.390878  1
  O  O64  1  0.090352  0.139932  0.463883  1
  O  O65  1  0.577008  0.050827  0.784922  1
  O  O66  1  0.352946  0.451030  0.182228  1
  O  O67  1  0.647054  0.548970  0.817772  1
  O  O68  1  0.338644  0.897956  0.436270  1
  O  O69  1  0.874385  0.324959  0.890878  1
  O  O70  1  0.614774  0.577639  0.634370  1
  O  O71  1  0.132444  0.632142  0.497040  1
  O  O72  1  0.590352  0.639932  0.036117  1
  O  O73  1  0.661356  0.102044  0.563730  1
  O  O74  1  0.838644  0.397956  0.063730  1
  O  O75  1  0.147054  0.048970  0.682228  1
  O  O76  1  0.422992  0.949173  0.215078  1
  O  O77  1  0.645975  0.711158  0.237010  1
  O  O78  1  0.909648  0.860068  0.536117  1
  O  O79  1  0.409648  0.360068  0.963883  1
