# generated using pymatgen
data_K2Sr(NbCl3)6
_symmetry_space_group_name_H-M   'P 1'
_cell_length_a   10.41062871
_cell_length_b   10.41062792
_cell_length_c   10.41062857
_cell_angle_alpha   54.47104309
_cell_angle_beta   54.47104617
_cell_angle_gamma   54.47104646
_symmetry_Int_Tables_number   1
_chemical_formula_structural   K2Sr(NbCl3)6
_chemical_formula_sum   'K2 Sr1 Nb6 Cl18'
_cell_volume   694.98778856
_cell_formula_units_Z   1
loop_
 _symmetry_equiv_pos_site_id
 _symmetry_equiv_pos_as_xyz
  1  'x, y, z'
loop_
 _atom_site_type_symbol
 _atom_site_label
 _atom_site_symmetry_multiplicity
 _atom_site_fract_x
 _atom_site_fract_y
 _atom_site_fract_z
 _atom_site_occupancy
  K  K0  1  0.221700  0.221700  0.221700  1
  K  K1  1  0.778300  0.778300  0.778300  1
  Sr  Sr2  1  0.500000  0.500000  0.500000  1
  Nb  Nb3  1  0.792273  0.926331  0.145844  1
  Nb  Nb4  1  0.207727  0.073669  0.854156  1
  Nb  Nb5  1  0.926331  0.145844  0.792273  1
  Nb  Nb6  1  0.073669  0.854156  0.207727  1
  Nb  Nb7  1  0.145844  0.792273  0.926331  1
  Nb  Nb8  1  0.854156  0.207727  0.073669  1
  Cl  Cl9  1  0.477130  0.160898  0.672360  1
  Cl  Cl10  1  0.082766  0.925997  0.669530  1
  Cl  Cl11  1  0.074003  0.330470  0.917234  1
  Cl  Cl12  1  0.925997  0.669530  0.082766  1
  Cl  Cl13  1  0.258028  0.584736  0.157371  1
  Cl  Cl14  1  0.669530  0.082766  0.925997  1
  Cl  Cl15  1  0.160898  0.672360  0.477130  1
  Cl  Cl16  1  0.842629  0.741972  0.415264  1
  Cl  Cl17  1  0.741972  0.415264  0.842629  1
  Cl  Cl18  1  0.839102  0.327640  0.522870  1
  Cl  Cl19  1  0.157371  0.258028  0.584736  1
  Cl  Cl20  1  0.415264  0.842629  0.741972  1
  Cl  Cl21  1  0.917234  0.074003  0.330470  1
  Cl  Cl22  1  0.327640  0.522870  0.839102  1
  Cl  Cl23  1  0.584736  0.157371  0.258028  1
  Cl  Cl24  1  0.330470  0.917234  0.074003  1
  Cl  Cl25  1  0.522870  0.839102  0.327640  1
  Cl  Cl26  1  0.672360  0.477130  0.160898  1
