# generated using pymatgen
data_Hg3SbAsS3
_symmetry_space_group_name_H-M   'P 1'
_cell_length_a   4.57962233
_cell_length_b   11.97738667
_cell_length_c   16.02719545
_cell_angle_alpha   91.66676579
_cell_angle_beta   90.00000000
_cell_angle_gamma   90.00000000
_symmetry_Int_Tables_number   1
_chemical_formula_structural   Hg3SbAsS3
_chemical_formula_sum   'Hg12 Sb4 As4 S12'
_cell_volume   878.75028528
_cell_formula_units_Z   4
loop_
 _symmetry_equiv_pos_site_id
 _symmetry_equiv_pos_as_xyz
  1  'x, y, z'
loop_
 _atom_site_type_symbol
 _atom_site_label
 _atom_site_symmetry_multiplicity
 _atom_site_fract_x
 _atom_site_fract_y
 _atom_site_fract_z
 _atom_site_occupancy
  Hg  Hg0  1  0.267905  0.633718  0.576098  1
  Hg  Hg1  1  0.123685  0.119600  0.820634  1
  Hg  Hg2  1  0.376315  0.619600  0.320634  1
  Hg  Hg3  1  0.221278  0.105838  0.312287  1
  Hg  Hg4  1  0.767905  0.866282  0.923902  1
  Hg  Hg5  1  0.778722  0.894162  0.687713  1
  Hg  Hg6  1  0.623685  0.380400  0.679366  1
  Hg  Hg7  1  0.232095  0.133718  0.076098  1
  Hg  Hg8  1  0.732095  0.366282  0.423902  1
  Hg  Hg9  1  0.876315  0.880400  0.179366  1
  Hg  Hg10  1  0.278722  0.605838  0.812287  1
  Hg  Hg11  1  0.721278  0.394162  0.187713  1
  Sb  Sb12  1  0.308226  0.645882  0.049651  1
  Sb  Sb13  1  0.191774  0.145882  0.549651  1
  Sb  Sb14  1  0.691774  0.354118  0.950349  1
  Sb  Sb15  1  0.808226  0.854118  0.450349  1
  As  As16  1  0.637450  0.593366  0.691763  1
  As  As17  1  0.862550  0.093366  0.191763  1
  As  As18  1  0.362550  0.406634  0.308237  1
  As  As19  1  0.137450  0.906634  0.808237  1
  S  S20  1  0.396523  0.850665  0.034511  1
  S  S21  1  0.557709  0.120715  0.430747  1
  S  S22  1  0.896523  0.649335  0.465489  1
  S  S23  1  0.456328  0.823543  0.334413  1
  S  S24  1  0.103477  0.350665  0.534511  1
  S  S25  1  0.442291  0.879285  0.569253  1
  S  S26  1  0.956328  0.676457  0.165587  1
  S  S27  1  0.057709  0.379285  0.069253  1
  S  S28  1  0.942291  0.620715  0.930747  1
  S  S29  1  0.043672  0.323543  0.834413  1
  S  S30  1  0.543672  0.176457  0.665587  1
  S  S31  1  0.603477  0.149335  0.965489  1
