# generated using pymatgen
data_Th2Zn17
_symmetry_space_group_name_H-M   'P 1'
_cell_length_a   6.85824547
_cell_length_b   6.85824576
_cell_length_c   6.85824548
_cell_angle_alpha   82.98781906
_cell_angle_beta   82.98781866
_cell_angle_gamma   82.98781378
_symmetry_Int_Tables_number   1
_chemical_formula_structural   Th2Zn17
_chemical_formula_sum   'Th2 Zn17'
_cell_volume   315.88725143
_cell_formula_units_Z   1
loop_
 _symmetry_equiv_pos_site_id
 _symmetry_equiv_pos_as_xyz
  1  'x, y, z'
loop_
 _atom_site_type_symbol
 _atom_site_label
 _atom_site_symmetry_multiplicity
 _atom_site_fract_x
 _atom_site_fract_y
 _atom_site_fract_z
 _atom_site_occupancy
  Th  Th0  1  0.337008  0.337008  0.337008  1
  Th  Th1  1  0.662992  0.662992  0.662992  1
  Zn  Zn2  1  0.000000  0.000000  0.500000  1
  Zn  Zn3  1  0.500000  0.000000  0.000000  1
  Zn  Zn4  1  0.000000  0.500000  0.000000  1
  Zn  Zn5  1  0.293186  0.706814  0.000000  1
  Zn  Zn6  1  1.000000  0.293186  0.706814  1
  Zn  Zn7  1  0.706814  0.000000  0.293186  1
  Zn  Zn8  1  0.706814  0.293186  1.000000  1
  Zn  Zn9  1  0.000000  0.706814  0.293186  1
  Zn  Zn10  1  0.293186  1.000000  0.706814  1
  Zn  Zn11  1  0.649478  0.161090  0.649478  1
  Zn  Zn12  1  0.649478  0.649478  0.161090  1
  Zn  Zn13  1  0.161090  0.649478  0.649478  1
  Zn  Zn14  1  0.838910  0.350522  0.350522  1
  Zn  Zn15  1  0.350522  0.838910  0.350522  1
  Zn  Zn16  1  0.350522  0.350522  0.838910  1
  Zn  Zn17  1  0.098578  0.098578  0.098578  1
  Zn  Zn18  1  0.901422  0.901422  0.901422  1
