# generated using pymatgen
data_Rb2Nb2P2S11
_symmetry_space_group_name_H-M   'P 1'
_cell_length_a   7.13492010
_cell_length_b   7.14772115
_cell_length_c   18.88364547
_cell_angle_alpha   90.00000000
_cell_angle_beta   98.59422047
_cell_angle_gamma   90.00000000
_symmetry_Int_Tables_number   1
_chemical_formula_structural   Rb2Nb2P2S11
_chemical_formula_sum   'Rb4 Nb4 P4 S22'
_cell_volume   952.22258124
_cell_formula_units_Z   2
loop_
 _symmetry_equiv_pos_site_id
 _symmetry_equiv_pos_as_xyz
  1  'x, y, z'
loop_
 _atom_site_type_symbol
 _atom_site_label
 _atom_site_symmetry_multiplicity
 _atom_site_fract_x
 _atom_site_fract_y
 _atom_site_fract_z
 _atom_site_occupancy
  Rb  Rb0  1  0.251663  0.750000  0.996075  1
  Rb  Rb1  1  0.748337  0.250000  0.003925  1
  Rb  Rb2  1  0.227541  0.750000  0.507688  1
  Rb  Rb3  1  0.772459  0.250000  0.492312  1
  Nb  Nb4  1  0.697338  0.049083  0.755474  1
  Nb  Nb5  1  0.302662  0.549083  0.244526  1
  Nb  Nb6  1  0.302662  0.950917  0.244526  1
  Nb  Nb7  1  0.697338  0.450917  0.755474  1
  P  P8  1  0.687331  0.750000  0.892405  1
  P  P9  1  0.791898  0.750000  0.626458  1
  P  P10  1  0.312669  0.250000  0.107595  1
  P  P11  1  0.208101  0.250000  0.373542  1
  S  S12  1  0.400244  0.250000  0.732667  1
  S  S13  1  0.262940  0.250000  0.481011  1
  S  S14  1  0.479964  0.477850  0.142464  1
  S  S15  1  0.063985  0.750000  0.187250  1
  S  S16  1  0.229824  0.250000  0.002164  1
  S  S17  1  0.560830  0.250000  0.653863  1
  S  S18  1  0.439170  0.750000  0.346137  1
  S  S19  1  0.770176  0.750000  0.997836  1
  S  S20  1  0.545914  0.750000  0.676007  1
  S  S21  1  0.108573  0.250000  0.174875  1
  S  S22  1  0.936015  0.250000  0.812750  1
  S  S23  1  0.938348  0.983532  0.666922  1
  S  S24  1  0.479964  0.022150  0.142464  1
  S  S25  1  0.599756  0.750000  0.267333  1
  S  S26  1  0.737060  0.750000  0.518989  1
  S  S27  1  0.938348  0.516468  0.666922  1
  S  S28  1  0.520036  0.977850  0.857536  1
  S  S29  1  0.520036  0.522150  0.857536  1
  S  S30  1  0.061652  0.016468  0.333078  1
  S  S31  1  0.891427  0.750000  0.825125  1
  S  S32  1  0.454086  0.250000  0.323993  1
  S  S33  1  0.061652  0.483532  0.333078  1
