# generated using pymatgen
data_InSiTe3
_symmetry_space_group_name_H-M   'P 1'
_cell_length_a   7.38382813
_cell_length_b   7.38382767
_cell_length_c   5.26796694
_cell_angle_alpha   90.00000000
_cell_angle_beta   90.00000000
_cell_angle_gamma   120.00000207
_symmetry_Int_Tables_number   1
_chemical_formula_structural   InSiTe3
_chemical_formula_sum   'In1 Si1 Te3'
_cell_volume   248.73493977
_cell_formula_units_Z   1
loop_
 _symmetry_equiv_pos_site_id
 _symmetry_equiv_pos_as_xyz
  1  'x, y, z'
loop_
 _atom_site_type_symbol
 _atom_site_label
 _atom_site_symmetry_multiplicity
 _atom_site_fract_x
 _atom_site_fract_y
 _atom_site_fract_z
 _atom_site_occupancy
  In  In0  1  0.333333  0.666667  0.463301  1
  Si  Si1  1  0.000000  0.000000  0.276676  1
  Te  Te2  1  0.355076  0.300592  0.266738  1
  Te  Te3  1  0.699408  0.054484  0.266738  1
  Te  Te4  1  0.945516  0.644924  0.266738  1
