# generated using pymatgen
data_CuCClO
_symmetry_space_group_name_H-M   'P 1'
_cell_length_a   3.66227286
_cell_length_b   5.04768403
_cell_length_c   8.38342123
_cell_angle_alpha   90.00000000
_cell_angle_beta   90.00000000
_cell_angle_gamma   90.00000000
_symmetry_Int_Tables_number   1
_chemical_formula_structural   CuCClO
_chemical_formula_sum   'Cu2 C2 Cl2 O2'
_cell_volume   154.97589324
_cell_formula_units_Z   2
loop_
 _symmetry_equiv_pos_site_id
 _symmetry_equiv_pos_as_xyz
  1  'x, y, z'
loop_
 _atom_site_type_symbol
 _atom_site_label
 _atom_site_symmetry_multiplicity
 _atom_site_fract_x
 _atom_site_fract_y
 _atom_site_fract_z
 _atom_site_occupancy
  Cu  Cu0  1  0.500000  0.505145  0.142377  1
  Cu  Cu1  1  0.000000  0.005145  0.857623  1
  C  C2  1  0.000000  0.206823  0.679912  1
  C  C3  1  0.500000  0.706823  0.320088  1
  Cl  Cl4  1  0.000000  0.210854  0.111476  1
  Cl  Cl5  1  0.500000  0.710854  0.888524  1
  O  O6  1  0.000000  0.332577  0.565166  1
  O  O7  1  0.500000  0.832577  0.434834  1
