# generated using pymatgen
data_FePO4
_symmetry_space_group_name_H-M   'P 1'
_cell_length_a   5.60502621
_cell_length_b   7.56730100
_cell_length_c   8.18968631
_cell_angle_alpha   90.00000000
_cell_angle_beta   96.62468453
_cell_angle_gamma   90.00000000
_symmetry_Int_Tables_number   1
_chemical_formula_structural   FePO4
_chemical_formula_sum   'Fe4 P4 O16'
_cell_volume   345.04559187
_cell_formula_units_Z   4
loop_
 _symmetry_equiv_pos_site_id
 _symmetry_equiv_pos_as_xyz
  1  'x, y, z'
loop_
 _atom_site_type_symbol
 _atom_site_label
 _atom_site_symmetry_multiplicity
 _atom_site_fract_x
 _atom_site_fract_y
 _atom_site_fract_z
 _atom_site_occupancy
  Fe  Fe0  1  0.111005  0.308885  0.439823  1
  Fe  Fe1  1  0.388995  0.808885  0.060177  1
  Fe  Fe2  1  0.888995  0.691115  0.560177  1
  Fe  Fe3  1  0.611005  0.191115  0.939823  1
  P  P4  1  0.585764  0.454715  0.269810  1
  P  P5  1  0.414236  0.545285  0.730190  1
  P  P6  1  0.085764  0.045285  0.769810  1
  P  P7  1  0.914236  0.954715  0.230190  1
  O  O8  1  0.870089  0.857335  0.387447  1
  O  O9  1  0.415000  0.349713  0.367061  1
  O  O10  1  0.085000  0.849713  0.132939  1
  O  O11  1  0.492075  0.642101  0.232748  1
  O  O12  1  0.370089  0.642665  0.887447  1
  O  O13  1  0.666460  0.973168  0.115633  1
  O  O14  1  0.629911  0.357335  0.112553  1
  O  O15  1  0.166460  0.526832  0.615633  1
  O  O16  1  0.007925  0.142101  0.267252  1
  O  O17  1  0.129911  0.142665  0.612553  1
  O  O18  1  0.915000  0.150287  0.867061  1
  O  O19  1  0.585000  0.650287  0.632939  1
  O  O20  1  0.833540  0.473168  0.384367  1
  O  O21  1  0.507925  0.357899  0.767252  1
  O  O22  1  0.992075  0.857899  0.732748  1
  O  O23  1  0.333540  0.026832  0.884367  1
