# generated using pymatgen
data_CuH12C4(NO)6
_symmetry_space_group_name_H-M   'P 1'
_cell_length_a   9.14677737
_cell_length_b   9.14677737
_cell_length_c   12.77044338
_cell_angle_alpha   90.00000000
_cell_angle_beta   90.00000000
_cell_angle_gamma   90.00000000
_symmetry_Int_Tables_number   1
_chemical_formula_structural   CuH12C4(NO)6
_chemical_formula_sum   'Cu4 H48 C16 N24 O24'
_cell_volume   1068.42045273
_cell_formula_units_Z   4
loop_
 _symmetry_equiv_pos_site_id
 _symmetry_equiv_pos_as_xyz
  1  'x, y, z'
loop_
 _atom_site_type_symbol
 _atom_site_label
 _atom_site_symmetry_multiplicity
 _atom_site_fract_x
 _atom_site_fract_y
 _atom_site_fract_z
 _atom_site_occupancy
  Cu  Cu0  1  0.000000  0.500000  0.250000  1
  Cu  Cu1  1  0.500000  0.500000  0.500000  1
  Cu  Cu2  1  0.000000  0.000000  0.000000  1
  Cu  Cu3  1  0.500000  0.000000  0.750000  1
  H  H4  1  0.686674  0.823150  0.041432  1
  H  H5  1  0.813326  0.323150  0.541432  1
  H  H6  1  0.471744  0.373854  0.251886  1
  H  H7  1  0.373854  0.528256  0.748114  1
  H  H8  1  0.484424  0.140480  0.981456  1
  H  H9  1  0.359520  0.015576  0.518544  1
  H  H10  1  0.807988  0.804731  0.682685  1
  H  H11  1  0.688521  0.647481  0.178320  1
  H  H12  1  0.822426  0.700128  0.920160  1
  H  H13  1  0.186674  0.676850  0.541432  1
  H  H14  1  0.323150  0.186674  0.458568  1
  H  H15  1  0.984424  0.359520  0.481456  1
  H  H16  1  0.811479  0.147481  0.678320  1
  H  H17  1  0.311479  0.352519  0.178320  1
  H  H18  1  0.028256  0.873854  0.751886  1
  H  H19  1  0.176850  0.686674  0.958568  1
  H  H20  1  0.676850  0.813326  0.458568  1
  H  H21  1  0.188521  0.852519  0.678320  1
  H  H22  1  0.873854  0.971744  0.248114  1
  H  H23  1  0.307988  0.695269  0.182685  1
  H  H24  1  0.126146  0.028256  0.248114  1
  H  H25  1  0.322426  0.799872  0.420160  1
  H  H26  1  0.195269  0.807988  0.317315  1
  H  H27  1  0.700128  0.177574  0.079840  1
  H  H28  1  0.147481  0.188521  0.321680  1
  H  H29  1  0.971744  0.126146  0.751886  1
  H  H30  1  0.692012  0.304731  0.182685  1
  H  H31  1  0.677574  0.200128  0.420160  1
  H  H32  1  0.528256  0.626146  0.251886  1
  H  H33  1  0.140480  0.515576  0.018544  1
  H  H34  1  0.852519  0.811479  0.321680  1
  H  H35  1  0.313326  0.176850  0.041432  1
  H  H36  1  0.304731  0.307988  0.817315  1
  H  H37  1  0.823150  0.313326  0.958568  1
  H  H38  1  0.515576  0.859520  0.981456  1
  H  H39  1  0.799872  0.677574  0.579840  1
  H  H40  1  0.352519  0.688521  0.821680  1
  H  H41  1  0.015576  0.640480  0.481456  1
  H  H42  1  0.647481  0.311479  0.821680  1
  H  H43  1  0.695269  0.692012  0.817315  1
  H  H44  1  0.299872  0.822426  0.079840  1
  H  H45  1  0.859520  0.484424  0.018544  1
  H  H46  1  0.640480  0.984424  0.518544  1
  H  H47  1  0.200128  0.322426  0.579840  1
  H  H48  1  0.177574  0.299872  0.920160  1
  H  H49  1  0.804731  0.192012  0.317315  1
  H  H50  1  0.192012  0.195269  0.682685  1
  H  H51  1  0.626146  0.471744  0.748114  1
  C  C52  1  0.752707  0.494039  0.878361  1
  C  C53  1  0.957397  0.743704  0.119713  1
  C  C54  1  0.457397  0.756296  0.619713  1
  C  C55  1  0.243704  0.457397  0.380287  1
  C  C56  1  0.494039  0.247293  0.121639  1
  C  C57  1  0.743704  0.042603  0.880287  1
  C  C58  1  0.747293  0.994039  0.378361  1
  C  C59  1  0.256296  0.957397  0.880287  1
  C  C60  1  0.247293  0.505961  0.878361  1
  C  C61  1  0.994039  0.252707  0.621639  1
  C  C62  1  0.542603  0.243704  0.619713  1
  C  C63  1  0.505961  0.752707  0.121639  1
  C  C64  1  0.042603  0.256296  0.119713  1
  C  C65  1  0.756296  0.542603  0.380287  1
  C  C66  1  0.005961  0.747293  0.621639  1
  C  C67  1  0.252707  0.005961  0.378361  1
  N  N68  1  0.139264  0.259155  0.629593  1
  N  N69  1  0.574816  0.824062  0.044710  1
  N  N70  1  0.425184  0.175938  0.044710  1
  N  N71  1  0.582467  0.676634  0.192634  1
  N  N72  1  0.676634  0.417533  0.807366  1
  N  N73  1  0.074816  0.675938  0.544710  1
  N  N74  1  0.759155  0.639264  0.870407  1
  N  N75  1  0.240845  0.360736  0.870407  1
  N  N76  1  0.917533  0.176634  0.692634  1
  N  N77  1  0.259155  0.860736  0.370407  1
  N  N78  1  0.360736  0.759155  0.129593  1
  N  N79  1  0.740845  0.139264  0.370407  1
  N  N80  1  0.417533  0.323366  0.192634  1
  N  N81  1  0.176634  0.082467  0.307366  1
  N  N82  1  0.860736  0.740845  0.629593  1
  N  N83  1  0.082467  0.823366  0.692634  1
  N  N84  1  0.675938  0.925184  0.455290  1
  N  N85  1  0.175938  0.574816  0.955290  1
  N  N86  1  0.639264  0.240845  0.129593  1
  N  N87  1  0.323366  0.582467  0.807366  1
  N  N88  1  0.925184  0.324062  0.544710  1
  N  N89  1  0.324062  0.074816  0.455290  1
  N  N90  1  0.824062  0.425184  0.955290  1
  N  N91  1  0.823366  0.917533  0.307366  1
  O  O92  1  0.187970  0.901819  0.962056  1
  O  O93  1  0.886555  0.600273  0.361741  1
  O  O94  1  0.687970  0.598181  0.462056  1
  O  O95  1  0.113445  0.399727  0.361741  1
  O  O96  1  0.298258  0.556620  0.323556  1
  O  O97  1  0.598181  0.312030  0.537944  1
  O  O98  1  0.201742  0.056620  0.823556  1
  O  O99  1  0.701742  0.443380  0.323556  1
  O  O100  1  0.098181  0.187970  0.037944  1
  O  O101  1  0.812030  0.098181  0.962056  1
  O  O102  1  0.798258  0.943380  0.823556  1
  O  O103  1  0.943380  0.201742  0.176444  1
  O  O104  1  0.556620  0.701742  0.676444  1
  O  O105  1  0.386555  0.899727  0.861741  1
  O  O106  1  0.443380  0.298258  0.676444  1
  O  O107  1  0.600273  0.113445  0.638259  1
  O  O108  1  0.056620  0.798258  0.176444  1
  O  O109  1  0.613445  0.100273  0.861741  1
  O  O110  1  0.399727  0.886555  0.638259  1
  O  O111  1  0.100273  0.386555  0.138259  1
  O  O112  1  0.401819  0.687970  0.537944  1
  O  O113  1  0.899727  0.613445  0.138259  1
  O  O114  1  0.312030  0.401819  0.462056  1
  O  O115  1  0.901819  0.812030  0.037944  1
