# generated using pymatgen
data_Cu(CO)4
_symmetry_space_group_name_H-M   'P 1'
_cell_length_a   5.84086596
_cell_length_b   7.03895835
_cell_length_c   7.03895814
_cell_angle_alpha   79.66238548
_cell_angle_beta   70.14775223
_cell_angle_gamma   70.14775974
_symmetry_Int_Tables_number   1
_chemical_formula_structural   Cu(CO)4
_chemical_formula_sum   'Cu2 C8 O8'
_cell_volume   255.34881011
_cell_formula_units_Z   2
loop_
 _symmetry_equiv_pos_site_id
 _symmetry_equiv_pos_as_xyz
  1  'x, y, z'
loop_
 _atom_site_type_symbol
 _atom_site_label
 _atom_site_symmetry_multiplicity
 _atom_site_fract_x
 _atom_site_fract_y
 _atom_site_fract_z
 _atom_site_occupancy
  Cu  Cu0  1  0.750000  0.087014  0.912986  1
  Cu  Cu1  1  0.250000  0.912986  0.087014  1
  C  C2  1  0.620205  0.028243  0.357937  1
  C  C3  1  0.401055  0.946152  0.432978  1
  C  C4  1  0.901055  0.432978  0.946152  1
  C  C5  1  0.879795  0.642063  0.971757  1
  C  C6  1  0.120205  0.357937  0.028243  1
  C  C7  1  0.098945  0.567022  0.053848  1
  C  C8  1  0.598945  0.053848  0.567022  1
  C  C9  1  0.379795  0.971757  0.642063  1
  O  O10  1  0.223803  0.936078  0.809331  1
  O  O11  1  0.776954  0.364562  0.875179  1
  O  O12  1  0.223046  0.635438  0.124821  1
  O  O13  1  0.723046  0.124821  0.635438  1
  O  O14  1  0.776197  0.063922  0.190669  1
  O  O15  1  0.276197  0.190669  0.063922  1
  O  O16  1  0.723803  0.809331  0.936078  1
  O  O17  1  0.276954  0.875179  0.364562  1
