# generated using pymatgen
data_CS2(NCl)3
_symmetry_space_group_name_H-M   'P 1'
_cell_length_a   7.71574285
_cell_length_b   9.65845294
_cell_length_c   11.98297601
_cell_angle_alpha   85.22423350
_cell_angle_beta   77.87454165
_cell_angle_gamma   76.00105051
_symmetry_Int_Tables_number   1
_chemical_formula_structural   CS2(NCl)3
_chemical_formula_sum   'C4 S8 N12 Cl12'
_cell_volume   846.64851499
_cell_formula_units_Z   4
loop_
 _symmetry_equiv_pos_site_id
 _symmetry_equiv_pos_as_xyz
  1  'x, y, z'
loop_
 _atom_site_type_symbol
 _atom_site_label
 _atom_site_symmetry_multiplicity
 _atom_site_fract_x
 _atom_site_fract_y
 _atom_site_fract_z
 _atom_site_occupancy
  C  C0  1  0.745558  0.329898  0.625924  1
  C  C1  1  0.740225  0.900462  0.168300  1
  C  C2  1  0.259775  0.099538  0.831700  1
  C  C3  1  0.254442  0.670102  0.374076  1
  S  S4  1  0.804510  0.578709  0.636416  1
  S  S5  1  0.034593  0.334140  0.892982  1
  S  S6  1  0.195490  0.421291  0.363584  1
  S  S7  1  0.965407  0.665860  0.107018  1
  S  S8  1  0.521927  0.481432  0.782972  1
  S  S9  1  0.698841  0.806012  0.983749  1
  S  S10  1  0.478073  0.518568  0.217028  1
  S  S11  1  0.301159  0.193988  0.016251  1
  N  N12  1  0.878399  0.797364  0.191366  1
  N  N13  1  0.346180  0.076770  0.918739  1
  N  N14  1  0.337429  0.415145  0.242292  1
  N  N15  1  0.156538  0.576109  0.419060  1
  N  N16  1  0.834343  0.660081  0.019749  1
  N  N17  1  0.165657  0.339919  0.980251  1
  N  N18  1  0.121601  0.202636  0.808634  1
  N  N19  1  0.843462  0.423891  0.580940  1
  N  N20  1  0.603149  0.337251  0.711434  1
  N  N21  1  0.653820  0.923230  0.081261  1
  N  N22  1  0.396851  0.662749  0.288566  1
  N  N23  1  0.662571  0.584855  0.757708  1
  Cl  Cl24  1  0.707946  0.417448  0.295864  1
  Cl  Cl25  1  0.856031  0.898834  0.840778  1
  Cl  Cl26  1  0.793235  0.269320  0.992653  1
  Cl  Cl27  1  0.206765  0.730680  0.007347  1
  Cl  Cl28  1  0.349084  0.976452  0.726175  1
  Cl  Cl29  1  0.143969  0.101166  0.159222  1
  Cl  Cl30  1  0.292054  0.582552  0.704136  1
  Cl  Cl31  1  0.338964  0.280824  0.479954  1
  Cl  Cl32  1  0.650916  0.023548  0.273825  1
  Cl  Cl33  1  0.822986  0.164288  0.565362  1
  Cl  Cl34  1  0.177014  0.835712  0.434638  1
  Cl  Cl35  1  0.661036  0.719176  0.520046  1
