# generated using pymatgen
data_LiAuF4
_symmetry_space_group_name_H-M   'P 1'
_cell_length_a   4.98357337
_cell_length_b   6.62132965
_cell_length_c   10.15701318
_cell_angle_alpha   90.00000000
_cell_angle_beta   92.87270627
_cell_angle_gamma   90.00000000
_symmetry_Int_Tables_number   1
_chemical_formula_structural   LiAuF4
_chemical_formula_sum   'Li4 Au4 F16'
_cell_volume   334.73874274
_cell_formula_units_Z   4
loop_
 _symmetry_equiv_pos_site_id
 _symmetry_equiv_pos_as_xyz
  1  'x, y, z'
loop_
 _atom_site_type_symbol
 _atom_site_label
 _atom_site_symmetry_multiplicity
 _atom_site_fract_x
 _atom_site_fract_y
 _atom_site_fract_z
 _atom_site_occupancy
  Li  Li0  1  0.500000  0.582569  0.250000  1
  Li  Li1  1  0.000000  0.100378  0.750000  1
  Li  Li2  1  0.500000  0.417431  0.750000  1
  Li  Li3  1  0.000000  0.899622  0.250000  1
  Au  Au4  1  0.500000  0.000000  0.500000  1
  Au  Au5  1  0.500000  0.000000  0.000000  1
  Au  Au6  1  0.000000  0.500000  0.000000  1
  Au  Au7  1  0.000000  0.500000  0.500000  1
  F  F8  1  0.203835  0.082358  0.376012  1
  F  F9  1  0.796165  0.917642  0.623988  1
  F  F10  1  0.706121  0.405433  0.378529  1
  F  F11  1  0.203835  0.917642  0.876012  1
  F  F12  1  0.821845  0.358452  0.642387  1
  F  F13  1  0.677530  0.846092  0.362471  1
  F  F14  1  0.322470  0.153908  0.637529  1
  F  F15  1  0.677530  0.153908  0.862471  1
  F  F16  1  0.821845  0.641548  0.142387  1
  F  F17  1  0.322470  0.846092  0.137529  1
  F  F18  1  0.796165  0.082358  0.123988  1
  F  F19  1  0.293879  0.405433  0.121471  1
  F  F20  1  0.178155  0.358452  0.857613  1
  F  F21  1  0.178155  0.641548  0.357613  1
  F  F22  1  0.293879  0.594567  0.621471  1
  F  F23  1  0.706121  0.594567  0.878529  1
