# generated using pymatgen
data_Ge23Mo13
_symmetry_space_group_name_H-M   'P 1'
_cell_length_a   6.03274332
_cell_length_b   6.03274332
_cell_length_c   64.13074339
_cell_angle_alpha   90.00000000
_cell_angle_beta   90.00000000
_cell_angle_gamma   90.00000000
_symmetry_Int_Tables_number   1
_chemical_formula_structural   Ge23Mo13
_chemical_formula_sum   'Ge92 Mo52'
_cell_volume   2333.97375965
_cell_formula_units_Z   4
loop_
 _symmetry_equiv_pos_site_id
 _symmetry_equiv_pos_as_xyz
  1  'x, y, z'
loop_
 _atom_site_type_symbol
 _atom_site_label
 _atom_site_symmetry_multiplicity
 _atom_site_fract_x
 _atom_site_fract_y
 _atom_site_fract_z
 _atom_site_occupancy
  Ge  Ge0  1  0.835912  0.156637  0.423591  1
  Ge  Ge1  1  0.793933  0.850229  0.966128  1
  Ge  Ge2  1  0.189106  0.850636  0.118257  1
  Ge  Ge3  1  0.169027  0.346213  0.402820  1
  Ge  Ge4  1  0.716000  0.850069  0.359724  1
  Ge  Ge5  1  0.650679  0.745793  0.837048  1
  Ge  Ge6  1  0.216000  0.649931  0.859724  1
  Ge  Ge7  1  0.150495  0.224899  0.185636  1
  Ge  Ge8  1  0.849321  0.245793  0.337048  1
  Ge  Ge9  1  0.149290  0.302999  0.792078  1
  Ge  Ge10  1  0.649931  0.784000  0.140276  1
  Ge  Ge11  1  0.850636  0.810894  0.881743  1
  Ge  Ge12  1  0.346213  0.830973  0.597180  1
  Ge  Ge13  1  0.674576  0.348431  0.770787  1
  Ge  Ge14  1  0.349321  0.254207  0.837048  1
  Ge  Ge15  1  0.650495  0.275101  0.685636  1
  Ge  Ge16  1  0.802999  0.649290  0.707922  1
  Ge  Ge17  1  0.318563  0.150132  0.055520  1
  Ge  Ge18  1  0.649771  0.706067  0.533872  1
  Ge  Ge19  1  0.350710  0.802999  0.292078  1
  Ge  Ge20  1  0.724899  0.650495  0.314364  1
  Ge  Ge21  1  0.156637  0.164088  0.576409  1
  Ge  Ge22  1  0.275101  0.349505  0.314364  1
  Ge  Ge23  1  0.302999  0.850710  0.207922  1
  Ge  Ge24  1  0.775101  0.150495  0.814364  1
  Ge  Ge25  1  0.150679  0.754207  0.337048  1
  Ge  Ge26  1  0.349632  0.765137  0.988598  1
  Ge  Ge27  1  0.818563  0.349868  0.555520  1
  Ge  Ge28  1  0.150368  0.265137  0.488598  1
  Ge  Ge29  1  0.149931  0.716000  0.640276  1
  Ge  Ge30  1  0.335912  0.343363  0.923591  1
  Ge  Ge31  1  0.245793  0.150679  0.662952  1
  Ge  Ge32  1  0.197001  0.350710  0.707922  1
  Ge  Ge33  1  0.754207  0.849321  0.662952  1
  Ge  Ge34  1  0.350229  0.293933  0.533872  1
  Ge  Ge35  1  0.206067  0.149771  0.966128  1
  Ge  Ge36  1  0.849505  0.775101  0.185636  1
  Ge  Ge37  1  0.151569  0.825424  0.729213  1
  Ge  Ge38  1  0.840123  0.340123  0.250000  1
  Ge  Ge39  1  0.651569  0.674576  0.229213  1
  Ge  Ge40  1  0.174576  0.151569  0.270787  1
  Ge  Ge41  1  0.349868  0.181437  0.444480  1
  Ge  Ge42  1  0.765137  0.650368  0.011402  1
  Ge  Ge43  1  0.843363  0.835912  0.576409  1
  Ge  Ge44  1  0.293933  0.649771  0.466128  1
  Ge  Ge45  1  0.650368  0.234863  0.988598  1
  Ge  Ge46  1  0.825424  0.848431  0.270787  1
  Ge  Ge47  1  0.706067  0.350229  0.466128  1
  Ge  Ge48  1  0.330973  0.846213  0.902820  1
  Ge  Ge49  1  0.265137  0.849632  0.511402  1
  Ge  Ge50  1  0.653787  0.169027  0.597180  1
  Ge  Ge51  1  0.149364  0.189106  0.881743  1
  Ge  Ge52  1  0.181437  0.650132  0.555520  1
  Ge  Ge53  1  0.656637  0.335912  0.076409  1
  Ge  Ge54  1  0.164088  0.843363  0.423591  1
  Ge  Ge55  1  0.849632  0.734863  0.488598  1
  Ge  Ge56  1  0.745793  0.349321  0.162952  1
  Ge  Ge57  1  0.254207  0.650679  0.162952  1
  Ge  Ge58  1  0.150132  0.681437  0.944480  1
  Ge  Ge59  1  0.848431  0.174576  0.729213  1
  Ge  Ge60  1  0.846213  0.669027  0.097180  1
  Ge  Ge61  1  0.325424  0.651569  0.770787  1
  Ge  Ge62  1  0.224899  0.849505  0.814364  1
  Ge  Ge63  1  0.830973  0.653787  0.402820  1
  Ge  Ge64  1  0.284000  0.149931  0.359724  1
  Ge  Ge65  1  0.784000  0.350069  0.859724  1
  Ge  Ge66  1  0.697001  0.149290  0.207922  1
  Ge  Ge67  1  0.664088  0.656637  0.923591  1
  Ge  Ge68  1  0.234863  0.349632  0.011402  1
  Ge  Ge69  1  0.659877  0.840123  0.750000  1
  Ge  Ge70  1  0.689106  0.649364  0.618257  1
  Ge  Ge71  1  0.734863  0.150368  0.511402  1
  Ge  Ge72  1  0.350636  0.689106  0.381743  1
  Ge  Ge73  1  0.849868  0.318563  0.944480  1
  Ge  Ge74  1  0.649364  0.310894  0.381743  1
  Ge  Ge75  1  0.810894  0.149364  0.118257  1
  Ge  Ge76  1  0.149771  0.793933  0.033872  1
  Ge  Ge77  1  0.669027  0.153787  0.902820  1
  Ge  Ge78  1  0.850710  0.697001  0.792078  1
  Ge  Ge79  1  0.850069  0.284000  0.640276  1
  Ge  Ge80  1  0.310894  0.350636  0.618257  1
  Ge  Ge81  1  0.349505  0.724899  0.685636  1
  Ge  Ge82  1  0.649290  0.197001  0.292078  1
  Ge  Ge83  1  0.340123  0.159877  0.750000  1
  Ge  Ge84  1  0.681437  0.849868  0.055520  1
  Ge  Ge85  1  0.343363  0.664088  0.076409  1
  Ge  Ge86  1  0.159877  0.659877  0.250000  1
  Ge  Ge87  1  0.153787  0.330973  0.097180  1
  Ge  Ge88  1  0.348431  0.325424  0.229213  1
  Ge  Ge89  1  0.350069  0.216000  0.140276  1
  Ge  Ge90  1  0.650132  0.818563  0.444480  1
  Ge  Ge91  1  0.850229  0.206067  0.033872  1
  Mo  Mo92  1  0.000000  0.500000  0.826627  1
  Mo  Mo93  1  0.500000  0.000000  0.173373  1
  Mo  Mo94  1  0.500000  0.000000  0.786906  1
  Mo  Mo95  1  0.500000  0.500000  0.039883  1
  Mo  Mo96  1  0.000000  0.000000  0.767762  1
  Mo  Mo97  1  0.000000  0.000000  0.460117  1
  Mo  Mo98  1  0.500000  0.500000  0.422478  1
  Mo  Mo99  1  0.500000  0.000000  0.866606  1
  Mo  Mo100  1  0.000000  0.000000  0.846685  1
  Mo  Mo101  1  0.000000  0.000000  0.232238  1
  Mo  Mo102  1  0.500000  0.000000  0.633394  1
  Mo  Mo103  1  0.000000  0.500000  0.213094  1
  Mo  Mo104  1  0.000000  0.500000  0.366606  1
  Mo  Mo105  1  0.500000  0.500000  0.653315  1
  Mo  Mo106  1  0.000000  0.000000  0.306663  1
  Mo  Mo107  1  0.000000  0.500000  0.133394  1
  Mo  Mo108  1  0.500000  0.500000  0.732238  1
  Mo  Mo109  1  0.500000  0.000000  0.326627  1
  Mo  Mo110  1  0.500000  0.000000  0.250000  1
  Mo  Mo111  1  0.000000  0.500000  0.673373  1
  Mo  Mo112  1  0.000000  0.000000  0.077522  1
  Mo  Mo113  1  0.500000  0.500000  0.113741  1
  Mo  Mo114  1  0.000000  0.500000  0.750000  1
  Mo  Mo115  1  0.500000  0.500000  0.577522  1
  Mo  Mo116  1  0.000000  0.000000  0.153315  1
  Mo  Mo117  1  0.500000  0.000000  0.095031  1
  Mo  Mo118  1  0.000000  0.500000  0.440711  1
  Mo  Mo119  1  0.000000  0.500000  0.059289  1
  Mo  Mo120  1  0.500000  0.000000  0.020002  1
  Mo  Mo121  1  0.500000  0.500000  0.886259  1
  Mo  Mo122  1  0.500000  0.000000  0.940711  1
  Mo  Mo123  1  0.500000  0.500000  0.346685  1
  Mo  Mo124  1  0.500000  0.500000  0.960117  1
  Mo  Mo125  1  0.000000  0.500000  0.979998  1
  Mo  Mo126  1  0.000000  0.500000  0.595031  1
  Mo  Mo127  1  0.500000  0.500000  0.267762  1
  Mo  Mo128  1  0.500000  0.500000  0.806663  1
  Mo  Mo129  1  0.000000  0.000000  0.000000  1
  Mo  Mo130  1  0.000000  0.000000  0.693337  1
  Mo  Mo131  1  0.500000  0.000000  0.713094  1
  Mo  Mo132  1  0.000000  0.500000  0.904969  1
  Mo  Mo133  1  0.000000  0.500000  0.520002  1
  Mo  Mo134  1  0.000000  0.000000  0.539883  1
  Mo  Mo135  1  0.500000  0.000000  0.559289  1
  Mo  Mo136  1  0.000000  0.500000  0.286906  1
  Mo  Mo137  1  0.500000  0.000000  0.404969  1
  Mo  Mo138  1  0.500000  0.000000  0.479998  1
  Mo  Mo139  1  0.500000  0.500000  0.193337  1
  Mo  Mo140  1  0.000000  0.000000  0.613741  1
  Mo  Mo141  1  0.500000  0.500000  0.500000  1
  Mo  Mo142  1  0.000000  0.000000  0.922478  1
  Mo  Mo143  1  0.000000  0.000000  0.386259  1
