# generated using pymatgen
data_Sc(PO3)3
_symmetry_space_group_name_H-M   'P 1'
_cell_length_a   9.84419362
_cell_length_b   11.07865984
_cell_length_c   12.06365871
_cell_angle_alpha   113.73545318
_cell_angle_beta   110.13567808
_cell_angle_gamma   97.98249932
_symmetry_Int_Tables_number   1
_chemical_formula_structural   Sc(PO3)3
_chemical_formula_sum   'Sc6 P18 O54'
_cell_volume   1070.23633476
_cell_formula_units_Z   6
loop_
 _symmetry_equiv_pos_site_id
 _symmetry_equiv_pos_as_xyz
  1  'x, y, z'
loop_
 _atom_site_type_symbol
 _atom_site_label
 _atom_site_symmetry_multiplicity
 _atom_site_fract_x
 _atom_site_fract_y
 _atom_site_fract_z
 _atom_site_occupancy
  Sc  Sc0  1  0.582076  0.595651  0.177644  1
  Sc  Sc1  1  0.570023  0.083099  0.156401  1
  Sc  Sc2  1  0.904432  0.418007  0.822356  1
  Sc  Sc3  1  0.254323  0.232044  0.488049  1
  Sc  Sc4  1  0.266274  0.743995  0.511951  1
  Sc  Sc5  1  0.913622  0.926698  0.843599  1
  P  P6  1  0.992830  0.154474  0.600923  1
  P  P7  1  0.211325  0.892510  0.062956  1
  P  P8  1  0.832895  0.681742  0.056984  1
  P  P9  1  0.173292  0.005869  0.727744  1
  P  P10  1  0.548151  0.211336  0.726572  1
  P  P11  1  0.800197  0.569203  0.620735  1
  P  P12  1  0.275911  0.624757  0.943016  1
  P  P13  1  0.624494  0.945425  0.607867  1
  P  P14  1  0.005393  0.292754  0.048964  1
  P  P15  1  0.945548  0.278125  0.272256  1
  P  P16  1  0.679461  0.948468  0.379265  1
  P  P17  1  0.456430  0.243791  0.951036  1
  P  P18  1  0.648369  0.829553  0.937044  1
  P  P19  1  0.370828  0.589502  0.716929  1
  P  P20  1  0.153899  0.872572  0.283071  1
  P  P21  1  0.321580  0.484764  0.273428  1
  P  P22  1  0.891908  0.553551  0.399077  1
  P  P23  1  0.516627  0.337558  0.392133  1
  O  O24  1  0.945758  0.326427  0.162951  1
  O  O25  1  0.994784  0.142517  0.982700  1
  O  O26  1  0.052019  0.894873  0.998770  1
  O  O27  1  0.982455  0.767638  0.197668  1
  O  O28  1  0.845255  0.062468  0.459692  1
  O  O29  1  0.718470  0.601637  0.079121  1
  O  O30  1  0.885563  0.602776  0.540308  1
  O  O31  1  0.104073  0.234284  0.575811  1
  O  O32  1  0.813721  0.708256  0.724210  1
  O  O33  1  0.284787  0.569970  0.802332  1
  O  O34  1  0.237868  0.822893  0.376272  1
  O  O35  1  0.258138  0.924888  0.660663  1
  O  O36  1  0.553894  0.260692  0.872631  1
  O  O37  1  0.389739  0.367530  0.291460  1
  O  O38  1  0.804953  0.155860  0.209590  1
  O  O39  1  0.049170  0.032342  0.620971  1
  O  O40  1  0.436563  0.256761  0.438390  1
  O  O41  1  0.224606  0.846205  0.176217  1
  O  O42  1  0.622050  0.492903  0.513337  1
  O  O43  1  0.873154  0.602051  0.945833  1
  O  O44  1  0.498173  0.818371  0.561610  1
  O  O45  1  0.264345  0.549319  0.376355  1
  O  O46  1  0.694386  0.805182  0.332528  1
  O  O47  1  0.361596  0.446621  0.623728  1
  O  O48  1  0.338992  0.021948  0.116411  1
  O  O49  1  0.589512  0.984046  0.275790  1
  O  O50  1  0.780220  0.807862  0.042802  1
  O  O51  1  0.553249  0.896102  0.001230  1
  O  O52  1  0.237417  0.765060  0.957198  1
  O  O53  1  0.669779  0.318289  0.736665  1
  O  O54  1  0.151385  0.019500  0.342097  1
  O  O55  1  0.785274  0.948428  0.676940  1
  O  O56  1  0.608333  0.271488  0.323060  1
  O  O57  1  0.608713  0.979566  0.486663  1
  O  O58  1  0.948191  0.236175  0.708289  1
  O  O59  1  0.512083  0.159817  0.017300  1
  O  O60  1  0.387989  0.172964  0.623645  1
  O  O61  1  0.181263  0.388062  0.127369  1
  O  O62  1  0.861858  0.472654  0.667472  1
  O  O63  1  0.433115  0.581625  0.263335  1
  O  O64  1  0.095363  0.946271  0.790410  1
  O  O65  1  0.459275  0.387008  0.037326  1
  O  O66  1  0.928199  0.411371  0.379029  1
  O  O67  1  0.598279  0.076070  0.708540  1
  O  O68  1  0.921949  0.349681  0.962674  1
  O  O69  1  0.139350  0.522516  0.920879  1
  O  O70  1  0.309289  0.677404  0.657903  1
  O  O71  1  0.097476  0.264225  0.339337  1
  O  O72  1  0.427321  0.656218  0.054167  1
  O  O73  1  0.282806  0.163476  0.837049  1
  O  O74  1  0.739902  0.527886  0.291711  1
  O  O75  1  0.548388  0.669988  0.823783  1
  O  O76  1  0.722581  0.905536  0.883589  1
  O  O77  1  0.028262  0.658473  0.424189  1
