# generated using pymatgen
data_Sn3WO6
_symmetry_space_group_name_H-M   'P 1'
_cell_length_a   7.78587412
_cell_length_b   7.78304180
_cell_length_c   13.75646393
_cell_angle_alpha   95.10037239
_cell_angle_beta   103.10203492
_cell_angle_gamma   116.14525784
_symmetry_Int_Tables_number   1
_chemical_formula_structural   Sn3WO6
_chemical_formula_sum   'Sn12 W4 O24'
_cell_volume   711.64174223
_cell_formula_units_Z   4
loop_
 _symmetry_equiv_pos_site_id
 _symmetry_equiv_pos_as_xyz
  1  'x, y, z'
loop_
 _atom_site_type_symbol
 _atom_site_label
 _atom_site_symmetry_multiplicity
 _atom_site_fract_x
 _atom_site_fract_y
 _atom_site_fract_z
 _atom_site_occupancy
  Sn  Sn0  1  0.874202  0.320328  0.884732  1
  Sn  Sn1  1  0.409558  0.955217  0.614271  1
  Sn  Sn2  1  0.125798  0.679672  0.115268  1
  Sn  Sn3  1  0.934536  0.988764  0.615062  1
  Sn  Sn4  1  0.653693  0.593941  0.377965  1
  Sn  Sn5  1  0.065464  0.011236  0.384938  1
  Sn  Sn6  1  0.284439  0.724997  0.878068  1
  Sn  Sn7  1  0.590442  0.044783  0.385729  1
  Sn  Sn8  1  0.841713  0.796154  0.885782  1
  Sn  Sn9  1  0.158287  0.203846  0.114218  1
  Sn  Sn10  1  0.715561  0.275003  0.121932  1
  Sn  Sn11  1  0.346307  0.406059  0.622035  1
  W  W12  1  0.355174  0.292781  0.911088  1
  W  W13  1  0.881436  0.443858  0.588920  1
  W  W14  1  0.644826  0.707219  0.088912  1
  W  W15  1  0.118564  0.556142  0.411080  1
  O  O16  1  0.260459  0.424213  0.465720  1
  O  O17  1  0.711655  0.825801  0.219996  1
  O  O18  1  0.141883  0.102894  0.956510  1
  O  O19  1  0.739541  0.575787  0.534280  1
  O  O20  1  0.106192  0.492026  0.279968  1
  O  O21  1  0.016956  0.648741  0.941656  1
  O  O22  1  0.133963  0.644246  0.576841  1
  O  O23  1  0.458796  0.795005  0.034223  1
  O  O24  1  0.961987  0.705173  0.382047  1
  O  O25  1  0.893808  0.507974  0.720032  1
  O  O26  1  0.858117  0.897106  0.043490  1
  O  O27  1  0.206684  0.074938  0.558366  1
  O  O28  1  0.038013  0.294827  0.617953  1
  O  O29  1  0.983044  0.351259  0.058344  1
  O  O30  1  0.288345  0.174199  0.780004  1
  O  O31  1  0.177326  0.420588  0.882054  1
  O  O32  1  0.866037  0.355754  0.423159  1
  O  O33  1  0.567652  0.557217  0.923129  1
  O  O34  1  0.822674  0.579412  0.117945  1
  O  O35  1  0.541204  0.204995  0.965777  1
  O  O36  1  0.353679  0.814615  0.456482  1
  O  O37  1  0.646321  0.185385  0.543518  1
  O  O38  1  0.432348  0.442783  0.076871  1
  O  O39  1  0.793316  0.925062  0.441634  1
