# generated using pymatgen
data_Nd2Ge2O7
_symmetry_space_group_name_H-M   'P 1'
_cell_length_a   7.00172546
_cell_length_b   7.00797707
_cell_length_c   38.14687011
_cell_angle_alpha   90.86732549
_cell_angle_beta   95.27542189
_cell_angle_gamma   91.41316439
_symmetry_Int_Tables_number   1
_chemical_formula_structural   Nd2Ge2O7
_chemical_formula_sum   'Nd24 Ge24 O84'
_cell_volume   1863.00783631
_cell_formula_units_Z   12
loop_
 _symmetry_equiv_pos_site_id
 _symmetry_equiv_pos_as_xyz
  1  'x, y, z'
loop_
 _atom_site_type_symbol
 _atom_site_label
 _atom_site_symmetry_multiplicity
 _atom_site_fract_x
 _atom_site_fract_y
 _atom_site_fract_z
 _atom_site_occupancy
  Nd  Nd0  1  0.368505  0.377852  0.046389  1
  Nd  Nd1  1  0.821373  0.556573  0.206051  1
  Nd  Nd2  1  0.172238  0.143455  0.299449  1
  Nd  Nd3  1  0.660242  0.888765  0.044790  1
  Nd  Nd4  1  0.659786  0.455497  0.629370  1
  Nd  Nd5  1  0.840922  0.805636  0.368293  1
  Nd  Nd6  1  0.885041  0.381542  0.546675  1
  Nd  Nd7  1  0.827762  0.856545  0.700551  1
  Nd  Nd8  1  0.355936  0.808250  0.869424  1
  Nd  Nd9  1  0.159078  0.194364  0.631707  1
  Nd  Nd10  1  0.178627  0.443427  0.793949  1
  Nd  Nd11  1  0.820436  0.108854  0.455767  1
  Nd  Nd12  1  0.674882  0.407388  0.293537  1
  Nd  Nd13  1  0.711902  0.119586  0.802840  1
  Nd  Nd14  1  0.288098  0.880414  0.197160  1
  Nd  Nd15  1  0.179564  0.891146  0.544233  1
  Nd  Nd16  1  0.846375  0.549188  0.869197  1
  Nd  Nd17  1  0.339758  0.111235  0.955210  1
  Nd  Nd18  1  0.340214  0.544503  0.370630  1
  Nd  Nd19  1  0.644064  0.191750  0.130576  1
  Nd  Nd20  1  0.325118  0.592612  0.706463  1
  Nd  Nd21  1  0.153625  0.450812  0.130803  1
  Nd  Nd22  1  0.114959  0.618458  0.453325  1
  Nd  Nd23  1  0.631495  0.622148  0.953611  1
  Ge  Ge24  1  0.337691  0.348810  0.210705  1
  Ge  Ge25  1  0.866846  0.333770  0.372481  1
  Ge  Ge26  1  0.132179  0.995730  0.106264  1
  Ge  Ge27  1  0.647154  0.996694  0.607865  1
  Ge  Ge28  1  0.190258  0.867235  0.030524  1
  Ge  Ge29  1  0.148721  0.622008  0.958987  1
  Ge  Ge30  1  0.640261  0.626542  0.459748  1
  Ge  Ge31  1  0.867821  0.004270  0.893736  1
  Ge  Ge32  1  0.133154  0.666230  0.627519  1
  Ge  Ge33  1  0.622624  0.665508  0.129515  1
  Ge  Ge34  1  0.843320  0.349525  0.709374  1
  Ge  Ge35  1  0.825320  0.047569  0.223487  1
  Ge  Ge36  1  0.662309  0.651190  0.789295  1
  Ge  Ge37  1  0.295945  0.127154  0.468200  1
  Ge  Ge38  1  0.174680  0.952431  0.776513  1
  Ge  Ge39  1  0.359739  0.373458  0.540252  1
  Ge  Ge40  1  0.445446  0.096846  0.720640  1
  Ge  Ge41  1  0.377376  0.334492  0.870485  1
  Ge  Ge42  1  0.809742  0.132765  0.969476  1
  Ge  Ge43  1  0.851279  0.377992  0.041013  1
  Ge  Ge44  1  0.704055  0.872846  0.531800  1
  Ge  Ge45  1  0.352846  0.003306  0.392136  1
  Ge  Ge46  1  0.554554  0.903154  0.279360  1
  Ge  Ge47  1  0.156680  0.650475  0.290626  1
  O  O48  1  0.317535  0.251707  0.693225  1
  O  O49  1  0.976111  0.486611  0.606663  1
  O  O50  1  0.674132  0.868703  0.105709  1
  O  O51  1  0.627879  0.285959  0.955201  1
  O  O52  1  0.465767  0.087623  0.436822  1
  O  O53  1  0.299836  0.814618  0.266450  1
  O  O54  1  0.490369  0.882648  0.699773  1
  O  O55  1  0.178626  0.488746  0.859501  1
  O  O56  1  0.534233  0.912377  0.563178  1
  O  O57  1  0.177064  0.533026  0.194470  1
  O  O58  1  0.233101  0.170261  0.234969  1
  O  O59  1  0.207170  0.554283  0.522696  1
  O  O60  1  0.369863  0.223744  0.169589  1
  O  O61  1  0.558549  0.725004  0.171597  1
  O  O62  1  0.183496  0.873669  0.605133  1
  O  O63  1  0.312639  0.467063  0.307052  1
  O  O64  1  0.020398  0.908762  0.061993  1
  O  O65  1  0.630137  0.776256  0.830411  1
  O  O66  1  0.572063  0.447347  0.564704  1
  O  O67  1  0.682265  0.227179  0.060762  1
  O  O68  1  0.111440  0.791473  0.328146  1
  O  O69  1  0.194936  0.226443  0.561815  1
  O  O70  1  0.023889  0.513389  0.393337  1
  O  O71  1  0.112438  0.280434  0.455011  1
  O  O72  1  0.427937  0.552653  0.435296  1
  O  O73  1  0.979602  0.091238  0.938007  1
  O  O74  1  0.780739  0.216549  0.190755  1
  O  O75  1  0.669977  0.864725  0.905842  1
  O  O76  1  0.441451  0.274996  0.828403  1
  O  O77  1  0.687361  0.532937  0.692948  1
  O  O78  1  0.051214  0.769231  0.992708  1
  O  O79  1  0.533916  0.511845  0.892845  1
  O  O80  1  0.957245  0.549779  0.265634  1
  O  O81  1  0.703633  0.799910  0.633491  1
  O  O82  1  0.816504  0.126331  0.394867  1
  O  O83  1  0.061306  0.449941  0.066439  1
  O  O84  1  0.701400  0.559111  0.022843  1
  O  O85  1  0.509631  0.117352  0.300227  1
  O  O86  1  0.822936  0.466974  0.805530  1
  O  O87  1  0.372121  0.714041  0.044799  1
  O  O88  1  0.934899  0.281339  0.330504  1
  O  O89  1  0.296367  0.200090  0.366509  1
  O  O90  1  0.666478  0.937174  0.982392  1
  O  O91  1  0.888560  0.208527  0.671854  1
  O  O92  1  0.813021  0.194789  0.865884  1
  O  O93  1  0.065101  0.718661  0.669496  1
  O  O94  1  0.545163  0.454127  0.234367  1
  O  O95  1  0.466084  0.488155  0.107155  1
  O  O96  1  0.963334  0.864766  0.207827  1
  O  O97  1  0.842118  0.070948  0.518593  1
  O  O98  1  0.440454  0.217285  0.506185  1
  O  O99  1  0.454837  0.545873  0.765633  1
  O  O100  1  0.948786  0.230769  0.007292  1
  O  O101  1  0.977073  0.157973  0.123208  1
  O  O102  1  0.602493  0.909230  0.233418  1
  O  O103  1  0.841653  0.141259  0.595809  1
  O  O104  1  0.317735  0.772821  0.939238  1
  O  O105  1  0.157882  0.929052  0.481407  1
  O  O106  1  0.488841  0.158296  0.624306  1
  O  O107  1  0.766899  0.829739  0.765031  1
  O  O108  1  0.130412  0.864198  0.733453  1
  O  O109  1  0.325868  0.131297  0.894291  1
  O  O110  1  0.332276  0.516043  0.638818  1
  O  O111  1  0.042755  0.450221  0.734366  1
  O  O112  1  0.511159  0.841704  0.375694  1
  O  O113  1  0.700164  0.185382  0.733550  1
  O  O114  1  0.667724  0.483957  0.361182  1
  O  O115  1  0.330023  0.135275  0.094158  1
  O  O116  1  0.805064  0.773557  0.438185  1
  O  O117  1  0.219261  0.783451  0.809245  1
  O  O118  1  0.298600  0.440889  0.977157  1
  O  O119  1  0.397507  0.090770  0.766582  1
  O  O120  1  0.938694  0.550059  0.933561  1
  O  O121  1  0.821374  0.511254  0.140499  1
  O  O122  1  0.158347  0.858741  0.404191  1
  O  O123  1  0.792830  0.445717  0.477304  1
  O  O124  1  0.682465  0.748293  0.306775  1
  O  O125  1  0.333522  0.062826  0.017608  1
  O  O126  1  0.887562  0.719566  0.544989  1
  O  O127  1  0.559546  0.782715  0.493815  1
  O  O128  1  0.036666  0.135234  0.792173  1
  O  O129  1  0.869588  0.135802  0.266547  1
  O  O130  1  0.022927  0.842027  0.876792  1
  O  O131  1  0.186979  0.805211  0.134116  1
