# generated using pymatgen
data_Li3Mo3P3O17
_symmetry_space_group_name_H-M   'P 1'
_cell_length_a   8.42275242
_cell_length_b   12.17195849
_cell_length_c   12.98279876
_cell_angle_alpha   89.81041753
_cell_angle_beta   89.82271079
_cell_angle_gamma   82.82056066
_symmetry_Int_Tables_number   1
_chemical_formula_structural   Li3Mo3P3O17
_chemical_formula_sum   'Li12 Mo12 P12 O68'
_cell_volume   1320.56689389
_cell_formula_units_Z   4
loop_
 _symmetry_equiv_pos_site_id
 _symmetry_equiv_pos_as_xyz
  1  'x, y, z'
loop_
 _atom_site_type_symbol
 _atom_site_label
 _atom_site_symmetry_multiplicity
 _atom_site_fract_x
 _atom_site_fract_y
 _atom_site_fract_z
 _atom_site_occupancy
  Li  Li0  1  0.361343  0.865243  0.623838  1
  Li  Li1  1  0.638657  0.134757  0.376162  1
  Li  Li2  1  0.216858  0.309063  0.568527  1
  Li  Li3  1  0.646768  0.794274  0.253451  1
  Li  Li4  1  0.856464  0.206435  0.754604  1
  Li  Li5  1  0.287007  0.692299  0.068246  1
  Li  Li6  1  0.864450  0.866614  0.872853  1
  Li  Li7  1  0.135550  0.133386  0.127147  1
  Li  Li8  1  0.783142  0.690937  0.431473  1
  Li  Li9  1  0.712993  0.307701  0.931754  1
  Li  Li10  1  0.353232  0.205726  0.746549  1
  Li  Li11  1  0.143536  0.793565  0.245396  1
  Mo  Mo12  1  0.847771  0.606109  0.871581  1
  Mo  Mo13  1  0.811333  0.479649  0.617922  1
  Mo  Mo14  1  0.654599  0.395965  0.370233  1
  Mo  Mo15  1  0.254159  0.013490  0.385020  1
  Mo  Mo16  1  0.152229  0.393891  0.128419  1
  Mo  Mo17  1  0.247535  0.985158  0.884897  1
  Mo  Mo18  1  0.314941  0.477599  0.880707  1
  Mo  Mo19  1  0.685059  0.522401  0.119293  1
  Mo  Mo20  1  0.345401  0.604035  0.629767  1
  Mo  Mo21  1  0.188667  0.520351  0.382078  1
  Mo  Mo22  1  0.745841  0.986510  0.614980  1
  Mo  Mo23  1  0.752465  0.014842  0.115103  1
  P  P24  1  0.060522  0.273605  0.349775  1
  P  P25  1  0.560146  0.273076  0.155390  1
  P  P26  1  0.144091  0.054161  0.638203  1
  P  P27  1  0.855909  0.945839  0.361797  1
  P  P28  1  0.439854  0.726924  0.844610  1
  P  P29  1  0.099903  0.263880  0.907096  1
  P  P30  1  0.597093  0.266461  0.595187  1
  P  P31  1  0.356027  0.945576  0.138560  1
  P  P32  1  0.643973  0.054424  0.861440  1
  P  P33  1  0.402907  0.733539  0.404813  1
  P  P34  1  0.939478  0.726395  0.650225  1
  P  P35  1  0.900097  0.736120  0.092904  1
  O  O36  1  0.450942  0.450228  0.365018  1
  O  O37  1  0.163583  0.353804  0.407184  1
  O  O38  1  0.569357  0.692069  0.367354  1
  O  O39  1  0.872344  0.735880  0.973452  1
  O  O40  1  0.950570  0.449194  0.111782  1
  O  O41  1  0.926898  0.073711  0.096349  1
  O  O42  1  0.267639  0.023961  0.223904  1
  O  O43  1  0.802222  0.831406  0.359722  1
  O  O44  1  0.894107  0.842597  0.605050  1
  O  O45  1  0.722611  0.477357  0.476182  1
  O  O46  1  0.620124  0.697082  0.846844  1
  O  O47  1  0.272282  0.669643  0.352854  1
  O  O48  1  0.931101  0.306024  0.875362  1
  O  O49  1  0.105893  0.157403  0.394950  1
  O  O50  1  0.884372  0.307892  0.372033  1
  O  O51  1  0.805149  0.516883  0.765011  1
  O  O52  1  0.511100  0.417929  0.881454  1
  O  O53  1  0.386065  0.729085  0.525111  1
  O  O54  1  0.856426  0.856287  0.132203  1
  O  O55  1  0.430643  0.307931  0.632646  1
  O  O56  1  0.201447  0.986067  0.538359  1
  O  O57  1  0.723732  0.477375  0.263730  1
  O  O58  1  0.642311  0.144870  0.630334  1
  O  O59  1  0.068899  0.693976  0.124638  1
  O  O60  1  0.488900  0.582071  0.118546  1
  O  O61  1  0.603613  0.159423  0.104479  1
  O  O62  1  0.378813  0.732651  0.730907  1
  O  O63  1  0.352528  0.641729  0.908616  1
  O  O64  1  0.127656  0.264120  0.026548  1
  O  O65  1  0.379876  0.302918  0.153156  1
  O  O66  1  0.049430  0.550806  0.888218  1
  O  O67  1  0.143574  0.143713  0.867797  1
  O  O68  1  0.727718  0.330357  0.647146  1
  O  O69  1  0.073102  0.926289  0.903651  1
  O  O70  1  0.428322  0.072637  0.402627  1
  O  O71  1  0.539870  0.937727  0.153482  1
  O  O72  1  0.700837  0.987623  0.961970  1
  O  O73  1  0.277389  0.522643  0.523818  1
  O  O74  1  0.621187  0.267349  0.269093  1
  O  O75  1  0.904519  0.728319  0.768365  1
  O  O76  1  0.748490  0.534308  0.972669  1
  O  O77  1  0.571678  0.927363  0.597373  1
  O  O78  1  0.960074  0.062639  0.653211  1
  O  O79  1  0.095481  0.271681  0.231635  1
  O  O80  1  0.549058  0.549772  0.634982  1
  O  O81  1  0.460130  0.062273  0.846518  1
  O  O82  1  0.299163  0.012377  0.038030  1
  O  O83  1  0.197778  0.168594  0.640278  1
  O  O84  1  0.798553  0.013933  0.461641  1
  O  O85  1  0.732361  0.976039  0.776096  1
  O  O86  1  0.773935  0.669813  0.147495  1
  O  O87  1  0.993316  0.579151  0.397115  1
  O  O88  1  0.006684  0.420849  0.602885  1
  O  O89  1  0.396387  0.840577  0.895521  1
  O  O90  1  0.613935  0.270915  0.474889  1
  O  O91  1  0.836417  0.646196  0.592816  1
  O  O92  1  0.251510  0.465692  0.027331  1
  O  O93  1  0.194851  0.483117  0.234989  1
  O  O94  1  0.115628  0.692108  0.627967  1
  O  O95  1  0.039926  0.937361  0.346789  1
  O  O96  1  0.226065  0.330187  0.852505  1
  O  O97  1  0.767787  0.023921  0.276046  1
  O  O98  1  0.357689  0.855130  0.369666  1
  O  O99  1  0.276268  0.522625  0.736270  1
  O  O100  1  0.303048  0.831005  0.142356  1
  O  O101  1  0.647472  0.358271  0.091384  1
  O  O102  1  0.232213  0.976079  0.723954  1
  O  O103  1  0.696952  0.168995  0.857644  1
