# generated using pymatgen
data_EuHSO5
_symmetry_space_group_name_H-M   'P 1'
_cell_length_a   4.52402770
_cell_length_b   6.97700714
_cell_length_c   12.49186945
_cell_angle_alpha   90.00000000
_cell_angle_beta   90.00000000
_cell_angle_gamma   106.48444285
_symmetry_Int_Tables_number   1
_chemical_formula_structural   EuHSO5
_chemical_formula_sum   'Eu4 H4 S4 O20'
_cell_volume   378.08873355
_cell_formula_units_Z   4
loop_
 _symmetry_equiv_pos_site_id
 _symmetry_equiv_pos_as_xyz
  1  'x, y, z'
loop_
 _atom_site_type_symbol
 _atom_site_label
 _atom_site_symmetry_multiplicity
 _atom_site_fract_x
 _atom_site_fract_y
 _atom_site_fract_z
 _atom_site_occupancy
  Eu  Eu0  1  0.862428  0.699089  0.438466  1
  Eu  Eu1  1  0.137572  0.300911  0.561534  1
  Eu  Eu2  1  0.362428  0.199089  0.061534  1
  Eu  Eu3  1  0.637572  0.800911  0.938466  1
  H  H4  1  0.730649  0.515753  0.655124  1
  H  H5  1  0.269351  0.484247  0.344876  1
  H  H6  1  0.769351  0.984247  0.155124  1
  H  H7  1  0.230649  0.015753  0.844876  1
  S  S8  1  0.020113  0.608154  0.147630  1
  S  S9  1  0.479887  0.891846  0.647630  1
  S  S10  1  0.520113  0.108154  0.352370  1
  S  S11  1  0.979887  0.391846  0.852370  1
  O  O12  1  0.749222  0.950286  0.571080  1
  O  O13  1  0.758222  0.278674  0.400016  1
  O  O14  1  0.411577  0.171721  0.250206  1
  O  O15  1  0.249222  0.450286  0.928920  1
  O  O16  1  0.192880  0.956081  0.916656  1
  O  O17  1  0.258222  0.778674  0.099984  1
  O  O18  1  0.750778  0.549714  0.071080  1
  O  O19  1  0.138483  0.435340  0.166662  1
  O  O20  1  0.588423  0.828279  0.749794  1
  O  O21  1  0.307120  0.543919  0.416656  1
  O  O22  1  0.250778  0.049714  0.428920  1
  O  O23  1  0.692880  0.456081  0.583344  1
  O  O24  1  0.861517  0.564660  0.833338  1
  O  O25  1  0.361517  0.064660  0.666662  1
  O  O26  1  0.638483  0.935340  0.333338  1
  O  O27  1  0.088423  0.328279  0.750206  1
  O  O28  1  0.807120  0.043919  0.083344  1
  O  O29  1  0.741778  0.221326  0.900016  1
  O  O30  1  0.241778  0.721326  0.599984  1
  O  O31  1  0.911577  0.671721  0.249794  1
