# generated using pymatgen
data_RbTeNO3F4
_symmetry_space_group_name_H-M   'P 1'
_cell_length_a   8.55636218
_cell_length_b   8.47471787
_cell_length_c   10.69929818
_cell_angle_alpha   71.37721139
_cell_angle_beta   88.67279405
_cell_angle_gamma   68.27528020
_symmetry_Int_Tables_number   1
_chemical_formula_structural   RbTeNO3F4
_chemical_formula_sum   'Rb4 Te4 N4 O12 F16'
_cell_volume   679.00208344
_cell_formula_units_Z   4
loop_
 _symmetry_equiv_pos_site_id
 _symmetry_equiv_pos_as_xyz
  1  'x, y, z'
loop_
 _atom_site_type_symbol
 _atom_site_label
 _atom_site_symmetry_multiplicity
 _atom_site_fract_x
 _atom_site_fract_y
 _atom_site_fract_z
 _atom_site_occupancy
  Rb  Rb0  1  0.434897  0.574553  0.980020  1
  Rb  Rb1  1  0.688806  0.077354  0.494622  1
  Rb  Rb2  1  0.956506  0.551525  0.868099  1
  Rb  Rb3  1  0.166103  0.113173  0.598060  1
  Te  Te4  1  0.252048  0.577102  0.567697  1
  Te  Te5  1  0.745703  0.560214  0.273807  1
  Te  Te6  1  0.875581  0.083399  0.900938  1
  Te  Te7  1  0.380002  0.090304  0.195892  1
  N  N8  1  0.058289  1.003665  0.261368  1
  N  N9  1  0.066602  0.643575  0.210968  1
  N  N10  1  0.558432  0.660035  0.603127  1
  N  N11  1  0.557597  0.001830  0.869229  1
  O  O12  1  0.574222  0.536746  0.555073  1
  O  O13  1  0.710055  0.940832  0.832308  1
  O  O14  1  0.955693  0.940543  0.317408  1
  O  O15  1  0.530632  0.111989  0.930331  1
  O  O16  1  0.171591  0.704284  0.157264  1
  O  O17  1  0.450536  0.948132  0.842063  1
  O  O18  1  0.928597  0.677278  0.137547  1
  O  O19  1  0.040106  0.094326  0.140528  1
  O  O20  1  0.081585  0.553057  0.331632  1
  O  O21  1  0.407620  0.744999  0.629505  1
  O  O22  1  0.678298  0.699796  0.624763  1
  O  O23  1  0.196919  0.972496  0.332656  1
  F  F24  1  0.315603  0.471060  0.755076  1
  F  F25  1  0.383122  0.320849  0.574029  1
  F  F26  1  0.562358  0.177529  0.165470  1
  F  F27  1  0.049019  0.879059  0.856628  1
  F  F28  1  0.576764  0.759438  0.126646  1
  F  F29  1  0.341851  0.194311  0.334207  1
  F  F30  1  0.828348  0.188622  0.711864  1
  F  F31  1  0.551148  0.885589  0.339759  1
  F  F32  1  0.073354  0.483649  0.603826  1
  F  F33  1  0.076874  0.775238  0.619207  1
  F  F34  1  0.787015  0.450324  0.138878  1
  F  F35  1  0.888395  0.305372  0.387391  1
  F  F36  1  0.057253  0.172264  0.873591  1
  F  F37  1  0.234469  0.345763  0.085804  1
  F  F38  1  0.737119  0.340185  0.889829  1
  F  F39  1  0.561888  0.475238  0.306592  1
