# generated using pymatgen
data_Cs2AlP3O10
_symmetry_space_group_name_H-M   'P 1'
_cell_length_a   9.14982565
_cell_length_b   9.53760337
_cell_length_c   12.45827877
_cell_angle_alpha   94.83150272
_cell_angle_beta   90.00000000
_cell_angle_gamma   90.00000000
_symmetry_Int_Tables_number   1
_chemical_formula_structural   Cs2AlP3O10
_chemical_formula_sum   'Cs8 Al4 P12 O40'
_cell_volume   1083.33854271
_cell_formula_units_Z   4
loop_
 _symmetry_equiv_pos_site_id
 _symmetry_equiv_pos_as_xyz
  1  'x, y, z'
loop_
 _atom_site_type_symbol
 _atom_site_label
 _atom_site_symmetry_multiplicity
 _atom_site_fract_x
 _atom_site_fract_y
 _atom_site_fract_z
 _atom_site_occupancy
  Cs  Cs0  1  0.123213  0.003151  0.146623  1
  Cs  Cs1  1  0.623213  0.496849  0.853377  1
  Cs  Cs2  1  0.876787  0.996849  0.853377  1
  Cs  Cs3  1  0.376787  0.503151  0.146623  1
  Cs  Cs4  1  0.107517  0.761948  0.458447  1
  Cs  Cs5  1  0.607517  0.738052  0.541553  1
  Cs  Cs6  1  0.892483  0.238052  0.541553  1
  Cs  Cs7  1  0.392483  0.261948  0.458447  1
  Al  Al8  1  0.148971  0.354922  0.852891  1
  Al  Al9  1  0.648971  0.145078  0.147109  1
  Al  Al10  1  0.851029  0.645078  0.147109  1
  Al  Al11  1  0.351029  0.854922  0.852891  1
  P  P12  1  0.083951  0.677714  0.951932  1
  P  P13  1  0.583951  0.822286  0.048068  1
  P  P14  1  0.916049  0.322286  0.048068  1
  P  P15  1  0.416049  0.177714  0.951932  1
  P  P16  1  0.028985  0.423038  0.259467  1
  P  P17  1  0.528985  0.076962  0.740533  1
  P  P18  1  0.971015  0.576962  0.740533  1
  P  P19  1  0.471015  0.923038  0.259467  1
  P  P20  1  0.211165  0.066845  0.695613  1
  P  P21  1  0.711165  0.433155  0.304387  1
  P  P22  1  0.788835  0.933155  0.304387  1
  P  P23  1  0.288835  0.566845  0.695613  1
  O  O24  1  0.135676  0.183877  0.767346  1
  O  O25  1  0.635676  0.316123  0.232654  1
  O  O26  1  0.864324  0.816123  0.232654  1
  O  O27  1  0.364324  0.683877  0.767346  1
  O  O28  1  0.308366  0.296932  0.937037  1
  O  O29  1  0.808366  0.203068  0.062963  1
  O  O30  1  0.691634  0.703068  0.062963  1
  O  O31  1  0.191634  0.796932  0.937037  1
  O  O32  1  0.279125  0.431207  0.753464  1
  O  O33  1  0.779125  0.068793  0.246536  1
  O  O34  1  0.720875  0.568793  0.246536  1
  O  O35  1  0.220875  0.931207  0.753464  1
  O  O36  1  0.007465  0.282622  0.948014  1
  O  O37  1  0.507465  0.217378  0.051986  1
  O  O38  1  0.992535  0.717378  0.051986  1
  O  O39  1  0.492535  0.782622  0.948014  1
  O  O40  1  0.152777  0.531890  0.944484  1
  O  O41  1  0.652777  0.968110  0.055516  1
  O  O42  1  0.847223  0.468110  0.055516  1
  O  O43  1  0.347223  0.031890  0.944484  1
  O  O44  1  0.985835  0.426584  0.771842  1
  O  O45  1  0.485835  0.073416  0.228158  1
  O  O46  1  0.014165  0.573416  0.228158  1
  O  O47  1  0.514165  0.926584  0.771842  1
  O  O48  1  0.966195  0.679678  0.851451  1
  O  O49  1  0.466195  0.820322  0.148549  1
  O  O50  1  0.033805  0.320322  0.148549  1
  O  O51  1  0.533805  0.179678  0.851451  1
  O  O52  1  0.159308  0.389574  0.324281  1
  O  O53  1  0.659308  0.110426  0.675719  1
  O  O54  1  0.840692  0.610426  0.675719  1
  O  O55  1  0.340692  0.889574  0.324281  1
  O  O56  1  0.883463  0.378938  0.319011  1
  O  O57  1  0.383463  0.121062  0.680989  1
  O  O58  1  0.116537  0.621062  0.680989  1
  O  O59  1  0.616537  0.878938  0.319011  1
  O  O60  1  0.151932  0.048774  0.582917  1
  O  O61  1  0.651932  0.451226  0.417083  1
  O  O62  1  0.848068  0.951226  0.417083  1
  O  O63  1  0.348068  0.548774  0.582917  1
