# generated using pymatgen
data_PtS4N3Cl
_symmetry_space_group_name_H-M   'P 1'
_cell_length_a   5.47800847
_cell_length_b   11.42353530
_cell_length_c   13.82715585
_cell_angle_alpha   90.00000000
_cell_angle_beta   90.00000000
_cell_angle_gamma   90.00000000
_symmetry_Int_Tables_number   1
_chemical_formula_structural   PtS4N3Cl
_chemical_formula_sum   'Pt4 S16 N12 Cl4'
_cell_volume   865.27884404
_cell_formula_units_Z   4
loop_
 _symmetry_equiv_pos_site_id
 _symmetry_equiv_pos_as_xyz
  1  'x, y, z'
loop_
 _atom_site_type_symbol
 _atom_site_label
 _atom_site_symmetry_multiplicity
 _atom_site_fract_x
 _atom_site_fract_y
 _atom_site_fract_z
 _atom_site_occupancy
  Pt  Pt0  1  0.481954  0.672179  0.250000  1
  Pt  Pt1  1  0.518046  0.327821  0.750000  1
  Pt  Pt2  1  0.018046  0.172179  0.250000  1
  Pt  Pt3  1  0.981954  0.827821  0.750000  1
  S  S4  1  0.467197  0.668501  0.413193  1
  S  S5  1  0.902105  0.490785  0.643170  1
  S  S6  1  0.597895  0.990785  0.856830  1
  S  S7  1  0.532803  0.331499  0.913193  1
  S  S8  1  0.032803  0.168501  0.086807  1
  S  S9  1  0.967197  0.831499  0.913193  1
  S  S10  1  0.402105  0.009215  0.356830  1
  S  S11  1  0.097895  0.509215  0.356830  1
  S  S12  1  0.967197  0.831499  0.586807  1
  S  S13  1  0.032803  0.168501  0.413193  1
  S  S14  1  0.467197  0.668501  0.086807  1
  S  S15  1  0.532803  0.331499  0.586807  1
  S  S16  1  0.597895  0.990785  0.643170  1
  S  S17  1  0.902105  0.490785  0.856830  1
  S  S18  1  0.097895  0.509215  0.143170  1
  S  S19  1  0.402105  0.009215  0.143170  1
  N  N20  1  0.252384  0.075650  0.063840  1
  N  N21  1  0.752384  0.424350  0.936160  1
  N  N22  1  0.747616  0.924350  0.563840  1
  N  N23  1  0.247616  0.575650  0.436160  1
  N  N24  1  0.784683  0.445764  0.750000  1
  N  N25  1  0.747616  0.924350  0.936160  1
  N  N26  1  0.752384  0.424350  0.563840  1
  N  N27  1  0.247616  0.575650  0.063840  1
  N  N28  1  0.715317  0.945764  0.750000  1
  N  N29  1  0.284683  0.054236  0.250000  1
  N  N30  1  0.252384  0.075650  0.436160  1
  N  N31  1  0.215317  0.554236  0.250000  1
  Cl  Cl32  1  0.789629  0.813164  0.250000  1
  Cl  Cl33  1  0.210371  0.186836  0.750000  1
  Cl  Cl34  1  0.289629  0.686836  0.750000  1
  Cl  Cl35  1  0.710371  0.313164  0.250000  1
