# generated using pymatgen
data_Rb3Y2(BO3)3
_symmetry_space_group_name_H-M   'P 1'
_cell_length_a   8.81202870
_cell_length_b   9.68968179
_cell_length_c   12.37772628
_cell_angle_alpha   90.00000000
_cell_angle_beta   90.00000000
_cell_angle_gamma   90.00000000
_symmetry_Int_Tables_number   1
_chemical_formula_structural   Rb3Y2(BO3)3
_chemical_formula_sum   'Rb12 Y8 B12 O36'
_cell_volume   1056.88149156
_cell_formula_units_Z   4
loop_
 _symmetry_equiv_pos_site_id
 _symmetry_equiv_pos_as_xyz
  1  'x, y, z'
loop_
 _atom_site_type_symbol
 _atom_site_label
 _atom_site_symmetry_multiplicity
 _atom_site_fract_x
 _atom_site_fract_y
 _atom_site_fract_z
 _atom_site_occupancy
  Rb  Rb0  1  0.352868  0.358406  0.742649  1
  Rb  Rb1  1  0.203939  0.032849  0.577640  1
  Rb  Rb2  1  0.796061  0.967151  0.077640  1
  Rb  Rb3  1  0.093117  0.694652  0.592690  1
  Rb  Rb4  1  0.147132  0.858406  0.242649  1
  Rb  Rb5  1  0.852868  0.141594  0.742649  1
  Rb  Rb6  1  0.296061  0.532849  0.077640  1
  Rb  Rb7  1  0.906883  0.305348  0.092690  1
  Rb  Rb8  1  0.703939  0.467151  0.577640  1
  Rb  Rb9  1  0.647132  0.641594  0.242649  1
  Rb  Rb10  1  0.593117  0.805348  0.592690  1
  Rb  Rb11  1  0.406883  0.194652  0.092690  1
  Y  Y12  1  0.010175  0.508645  0.330083  1
  Y  Y13  1  0.643185  0.613628  0.898306  1
  Y  Y14  1  0.989825  0.491355  0.830083  1
  Y  Y15  1  0.489825  0.008645  0.830083  1
  Y  Y16  1  0.356815  0.386372  0.398306  1
  Y  Y17  1  0.856815  0.113628  0.398306  1
  Y  Y18  1  0.143185  0.886372  0.898306  1
  Y  Y19  1  0.510175  0.991355  0.330083  1
  B  B20  1  0.136765  0.175336  0.906612  1
  B  B21  1  0.363235  0.675336  0.406612  1
  B  B22  1  0.169324  0.196073  0.288769  1
  B  B23  1  0.863235  0.824664  0.406612  1
  B  B24  1  0.330676  0.696073  0.788769  1
  B  B25  1  0.669324  0.303927  0.288769  1
  B  B26  1  0.035331  0.348121  0.564026  1
  B  B27  1  0.464669  0.848121  0.064026  1
  B  B28  1  0.964669  0.651879  0.064026  1
  B  B29  1  0.830676  0.803927  0.788769  1
  B  B30  1  0.535331  0.151879  0.564026  1
  B  B31  1  0.636765  0.324664  0.906612  1
  O  O32  1  0.476210  0.904841  0.166793  1
  O  O33  1  0.539540  0.378860  0.274571  1
  O  O34  1  0.380853  0.918446  0.985679  1
  O  O35  1  0.880853  0.581554  0.985679  1
  O  O36  1  0.303864  0.140831  0.332521  1
  O  O37  1  0.251477  0.610754  0.341999  1
  O  O38  1  0.961506  0.227012  0.537695  1
  O  O39  1  0.617136  0.182233  0.907778  1
  O  O40  1  0.619147  0.081554  0.485679  1
  O  O41  1  0.803864  0.359169  0.332521  1
  O  O42  1  0.976210  0.595159  0.166793  1
  O  O43  1  0.954141  0.912095  0.466831  1
  O  O44  1  0.674234  0.162756  0.261589  1
  O  O45  1  0.882864  0.682233  0.407778  1
  O  O46  1  0.461506  0.272988  0.537695  1
  O  O47  1  0.454141  0.587905  0.466831  1
  O  O48  1  0.325766  0.837244  0.761589  1
  O  O49  1  0.545859  0.412095  0.966831  1
  O  O50  1  0.174234  0.337244  0.261589  1
  O  O51  1  0.248523  0.110754  0.841999  1
  O  O52  1  0.045859  0.087905  0.966831  1
  O  O53  1  0.523790  0.095159  0.666793  1
  O  O54  1  0.039540  0.121140  0.274571  1
  O  O55  1  0.119147  0.418446  0.485679  1
  O  O56  1  0.382864  0.817767  0.407778  1
  O  O57  1  0.696136  0.859169  0.832521  1
  O  O58  1  0.825766  0.662756  0.761589  1
  O  O59  1  0.196136  0.640831  0.832521  1
  O  O60  1  0.751477  0.889246  0.341999  1
  O  O61  1  0.960460  0.878860  0.774571  1
  O  O62  1  0.038494  0.772988  0.037695  1
  O  O63  1  0.023790  0.404841  0.666793  1
  O  O64  1  0.117136  0.317767  0.907778  1
  O  O65  1  0.748523  0.389246  0.841999  1
  O  O66  1  0.460460  0.621140  0.774571  1
  O  O67  1  0.538494  0.727012  0.037695  1
