# generated using pymatgen
data_Mg8BRh4
_symmetry_space_group_name_H-M   'P 1'
_cell_length_a   8.65520351
_cell_length_b   8.65520364
_cell_length_c   8.65520312
_cell_angle_alpha   59.99999809
_cell_angle_beta   59.99999758
_cell_angle_gamma   60.00000112
_symmetry_Int_Tables_number   1
_chemical_formula_structural   Mg8BRh4
_chemical_formula_sum   'Mg16 B2 Rh8'
_cell_volume   458.47623621
_cell_formula_units_Z   2
loop_
 _symmetry_equiv_pos_site_id
 _symmetry_equiv_pos_as_xyz
  1  'x, y, z'
loop_
 _atom_site_type_symbol
 _atom_site_label
 _atom_site_symmetry_multiplicity
 _atom_site_fract_x
 _atom_site_fract_y
 _atom_site_fract_z
 _atom_site_occupancy
  Mg  Mg0  1  0.324379  0.925621  0.324379  1
  Mg  Mg1  1  0.074379  0.675621  0.675621  1
  Mg  Mg2  1  0.675621  0.074379  0.074379  1
  Mg  Mg3  1  0.675621  0.074379  0.675621  1
  Mg  Mg4  1  0.675621  0.675621  0.074379  1
  Mg  Mg5  1  0.074379  0.675621  0.074379  1
  Mg  Mg6  1  0.500000  0.000000  0.500000  1
  Mg  Mg7  1  0.925621  0.925621  0.324379  1
  Mg  Mg8  1  0.324379  0.324379  0.925621  1
  Mg  Mg9  1  0.324379  0.925621  0.925621  1
  Mg  Mg10  1  0.000000  0.500000  0.500000  1
  Mg  Mg11  1  0.925621  0.324379  0.925621  1
  Mg  Mg12  1  0.925621  0.324379  0.324379  1
  Mg  Mg13  1  0.500000  0.500000  0.500000  1
  Mg  Mg14  1  0.500000  0.500000  0.000000  1
  Mg  Mg15  1  0.074379  0.074379  0.675621  1
  B  B16  1  0.625000  0.625000  0.625000  1
  B  B17  1  0.375000  0.375000  0.375000  1
  Rh  Rh18  1  0.279209  0.279209  0.279209  1
  Rh  Rh19  1  0.662374  0.279209  0.279209  1
  Rh  Rh20  1  0.279209  0.279209  0.662374  1
  Rh  Rh21  1  0.720791  0.337626  0.720791  1
  Rh  Rh22  1  0.720791  0.720791  0.337626  1
  Rh  Rh23  1  0.279209  0.662374  0.279209  1
  Rh  Rh24  1  0.337626  0.720791  0.720791  1
  Rh  Rh25  1  0.720791  0.720791  0.720791  1
