# generated using pymatgen
data_SrH12C4S4(NO4)2
_symmetry_space_group_name_H-M   'P 1'
_cell_length_a   7.86815903
_cell_length_b   9.03948759
_cell_length_c   20.30157175
_cell_angle_alpha   90.00000000
_cell_angle_beta   93.37262048
_cell_angle_gamma   90.00000000
_symmetry_Int_Tables_number   1
_chemical_formula_structural   SrH12C4S4(NO4)2
_chemical_formula_sum   'Sr4 H48 C16 S16 N8 O32'
_cell_volume   1441.43073444
_cell_formula_units_Z   4
loop_
 _symmetry_equiv_pos_site_id
 _symmetry_equiv_pos_as_xyz
  1  'x, y, z'
loop_
 _atom_site_type_symbol
 _atom_site_label
 _atom_site_symmetry_multiplicity
 _atom_site_fract_x
 _atom_site_fract_y
 _atom_site_fract_z
 _atom_site_occupancy
  Sr  Sr0  1  0.172503  0.214941  0.967396  1
  Sr  Sr1  1  0.327497  0.714941  0.532604  1
  Sr  Sr2  1  0.672503  0.285059  0.467396  1
  Sr  Sr3  1  0.827497  0.785059  0.032604  1
  H  H4  1  0.710158  0.791123  0.393009  1
  H  H5  1  0.435464  0.748655  0.890490  1
  H  H6  1  0.778263  0.572310  0.717797  1
  H  H7  1  0.928548  0.870589  0.637533  1
  H  H8  1  0.688423  0.524644  0.831113  1
  H  H9  1  0.843761  0.556552  0.634491  1
  H  H10  1  0.338726  0.960550  0.796935  1
  H  H11  1  0.162263  0.594760  0.768673  1
  H  H12  1  0.311577  0.475356  0.168887  1
  H  H13  1  0.121655  0.595408  0.307756  1
  H  H14  1  0.233579  0.661243  0.178173  1
  H  H15  1  0.766421  0.338757  0.821827  1
  H  H16  1  0.837737  0.405240  0.231327  1
  H  H17  1  0.564536  0.251345  0.109510  1
  H  H18  1  0.661274  0.039450  0.203065  1
  H  H19  1  0.278263  0.927690  0.217797  1
  H  H20  1  0.428548  0.629411  0.137533  1
  H  H21  1  0.266421  0.161243  0.321827  1
  H  H22  1  0.866019  0.918394  0.429048  1
  H  H23  1  0.571452  0.370589  0.862467  1
  H  H24  1  0.161274  0.460550  0.703065  1
  H  H25  1  0.188423  0.975356  0.331113  1
  H  H26  1  0.633981  0.418394  0.070952  1
  H  H27  1  0.378345  0.095408  0.192244  1
  H  H28  1  0.133981  0.081606  0.570952  1
  H  H29  1  0.621655  0.904592  0.807756  1
  H  H30  1  0.733579  0.838757  0.678173  1
  H  H31  1  0.343761  0.943448  0.134491  1
  H  H32  1  0.319097  0.448277  0.770050  1
  H  H33  1  0.935464  0.751345  0.390490  1
  H  H34  1  0.721737  0.072310  0.782203  1
  H  H35  1  0.210158  0.708877  0.893009  1
  H  H36  1  0.838726  0.539450  0.296935  1
  H  H37  1  0.680903  0.551723  0.229950  1
  H  H38  1  0.180903  0.948277  0.729950  1
  H  H39  1  0.811577  0.024644  0.668887  1
  H  H40  1  0.221737  0.427690  0.282203  1
  H  H41  1  0.366019  0.581606  0.929048  1
  H  H42  1  0.878345  0.404592  0.692244  1
  H  H43  1  0.071452  0.129411  0.362467  1
  H  H44  1  0.289842  0.208877  0.606991  1
  H  H45  1  0.656239  0.056552  0.865509  1
  H  H46  1  0.662263  0.905240  0.268673  1
  H  H47  1  0.819097  0.051723  0.270050  1
  H  H48  1  0.156239  0.443448  0.365509  1
  H  H49  1  0.337737  0.094760  0.731327  1
  H  H50  1  0.789842  0.291123  0.106991  1
  H  H51  1  0.064536  0.248655  0.609510  1
  C  C52  1  0.740984  0.976364  0.238930  1
  C  C53  1  0.164001  0.197825  0.581400  1
  C  C54  1  0.759016  0.476364  0.261070  1
  C  C55  1  0.204906  0.503124  0.323602  1
  C  C56  1  0.795094  0.496876  0.676398  1
  C  C57  1  0.697935  0.413987  0.853230  1
  C  C58  1  0.335999  0.697825  0.918600  1
  C  C59  1  0.835999  0.802175  0.418600  1
  C  C60  1  0.704906  0.996876  0.823602  1
  C  C61  1  0.664001  0.302175  0.081400  1
  C  C62  1  0.802065  0.913987  0.646770  1
  C  C63  1  0.197935  0.086013  0.353230  1
  C  C64  1  0.240984  0.523636  0.738930  1
  C  C65  1  0.295094  0.003124  0.176398  1
  C  C66  1  0.302065  0.586013  0.146770  1
  C  C67  1  0.259016  0.023636  0.761070  1
  S  S68  1  0.625141  0.357571  0.304322  1
  S  S69  1  0.167296  0.291626  0.504640  1
  S  S70  1  0.094385  0.081681  0.151180  1
  S  S71  1  0.374859  0.642429  0.695678  1
  S  S72  1  0.905615  0.918319  0.848820  1
  S  S73  1  0.832704  0.708374  0.495360  1
  S  S74  1  0.594385  0.418319  0.651180  1
  S  S75  1  0.332704  0.791626  0.995360  1
  S  S76  1  0.182642  0.567348  0.070320  1
  S  S77  1  0.125141  0.142429  0.804322  1
  S  S78  1  0.682642  0.932652  0.570320  1
  S  S79  1  0.405615  0.581681  0.348820  1
  S  S80  1  0.667296  0.208374  0.004640  1
  S  S81  1  0.317358  0.067348  0.429680  1
  S  S82  1  0.874859  0.857571  0.195678  1
  S  S83  1  0.817358  0.432652  0.929680  1
  N  N84  1  0.961081  0.948428  0.137954  1
  N  N85  1  0.038919  0.051572  0.862046  1
  N  N86  1  0.461081  0.551572  0.637954  1
  N  N87  1  0.177095  0.726156  0.033880  1
  N  N88  1  0.677095  0.773844  0.533880  1
  N  N89  1  0.538919  0.448428  0.362046  1
  N  N90  1  0.322905  0.226156  0.466120  1
  N  N91  1  0.822905  0.273844  0.966120  1
  O  O92  1  0.505147  0.959166  0.584109  1
  O  O93  1  0.236780  0.246648  0.842061  1
  O  O94  1  0.994853  0.459166  0.915891  1
  O  O95  1  0.997662  0.793425  0.244266  1
  O  O96  1  0.005147  0.540834  0.084109  1
  O  O97  1  0.614319  0.351322  0.586348  1
  O  O98  1  0.767288  0.047995  0.533334  1
  O  O99  1  0.453919  0.681718  0.296951  1
  O  O100  1  0.114319  0.148678  0.086348  1
  O  O101  1  0.291001  0.946011  0.981662  1
  O  O102  1  0.263220  0.746648  0.657939  1
  O  O103  1  0.763220  0.753352  0.157939  1
  O  O104  1  0.502669  0.234843  0.968875  1
  O  O105  1  0.208999  0.446011  0.518338  1
  O  O106  1  0.497331  0.765157  0.031125  1
  O  O107  1  0.708999  0.053989  0.018338  1
  O  O108  1  0.494853  0.040834  0.415891  1
  O  O109  1  0.791001  0.553989  0.481662  1
  O  O110  1  0.997331  0.734843  0.531125  1
  O  O111  1  0.385681  0.648678  0.413652  1
  O  O112  1  0.885681  0.851322  0.913652  1
  O  O113  1  0.002669  0.265157  0.468875  1
  O  O114  1  0.232712  0.952005  0.466666  1
  O  O115  1  0.267288  0.452005  0.033334  1
  O  O116  1  0.002338  0.206575  0.755734  1
  O  O117  1  0.046081  0.181718  0.203049  1
  O  O118  1  0.546081  0.318282  0.703049  1
  O  O119  1  0.736780  0.253352  0.342061  1
  O  O120  1  0.953919  0.818282  0.796951  1
  O  O121  1  0.732712  0.547995  0.966666  1
  O  O122  1  0.497662  0.706575  0.744266  1
  O  O123  1  0.502338  0.293425  0.255734  1
