# generated using pymatgen
data_Lu14(InCo)3
_symmetry_space_group_name_H-M   'P 1'
_cell_length_a   9.34036426
_cell_length_b   9.34036426
_cell_length_c   22.76693217
_cell_angle_alpha   90.00000000
_cell_angle_beta   90.00000000
_cell_angle_gamma   90.00000000
_symmetry_Int_Tables_number   1
_chemical_formula_structural   Lu14(InCo)3
_chemical_formula_sum   'Lu56 In12 Co12'
_cell_volume   1986.24190582
_cell_formula_units_Z   4
loop_
 _symmetry_equiv_pos_site_id
 _symmetry_equiv_pos_as_xyz
  1  'x, y, z'
loop_
 _atom_site_type_symbol
 _atom_site_label
 _atom_site_symmetry_multiplicity
 _atom_site_fract_x
 _atom_site_fract_y
 _atom_site_fract_z
 _atom_site_occupancy
  Lu  Lu0  1  0.066408  0.066418  0.604861  1
  Lu  Lu1  1  0.066418  0.066408  0.104861  1
  Lu  Lu2  1  0.059751  0.940249  0.750000  1
  Lu  Lu3  1  0.933592  0.933582  0.395139  1
  Lu  Lu4  1  0.933582  0.933592  0.895139  1
  Lu  Lu5  1  0.066418  0.433592  0.104861  1
  Lu  Lu6  1  0.250000  0.750000  0.854487  1
  Lu  Lu7  1  0.250000  0.558831  0.984114  1
  Lu  Lu8  1  0.559751  0.059751  0.250000  1
  Lu  Lu9  1  0.559751  0.440249  0.250000  1
  Lu  Lu10  1  0.433582  0.066408  0.104861  1
  Lu  Lu11  1  0.566418  0.933592  0.895139  1
  Lu  Lu12  1  0.941169  0.250000  0.484114  1
  Lu  Lu13  1  0.750000  0.561428  0.530733  1
  Lu  Lu14  1  0.750000  0.750000  0.786553  1
  Lu  Lu15  1  0.940249  0.440249  0.250000  1
  Lu  Lu16  1  0.750000  0.750000  0.286553  1
  Lu  Lu17  1  0.940249  0.059751  0.250000  1
  Lu  Lu18  1  0.750000  0.058831  0.015886  1
  Lu  Lu19  1  0.750000  0.250000  0.354487  1
  Lu  Lu20  1  0.933592  0.566418  0.395139  1
  Lu  Lu21  1  0.750000  0.441169  0.015886  1
  Lu  Lu22  1  0.433592  0.066418  0.604861  1
  Lu  Lu23  1  0.448613  0.750000  0.197112  1
  Lu  Lu24  1  0.566408  0.566418  0.395139  1
  Lu  Lu25  1  0.933582  0.566408  0.895139  1
  Lu  Lu26  1  0.433582  0.433592  0.104861  1
  Lu  Lu27  1  0.066408  0.433582  0.604861  1
  Lu  Lu28  1  0.059751  0.559751  0.750000  1
  Lu  Lu29  1  0.438572  0.250000  0.969267  1
  Lu  Lu30  1  0.566418  0.566408  0.895139  1
  Lu  Lu31  1  0.441169  0.750000  0.515886  1
  Lu  Lu32  1  0.250000  0.438572  0.469267  1
  Lu  Lu33  1  0.051387  0.750000  0.197112  1
  Lu  Lu34  1  0.938572  0.750000  0.030733  1
  Lu  Lu35  1  0.750000  0.938572  0.530733  1
  Lu  Lu36  1  0.250000  0.250000  0.713447  1
  Lu  Lu37  1  0.440249  0.559751  0.750000  1
  Lu  Lu38  1  0.750000  0.051387  0.697112  1
  Lu  Lu39  1  0.948613  0.250000  0.802888  1
  Lu  Lu40  1  0.250000  0.948613  0.302888  1
  Lu  Lu41  1  0.250000  0.061428  0.469267  1
  Lu  Lu42  1  0.750000  0.448613  0.697112  1
  Lu  Lu43  1  0.750000  0.250000  0.145513  1
  Lu  Lu44  1  0.250000  0.941169  0.984114  1
  Lu  Lu45  1  0.551387  0.250000  0.802888  1
  Lu  Lu46  1  0.250000  0.750000  0.645513  1
  Lu  Lu47  1  0.561428  0.750000  0.030733  1
  Lu  Lu48  1  0.250000  0.551387  0.302888  1
  Lu  Lu49  1  0.433592  0.433582  0.604861  1
  Lu  Lu50  1  0.058831  0.750000  0.515886  1
  Lu  Lu51  1  0.558831  0.250000  0.484114  1
  Lu  Lu52  1  0.440249  0.940249  0.750000  1
  Lu  Lu53  1  0.250000  0.250000  0.213447  1
  Lu  Lu54  1  0.061428  0.250000  0.969267  1
  Lu  Lu55  1  0.566408  0.933582  0.395139  1
  In  In56  1  0.750000  0.250000  0.906535  1
  In  In57  1  0.250000  0.750000  0.093465  1
  In  In58  1  0.250000  0.750000  0.406535  1
  In  In59  1  0.250000  0.089800  0.854681  1
  In  In60  1  0.910200  0.750000  0.645319  1
  In  In61  1  0.410200  0.250000  0.354681  1
  In  In62  1  0.750000  0.250000  0.593465  1
  In  In63  1  0.089800  0.250000  0.354681  1
  In  In64  1  0.250000  0.410200  0.854681  1
  In  In65  1  0.750000  0.589800  0.145319  1
  In  In66  1  0.589800  0.750000  0.645319  1
  In  In67  1  0.750000  0.910200  0.145319  1
  Co  Co68  1  0.750000  0.468757  0.811940  1
  Co  Co69  1  0.250000  0.250000  0.051226  1
  Co  Co70  1  0.031243  0.750000  0.311940  1
  Co  Co71  1  0.250000  0.531243  0.188060  1
  Co  Co72  1  0.750000  0.031243  0.811940  1
  Co  Co73  1  0.468757  0.750000  0.311940  1
  Co  Co74  1  0.250000  0.250000  0.551226  1
  Co  Co75  1  0.250000  0.968757  0.188060  1
  Co  Co76  1  0.531243  0.250000  0.688060  1
  Co  Co77  1  0.750000  0.750000  0.448774  1
  Co  Co78  1  0.968757  0.250000  0.688060  1
  Co  Co79  1  0.750000  0.750000  0.948774  1
