# generated using pymatgen
data_Tb2TiO5
_symmetry_space_group_name_H-M   'P 1'
_cell_length_a   7.37277475
_cell_length_b   7.59977084
_cell_length_c   22.71405367
_cell_angle_alpha   59.38835624
_cell_angle_beta   57.95671365
_cell_angle_gamma   58.09459542
_symmetry_Int_Tables_number   1
_chemical_formula_structural   Tb2TiO5
_chemical_formula_sum   'Tb16 Ti8 O40'
_cell_volume   868.28813146
_cell_formula_units_Z   8
loop_
 _symmetry_equiv_pos_site_id
 _symmetry_equiv_pos_as_xyz
  1  'x, y, z'
loop_
 _atom_site_type_symbol
 _atom_site_label
 _atom_site_symmetry_multiplicity
 _atom_site_fract_x
 _atom_site_fract_y
 _atom_site_fract_z
 _atom_site_occupancy
  O  O0  1  0.036286  0.706463  0.042867  1
  O  O1  1  0.031216  0.057739  0.239625  1
  O  O2  1  0.266464  0.394426  0.142572  1
  O  O3  1  0.021436  0.706129  0.228558  1
  O  O4  1  0.656967  0.077134  0.049809  1
  O  O5  1  0.319537  0.376021  0.302848  1
  O  O6  1  -0.003212  0.701290  0.364155  1
  O  O7  1  0.314606  0.907841  0.128002  1
  O  O8  1  0.890500  0.322533  0.591108  1
  O  O9  1  0.653127  0.107601  0.202404  1
  O  O10  1  0.605831  0.613692  0.054351  1
  O  O11  1  0.324383  0.878631  0.306400  1
  O  O12  1  0.954593  0.331225  0.119902  1
  O  O13  1  0.378125  0.374659  0.449302  1
  O  O14  1  0.087063  0.620620  0.546091  1
  O  O15  1  0.656874  0.106476  0.363923  1
  O  O16  1  0.664753  0.633231  0.199514  1
  O  O17  1  0.345984  0.430190  0.621290  1
  O  O18  1  0.352767  0.400341  0.785919  1
  O  O19  1  0.308936  0.906321  0.465557  1
  O  O20  1  0.074693  0.089948  0.890024  1
  O  O21  1  0.949132  0.286696  0.323368  1
  O  O22  1  0.096293  0.082513  0.033192  1
  O  O23  1  0.651134  0.631220  0.370553  1
  O  O24  1  0.642819  0.106712  0.539584  1
  O  O25  1  0.931687  0.328748  0.449343  1
  O  O26  1  0.314169  0.875431  0.612520  1
  O  O27  1  0.078408  0.655211  0.880630  1
  O  O28  1  0.638550  0.129916  0.701364  1
  O  O29  1  0.374369  0.373811  0.959828  1
  O  O30  1  0.405643  0.855323  0.786188  1
  O  O31  1  0.642370  0.123929  0.868734  1
  O  O32  1  0.097945  0.173017  0.686325  1
  O  O33  1  0.910199  0.893612  0.448442  1
  O  O34  1  0.701359  0.622287  0.675451  1
  O  O35  1  0.932291  0.431860  0.763644  1
  O  O36  1  0.464221  0.806718  0.937290  1
  O  O37  1  0.938096  0.898130  0.611113  1
  O  O38  1  0.840588  0.375856  0.956004  1
  O  O39  1  0.925944  0.858886  0.762177  1
  Tb  Tb40  1  0.476918  0.981858  0.996154  1
  Tb  Tb41  1  0.462659  0.488439  0.012936  1
  Tb  Tb42  1  0.417450  0.525711  0.175646  1
  Tb  Tb43  1  0.495505  0.004423  0.330466  1
  Tb  Tb44  1  0.016632  0.525292  0.479172  1
  Tb  Tb45  1  0.985619  0.463021  0.000523  1
  Tb  Tb46  1  0.575791  0.479839  0.324063  1
  Tb  Tb47  1  0.512864  0.019637  0.490222  1
  Tb  Tb48  1  0.435818  0.009760  0.177796  1
  Tb  Tb49  1  0.493119  0.478070  0.496898  1
  Tb  Tb50  1  0.532769  0.996798  0.662506  1
  Tb  Tb51  1  0.984784  0.513219  0.835845  1
  Tb  Tb52  1  0.515637  0.492677  0.663673  1
  Tb  Tb53  1  0.487994  0.023502  0.825836  1
  Tb  Tb54  1  0.469975  0.495428  0.836318  1
  Tb  Tb55  1  0.014510  0.010347  0.814486  1
  Ti  Ti56  1  0.957555  0.055331  0.990663  1
  Ti  Ti57  1  0.969484  0.524930  0.137040  1
  Ti  Ti58  1  0.997370  0.926608  0.515703  1
  Ti  Ti59  1  0.993020  0.995261  0.179402  1
  Ti  Ti60  1  0.990210  0.998504  0.339239  1
  Ti  Ti61  1  0.987893  0.486512  0.348796  1
  Ti  Ti62  1  0.983533  0.030698  0.658066  1
  Ti  Ti63  1  0.016743  0.471745  0.665247  1
