# generated using pymatgen
data_Ag5Te2Cl
_symmetry_space_group_name_H-M   'P 1'
_cell_length_a   7.79781083
_cell_length_b   14.01648595
_cell_length_c   14.10085187
_cell_angle_alpha   89.96087066
_cell_angle_beta   90.00000000
_cell_angle_gamma   90.00000000
_symmetry_Int_Tables_number   1
_chemical_formula_structural   Ag5Te2Cl
_chemical_formula_sum   'Ag40 Te16 Cl8'
_cell_volume   1541.19322096
_cell_formula_units_Z   8
loop_
 _symmetry_equiv_pos_site_id
 _symmetry_equiv_pos_as_xyz
  1  'x, y, z'
loop_
 _atom_site_type_symbol
 _atom_site_label
 _atom_site_symmetry_multiplicity
 _atom_site_fract_x
 _atom_site_fract_y
 _atom_site_fract_z
 _atom_site_occupancy
  Ag  Ag0  1  0.371164  0.928592  0.921224  1
  Ag  Ag1  1  0.508900  0.641529  0.107938  1
  Ag  Ag2  1  0.628836  0.071408  0.078776  1
  Ag  Ag3  1  0.991281  0.358493  0.607868  1
  Ag  Ag4  1  0.124425  0.899594  0.079614  1
  Ag  Ag5  1  0.128836  0.428592  0.421224  1
  Ag  Ag6  1  0.624425  0.600406  0.420386  1
  Ag  Ag7  1  0.375575  0.399594  0.579614  1
  Ag  Ag8  1  0.128319  0.071422  0.421316  1
  Ag  Ag9  1  0.875575  0.100406  0.920386  1
  Ag  Ag10  1  0.871681  0.928578  0.578684  1
  Ag  Ag11  1  0.064954  0.749937  0.573418  1
  Ag  Ag12  1  0.008719  0.641507  0.392132  1
  Ag  Ag13  1  0.207189  0.353686  0.203309  1
  Ag  Ag14  1  0.564954  0.750063  0.926582  1
  Ag  Ag15  1  0.791408  0.854577  0.796510  1
  Ag  Ag16  1  0.935046  0.250063  0.426582  1
  Ag  Ag17  1  0.435046  0.249937  0.073418  1
  Ag  Ag18  1  0.642561  0.249846  0.619503  1
  Ag  Ag19  1  0.371681  0.571422  0.921316  1
  Ag  Ag20  1  0.142561  0.250154  0.880497  1
  Ag  Ag21  1  0.292811  0.853686  0.703309  1
  Ag  Ag22  1  0.124483  0.600587  0.079381  1
  Ag  Ag23  1  0.508719  0.858493  0.107868  1
  Ag  Ag24  1  0.628319  0.428578  0.078684  1
  Ag  Ag25  1  0.857439  0.749846  0.119503  1
  Ag  Ag26  1  0.792811  0.646314  0.796691  1
  Ag  Ag27  1  0.875517  0.399413  0.920619  1
  Ag  Ag28  1  0.707189  0.146314  0.296691  1
  Ag  Ag29  1  0.357439  0.750154  0.380497  1
  Ag  Ag30  1  0.491100  0.358471  0.892062  1
  Ag  Ag31  1  0.208592  0.145423  0.203490  1
  Ag  Ag32  1  0.991100  0.141529  0.607938  1
  Ag  Ag33  1  0.871164  0.571408  0.578776  1
  Ag  Ag34  1  0.008900  0.858471  0.392062  1
  Ag  Ag35  1  0.624483  0.899413  0.420619  1
  Ag  Ag36  1  0.291408  0.645423  0.703490  1
  Ag  Ag37  1  0.375517  0.100587  0.579381  1
  Ag  Ag38  1  0.491281  0.141507  0.892132  1
  Ag  Ag39  1  0.708592  0.354577  0.296510  1
  Te  Te40  1  0.254468  0.249979  0.689787  1
  Te  Te41  1  0.711426  0.410588  0.490651  1
  Te  Te42  1  0.785293  0.250084  0.132420  1
  Te  Te43  1  0.288571  0.910600  0.509482  1
  Te  Te44  1  0.285293  0.249916  0.367580  1
  Te  Te45  1  0.754468  0.250021  0.810213  1
  Te  Te46  1  0.211426  0.089412  0.009349  1
  Te  Te47  1  0.714707  0.750084  0.632420  1
  Te  Te48  1  0.788571  0.589400  0.990518  1
  Te  Te49  1  0.788574  0.910588  0.990651  1
  Te  Te50  1  0.211429  0.410600  0.009482  1
  Te  Te51  1  0.214707  0.749916  0.867580  1
  Te  Te52  1  0.711429  0.089400  0.490518  1
  Te  Te53  1  0.245532  0.749979  0.189787  1
  Te  Te54  1  0.745532  0.750021  0.310213  1
  Te  Te55  1  0.288574  0.589412  0.509349  1
  Cl  Cl56  1  0.011147  0.503249  0.745310  1
  Cl  Cl57  1  0.488700  0.496772  0.245232  1
  Cl  Cl58  1  0.488853  0.003249  0.245310  1
  Cl  Cl59  1  0.511147  0.996751  0.754690  1
  Cl  Cl60  1  0.511300  0.503228  0.754768  1
  Cl  Cl61  1  0.988853  0.496751  0.254690  1
  Cl  Cl62  1  0.988700  0.003228  0.254768  1
  Cl  Cl63  1  0.011300  0.996772  0.745232  1
