# generated using pymatgen
data_TlV5Se8
_symmetry_space_group_name_H-M   'P 1'
_cell_length_a   3.48443533
_cell_length_b   9.24011903
_cell_length_c   9.31846756
_cell_angle_alpha   103.01152618
_cell_angle_beta   100.77089079
_cell_angle_gamma   89.98452392
_symmetry_Int_Tables_number   1
_chemical_formula_structural   TlV5Se8
_chemical_formula_sum   'Tl1 V5 Se8'
_cell_volume   286.89575409
_cell_formula_units_Z   1
loop_
 _symmetry_equiv_pos_site_id
 _symmetry_equiv_pos_as_xyz
  1  'x, y, z'
loop_
 _atom_site_type_symbol
 _atom_site_label
 _atom_site_symmetry_multiplicity
 _atom_site_fract_x
 _atom_site_fract_y
 _atom_site_fract_z
 _atom_site_occupancy
  Tl  Tl0  1  0.000000  0.000000  0.000000  1
  V  V1  1  0.145238  0.497006  0.290400  1
  V  V2  1  0.792832  0.166058  0.585796  1
  V  V3  1  0.207168  0.833942  0.414204  1
  V  V4  1  0.500000  0.500000  0.000000  1
  V  V5  1  0.854762  0.502994  0.709600  1
  Se  Se6  1  0.664333  0.995897  0.328566  1
  Se  Se7  1  0.259525  0.350442  0.519188  1
  Se  Se8  1  0.069147  0.680288  0.139216  1
  Se  Se9  1  0.740475  0.649558  0.480812  1
  Se  Se10  1  0.930853  0.319712  0.860784  1
  Se  Se11  1  0.586956  0.320033  0.173435  1
  Se  Se12  1  0.335667  0.004103  0.671434  1
  Se  Se13  1  0.413044  0.679967  0.826565  1
