# generated using pymatgen
data_Cs2SiAs2
_symmetry_space_group_name_H-M   'P 1'
_cell_length_a   6.52120487
_cell_length_b   7.71717106
_cell_length_c   8.91190979
_cell_angle_alpha   115.67003351
_cell_angle_beta   111.46333841
_cell_angle_gamma   90.00453671
_symmetry_Int_Tables_number   1
_chemical_formula_structural   Cs2SiAs2
_chemical_formula_sum   'Cs4 Si2 As4'
_cell_volume   369.41222298
_cell_formula_units_Z   2
loop_
 _symmetry_equiv_pos_site_id
 _symmetry_equiv_pos_as_xyz
  1  'x, y, z'
loop_
 _atom_site_type_symbol
 _atom_site_label
 _atom_site_symmetry_multiplicity
 _atom_site_fract_x
 _atom_site_fract_y
 _atom_site_fract_z
 _atom_site_occupancy
  Cs  Cs0  1  0.854352  0.021346  0.708709  1
  Cs  Cs1  1  0.354371  0.687298  0.708719  1
  Cs  Cs2  1  0.645629  0.312702  0.291281  1
  Cs  Cs3  1  0.145648  0.978654  0.291291  1
  Si  Si4  1  0.749976  0.499974  -0.000008  1
  Si  Si5  1  0.250024  0.500026  1.000008  1
  As  As6  1  0.908914  0.562440  0.817922  1
  As  As7  1  0.091086  0.437560  0.182078  1
  As  As8  1  0.591232  0.744598  0.182366  1
  As  As9  1  0.408768  0.255402  0.817634  1
