# generated using pymatgen
data_SrLa6OsI12
_symmetry_space_group_name_H-M   'P 1'
_cell_length_a   10.19542489
_cell_length_b   10.19542521
_cell_length_c   10.19542568
_cell_angle_alpha   106.55433316
_cell_angle_beta   106.55433371
_cell_angle_gamma   106.55433686
_symmetry_Int_Tables_number   1
_chemical_formula_structural   SrLa6OsI12
_chemical_formula_sum   'Sr1 La6 Os1 I12'
_cell_volume   893.10830148
_cell_formula_units_Z   1
loop_
 _symmetry_equiv_pos_site_id
 _symmetry_equiv_pos_as_xyz
  1  'x, y, z'
loop_
 _atom_site_type_symbol
 _atom_site_label
 _atom_site_symmetry_multiplicity
 _atom_site_fract_x
 _atom_site_fract_y
 _atom_site_fract_z
 _atom_site_occupancy
  Sr  Sr0  1  0.500000  0.500000  0.500000  1
  La  La1  1  0.098043  0.303118  0.024282  1
  La  La2  1  0.696882  0.975718  0.901957  1
  La  La3  1  0.901957  0.696882  0.975718  1
  La  La4  1  0.975718  0.901957  0.696882  1
  La  La5  1  0.024282  0.098043  0.303118  1
  La  La6  1  0.303118  0.024282  0.098043  1
  Os  Os7  1  0.000000  0.000000  0.000000  1
  I  I8  1  0.622673  0.851508  0.542666  1
  I  I9  1  0.319526  0.925459  0.772927  1
  I  I10  1  0.772927  0.319526  0.925459  1
  I  I11  1  0.925459  0.772927  0.319526  1
  I  I12  1  0.457334  0.377327  0.148492  1
  I  I13  1  0.851508  0.542666  0.622673  1
  I  I14  1  0.074541  0.227073  0.680474  1
  I  I15  1  0.227073  0.680474  0.074541  1
  I  I16  1  0.680474  0.074541  0.227073  1
  I  I17  1  0.148492  0.457334  0.377327  1
  I  I18  1  0.377327  0.148492  0.457334  1
  I  I19  1  0.542666  0.622673  0.851508  1
