# generated using pymatgen
data_Cu(BiO2)2
_symmetry_space_group_name_H-M   'P 1'
_cell_length_a   5.62728465
_cell_length_b   6.88666200
_cell_length_c   6.88666240
_cell_angle_alpha   80.39095024
_cell_angle_beta   65.88533884
_cell_angle_gamma   65.88534134
_symmetry_Int_Tables_number   1
_chemical_formula_structural   Cu(BiO2)2
_chemical_formula_sum   'Cu2 Bi4 O8'
_cell_volume   222.33138943
_cell_formula_units_Z   2
loop_
 _symmetry_equiv_pos_site_id
 _symmetry_equiv_pos_as_xyz
  1  'x, y, z'
loop_
 _atom_site_type_symbol
 _atom_site_label
 _atom_site_symmetry_multiplicity
 _atom_site_fract_x
 _atom_site_fract_y
 _atom_site_fract_z
 _atom_site_occupancy
  Cu  Cu0  1  0.680282  0.000000  1.000000  1
  Cu  Cu1  1  0.179796  0.000000  1.000000  1
  Bi  Bi2  1  0.654711  0.500441  0.158834  1
  Bi  Bi3  1  0.813545  0.841166  0.500441  1
  Bi  Bi4  1  0.155152  0.158834  0.499559  1
  Bi  Bi5  1  0.313986  0.499559  0.841166  1
  O  O6  1  0.767608  0.088551  0.703702  1
  O  O7  1  0.356027  0.911983  0.703407  1
  O  O8  1  0.559862  0.911449  0.296298  1
  O  O9  1  0.471310  0.296298  0.088551  1
  O  O10  1  0.059434  0.296593  0.911983  1
  O  O11  1  0.971417  0.088017  0.296593  1
  O  O12  1  0.856160  0.703702  0.911449  1
  O  O13  1  0.268010  0.703407  0.088017  1
