# generated using pymatgen
data_CsDyZnTe3
_symmetry_space_group_name_H-M   'P 1'
_cell_length_a   4.43750280
_cell_length_b   8.85827830
_cell_length_c   11.75265650
_cell_angle_alpha   90.00000000
_cell_angle_beta   90.00000000
_cell_angle_gamma   104.50544926
_symmetry_Int_Tables_number   1
_chemical_formula_structural   CsDyZnTe3
_chemical_formula_sum   'Cs2 Dy2 Zn2 Te6'
_cell_volume   447.25469730
_cell_formula_units_Z   2
loop_
 _symmetry_equiv_pos_site_id
 _symmetry_equiv_pos_as_xyz
  1  'x, y, z'
loop_
 _atom_site_type_symbol
 _atom_site_label
 _atom_site_symmetry_multiplicity
 _atom_site_fract_x
 _atom_site_fract_y
 _atom_site_fract_z
 _atom_site_occupancy
  Cs  Cs0  1  0.744984  0.489968  0.750000  1
  Cs  Cs1  1  0.255016  0.510032  0.250000  1
  Dy  Dy2  1  0.000000  0.000000  0.000000  1
  Dy  Dy3  1  0.000000  0.000000  0.500000  1
  Zn  Zn4  1  0.539334  0.078669  0.250000  1
  Zn  Zn5  1  0.460666  0.921331  0.750000  1
  Te  Te6  1  0.620622  0.241245  0.057299  1
  Te  Te7  1  0.941926  0.883853  0.250000  1
  Te  Te8  1  0.620622  0.241245  0.442701  1
  Te  Te9  1  0.379378  0.758755  0.942701  1
  Te  Te10  1  0.058074  0.116147  0.750000  1
  Te  Te11  1  0.379378  0.758755  0.557299  1
