# generated using pymatgen
data_Cu10Sn3
_symmetry_space_group_name_H-M   'P 1'
_cell_length_a   7.22479804
_cell_length_b   7.22479801
_cell_length_c   8.78026548
_cell_angle_alpha   90.00000000
_cell_angle_beta   90.00000000
_cell_angle_gamma   120.00000012
_symmetry_Int_Tables_number   1
_chemical_formula_structural   Cu10Sn3
_chemical_formula_sum   'Cu20 Sn6'
_cell_volume   396.90786054
_cell_formula_units_Z   2
loop_
 _symmetry_equiv_pos_site_id
 _symmetry_equiv_pos_as_xyz
  1  'x, y, z'
loop_
 _atom_site_type_symbol
 _atom_site_label
 _atom_site_symmetry_multiplicity
 _atom_site_fract_x
 _atom_site_fract_y
 _atom_site_fract_z
 _atom_site_occupancy
  Cu  Cu0  1  0.318109  -0.000000  0.554771  1
  Cu  Cu1  1  0.000000  0.000000  0.661247  1
  Cu  Cu2  1  1.000000  0.681891  0.445229  1
  Cu  Cu3  1  0.000000  0.316558  0.232676  1
  Cu  Cu4  1  0.683442  0.683442  0.232676  1
  Cu  Cu5  1  0.681891  0.681891  0.554771  1
  Cu  Cu6  1  0.000000  -0.000000  0.338753  1
  Cu  Cu7  1  0.272025  -0.000000  0.908555  1
  Cu  Cu8  1  0.316558  -0.000000  0.232676  1
  Cu  Cu9  1  0.000000  0.272025  0.908555  1
  Cu  Cu10  1  0.681891  0.000000  0.445229  1
  Cu  Cu11  1  0.000000  0.318109  0.554771  1
  Cu  Cu12  1  0.316558  0.316558  0.767324  1
  Cu  Cu13  1  0.272025  0.272025  0.091445  1
  Cu  Cu14  1  1.000000  0.683442  0.767324  1
  Cu  Cu15  1  0.683442  0.000000  0.767324  1
  Cu  Cu16  1  1.000000  0.727975  0.091445  1
  Cu  Cu17  1  0.727975  0.727975  0.908555  1
  Cu  Cu18  1  0.318109  0.318109  0.445229  1
  Cu  Cu19  1  0.727975  0.000000  0.091445  1
  Sn  Sn20  1  0.333333  0.666667  0.333227  1
  Sn  Sn21  1  0.333333  0.666667  0.666773  1
  Sn  Sn22  1  0.666667  0.333333  0.666773  1
  Sn  Sn23  1  0.666667  0.333333  0.333227  1
  Sn  Sn24  1  0.666667  0.333333  -0.000000  1
  Sn  Sn25  1  0.333333  0.666667  -0.000000  1
