# generated using pymatgen
data_KHgC2IN2
_symmetry_space_group_name_H-M   'P 1'
_cell_length_a   4.49494066
_cell_length_b   8.50518163
_cell_length_c   9.87948139
_cell_angle_alpha   90.00000000
_cell_angle_beta   90.00000000
_cell_angle_gamma   105.32222539
_symmetry_Int_Tables_number   1
_chemical_formula_structural   KHgC2IN2
_chemical_formula_sum   'K2 Hg2 C4 I2 N4'
_cell_volume   364.27021867
_cell_formula_units_Z   2
loop_
 _symmetry_equiv_pos_site_id
 _symmetry_equiv_pos_as_xyz
  1  'x, y, z'
loop_
 _atom_site_type_symbol
 _atom_site_label
 _atom_site_symmetry_multiplicity
 _atom_site_fract_x
 _atom_site_fract_y
 _atom_site_fract_z
 _atom_site_occupancy
  K  K0  1  0.763355  0.526711  0.750000  1
  K  K1  1  0.236645  0.473289  0.250000  1
  Hg  Hg2  1  0.000000  0.000000  0.000000  1
  Hg  Hg3  1  0.000000  0.000000  0.500000  1
  C  C4  1  0.878731  0.757463  0.053981  1
  C  C5  1  0.121269  0.242537  0.946019  1
  C  C6  1  0.121269  0.242537  0.553981  1
  C  C7  1  0.878731  0.757463  0.446019  1
  I  I8  1  0.551890  0.103780  0.250000  1
  I  I9  1  0.448110  0.896220  0.750000  1
  N  N10  1  0.809923  0.619847  0.085105  1
  N  N11  1  0.190077  0.380153  0.585105  1
  N  N12  1  0.809923  0.619847  0.414895  1
  N  N13  1  0.190077  0.380153  0.914895  1
