# generated using pymatgen
data_SmBiRh
_symmetry_space_group_name_H-M   'P 1'
_cell_length_a   4.76679684
_cell_length_b   7.37672201
_cell_length_c   8.05349940
_cell_angle_alpha   90.00000000
_cell_angle_beta   90.00000000
_cell_angle_gamma   90.00000000
_symmetry_Int_Tables_number   1
_chemical_formula_structural   SmBiRh
_chemical_formula_sum   'Sm4 Bi4 Rh4'
_cell_volume   283.18789867
_cell_formula_units_Z   4
loop_
 _symmetry_equiv_pos_site_id
 _symmetry_equiv_pos_as_xyz
  1  'x, y, z'
loop_
 _atom_site_type_symbol
 _atom_site_label
 _atom_site_symmetry_multiplicity
 _atom_site_fract_x
 _atom_site_fract_y
 _atom_site_fract_z
 _atom_site_occupancy
  Sm  Sm0  1  0.250000  0.010897  0.699477  1
  Sm  Sm1  1  0.750000  0.989103  0.300523  1
  Sm  Sm2  1  0.750000  0.489103  0.199477  1
  Sm  Sm3  1  0.250000  0.510897  0.800523  1
  Bi  Bi4  1  0.750000  0.812316  0.909682  1
  Bi  Bi5  1  0.250000  0.687684  0.409682  1
  Bi  Bi6  1  0.250000  0.187684  0.090318  1
  Bi  Bi7  1  0.750000  0.312316  0.590318  1
  Rh  Rh8  1  0.750000  0.207443  0.921393  1
  Rh  Rh9  1  0.750000  0.707443  0.578607  1
  Rh  Rh10  1  0.250000  0.292557  0.421393  1
  Rh  Rh11  1  0.250000  0.792557  0.078607  1
