# generated using pymatgen
data_U2Te5
_symmetry_space_group_name_H-M   'P 1'
_cell_length_a   4.18268488
_cell_length_b   6.11050715
_cell_length_c   17.45763708
_cell_angle_alpha   95.04591761
_cell_angle_beta   96.88547879
_cell_angle_gamma   89.99682828
_symmetry_Int_Tables_number   1
_chemical_formula_structural   U2Te5
_chemical_formula_sum   'U4 Te10'
_cell_volume   441.22842440
_cell_formula_units_Z   2
loop_
 _symmetry_equiv_pos_site_id
 _symmetry_equiv_pos_as_xyz
  1  'x, y, z'
loop_
 _atom_site_type_symbol
 _atom_site_label
 _atom_site_symmetry_multiplicity
 _atom_site_fract_x
 _atom_site_fract_y
 _atom_site_fract_z
 _atom_site_occupancy
  U  U0  1  0.150131  0.581056  0.299660  1
  U  U1  1  0.849869  0.418944  0.700340  1
  U  U2  1  0.444667  0.972471  0.889937  1
  U  U3  1  0.555333  0.027529  0.110063  1
  Te  Te4  1  0.879276  0.936188  0.759554  1
  Te  Te5  1  0.120724  0.063812  0.240446  1
  Te  Te6  1  0.299773  0.639966  0.600100  1
  Te  Te7  1  0.700227  0.360034  0.399900  1
  Te  Te8  1  0.701377  0.848188  0.402049  1
  Te  Te9  1  -0.000001  0.250038  0.000021  1
  Te  Te10  1  0.582993  0.542319  0.165088  1
  Te  Te11  1  0.298623  0.151812  0.597951  1
  Te  Te12  1  1.000001  0.749962  0.999979  1
  Te  Te13  1  0.417007  0.457681  0.834912  1
