# generated using pymatgen
data_MnSiNi
_symmetry_space_group_name_H-M   'P 1'
_cell_length_a   4.05641429
_cell_length_b   4.05641518
_cell_length_c   4.84421890
_cell_angle_alpha   90.00000000
_cell_angle_beta   90.00000000
_cell_angle_gamma   120.00000078
_symmetry_Int_Tables_number   1
_chemical_formula_structural   MnSiNi
_chemical_formula_sum   'Mn2 Si2 Ni2'
_cell_volume   69.03019365
_cell_formula_units_Z   2
loop_
 _symmetry_equiv_pos_site_id
 _symmetry_equiv_pos_as_xyz
  1  'x, y, z'
loop_
 _atom_site_type_symbol
 _atom_site_label
 _atom_site_symmetry_multiplicity
 _atom_site_fract_x
 _atom_site_fract_y
 _atom_site_fract_z
 _atom_site_occupancy
  Mn  Mn0  1  0.333333  0.666667  0.249906  1
  Mn  Mn1  1  0.666667  0.333333  0.750090  1
  Si  Si2  1  0.666667  0.333333  0.250074  1
  Si  Si3  1  0.333333  0.666667  0.749932  1
  Ni  Ni4  1  -0.000000  0.000000  0.000008  1
  Ni  Ni5  1  -0.000000  0.000000  0.499990  1
