# generated using pymatgen
data_CsMn(PO3)4
_symmetry_space_group_name_H-M   'P 1'
_cell_length_a   5.33326477
_cell_length_b   7.55547461
_cell_length_c   13.84409005
_cell_angle_alpha   90.00000000
_cell_angle_beta   90.00000000
_cell_angle_gamma   102.24374841
_symmetry_Int_Tables_number   1
_chemical_formula_structural   CsMn(PO3)4
_chemical_formula_sum   'Cs2 Mn2 P8 O24'
_cell_volume   545.16363603
_cell_formula_units_Z   2
loop_
 _symmetry_equiv_pos_site_id
 _symmetry_equiv_pos_as_xyz
  1  'x, y, z'
loop_
 _atom_site_type_symbol
 _atom_site_label
 _atom_site_symmetry_multiplicity
 _atom_site_fract_x
 _atom_site_fract_y
 _atom_site_fract_z
 _atom_site_occupancy
  Cs  Cs0  1  0.616038  0.833893  0.001189  1
  Cs  Cs1  1  0.383962  0.166107  0.501189  1
  Mn  Mn2  1  0.498087  0.486406  0.235235  1
  Mn  Mn3  1  0.501913  0.513594  0.735235  1
  P  P4  1  0.003421  0.445298  0.875421  1
  P  P5  1  0.210462  0.136851  0.819483  1
  P  P6  1  0.996579  0.554702  0.375421  1
  P  P7  1  0.137978  0.097173  0.178462  1
  P  P8  1  0.000111  0.426958  0.095112  1
  P  P9  1  0.999889  0.573042  0.595112  1
  P  P10  1  0.862022  0.902827  0.678462  1
  P  P11  1  0.789538  0.863149  0.319483  1
  O  O12  1  0.220196  0.532878  0.154974  1
  O  O13  1  0.745191  0.476237  0.104641  1
  O  O14  1  0.025575  0.786363  0.612976  1
  O  O15  1  0.103352  0.456412  0.985841  1
  O  O16  1  0.753075  0.502013  0.866831  1
  O  O17  1  0.973033  0.235568  0.848552  1
  O  O18  1  0.974425  0.213637  0.112976  1
  O  O19  1  0.829509  0.063511  0.623496  1
  O  O20  1  0.170491  0.936489  0.123496  1
  O  O21  1  0.636851  0.746481  0.239835  1
  O  O22  1  0.246925  0.497987  0.366831  1
  O  O23  1  0.254809  0.523763  0.604641  1
  O  O24  1  0.779804  0.467122  0.654974  1
  O  O25  1  0.896648  0.543588  0.485841  1
  O  O26  1  0.945402  0.045729  0.269907  1
  O  O27  1  0.340117  0.089201  0.906671  1
  O  O28  1  0.628196  0.773736  0.720357  1
  O  O29  1  0.054598  0.954271  0.769907  1
  O  O30  1  0.659883  0.910799  0.406671  1
  O  O31  1  0.229931  0.558869  0.820780  1
  O  O32  1  0.770069  0.441131  0.320780  1
  O  O33  1  0.026967  0.764432  0.348552  1
  O  O34  1  0.363149  0.253519  0.739835  1
  O  O35  1  0.371804  0.226264  0.220357  1
