# generated using pymatgen
data_LuU4S5O4
_symmetry_space_group_name_H-M   'P 1'
_cell_length_a   3.79035778
_cell_length_b   3.79035817
_cell_length_c   17.47756956
_cell_angle_alpha   96.22510468
_cell_angle_beta   96.22510534
_cell_angle_gamma   90.00000303
_symmetry_Int_Tables_number   1
_chemical_formula_structural   LuU4S5O4
_chemical_formula_sum   'Lu1 U4 S5 O4'
_cell_volume   248.12698560
_cell_formula_units_Z   1
loop_
 _symmetry_equiv_pos_site_id
 _symmetry_equiv_pos_as_xyz
  1  'x, y, z'
loop_
 _atom_site_type_symbol
 _atom_site_label
 _atom_site_symmetry_multiplicity
 _atom_site_fract_x
 _atom_site_fract_y
 _atom_site_fract_z
 _atom_site_occupancy
  Lu  Lu0  1  0.500000  0.500000  0.000000  1
  U  U1  1  0.307648  0.307648  0.615295  1
  U  U2  1  0.692352  0.692352  0.384705  1
  U  U3  1  0.114170  0.114170  0.228339  1
  U  U4  1  0.885830  0.885830  0.771661  1
  S  S5  1  0.776989  0.776989  0.553978  1
  S  S6  1  0.422949  0.422949  0.845899  1
  S  S7  1  0.223011  0.223011  0.446022  1
  S  S8  1  0.577051  0.577051  0.154101  1
  S  S9  1  0.000000  0.000000  0.000000  1
  O  O10  1  0.151036  0.651036  0.302072  1
  O  O11  1  0.651036  0.151036  0.302072  1
  O  O12  1  0.848964  0.348964  0.697928  1
  O  O13  1  0.348964  0.848964  0.697928  1
