# generated using pymatgen
data_Na2SnSe3
_symmetry_space_group_name_H-M   'P 1'
_cell_length_a   12.63012296
_cell_length_b   14.18343369
_cell_length_c   24.25102786
_cell_angle_alpha   90.00000000
_cell_angle_beta   90.00000000
_cell_angle_gamma   90.00000000
_symmetry_Int_Tables_number   1
_chemical_formula_structural   Na2SnSe3
_chemical_formula_sum   'Na48 Sn24 Se72'
_cell_volume   4344.29303318
_cell_formula_units_Z   24
loop_
 _symmetry_equiv_pos_site_id
 _symmetry_equiv_pos_as_xyz
  1  'x, y, z'
loop_
 _atom_site_type_symbol
 _atom_site_label
 _atom_site_symmetry_multiplicity
 _atom_site_fract_x
 _atom_site_fract_y
 _atom_site_fract_z
 _atom_site_occupancy
  Na  Na0  1  0.878775  0.170089  0.831676  1
  Na  Na1  1  0.573363  0.622490  0.483637  1
  Na  Na2  1  0.075672  0.907035  0.653874  1
  Na  Na3  1  0.424328  0.407035  0.653874  1
  Na  Na4  1  0.936682  0.607197  0.991864  1
  Na  Na5  1  0.616550  0.114024  0.172617  1
  Na  Na6  1  0.621225  0.670089  0.668324  1
  Na  Na7  1  0.073363  0.877510  0.983637  1
  Na  Na8  1  0.071925  0.400811  0.168664  1
  Na  Na9  1  0.116550  0.385976  0.827383  1
  Na  Na10  1  0.573363  0.622490  0.016363  1
  Na  Na11  1  0.616550  0.114024  0.327383  1
  Na  Na12  1  0.073363  0.877510  0.516363  1
  Na  Na13  1  0.928075  0.599189  0.831336  1
  Na  Na14  1  0.621225  0.670089  0.831676  1
  Na  Na15  1  0.378775  0.329911  0.331676  1
  Na  Na16  1  0.936682  0.607197  0.508136  1
  Na  Na17  1  0.424328  0.407035  0.846126  1
  Na  Na18  1  0.878775  0.170089  0.668324  1
  Na  Na19  1  0.563318  0.107197  0.508136  1
  Na  Na20  1  0.426637  0.377510  0.516363  1
  Na  Na21  1  0.571925  0.099189  0.831336  1
  Na  Na22  1  0.428075  0.900811  0.331336  1
  Na  Na23  1  0.924328  0.092965  0.153874  1
  Na  Na24  1  0.378775  0.329911  0.168324  1
  Na  Na25  1  0.121225  0.829911  0.168324  1
  Na  Na26  1  0.075672  0.907035  0.846126  1
  Na  Na27  1  0.063318  0.392804  0.008136  1
  Na  Na28  1  0.063318  0.392804  0.491864  1
  Na  Na29  1  0.383450  0.885976  0.827383  1
  Na  Na30  1  0.926637  0.122490  0.016363  1
  Na  Na31  1  0.883450  0.614024  0.172617  1
  Na  Na32  1  0.928075  0.599189  0.668664  1
  Na  Na33  1  0.924328  0.092965  0.346126  1
  Na  Na34  1  0.383450  0.885976  0.672617  1
  Na  Na35  1  0.575672  0.592965  0.153874  1
  Na  Na36  1  0.428075  0.900811  0.168664  1
  Na  Na37  1  0.575672  0.592965  0.346126  1
  Na  Na38  1  0.116550  0.385976  0.672617  1
  Na  Na39  1  0.571925  0.099189  0.668664  1
  Na  Na40  1  0.121225  0.829911  0.331676  1
  Na  Na41  1  0.926637  0.122490  0.483637  1
  Na  Na42  1  0.436682  0.892803  0.008136  1
  Na  Na43  1  0.071925  0.400811  0.331336  1
  Na  Na44  1  0.883450  0.614024  0.327383  1
  Na  Na45  1  0.426637  0.377510  0.983637  1
  Na  Na46  1  0.563318  0.107197  0.991864  1
  Na  Na47  1  0.436682  0.892803  0.491864  1
  Sn  Sn48  1  0.720216  0.408716  0.582730  1
  Sn  Sn49  1  0.279784  0.591284  0.082730  1
  Sn  Sn50  1  0.779784  0.908716  0.917270  1
  Sn  Sn51  1  0.269170  0.123894  0.916098  1
  Sn  Sn52  1  0.230830  0.623894  0.583902  1
  Sn  Sn53  1  0.273258  0.117924  0.250000  1
  Sn  Sn54  1  0.269170  0.123894  0.583902  1
  Sn  Sn55  1  0.779784  0.908716  0.582730  1
  Sn  Sn56  1  0.720216  0.408716  0.917270  1
  Sn  Sn57  1  0.220216  0.091284  0.417270  1
  Sn  Sn58  1  0.226742  0.617924  0.250000  1
  Sn  Sn59  1  0.230830  0.623894  0.916098  1
  Sn  Sn60  1  0.730830  0.876106  0.083902  1
  Sn  Sn61  1  0.274257  0.181702  0.750000  1
  Sn  Sn62  1  0.725743  0.818298  0.250000  1
  Sn  Sn63  1  0.769170  0.376106  0.416098  1
  Sn  Sn64  1  0.773258  0.382076  0.750000  1
  Sn  Sn65  1  0.730830  0.876106  0.416098  1
  Sn  Sn66  1  0.279784  0.591284  0.417270  1
  Sn  Sn67  1  0.220216  0.091284  0.082730  1
  Sn  Sn68  1  0.225743  0.681702  0.750000  1
  Sn  Sn69  1  0.769170  0.376106  0.083902  1
  Sn  Sn70  1  0.774257  0.318298  0.250000  1
  Sn  Sn71  1  0.726742  0.882076  0.750000  1
  Se  Se72  1  0.672643  0.298903  0.667861  1
  Se  Se73  1  0.585051  0.945050  0.585500  1
  Se  Se74  1  0.085051  0.554950  0.085500  1
  Se  Se75  1  0.429787  0.473327  0.087301  1
  Se  Se76  1  0.440811  0.214018  0.907316  1
  Se  Se77  1  0.440811  0.214018  0.592684  1
  Se  Se78  1  0.254323  0.941459  0.250000  1
  Se  Se79  1  0.770954  0.553104  0.072939  1
  Se  Se80  1  0.166491  0.200685  0.999537  1
  Se  Se81  1  0.045606  0.692871  0.250000  1
  Se  Se82  1  0.229046  0.446896  0.927061  1
  Se  Se83  1  0.827357  0.798903  0.832139  1
  Se  Se84  1  0.270954  0.946896  0.927061  1
  Se  Se85  1  0.587696  0.945372  0.250000  1
  Se  Se86  1  0.194654  0.857219  0.750000  1
  Se  Se87  1  0.327357  0.701097  0.332139  1
  Se  Se88  1  0.270954  0.946896  0.572939  1
  Se  Se89  1  0.754323  0.558541  0.750000  1
  Se  Se90  1  0.172643  0.201097  0.332139  1
  Se  Se91  1  0.245677  0.441459  0.250000  1
  Se  Se92  1  0.833509  0.799315  0.499537  1
  Se  Se93  1  0.827357  0.798903  0.667861  1
  Se  Se94  1  0.805346  0.142781  0.250000  1
  Se  Se95  1  0.087696  0.554628  0.750000  1
  Se  Se96  1  0.559189  0.785982  0.092684  1
  Se  Se97  1  0.305347  0.357219  0.750000  1
  Se  Se98  1  0.172643  0.201097  0.167861  1
  Se  Se99  1  0.166491  0.200685  0.500463  1
  Se  Se100  1  0.729046  0.053104  0.072939  1
  Se  Se101  1  0.954394  0.307129  0.750000  1
  Se  Se102  1  0.666491  0.299314  0.499537  1
  Se  Se103  1  0.859550  0.842032  0.333234  1
  Se  Se104  1  0.085051  0.554950  0.414500  1
  Se  Se105  1  0.585051  0.945050  0.914500  1
  Se  Se106  1  0.672643  0.298903  0.832139  1
  Se  Se107  1  0.333509  0.700685  0.500463  1
  Se  Se108  1  0.940811  0.285982  0.407316  1
  Se  Se109  1  0.059189  0.714018  0.907316  1
  Se  Se110  1  0.666491  0.299314  0.000463  1
  Se  Se111  1  0.070213  0.973327  0.412699  1
  Se  Se112  1  0.833509  0.799315  0.000463  1
  Se  Se113  1  0.412304  0.054628  0.750000  1
  Se  Se114  1  0.570213  0.526673  0.587301  1
  Se  Se115  1  0.414949  0.054950  0.414500  1
  Se  Se116  1  0.140450  0.157968  0.833234  1
  Se  Se117  1  0.429787  0.473327  0.412699  1
  Se  Se118  1  0.859550  0.842032  0.166766  1
  Se  Se119  1  0.359550  0.657968  0.833234  1
  Se  Se120  1  0.929787  0.026673  0.587301  1
  Se  Se121  1  0.770954  0.553104  0.427061  1
  Se  Se122  1  0.454394  0.192871  0.250000  1
  Se  Se123  1  0.912304  0.445372  0.250000  1
  Se  Se124  1  0.929787  0.026673  0.912699  1
  Se  Se125  1  0.359550  0.657968  0.666766  1
  Se  Se126  1  0.545606  0.807129  0.750000  1
  Se  Se127  1  0.940811  0.285982  0.092684  1
  Se  Se128  1  0.140450  0.157968  0.666766  1
  Se  Se129  1  0.570213  0.526673  0.912699  1
  Se  Se130  1  0.640450  0.342032  0.333234  1
  Se  Se131  1  0.327357  0.701097  0.167861  1
  Se  Se132  1  0.729046  0.053104  0.427061  1
  Se  Se133  1  0.414949  0.054950  0.085500  1
  Se  Se134  1  0.229046  0.446896  0.572939  1
  Se  Se135  1  0.745677  0.058541  0.750000  1
  Se  Se136  1  0.059189  0.714018  0.592684  1
  Se  Se137  1  0.070213  0.973327  0.087301  1
  Se  Se138  1  0.914949  0.445050  0.914500  1
  Se  Se139  1  0.333509  0.700685  0.999537  1
  Se  Se140  1  0.559189  0.785982  0.407316  1
  Se  Se141  1  0.694654  0.642781  0.250000  1
  Se  Se142  1  0.914949  0.445050  0.585500  1
  Se  Se143  1  0.640450  0.342032  0.166766  1
