# generated using pymatgen
data_AlSn2P(H3C)8
_symmetry_space_group_name_H-M   'P 1'
_cell_length_a   9.70317295
_cell_length_b   10.02596878
_cell_length_c   10.24171815
_cell_angle_alpha   76.86068977
_cell_angle_beta   82.24922632
_cell_angle_gamma   64.99017819
_symmetry_Int_Tables_number   1
_chemical_formula_structural   AlSn2P(H3C)8
_chemical_formula_sum   'Al2 Sn4 P2 H48 C16'
_cell_volume   878.44273066
_cell_formula_units_Z   2
loop_
 _symmetry_equiv_pos_site_id
 _symmetry_equiv_pos_as_xyz
  1  'x, y, z'
loop_
 _atom_site_type_symbol
 _atom_site_label
 _atom_site_symmetry_multiplicity
 _atom_site_fract_x
 _atom_site_fract_y
 _atom_site_fract_z
 _atom_site_occupancy
  Al  Al0  1  0.016886  0.637900  0.068689  1
  Al  Al1  1  0.983114  0.362100  0.931311  1
  Sn  Sn2  1  0.165342  0.657722  0.667721  1
  Sn  Sn3  1  0.711085  0.812481  0.762557  1
  Sn  Sn4  1  0.288915  0.187519  0.237443  1
  Sn  Sn5  1  0.834658  0.342278  0.332279  1
  P  P6  1  0.969030  0.618017  0.844794  1
  P  P7  1  0.030970  0.381983  0.155206  1
  H  H8  1  0.186268  0.685374  0.394703  1
  H  H9  1  0.254673  0.216598  0.504200  1
  H  H10  1  0.257037  0.889247  0.597844  1
  H  H11  1  0.660234  0.663152  0.592300  1
  H  H12  1  0.688121  0.444969  0.975795  1
  H  H13  1  0.574783  0.116093  0.123457  1
  H  H14  1  0.426622  0.468885  0.802805  1
  H  H15  1  0.384913  0.370371  0.699024  1
  H  H16  1  0.265757  0.944819  0.175992  1
  H  H17  1  0.742963  0.110753  0.402156  1
  H  H18  1  0.750462  0.367178  0.828396  1
  H  H19  1  0.469432  0.499416  0.626269  1
  H  H20  1  0.201519  0.955719  0.346648  1
  H  H21  1  0.175647  0.094223  0.910230  1
  H  H22  1  0.533012  0.687092  0.928328  1
  H  H23  1  0.144608  0.211111  0.749385  1
  H  H24  1  0.904101  0.439349  0.535638  1
  H  H25  1  0.425217  0.883907  0.876543  1
  H  H26  1  0.061513  0.961750  0.655132  1
  H  H27  1  0.989964  0.758613  0.446361  1
  H  H28  1  0.813732  0.314626  0.605297  1
  H  H29  1  0.311879  0.555031  0.024205  1
  H  H30  1  0.745327  0.783402  0.495800  1
  H  H31  1  0.217597  0.751758  0.012094  1
  H  H32  1  0.207228  0.865558  0.773498  1
  H  H33  1  0.555971  0.817573  0.007481  1
  H  H34  1  0.400636  0.881335  0.303021  1
  H  H35  1  0.938487  0.038250  0.344868  1
  H  H36  1  0.573378  0.531115  0.197195  1
  H  H37  1  0.734243  0.055181  0.824008  1
  H  H38  1  0.792772  0.134442  0.226502  1
  H  H39  1  0.782403  0.248242  0.987906  1
  H  H40  1  0.444029  0.182427  0.992519  1
  H  H41  1  0.730846  0.782684  0.142460  1
  H  H42  1  0.269154  0.217316  0.857540  1
  H  H43  1  0.095899  0.560651  0.464362  1
  H  H44  1  0.466988  0.312908  0.071672  1
  H  H45  1  0.339766  0.336848  0.407700  1
  H  H46  1  0.548168  0.859646  0.546126  1
  H  H47  1  0.798481  0.044281  0.653352  1
  H  H48  1  0.824353  0.905777  0.089770  1
  H  H49  1  0.249538  0.632822  0.171604  1
  H  H50  1  0.010036  0.241388  0.553639  1
  H  H51  1  0.599364  0.118665  0.696979  1
  H  H52  1  0.855392  0.788889  0.250615  1
  H  H53  1  0.451832  0.140354  0.453874  1
  H  H54  1  0.530568  0.500584  0.373731  1
  H  H55  1  0.615087  0.629629  0.300976  1
  C  C56  1  0.464540  0.202122  0.087619  1
  C  C57  1  0.161288  0.206970  0.854731  1
  C  C58  1  0.101074  0.666384  0.469844  1
  C  C59  1  0.611635  0.523128  0.295661  1
  C  C60  1  0.838712  0.793030  0.145269  1
  C  C61  1  0.173485  0.869317  0.674357  1
  C  C62  1  0.826515  0.130683  0.325643  1
  C  C63  1  0.288549  0.965838  0.269701  1
  C  C64  1  0.898926  0.333616  0.530156  1
  C  C65  1  0.711451  0.034162  0.730299  1
  C  C66  1  0.218844  0.643722  0.068827  1
  C  C67  1  0.338771  0.225359  0.423543  1
  C  C68  1  0.388365  0.476872  0.704339  1
  C  C69  1  0.781156  0.356278  0.931173  1
  C  C70  1  0.661229  0.774641  0.576457  1
  C  C71  1  0.535460  0.797878  0.912381  1
