# generated using pymatgen
data_NaMo2P3O13
_symmetry_space_group_name_H-M   'P 1'
_cell_length_a   6.47716955
_cell_length_b   7.21436131
_cell_length_c   22.69559183
_cell_angle_alpha   90.00000000
_cell_angle_beta   90.00000000
_cell_angle_gamma   100.30004392
_symmetry_Int_Tables_number   1
_chemical_formula_structural   NaMo2P3O13
_chemical_formula_sum   'Na4 Mo8 P12 O52'
_cell_volume   1043.44355900
_cell_formula_units_Z   4
loop_
 _symmetry_equiv_pos_site_id
 _symmetry_equiv_pos_as_xyz
  1  'x, y, z'
loop_
 _atom_site_type_symbol
 _atom_site_label
 _atom_site_symmetry_multiplicity
 _atom_site_fract_x
 _atom_site_fract_y
 _atom_site_fract_z
 _atom_site_occupancy
  Na  Na0  1  0.830674  0.796189  0.367369  1
  Na  Na1  1  0.669326  0.703811  0.867369  1
  Na  Na2  1  0.330674  0.296189  0.132631  1
  Na  Na3  1  0.169326  0.203811  0.632631  1
  Mo  Mo4  1  0.213620  0.959451  0.792334  1
  Mo  Mo5  1  0.274074  0.723006  0.563524  1
  Mo  Mo6  1  0.725926  0.276994  0.436476  1
  Mo  Mo7  1  0.713620  0.459451  0.707666  1
  Mo  Mo8  1  0.286380  0.540549  0.292334  1
  Mo  Mo9  1  0.786380  0.040549  0.207666  1
  Mo  Mo10  1  0.225926  0.776994  0.063524  1
  Mo  Mo11  1  0.774074  0.223006  0.936476  1
  P  P12  1  0.120875  0.649850  0.917120  1
  P  P13  1  0.379125  0.850150  0.417120  1
  P  P14  1  0.277192  0.297776  0.901316  1
  P  P15  1  0.722808  0.702224  0.098684  1
  P  P16  1  0.222808  0.202224  0.401316  1
  P  P17  1  0.620875  0.149850  0.582880  1
  P  P18  1  0.726982  0.086133  0.796784  1
  P  P19  1  0.777192  0.797776  0.598684  1
  P  P20  1  0.773018  0.413867  0.296784  1
  P  P21  1  0.226982  0.586133  0.703216  1
  P  P22  1  0.879125  0.350150  0.082880  1
  P  P23  1  0.273018  0.913867  0.203216  1
  O  O24  1  0.483851  0.298446  0.933763  1
  O  O25  1  0.600099  0.967154  0.421607  1
  O  O26  1  0.718440  0.266707  0.346610  1
  O  O27  1  0.276033  0.790002  0.476397  1
  O  O28  1  0.296404  0.017165  0.060672  1
  O  O29  1  0.223967  0.709998  0.976397  1
  O  O30  1  0.698899  0.188577  0.738834  1
  O  O31  1  0.198899  0.688577  0.761166  1
  O  O32  1  0.607473  0.543078  0.293318  1
  O  O33  1  0.763379  0.705572  0.659143  1
  O  O34  1  0.392527  0.456922  0.706682  1
  O  O35  1  0.892527  0.956922  0.793318  1
  O  O36  1  0.281560  0.733293  0.653390  1
  O  O37  1  0.516149  0.701554  0.066237  1
  O  O38  1  0.776033  0.290002  0.023603  1
  O  O39  1  0.634436  0.315629  0.624632  1
  O  O40  1  0.760582  0.941817  0.276288  1
  O  O41  1  0.865564  0.184371  0.124632  1
  O  O42  1  0.016149  0.201554  0.433763  1
  O  O43  1  0.979600  0.555625  0.311073  1
  O  O44  1  0.020400  0.444375  0.688927  1
  O  O45  1  0.520400  0.944375  0.811073  1
  O  O46  1  0.203596  0.482835  0.560672  1
  O  O47  1  0.223870  0.981688  0.387873  1
  O  O48  1  0.301101  0.811423  0.261166  1
  O  O49  1  0.260582  0.441817  0.223712  1
  O  O50  1  0.703596  0.982835  0.939328  1
  O  O51  1  0.134436  0.815629  0.875368  1
  O  O52  1  0.781560  0.233293  0.846610  1
  O  O53  1  0.092596  0.225534  0.942291  1
  O  O54  1  0.983851  0.798446  0.566237  1
  O  O55  1  0.796404  0.517165  0.439328  1
  O  O56  1  0.723870  0.481688  0.112127  1
  O  O57  1  0.100099  0.467154  0.078393  1
  O  O58  1  0.899901  0.532846  0.921607  1
  O  O59  1  0.776130  0.018312  0.612127  1
  O  O60  1  0.479600  0.055625  0.188927  1
  O  O61  1  0.263379  0.205572  0.840857  1
  O  O62  1  0.801101  0.311423  0.238834  1
  O  O63  1  0.736621  0.794428  0.159143  1
  O  O64  1  0.723967  0.209999  0.523603  1
  O  O65  1  0.218440  0.766707  0.153390  1
  O  O66  1  0.239418  0.058183  0.723712  1
  O  O67  1  0.276130  0.518312  0.887873  1
  O  O68  1  0.107473  0.043078  0.206682  1
  O  O69  1  0.365564  0.684371  0.375368  1
  O  O70  1  0.407404  0.274466  0.442291  1
  O  O71  1  0.907404  0.774466  0.057709  1
  O  O72  1  0.592596  0.725534  0.557709  1
  O  O73  1  0.236621  0.294428  0.340857  1
  O  O74  1  0.739418  0.558183  0.776288  1
  O  O75  1  0.399901  0.032846  0.578393  1
