# generated using pymatgen
data_BaSi2(BO4)2
_symmetry_space_group_name_H-M   'P 1'
_cell_length_a   8.31845273
_cell_length_b   8.27354496
_cell_length_c   9.16686932
_cell_angle_alpha   90.00000000
_cell_angle_beta   90.00000000
_cell_angle_gamma   90.00000000
_symmetry_Int_Tables_number   1
_chemical_formula_structural   BaSi2(BO4)2
_chemical_formula_sum   'Ba4 Si8 B8 O32'
_cell_volume   630.89229661
_cell_formula_units_Z   4
loop_
 _symmetry_equiv_pos_site_id
 _symmetry_equiv_pos_as_xyz
  1  'x, y, z'
loop_
 _atom_site_type_symbol
 _atom_site_label
 _atom_site_symmetry_multiplicity
 _atom_site_fract_x
 _atom_site_fract_y
 _atom_site_fract_z
 _atom_site_occupancy
  Ba  Ba0  1  0.608484  0.750000  0.918637  1
  Ba  Ba1  1  0.391516  0.250000  0.081363  1
  Ba  Ba2  1  0.108484  0.750000  0.581363  1
  Ba  Ba3  1  0.891516  0.250000  0.418637  1
  Si  Si4  1  0.925701  0.434598  0.810926  1
  Si  Si5  1  0.925701  0.065402  0.810926  1
  Si  Si6  1  0.074299  0.934598  0.189074  1
  Si  Si7  1  0.074299  0.565402  0.189074  1
  Si  Si8  1  0.574299  0.565402  0.310926  1
  Si  Si9  1  0.574299  0.934598  0.310926  1
  Si  Si10  1  0.425701  0.434598  0.689074  1
  Si  Si11  1  0.425701  0.065402  0.689074  1
  B  B12  1  0.225755  0.913997  0.909704  1
  B  B13  1  0.274245  0.086003  0.409704  1
  B  B14  1  0.774245  0.413997  0.090296  1
  B  B15  1  0.725755  0.913997  0.590296  1
  B  B16  1  0.274245  0.413997  0.409704  1
  B  B17  1  0.725755  0.586003  0.590296  1
  B  B18  1  0.774245  0.086003  0.090296  1
  B  B19  1  0.225755  0.586003  0.909704  1
  O  O20  1  0.785741  0.750000  0.618639  1
  O  O21  1  0.714259  0.250000  0.118639  1
  O  O22  1  0.648237  0.971223  0.148156  1
  O  O23  1  0.215739  0.956396  0.067043  1
  O  O24  1  0.929146  0.063715  0.165073  1
  O  O25  1  0.148237  0.971223  0.351844  1
  O  O26  1  0.501526  0.750000  0.310087  1
  O  O27  1  0.351763  0.028777  0.851844  1
  O  O28  1  0.351763  0.471223  0.851844  1
  O  O29  1  0.070854  0.936285  0.834927  1
  O  O30  1  0.851763  0.028777  0.648156  1
  O  O31  1  0.215739  0.543604  0.067043  1
  O  O32  1  0.214259  0.250000  0.381361  1
  O  O33  1  0.284261  0.456396  0.567043  1
  O  O34  1  0.429146  0.063715  0.334927  1
  O  O35  1  0.929146  0.436285  0.165073  1
  O  O36  1  0.148237  0.528777  0.351844  1
  O  O37  1  0.570854  0.563715  0.665073  1
  O  O38  1  0.285741  0.750000  0.881361  1
  O  O39  1  0.284261  0.043604  0.567043  1
  O  O40  1  0.070854  0.563715  0.834927  1
  O  O41  1  1.001526  0.750000  0.189913  1
  O  O42  1  0.570854  0.936285  0.665073  1
  O  O43  1  0.784261  0.456396  0.932957  1
  O  O44  1  -0.001526  0.250000  0.810087  1
  O  O45  1  0.784261  0.043604  0.932957  1
  O  O46  1  0.429146  0.436285  0.334927  1
  O  O47  1  0.715739  0.956396  0.432957  1
  O  O48  1  0.851763  0.471223  0.648156  1
  O  O49  1  0.648237  0.528777  0.148156  1
  O  O50  1  0.498474  0.250000  0.689913  1
  O  O51  1  0.715739  0.543604  0.432957  1
