# generated using pymatgen
data_Bi4Au2O9
_symmetry_space_group_name_H-M   'P 1'
_cell_length_a   6.01419550
_cell_length_b   8.94829046
_cell_length_c   35.01523787
_cell_angle_alpha   90.00000000
_cell_angle_beta   90.00000000
_cell_angle_gamma   90.00000000
_symmetry_Int_Tables_number   1
_chemical_formula_structural   Bi4Au2O9
_chemical_formula_sum   'Bi32 Au16 O72'
_cell_volume   1884.40694052
_cell_formula_units_Z   8
loop_
 _symmetry_equiv_pos_site_id
 _symmetry_equiv_pos_as_xyz
  1  'x, y, z'
loop_
 _atom_site_type_symbol
 _atom_site_label
 _atom_site_symmetry_multiplicity
 _atom_site_fract_x
 _atom_site_fract_y
 _atom_site_fract_z
 _atom_site_occupancy
  Bi  Bi0  1  0.227122  0.617708  0.729684  1
  Bi  Bi1  1  0.270519  0.897476  0.653159  1
  Bi  Bi2  1  0.727122  0.882292  0.729684  1
  Bi  Bi3  1  0.272878  0.617708  0.229684  1
  Bi  Bi4  1  0.770519  0.602524  0.653159  1
  Bi  Bi5  1  0.773550  0.579661  0.896398  1
  Bi  Bi6  1  0.249402  0.070662  0.524238  1
  Bi  Bi7  1  0.250598  0.570662  0.475762  1
  Bi  Bi8  1  0.726450  0.079661  0.103602  1
  Bi  Bi9  1  0.229481  0.897476  0.153159  1
  Bi  Bi10  1  0.250598  0.070662  0.024238  1
  Bi  Bi11  1  0.772878  0.382292  0.270316  1
  Bi  Bi12  1  0.727122  0.382292  0.770316  1
  Bi  Bi13  1  0.273550  0.420339  0.603602  1
  Bi  Bi14  1  0.729481  0.602524  0.153159  1
  Bi  Bi15  1  0.749402  0.929338  0.975762  1
  Bi  Bi16  1  0.229481  0.397476  0.346841  1
  Bi  Bi17  1  0.270519  0.397476  0.846841  1
  Bi  Bi18  1  0.770519  0.102524  0.846841  1
  Bi  Bi19  1  0.750598  0.929338  0.475762  1
  Bi  Bi20  1  0.273550  0.920339  0.896398  1
  Bi  Bi21  1  0.750598  0.429339  0.024238  1
  Bi  Bi22  1  0.227122  0.117708  0.770316  1
  Bi  Bi23  1  0.726450  0.579661  0.396398  1
  Bi  Bi24  1  0.773550  0.079661  0.603602  1
  Bi  Bi25  1  0.729481  0.102524  0.346841  1
  Bi  Bi26  1  0.226450  0.920339  0.396398  1
  Bi  Bi27  1  0.226450  0.420339  0.103602  1
  Bi  Bi28  1  0.272878  0.117708  0.270316  1
  Bi  Bi29  1  0.772878  0.882292  0.229684  1
  Bi  Bi30  1  0.749402  0.429339  0.524238  1
  Bi  Bi31  1  0.249402  0.570662  0.975762  1
  Au  Au32  1  0.068750  0.743444  0.317722  1
  Au  Au33  1  0.068750  0.243445  0.182278  1
  Au  Au34  1  0.931250  0.256555  0.682278  1
  Au  Au35  1  0.568750  0.756556  0.317722  1
  Au  Au36  1  0.900801  0.751803  0.060021  1
  Au  Au37  1  0.400801  0.748197  0.060021  1
  Au  Au38  1  0.568750  0.256555  0.182278  1
  Au  Au39  1  0.599199  0.251803  0.939979  1
  Au  Au40  1  0.431250  0.243445  0.682278  1
  Au  Au41  1  0.431250  0.743444  0.817722  1
  Au  Au42  1  0.900801  0.251803  0.439979  1
  Au  Au43  1  0.931250  0.756556  0.817722  1
  Au  Au44  1  0.400801  0.248197  0.439979  1
  Au  Au45  1  0.099199  0.248197  0.939979  1
  Au  Au46  1  0.599199  0.751803  0.560021  1
  Au  Au47  1  0.099199  0.748197  0.560021  1
  O  O48  1  0.411203  0.540131  0.035339  1
  O  O49  1  0.361179  0.649908  0.111952  1
  O  O50  1  0.472336  0.764359  0.190328  1
  O  O51  1  0.906998  0.643562  0.008036  1
  O  O52  1  0.027664  0.764359  0.690328  1
  O  O53  1  0.616541  0.542362  0.581207  1
  O  O54  1  0.406998  0.856438  0.008036  1
  O  O55  1  0.906998  0.143562  0.491964  1
  O  O56  1  0.943837  0.342101  0.628424  1
  O  O57  1  0.527664  0.735641  0.690328  1
  O  O58  1  0.431058  0.454334  0.658913  1
  O  O59  1  0.138821  0.649908  0.611952  1
  O  O60  1  0.616541  0.042362  0.918793  1
  O  O61  1  0.406998  0.356438  0.491964  1
  O  O62  1  0.056163  0.157899  0.128424  1
  O  O63  1  0.638821  0.350092  0.888048  1
  O  O64  1  0.404954  0.820955  0.763236  1
  O  O65  1  0.638821  0.850092  0.611952  1
  O  O66  1  0.411203  0.040131  0.464661  1
  O  O67  1  0.599653  0.964706  0.296246  1
  O  O68  1  0.900347  0.464706  0.703754  1
  O  O69  1  0.931058  0.545666  0.841087  1
  O  O70  1  0.568942  0.545666  0.341087  1
  O  O71  1  0.972336  0.235641  0.309672  1
  O  O72  1  0.431058  0.954334  0.841087  1
  O  O73  1  0.099653  0.535294  0.296246  1
  O  O74  1  0.400347  0.035294  0.703754  1
  O  O75  1  0.095046  0.820955  0.263236  1
  O  O76  1  0.568942  0.045666  0.158913  1
  O  O77  1  0.527664  0.235641  0.809672  1
  O  O78  1  0.556163  0.842101  0.371576  1
  O  O79  1  0.883459  0.542362  0.081208  1
  O  O80  1  0.116541  0.957638  0.581207  1
  O  O81  1  0.093002  0.856438  0.508036  1
  O  O82  1  0.588797  0.959869  0.535339  1
  O  O83  1  0.068942  0.454334  0.158913  1
  O  O84  1  0.443837  0.657899  0.871576  1
  O  O85  1  0.900347  0.964706  0.796246  1
  O  O86  1  0.088797  0.040131  0.964661  1
  O  O87  1  0.138821  0.149908  0.888048  1
  O  O88  1  0.400347  0.535294  0.796246  1
  O  O89  1  0.088797  0.540131  0.535339  1
  O  O90  1  0.595046  0.679045  0.263236  1
  O  O91  1  0.027664  0.264359  0.809672  1
  O  O92  1  0.595046  0.179045  0.236764  1
  O  O93  1  0.093002  0.356438  0.991964  1
  O  O94  1  0.593002  0.143562  0.991964  1
  O  O95  1  0.861179  0.850092  0.111952  1
  O  O96  1  0.883459  0.042362  0.418793  1
  O  O97  1  0.383459  0.457638  0.418793  1
  O  O98  1  0.472336  0.264359  0.309672  1
  O  O99  1  0.972336  0.735641  0.190328  1
  O  O100  1  0.556163  0.342101  0.128424  1
  O  O101  1  0.588797  0.459869  0.964661  1
  O  O102  1  0.911203  0.959869  0.035339  1
  O  O103  1  0.068942  0.954334  0.341087  1
  O  O104  1  0.593002  0.643562  0.508036  1
  O  O105  1  0.931058  0.045666  0.658913  1
  O  O106  1  0.361179  0.149908  0.388048  1
  O  O107  1  0.904954  0.679045  0.763236  1
  O  O108  1  0.095046  0.320955  0.236764  1
  O  O109  1  0.056163  0.657899  0.371576  1
  O  O110  1  0.404954  0.320955  0.736764  1
  O  O111  1  0.861179  0.350092  0.388048  1
  O  O112  1  0.943837  0.842101  0.871576  1
  O  O113  1  0.911203  0.459869  0.464661  1
  O  O114  1  0.116541  0.457638  0.918793  1
  O  O115  1  0.599653  0.464706  0.203754  1
  O  O116  1  0.099653  0.035294  0.203754  1
  O  O117  1  0.443837  0.157899  0.628424  1
  O  O118  1  0.383459  0.957638  0.081208  1
  O  O119  1  0.904954  0.179045  0.736764  1
