# generated using pymatgen
data_CdI2
_symmetry_space_group_name_H-M   'P 1'
_cell_length_a   4.33473592
_cell_length_b   4.33473618
_cell_length_c   119.73907222
_cell_angle_alpha   90.00000000
_cell_angle_beta   90.00000000
_cell_angle_gamma   119.99999799
_symmetry_Int_Tables_number   1
_chemical_formula_structural   CdI2
_chemical_formula_sum   'Cd16 I32'
_cell_volume   1948.46157176
_cell_formula_units_Z   16
loop_
 _symmetry_equiv_pos_site_id
 _symmetry_equiv_pos_as_xyz
  1  'x, y, z'
loop_
 _atom_site_type_symbol
 _atom_site_label
 _atom_site_symmetry_multiplicity
 _atom_site_fract_x
 _atom_site_fract_y
 _atom_site_fract_z
 _atom_site_occupancy
  Cd  Cd0  1  0.333333  0.666667  0.453112  1
  Cd  Cd1  1  0.666667  0.333333  0.140676  1
  Cd  Cd2  1  0.333333  0.666667  0.203075  1
  Cd  Cd3  1  0.333333  0.666667  0.703081  1
  Cd  Cd4  1  0.000000  0.000000  0.890670  1
  Cd  Cd5  1  0.000000  0.000000  0.765642  1
  Cd  Cd6  1  0.666667  0.333333  0.015619  1
  Cd  Cd7  1  0.666667  0.333333  0.390648  1
  Cd  Cd8  1  0.666667  0.333333  0.640678  1
  Cd  Cd9  1  0.333333  0.666667  0.578097  1
  Cd  Cd10  1  0.333333  0.666667  0.078102  1
  Cd  Cd11  1  0.666667  0.333333  0.515640  1
  Cd  Cd12  1  0.333333  0.666667  0.953112  1
  Cd  Cd13  1  0.666667  0.333333  0.265648  1
  Cd  Cd14  1  0.333333  0.666667  0.328126  1
  Cd  Cd15  1  0.333333  0.666667  0.828116  1
  I  I16  1  0.666667  0.333333  0.905071  1
  I  I17  1  0.333333  0.666667  0.030016  1
  I  I18  1  0.000000  0.000000  0.563698  1
  I  I19  1  0.333333  0.666667  0.530031  1
  I  I20  1  0.666667  0.333333  0.217471  1
  I  I21  1  0.000000  0.000000  0.313732  1
  I  I22  1  0.666667  0.333333  0.780045  1
  I  I23  1  0.000000  0.000000  0.438726  1
  I  I24  1  0.666667  0.333333  0.967508  1
  I  I25  1  0.000000  0.000000  0.938726  1
  I  I26  1  0.333333  0.666667  0.155075  1
  I  I27  1  0.000000  0.000000  0.688669  1
  I  I28  1  0.666667  0.333333  0.342523  1
  I  I29  1  0.666667  0.333333  0.842514  1
  I  I30  1  0.000000  0.000000  0.126271  1
  I  I31  1  0.666667  0.333333  0.717481  1
  I  I32  1  0.666667  0.333333  0.092489  1
  I  I33  1  0.000000  0.000000  0.376248  1
  I  I34  1  0.000000  0.000000  0.188669  1
  I  I35  1  0.333333  0.666667  0.876263  1
  I  I36  1  0.666667  0.333333  0.592487  1
  I  I37  1  0.000000  0.000000  0.063705  1
  I  I38  1  0.000000  0.000000  0.626272  1
  I  I39  1  0.333333  0.666667  0.751237  1
  I  I40  1  0.000000  0.000000  0.813720  1
  I  I41  1  0.333333  0.666667  0.280047  1
  I  I42  1  0.333333  0.666667  0.405057  1
  I  I43  1  0.000000  0.000000  0.501241  1
  I  I44  1  0.666667  0.333333  0.467507  1
  I  I45  1  0.000000  0.000000  0.001213  1
  I  I46  1  0.333333  0.666667  0.655079  1
  I  I47  1  0.000000  0.000000  0.251252  1
