# generated using pymatgen
data_K3Na4Si3BF22
_symmetry_space_group_name_H-M   'P 1'
_cell_length_a   5.62691753
_cell_length_b   9.31084925
_cell_length_c   10.26425969
_cell_angle_alpha   116.97260535
_cell_angle_beta   105.91037135
_cell_angle_gamma   89.99565913
_symmetry_Int_Tables_number   1
_chemical_formula_structural   K3Na4Si3BF22
_chemical_formula_sum   'K3 Na4 Si3 B1 F22'
_cell_volume   456.03370106
_cell_formula_units_Z   1
loop_
 _symmetry_equiv_pos_site_id
 _symmetry_equiv_pos_as_xyz
  1  'x, y, z'
loop_
 _atom_site_type_symbol
 _atom_site_label
 _atom_site_symmetry_multiplicity
 _atom_site_fract_x
 _atom_site_fract_y
 _atom_site_fract_z
 _atom_site_occupancy
  K  K0  1  0.125660  0.343245  0.252076  1
  K  K1  1  0.874142  0.091147  0.747867  1
  K  K2  1  0.499923  0.555159  -0.000074  1
  Na  Na3  1  0.170545  0.819242  0.340871  1
  Na  Na4  1  0.358270  0.754525  0.716502  1
  Na  Na5  1  0.641762  0.038046  0.283534  1
  Na  Na6  1  0.829475  0.478424  0.659147  1
  Si  Si7  1  0.714123  0.695217  0.428270  1
  Si  Si8  1  0.000027  0.795800  1.000008  1
  Si  Si9  1  0.285883  0.266943  0.571740  1
  B  B10  1  0.499984  0.186154  0.000003  1
  F  F11  1  0.566283  0.783303  0.566219  1
  F  F12  1  0.285839  0.860371  0.141386  1
  F  F13  1  0.137738  0.323585  0.710038  1
  F  F14  1  0.862305  0.613606  0.289984  1
  F  F15  1  0.714252  0.719069  0.858610  1
  F  F16  1  0.725981  0.525723  0.451880  1
  F  F17  1  0.427717  0.613531  0.289951  1
  F  F18  1  0.572324  0.323556  0.710040  1
  F  F19  1  0.999979  0.610632  -0.000005  1
  F  F20  1  0.567213  0.168434  0.134328  1
  F  F21  1  0.432751  0.034083  0.865641  1
  F  F22  1  0.293946  0.274861  -0.000010  1
  F  F23  1  0.000083  0.976732  1.000050  1
  F  F24  1  -0.000099  0.783318  0.566213  1
  F  F25  1  0.144383  0.718990  0.858605  1
  F  F26  1  0.433719  0.217093  0.433788  1
  F  F27  1  0.706067  0.274797  -0.000029  1
  F  F28  1  0.296711  0.463108  0.593470  1
  F  F29  1  1.000109  0.217102  0.433805  1
  F  F30  1  0.703214  0.869664  0.406565  1
  F  F31  1  0.274076  0.073827  0.548126  1
  F  F32  1  0.855613  0.860412  0.141401  1
