# generated using pymatgen
data_CaP2Xe5F22
_symmetry_space_group_name_H-M   'P 1'
_cell_length_a   8.62053682
_cell_length_b   14.97446444
_cell_length_c   17.68778755
_cell_angle_alpha   90.00000000
_cell_angle_beta   90.00000000
_cell_angle_gamma   90.00000000
_symmetry_Int_Tables_number   1
_chemical_formula_structural   CaP2Xe5F22
_chemical_formula_sum   'Ca4 P8 Xe20 F88'
_cell_volume   2283.27974075
_cell_formula_units_Z   4
loop_
 _symmetry_equiv_pos_site_id
 _symmetry_equiv_pos_as_xyz
  1  'x, y, z'
loop_
 _atom_site_type_symbol
 _atom_site_label
 _atom_site_symmetry_multiplicity
 _atom_site_fract_x
 _atom_site_fract_y
 _atom_site_fract_z
 _atom_site_occupancy
  Ca  Ca0  1  0.731768  0.330553  0.414374  1
  Ca  Ca1  1  0.231768  0.169447  0.914374  1
  Ca  Ca2  1  0.268232  0.669447  0.914374  1
  Ca  Ca3  1  0.768232  0.830553  0.414374  1
  P  P4  1  0.995984  0.021783  0.027825  1
  P  P5  1  0.495984  0.478217  0.527825  1
  P  P6  1  0.004016  0.978217  0.527825  1
  P  P7  1  0.504016  0.521783  0.027825  1
  P  P8  1  0.006762  0.506810  0.784598  1
  P  P9  1  0.506762  0.993190  0.284598  1
  P  P10  1  0.493238  0.006810  0.784598  1
  P  P11  1  0.993238  0.493190  0.284598  1
  Xe  Xe12  1  0.729498  0.232883  0.191365  1
  Xe  Xe13  1  0.285653  0.277770  0.122564  1
  Xe  Xe14  1  0.229498  0.267117  0.691365  1
  Xe  Xe15  1  0.270502  0.767117  0.691365  1
  Xe  Xe16  1  0.503676  0.014105  0.534748  1
  Xe  Xe17  1  0.249028  0.245961  0.407640  1
  Xe  Xe18  1  0.770502  0.732883  0.191365  1
  Xe  Xe19  1  0.250972  0.745961  0.407640  1
  Xe  Xe20  1  0.005719  0.021801  0.280509  1
  Xe  Xe21  1  0.505719  0.478199  0.780509  1
  Xe  Xe22  1  0.749028  0.254039  0.907640  1
  Xe  Xe23  1  0.494281  0.521801  0.280509  1
  Xe  Xe24  1  0.785653  0.222230  0.622564  1
  Xe  Xe25  1  0.996324  0.514105  0.534748  1
  Xe  Xe26  1  0.003676  0.485895  0.034748  1
  Xe  Xe27  1  0.994281  0.978199  0.780509  1
  Xe  Xe28  1  0.714347  0.722230  0.622564  1
  Xe  Xe29  1  0.496324  0.985895  0.034748  1
  Xe  Xe30  1  0.214347  0.777770  0.122564  1
  Xe  Xe31  1  0.750972  0.754039  0.907640  1
  F  F32  1  0.917921  0.857761  0.740269  1
  F  F33  1  0.094101  0.635281  0.559151  1
  F  F34  1  0.227812  0.283941  0.006355  1
  F  F35  1  0.129707  0.955619  0.593583  1
  F  F36  1  0.206205  0.751480  0.805630  1
  F  F37  1  0.392428  0.111122  0.010710  1
  F  F38  1  0.647913  0.724021  0.733440  1
  F  F39  1  0.706205  0.748520  0.305630  1
  F  F40  1  0.892428  0.388878  0.510710  1
  F  F41  1  0.880554  0.470138  0.845912  1
  F  F42  1  0.958400  0.869601  0.521494  1
  F  F43  1  0.957091  0.916159  0.030928  1
  F  F44  1  0.135688  0.963209  0.462796  1
  F  F45  1  0.990437  0.754324  0.917166  1
  F  F46  1  0.868767  0.990687  0.591638  1
  F  F47  1  0.424707  0.602567  0.821062  1
  F  F48  1  0.372270  0.504677  0.960232  1
  F  F49  1  0.917241  0.427415  0.353356  1
  F  F50  1  0.627653  0.071332  0.310052  1
  F  F51  1  0.772188  0.716059  0.506355  1
  F  F52  1  0.417241  0.072585  0.853356  1
  F  F53  1  0.508608  0.757684  0.898219  1
  F  F54  1  0.863877  0.453666  0.225779  1
  F  F55  1  0.372347  0.928668  0.810052  1
  F  F56  1  0.147913  0.775979  0.233440  1
  F  F57  1  0.889570  0.588021  0.762109  1
  F  F58  1  0.627730  0.495323  0.460232  1
  F  F59  1  0.352087  0.275979  0.233440  1
  F  F60  1  0.509563  0.254324  0.917166  1
  F  F61  1  0.565680  0.943241  0.718760  1
  F  F62  1  0.042909  0.083841  0.530928  1
  F  F63  1  0.161287  0.286046  0.581698  1
  F  F64  1  0.434320  0.056759  0.218760  1
  F  F65  1  0.594101  0.864719  0.059151  1
  F  F66  1  0.107572  0.611122  0.010710  1
  F  F67  1  0.457091  0.583841  0.530928  1
  F  F68  1  0.458400  0.630399  0.021494  1
  F  F69  1  0.636123  0.953666  0.225779  1
  F  F70  1  0.380554  0.029862  0.345912  1
  F  F71  1  0.363877  0.046334  0.725779  1
  F  F72  1  0.541600  0.369601  0.521494  1
  F  F73  1  0.610430  0.088021  0.762109  1
  F  F74  1  0.110430  0.411979  0.262109  1
  F  F75  1  0.607572  0.888878  0.510710  1
  F  F76  1  0.727812  0.216059  0.506355  1
  F  F77  1  0.417921  0.642239  0.240269  1
  F  F78  1  0.864312  0.036791  0.962796  1
  F  F79  1  0.661287  0.213954  0.081698  1
  F  F80  1  0.934320  0.443241  0.718760  1
  F  F81  1  0.924707  0.897433  0.321062  1
  F  F82  1  0.491392  0.242316  0.398219  1
  F  F83  1  0.131233  0.009313  0.091638  1
  F  F84  1  0.872270  0.995323  0.460232  1
  F  F85  1  0.852087  0.224021  0.733440  1
  F  F86  1  0.619446  0.970138  0.845912  1
  F  F87  1  0.119446  0.529862  0.345912  1
  F  F88  1  0.127730  0.004677  0.960232  1
  F  F89  1  0.629707  0.544381  0.093583  1
  F  F90  1  0.008608  0.742316  0.398219  1
  F  F91  1  0.575293  0.397433  0.321062  1
  F  F92  1  0.127653  0.428668  0.810052  1
  F  F93  1  0.075293  0.102567  0.821062  1
  F  F94  1  0.870293  0.044381  0.093583  1
  F  F95  1  0.082079  0.142239  0.240269  1
  F  F96  1  0.370293  0.455619  0.593583  1
  F  F97  1  0.635688  0.536791  0.962796  1
  F  F98  1  0.368767  0.509313  0.091638  1
  F  F99  1  0.631233  0.490687  0.591638  1
  F  F100  1  0.405899  0.135281  0.559151  1
  F  F101  1  0.991392  0.257684  0.898219  1
  F  F102  1  0.082759  0.572585  0.853356  1
  F  F103  1  0.582759  0.927415  0.353356  1
  F  F104  1  0.490437  0.745676  0.417166  1
  F  F105  1  0.338713  0.786046  0.581698  1
  F  F106  1  0.009563  0.245676  0.417166  1
  F  F107  1  0.293795  0.251480  0.805630  1
  F  F108  1  0.272188  0.783941  0.006355  1
  F  F109  1  0.065680  0.556759  0.218760  1
  F  F110  1  0.582079  0.357761  0.740269  1
  F  F111  1  0.838713  0.713954  0.081698  1
  F  F112  1  0.905899  0.364719  0.059151  1
  F  F113  1  0.872347  0.571332  0.310052  1
  F  F114  1  0.793795  0.248520  0.305630  1
  F  F115  1  0.389570  0.911979  0.262109  1
  F  F116  1  0.136123  0.546334  0.725779  1
  F  F117  1  0.542909  0.416159  0.030928  1
  F  F118  1  0.364312  0.463209  0.462796  1
  F  F119  1  0.041600  0.130399  0.021494  1
