# generated using pymatgen
data_Li2TeS3
_symmetry_space_group_name_H-M   'P 1'
_cell_length_a   5.41911896
_cell_length_b   7.89596108
_cell_length_c   11.57938358
_cell_angle_alpha   90.00000000
_cell_angle_beta   90.00000000
_cell_angle_gamma   91.49196461
_symmetry_Int_Tables_number   1
_chemical_formula_structural   Li2TeS3
_chemical_formula_sum   'Li8 Te4 S12'
_cell_volume   495.30403692
_cell_formula_units_Z   4
loop_
 _symmetry_equiv_pos_site_id
 _symmetry_equiv_pos_as_xyz
  1  'x, y, z'
loop_
 _atom_site_type_symbol
 _atom_site_label
 _atom_site_symmetry_multiplicity
 _atom_site_fract_x
 _atom_site_fract_y
 _atom_site_fract_z
 _atom_site_occupancy
  Li  Li0  1  0.739617  0.643140  0.728425  1
  Li  Li1  1  0.739617  0.143140  0.771575  1
  Li  Li2  1  0.260383  0.356860  0.271575  1
  Li  Li3  1  0.260383  0.856860  0.228425  1
  Li  Li4  1  0.237448  0.868421  0.585491  1
  Li  Li5  1  0.237448  0.368421  0.914509  1
  Li  Li6  1  0.762552  0.131579  0.414509  1
  Li  Li7  1  0.762552  0.631579  0.085491  1
  Te  Te8  1  0.279248  0.818433  0.912939  1
  Te  Te9  1  0.720752  0.181567  0.087061  1
  Te  Te10  1  0.720752  0.681567  0.412939  1
  Te  Te11  1  0.279248  0.318433  0.587061  1
  S  S12  1  0.279626  0.635903  0.402114  1
  S  S13  1  0.279626  0.135903  0.097886  1
  S  S14  1  0.254560  0.130665  0.426639  1
  S  S15  1  0.745440  0.869335  0.573361  1
  S  S16  1  0.229092  0.120862  0.744445  1
  S  S17  1  0.770908  0.879138  0.255555  1
  S  S18  1  0.720374  0.364097  0.597886  1
  S  S19  1  0.720374  0.864097  0.902114  1
  S  S20  1  0.254560  0.630665  0.073361  1
  S  S21  1  0.745440  0.369335  0.926639  1
  S  S22  1  0.229092  0.620862  0.755555  1
  S  S23  1  0.770908  0.379138  0.244445  1
