# generated using pymatgen
data_B8O
_symmetry_space_group_name_H-M   'P 1'
_cell_length_a   10.27196532
_cell_length_b   13.47711355
_cell_length_c   12.38318222
_cell_angle_alpha   23.24430482
_cell_angle_beta   36.42134543
_cell_angle_gamma   42.32326636
_symmetry_Int_Tables_number   1
_chemical_formula_structural   B8O
_chemical_formula_sum   'B48 O6'
_cell_volume   401.67825044
_cell_formula_units_Z   6
loop_
 _symmetry_equiv_pos_site_id
 _symmetry_equiv_pos_as_xyz
  1  'x, y, z'
loop_
 _atom_site_type_symbol
 _atom_site_label
 _atom_site_symmetry_multiplicity
 _atom_site_fract_x
 _atom_site_fract_y
 _atom_site_fract_z
 _atom_site_occupancy
  B  B0  1  0.417833  0.166106  1.000731  1
  B  B1  1  0.102144  0.219242  0.354438  1
  B  B2  1  0.375325  0.234735  0.206229  1
  B  B3  1  0.162256  0.669336  -0.000015  1
  B  B4  1  0.162256  0.330664  0.338658  1
  B  B5  1  0.087744  0.169336  0.661342  1
  B  B6  1  0.412493  0.500000  0.001210  1
  B  B7  1  0.147856  0.719242  0.207077  1
  B  B8  1  0.147856  0.280758  0.645562  1
  B  B9  1  0.927171  0.169612  0.992113  1
  B  B10  1  0.178638  0.000000  0.992845  1
  B  B11  1  0.611920  0.239932  0.324692  1
  B  B12  1  0.456863  0.500000  0.219078  1
  B  B13  1  0.011953  0.500000  0.799556  1
  B  B14  1  0.876574  0.238254  0.203352  1
  B  B15  1  0.655244  0.664935  0.009274  1
  B  B16  1  0.655244  0.335065  0.339144  1
  B  B17  1  0.594756  0.164935  0.660856  1
  B  B18  1  0.373426  0.261746  0.796648  1
  B  B19  1  0.373426  0.738254  0.320140  1
  B  B20  1  0.238047  0.000000  0.200444  1
  B  B21  1  0.907674  0.500000  0.006383  1
  B  B22  1  0.071362  0.500000  0.007155  1
  B  B23  1  0.638080  0.739932  0.195445  1
  B  B24  1  0.638080  0.260068  0.675308  1
  B  B25  1  0.417833  0.833894  0.332942  1
  B  B26  1  0.322829  0.330388  0.007887  1
  B  B27  1  0.322829  0.669612  0.668663  1
  B  B28  1  0.102144  0.780758  0.792923  1
  B  B29  1  0.673072  0.000000  0.998308  1
  B  B30  1  0.983663  0.500000  0.204122  1
  B  B31  1  0.507569  0.500000  0.800445  1
  B  B32  1  0.375325  0.765265  0.675699  1
  B  B33  1  0.087744  0.830664  1.000015  1
  B  B34  1  0.874675  0.265265  0.793771  1
  B  B35  1  0.874675  0.734735  0.324301  1
  B  B36  1  0.742431  0.000000  0.199555  1
  B  B37  1  0.266337  0.000000  0.795878  1
  B  B38  1  0.576928  0.500000  0.001692  1
  B  B39  1  0.927171  0.830388  0.331337  1
  B  B40  1  0.832167  0.333894  -0.000731  1
  B  B41  1  0.832167  0.666106  0.667058  1
  B  B42  1  0.611920  0.760068  0.804555  1
  B  B43  1  0.342326  0.000000  0.993617  1
  B  B44  1  0.876574  0.761746  0.679860  1
  B  B45  1  0.594756  0.835065  0.990726  1
  B  B46  1  0.793137  0.000000  0.780922  1
  B  B47  1  0.837507  0.000000  0.998790  1
  O  O48  1  0.499916  0.000000  0.377958  1
  O  O49  1  0.501108  0.000000  0.617381  1
  O  O50  1  0.252942  0.500000  0.618796  1
  O  O51  1  0.997058  0.000000  0.381204  1
  O  O52  1  0.748892  0.500000  0.382619  1
  O  O53  1  0.750084  0.500000  0.622042  1
