# generated using pymatgen
data_RbC2S2N(OF)4
_symmetry_space_group_name_H-M   'P 1'
_cell_length_a   5.57384644
_cell_length_b   17.66004651
_cell_length_c   18.57591353
_cell_angle_alpha   90.00000000
_cell_angle_beta   90.00000000
_cell_angle_gamma   90.75525818
_symmetry_Int_Tables_number   1
_chemical_formula_structural   RbC2S2N(OF)4
_chemical_formula_sum   'Rb8 C16 S16 N8 O32 F32'
_cell_volume   1828.34981120
_cell_formula_units_Z   8
loop_
 _symmetry_equiv_pos_site_id
 _symmetry_equiv_pos_as_xyz
  1  'x, y, z'
loop_
 _atom_site_type_symbol
 _atom_site_label
 _atom_site_symmetry_multiplicity
 _atom_site_fract_x
 _atom_site_fract_y
 _atom_site_fract_z
 _atom_site_occupancy
  Rb  Rb0  1  0.505677  0.761693  0.251327  1
  Rb  Rb1  1  0.494323  0.238307  0.748672  1
  Rb  Rb2  1  0.491637  0.466075  0.877580  1
  Rb  Rb3  1  0.505677  0.261693  0.248672  1
  Rb  Rb4  1  0.491637  0.966075  0.622420  1
  Rb  Rb5  1  0.508363  0.033925  0.377580  1
  Rb  Rb6  1  0.494323  0.738307  0.751328  1
  Rb  Rb7  1  0.508363  0.533925  0.122420  1
  C  C8  1  0.956162  0.447404  0.351367  1
  C  C9  1  0.010260  0.706953  0.939655  1
  C  C10  1  0.946866  0.236496  0.996144  1
  C  C11  1  0.025730  0.466661  0.627354  1
  C  C12  1  0.946866  0.736496  0.503856  1
  C  C13  1  0.053134  0.763504  0.003856  1
  C  C14  1  0.974270  0.533339  0.372646  1
  C  C15  1  0.043838  0.552596  0.648633  1
  C  C16  1  0.025730  0.966661  0.872646  1
  C  C17  1  0.010260  0.206953  0.560345  1
  C  C18  1  0.956162  0.947404  0.148633  1
  C  C19  1  0.053134  0.263504  0.496144  1
  C  C20  1  0.989740  0.793047  0.439655  1
  C  C21  1  0.974270  0.033339  0.127354  1
  C  C22  1  0.043838  0.052596  0.851367  1
  C  C23  1  0.989740  0.293047  0.060345  1
  S  S24  1  0.044477  0.204302  0.410074  1
  S  S25  1  0.046613  0.109112  0.522274  1
  S  S26  1  0.046613  0.609112  0.977726  1
  S  S27  1  0.002265  0.058139  0.749810  1
  S  S28  1  0.041795  0.911530  0.785588  1
  S  S29  1  0.953387  0.890888  0.477726  1
  S  S30  1  0.997735  0.441861  0.249810  1
  S  S31  1  0.044477  0.704302  0.089926  1
  S  S32  1  0.955523  0.295698  0.910074  1
  S  S33  1  0.997735  0.941861  0.250190  1
  S  S34  1  0.953387  0.390888  0.022274  1
  S  S35  1  0.041795  0.411530  0.714412  1
  S  S36  1  0.958205  0.088470  0.214412  1
  S  S37  1  0.958205  0.588470  0.285588  1
  S  S38  1  0.955523  0.795698  0.589926  1
  S  S39  1  0.002265  0.558139  0.750190  1
  N  N40  1  0.084655  0.027383  0.265256  1
  N  N41  1  0.058362  0.873471  0.556297  1
  N  N42  1  0.941638  0.126529  0.443703  1
  N  N43  1  0.941638  0.626529  0.056297  1
  N  N44  1  0.084655  0.527383  0.234744  1
  N  N45  1  0.915345  0.972617  0.734744  1
  N  N46  1  0.915345  0.472617  0.765256  1
  N  N47  1  0.058362  0.373471  0.943703  1
  O  O48  1  0.108844  0.155446  0.208600  1
  O  O49  1  0.891156  0.844554  0.791400  1
  O  O50  1  0.704514  0.599680  0.270846  1
  O  O51  1  0.236553  0.078107  0.720314  1
  O  O52  1  0.192878  0.891122  0.265513  1
  O  O53  1  0.763447  0.421893  0.220314  1
  O  O54  1  0.112565  0.442741  0.059600  1
  O  O55  1  0.236553  0.578107  0.779686  1
  O  O56  1  0.807122  0.108878  0.734487  1
  O  O57  1  0.295486  0.400320  0.729154  1
  O  O58  1  0.868799  0.735511  0.138449  1
  O  O59  1  0.697539  0.905702  0.475036  1
  O  O60  1  0.290503  0.700134  0.115639  1
  O  O61  1  0.807122  0.608878  0.765513  1
  O  O62  1  0.868799  0.235511  0.361551  1
  O  O63  1  0.697539  0.405702  0.024964  1
  O  O64  1  0.108844  0.655446  0.291400  1
  O  O65  1  0.131201  0.764489  0.638449  1
  O  O66  1  0.887435  0.557259  0.940400  1
  O  O67  1  0.131201  0.264489  0.861551  1
  O  O68  1  0.302461  0.094298  0.524964  1
  O  O69  1  0.302461  0.594298  0.975036  1
  O  O70  1  0.709497  0.299866  0.884361  1
  O  O71  1  0.192878  0.391122  0.234487  1
  O  O72  1  0.295486  0.900320  0.770846  1
  O  O73  1  0.763447  0.921893  0.279686  1
  O  O74  1  0.290503  0.200134  0.384361  1
  O  O75  1  0.709497  0.799866  0.615639  1
  O  O76  1  0.112565  0.942741  0.440400  1
  O  O77  1  0.704514  0.099680  0.229154  1
  O  O78  1  0.891156  0.344554  0.708600  1
  O  O79  1  0.887435  0.057259  0.559600  1
  F  F80  1  0.730597  0.701199  0.497210  1
  F  F81  1  0.796452  0.052993  0.081427  1
  F  F82  1  0.738790  0.917908  0.130178  1
  F  F83  1  0.269403  0.298801  0.502790  1
  F  F84  1  0.877739  0.315842  0.494056  1
  F  F85  1  0.877739  0.815842  0.005944  1
  F  F86  1  0.122261  0.684158  0.505944  1
  F  F87  1  0.810229  0.451596  0.596016  1
  F  F88  1  0.216952  0.786591  0.414002  1
  F  F89  1  0.189771  0.548404  0.403984  1
  F  F90  1  0.167544  0.720761  0.884838  1
  F  F91  1  0.783048  0.713409  0.914002  1
  F  F92  1  0.131442  0.907134  0.116048  1
  F  F93  1  0.783048  0.213409  0.585998  1
  F  F94  1  0.738790  0.417908  0.369822  1
  F  F95  1  0.269403  0.798801  0.997210  1
  F  F96  1  0.203548  0.947007  0.918573  1
  F  F97  1  0.868558  0.592866  0.616048  1
  F  F98  1  0.810229  0.951596  0.903984  1
  F  F99  1  0.122261  0.184158  0.994056  1
  F  F100  1  0.796452  0.552993  0.418573  1
  F  F101  1  0.189771  0.048404  0.096016  1
  F  F102  1  0.261210  0.582092  0.630178  1
  F  F103  1  0.832456  0.779239  0.384838  1
  F  F104  1  0.131442  0.407134  0.383952  1
  F  F105  1  0.730597  0.201199  0.002790  1
  F  F106  1  0.203548  0.447007  0.581427  1
  F  F107  1  0.832456  0.279239  0.115162  1
  F  F108  1  0.261210  0.082092  0.869822  1
  F  F109  1  0.167544  0.220761  0.615162  1
  F  F110  1  0.868558  0.092866  0.883952  1
  F  F111  1  0.216952  0.286591  0.085998  1
