# generated using pymatgen
data_U2CoO6
_symmetry_space_group_name_H-M   'P 1'
_cell_length_a   9.12145211
_cell_length_b   9.12145207
_cell_length_c   5.05357044
_cell_angle_alpha   90.00000000
_cell_angle_beta   90.00000000
_cell_angle_gamma   120.00000017
_symmetry_Int_Tables_number   1
_chemical_formula_structural   U2CoO6
_chemical_formula_sum   'U6 Co3 O18'
_cell_volume   364.13038249
_cell_formula_units_Z   3
loop_
 _symmetry_equiv_pos_site_id
 _symmetry_equiv_pos_as_xyz
  1  'x, y, z'
loop_
 _atom_site_type_symbol
 _atom_site_label
 _atom_site_symmetry_multiplicity
 _atom_site_fract_x
 _atom_site_fract_y
 _atom_site_fract_z
 _atom_site_occupancy
  U  U0  1  0.653785  0.000000  0.000000  1
  U  U1  1  0.000000  0.320738  0.500000  1
  U  U2  1  0.679262  0.679262  0.500000  1
  U  U3  1  0.320738  0.000000  0.500000  1
  U  U4  1  0.346215  0.346215  0.000000  1
  U  U5  1  0.000000  0.653785  0.000000  1
  Co  Co6  1  0.666667  0.333333  0.495561  1
  Co  Co7  1  0.333333  0.666667  0.504439  1
  Co  Co8  1  0.000000  0.000000  0.000000  1
  O  O9  1  0.546839  0.106532  0.259116  1
  O  O10  1  0.772310  0.891656  0.769114  1
  O  O11  1  0.223112  0.439787  0.267914  1
  O  O12  1  0.783325  0.560213  0.732086  1
  O  O13  1  0.108344  0.880655  0.769114  1
  O  O14  1  0.776888  0.216675  0.732086  1
  O  O15  1  0.216675  0.776888  0.267914  1
  O  O16  1  0.119345  0.227690  0.769114  1
  O  O17  1  0.559693  0.453161  0.259116  1
  O  O18  1  0.891656  0.772310  0.230886  1
  O  O19  1  0.893468  0.440307  0.259116  1
  O  O20  1  0.880655  0.108344  0.230886  1
  O  O21  1  0.560213  0.783325  0.267914  1
  O  O22  1  0.453161  0.559693  0.740884  1
  O  O23  1  0.106532  0.546839  0.740884  1
  O  O24  1  0.227690  0.119345  0.230886  1
  O  O25  1  0.439787  0.223112  0.732086  1
  O  O26  1  0.440307  0.893468  0.740884  1
