# generated using pymatgen
data_Cs2Na2B10O17
_symmetry_space_group_name_H-M   'P 1'
_cell_length_a   6.63481243
_cell_length_b   11.20283765
_cell_length_c   11.53274613
_cell_angle_alpha   103.97757461
_cell_angle_beta   106.71378103
_cell_angle_gamma   89.99964236
_symmetry_Int_Tables_number   1
_chemical_formula_structural   Cs2Na2B10O17
_chemical_formula_sum   'Cs4 Na4 B20 O34'
_cell_volume   794.46232065
_cell_formula_units_Z   2
loop_
 _symmetry_equiv_pos_site_id
 _symmetry_equiv_pos_as_xyz
  1  'x, y, z'
loop_
 _atom_site_type_symbol
 _atom_site_label
 _atom_site_symmetry_multiplicity
 _atom_site_fract_x
 _atom_site_fract_y
 _atom_site_fract_z
 _atom_site_occupancy
  Cs  Cs0  1  0.754874  0.596592  0.120812  1
  Cs  Cs1  1  0.633970  0.903415  0.879195  1
  Cs  Cs2  1  0.245126  0.403408  0.879188  1
  Cs  Cs3  1  0.366030  0.096585  0.120805  1
  Na  Na4  1  0.688055  0.183911  0.467532  1
  Na  Na5  1  0.779564  0.683856  0.467518  1
  Na  Na6  1  0.311945  0.816089  0.532468  1
  Na  Na7  1  0.220436  0.316144  0.532482  1
  B  B8  1  0.747629  0.262235  0.889120  1
  B  B9  1  0.252371  0.737765  0.110880  1
  B  B10  1  0.794079  0.349185  0.309676  1
  B  B11  1  0.484326  0.150811  0.690329  1
  B  B12  1  0.141437  0.762256  0.889136  1
  B  B13  1  0.249816  0.003176  0.359335  1
  B  B14  1  0.033946  0.858945  0.709796  1
  B  B15  1  0.515674  0.849189  0.309671  1
  B  B16  1  0.890404  0.496832  0.640658  1
  B  B17  1  0.205921  0.650815  0.690324  1
  B  B18  1  0.324252  0.641054  0.290206  1
  B  B19  1  0.885532  0.937446  0.331384  1
  B  B20  1  0.675748  0.358946  0.709794  1
  B  B21  1  0.445934  0.437440  0.331380  1
  B  B22  1  0.966054  0.141055  0.290204  1
  B  B23  1  0.858563  0.237744  0.110864  1
  B  B24  1  0.109596  0.503168  0.359342  1
  B  B25  1  0.554066  0.562560  0.668620  1
  B  B26  1  0.750184  0.996824  0.640665  1
  B  B27  1  0.114468  0.062554  0.668616  1
  O  O28  1  0.156388  0.617965  0.346706  1
  O  O29  1  0.450690  0.974245  0.360784  1
  O  O30  1  0.890790  0.249972  0.999974  1
  O  O31  1  0.944385  0.142065  0.157538  1
  O  O32  1  0.253483  0.678087  0.830829  1
  O  O33  1  0.422787  0.821893  0.169158  1
  O  O34  1  0.910177  0.474243  0.360808  1
  O  O35  1  0.913483  0.255519  0.361271  1
  O  O36  1  0.109210  0.750028  0.000026  1
  O  O37  1  0.102168  0.917432  0.366726  1
  O  O38  1  0.843612  0.382035  0.653294  1
  O  O39  1  0.409044  0.648878  0.658956  1
  O  O40  1  0.086517  0.744481  0.638729  1
  O  O41  1  0.897832  0.082568  0.633274  1
  O  O42  1  0.213236  0.642076  0.157547  1
  O  O43  1  0.055615  0.857935  0.842462  1
  O  O44  1  0.809607  0.882026  0.653303  1
  O  O45  1  0.820075  0.038382  0.288002  1
  O  O46  1  0.786764  0.357924  0.842453  1
  O  O47  1  0.468033  0.538373  0.287997  1
  O  O48  1  0.577213  0.178107  0.830842  1
  O  O49  1  0.249832  0.148865  0.658948  1
  O  O50  1  0.750168  0.851135  0.341052  1
  O  O51  1  0.447864  0.755518  0.361271  1
  O  O52  1  0.735349  0.582570  0.633269  1
  O  O53  1  0.590956  0.351122  0.341044  1
  O  O54  1  0.190393  0.117974  0.346697  1
  O  O55  1  0.179925  0.961618  0.711998  1
  O  O56  1  0.264651  0.417430  0.366731  1
  O  O57  1  0.549310  0.025755  0.639216  1
  O  O58  1  0.746517  0.321913  0.169171  1
  O  O59  1  0.089823  0.525757  0.639192  1
  O  O60  1  0.531967  0.461627  0.712003  1
  O  O61  1  0.552136  0.244482  0.638729  1
