# generated using pymatgen
data_Li2U4W4O25
_symmetry_space_group_name_H-M   'P 1'
_cell_length_a   6.46546199
_cell_length_b   7.77190192
_cell_length_c   22.50643724
_cell_angle_alpha   98.39012024
_cell_angle_beta   90.00000000
_cell_angle_gamma   114.57922476
_symmetry_Int_Tables_number   1
_chemical_formula_structural   Li2U4W4O25
_chemical_formula_sum   'Li4 U8 W8 O50'
_cell_volume   1015.12321585
_cell_formula_units_Z   2
loop_
 _symmetry_equiv_pos_site_id
 _symmetry_equiv_pos_as_xyz
  1  'x, y, z'
loop_
 _atom_site_type_symbol
 _atom_site_label
 _atom_site_symmetry_multiplicity
 _atom_site_fract_x
 _atom_site_fract_y
 _atom_site_fract_z
 _atom_site_occupancy
  Li  Li0  1  0.567788  0.212444  0.446405  1
  Li  Li1  1  0.355344  0.787556  0.053595  1
  Li  Li2  1  0.432212  0.787556  0.553595  1
  Li  Li3  1  0.644656  0.212444  0.946405  1
  U  U4  1  0.838195  0.584054  0.845129  1
  U  U5  1  0.254141  0.415946  0.654871  1
  U  U6  1  0.964673  0.000000  0.750000  1
  U  U7  1  0.035327  0.000000  0.250000  1
  U  U8  1  0.000000  0.000000  0.000000  1
  U  U9  1  0.745859  0.584054  0.345129  1
  U  U10  1  0.161805  0.415946  0.154871  1
  U  U11  1  0.000000  0.000000  0.500000  1
  W  W12  1  0.588014  0.168874  0.690111  1
  W  W13  1  0.411986  0.831126  0.309889  1
  W  W14  1  0.787455  0.563488  0.589945  1
  W  W15  1  0.419140  0.831126  0.809889  1
  W  W16  1  0.776034  0.563488  0.089945  1
  W  W17  1  0.580860  0.168874  0.190111  1
  W  W18  1  0.223966  0.436511  0.910055  1
  W  W19  1  0.212545  0.436511  0.410055  1
  O  O20  1  0.712482  0.970482  0.517621  1
  O  O21  1  0.816352  0.778123  0.056048  1
  O  O22  1  0.621267  0.385517  0.652387  1
  O  O23  1  0.038229  0.221877  0.443952  1
  O  O24  1  0.764250  0.385517  0.152387  1
  O  O25  1  0.064167  0.223694  0.085981  1
  O  O26  1  0.299874  0.173261  0.712925  1
  O  O27  1  0.045853  0.538969  0.623930  1
  O  O28  1  0.691156  0.782486  0.808401  1
  O  O29  1  0.516030  0.012699  0.372883  1
  O  O30  1  0.287518  0.029518  0.482379  1
  O  O31  1  0.742000  0.029518  0.982379  1
  O  O32  1  0.676879  0.387097  0.025268  1
  O  O33  1  0.938471  0.815090  0.182021  1
  O  O34  1  0.235750  0.614483  0.847613  1
  O  O35  1  0.091329  0.782486  0.308401  1
  O  O36  1  0.123381  0.184910  0.317979  1
  O  O37  1  0.700126  0.826739  0.287075  1
  O  O38  1  0.126613  0.826739  0.787075  1
  O  O39  1  0.574107  0.000000  0.750000  1
  O  O40  1  0.840473  0.776306  0.414019  1
  O  O41  1  0.493116  0.538969  0.123930  1
  O  O42  1  0.323121  0.612903  0.974732  1
  O  O43  1  0.089352  0.603473  0.098410  1
  O  O44  1  0.710218  0.387097  0.525268  1
  O  O45  1  0.308844  0.217514  0.191599  1
  O  O46  1  0.336885  0.596898  0.725727  1
  O  O47  1  0.483970  0.987301  0.627117  1
  O  O48  1  0.954147  0.461031  0.376070  1
  O  O49  1  0.514121  0.603473  0.598410  1
  O  O50  1  0.378733  0.614483  0.347613  1
  O  O51  1  0.935833  0.776306  0.914019  1
  O  O52  1  0.961771  0.778123  0.556048  1
  O  O53  1  0.485879  0.396527  0.401590  1
  O  O54  1  0.159527  0.223694  0.585981  1
  O  O55  1  0.258000  0.970482  0.017621  1
  O  O56  1  0.506884  0.461031  0.876070  1
  O  O57  1  0.260013  0.596898  0.225727  1
  O  O58  1  0.663115  0.403102  0.274273  1
  O  O59  1  0.503331  0.987301  0.127117  1
  O  O60  1  0.873387  0.173261  0.212925  1
  O  O61  1  0.061529  0.184910  0.817979  1
  O  O62  1  0.910648  0.396527  0.901590  1
  O  O63  1  0.183648  0.221877  0.943952  1
  O  O64  1  0.425893  0.000000  0.250000  1
  O  O65  1  0.496669  0.012699  0.872883  1
  O  O66  1  0.908671  0.217514  0.691599  1
  O  O67  1  0.876619  0.815090  0.682021  1
  O  O68  1  0.739987  0.403102  0.774273  1
  O  O69  1  0.289782  0.612903  0.474732  1
