# generated using pymatgen
data_Na2TiSi4O11
_symmetry_space_group_name_H-M   'P 1'
_cell_length_a   7.89997515
_cell_length_b   8.65156174
_cell_length_c   8.65156206
_cell_angle_alpha   77.96845571
_cell_angle_beta   62.83442281
_cell_angle_gamma   62.83442535
_symmetry_Int_Tables_number   1
_chemical_formula_structural   Na2TiSi4O11
_chemical_formula_sum   'Na4 Ti2 Si8 O22'
_cell_volume   468.05081474
_cell_formula_units_Z   2
loop_
 _symmetry_equiv_pos_site_id
 _symmetry_equiv_pos_as_xyz
  1  'x, y, z'
loop_
 _atom_site_type_symbol
 _atom_site_label
 _atom_site_symmetry_multiplicity
 _atom_site_fract_x
 _atom_site_fract_y
 _atom_site_fract_z
 _atom_site_occupancy
  Na  Na0  1  0.365602  0.317163  0.951633  1
  Na  Na1  1  0.317235  0.048367  0.317163  1
  Na  Na2  1  0.634398  0.682837  0.048367  1
  Na  Na3  1  0.682765  0.951633  0.682837  1
  Ti  Ti4  1  0.243952  1.000000  1.000000  1
  Ti  Ti5  1  0.756048  0.000000  0.000000  1
  Si  Si6  1  0.883984  0.320724  0.296343  1
  Si  Si7  1  0.116016  0.679276  0.703657  1
  Si  Si8  1  0.819673  0.296343  0.679276  1
  Si  Si9  1  0.498949  0.320724  0.296343  1
  Si  Si10  1  0.795292  0.703657  0.320724  1
  Si  Si11  1  0.204708  0.296343  0.679276  1
  Si  Si12  1  0.501051  0.679276  0.703657  1
  Si  Si13  1  0.180327  0.703657  0.320724  1
  O  O14  1  0.091149  0.227072  0.127801  1
  O  O15  1  0.789029  0.533727  0.269246  1
  O  O16  1  0.908851  0.772928  0.872199  1
  O  O17  1  0.677244  0.730754  0.533727  1
  O  O18  1  0.681779  0.872199  0.227072  1
  O  O19  1  0.303859  0.737996  0.654286  1
  O  O20  1  0.318221  0.127801  0.772928  1
  O  O21  1  0.781050  0.127801  0.772928  1
  O  O22  1  0.058275  0.730754  0.533727  1
  O  O23  1  0.941725  0.269246  0.466273  1
  O  O24  1  0.696141  0.262004  0.345714  1
  O  O25  1  0.041855  0.654286  0.262004  1
  O  O26  1  0.500000  0.000000  0.000000  1
  O  O27  1  0.407998  0.533727  0.269246  1
  O  O28  1  0.592002  0.466273  0.730754  1
  O  O29  1  0.446022  0.772928  0.872199  1
  O  O30  1  0.553978  0.227072  0.127801  1
  O  O31  1  0.958145  0.345714  0.737996  1
  O  O32  1  0.218950  0.872199  0.227072  1
  O  O33  1  0.210971  0.466273  0.730754  1
  O  O34  1  0.000000  0.000000  0.000000  1
  O  O35  1  0.322756  0.269246  0.466273  1
