# generated using pymatgen
data_Ag3SbS3
_symmetry_space_group_name_H-M   'P 1'
_cell_length_a   6.40063754
_cell_length_b   7.00878450
_cell_length_c   16.01359357
_cell_angle_alpha   90.00000000
_cell_angle_beta   90.00000000
_cell_angle_gamma   116.49395984
_symmetry_Int_Tables_number   1
_chemical_formula_structural   Ag3SbS3
_chemical_formula_sum   'Ag12 Sb4 S12'
_cell_volume   642.93749068
_cell_formula_units_Z   4
loop_
 _symmetry_equiv_pos_site_id
 _symmetry_equiv_pos_as_xyz
  1  'x, y, z'
loop_
 _atom_site_type_symbol
 _atom_site_label
 _atom_site_symmetry_multiplicity
 _atom_site_fract_x
 _atom_site_fract_y
 _atom_site_fract_z
 _atom_site_occupancy
  Ag  Ag0  1  0.289411  0.056984  0.188926  1
  Ag  Ag1  1  0.689035  0.472946  0.257008  1
  Ag  Ag2  1  0.210589  0.943016  0.688926  1
  Ag  Ag3  1  0.532134  0.589685  0.097943  1
  Ag  Ag4  1  0.810965  0.527054  0.757008  1
  Ag  Ag5  1  0.032134  0.589685  0.402057  1
  Ag  Ag6  1  0.710589  0.943016  0.811074  1
  Ag  Ag7  1  0.310965  0.527054  0.742992  1
  Ag  Ag8  1  0.467866  0.410315  0.902057  1
  Ag  Ag9  1  0.967866  0.410315  0.597943  1
  Ag  Ag10  1  0.789411  0.056984  0.311074  1
  Ag  Ag11  1  0.189035  0.472946  0.242992  1
  Sb  Sb12  1  0.327285  0.193161  0.448117  1
  Sb  Sb13  1  0.172715  0.806839  0.948117  1
  Sb  Sb14  1  0.672715  0.806839  0.551883  1
  Sb  Sb15  1  0.827285  0.193161  0.051883  1
  S  S16  1  0.768703  0.780736  0.942581  1
  S  S17  1  0.268703  0.780736  0.557419  1
  S  S18  1  0.731297  0.219264  0.442581  1
  S  S19  1  0.374477  0.057111  0.832894  1
  S  S20  1  0.444269  0.529111  0.363356  1
  S  S21  1  0.055731  0.470889  0.863356  1
  S  S22  1  0.231297  0.219264  0.057419  1
  S  S23  1  0.555731  0.470889  0.636644  1
  S  S24  1  0.944269  0.529111  0.136644  1
  S  S25  1  0.125523  0.942889  0.332894  1
  S  S26  1  0.874477  0.057111  0.667106  1
  S  S27  1  0.625523  0.942889  0.167106  1
