# generated using pymatgen
data_K2Nb4Fe2O13
_symmetry_space_group_name_H-M   'P 1'
_cell_length_a   3.96146201
_cell_length_b   8.43258059
_cell_length_c   9.63593065
_cell_angle_alpha   99.97174709
_cell_angle_beta   90.00000000
_cell_angle_gamma   103.58515380
_symmetry_Int_Tables_number   1
_chemical_formula_structural   K2Nb4Fe2O13
_chemical_formula_sum   'K2 Nb4 Fe2 O13'
_cell_volume   307.88075538
_cell_formula_units_Z   1
loop_
 _symmetry_equiv_pos_site_id
 _symmetry_equiv_pos_as_xyz
  1  'x, y, z'
loop_
 _atom_site_type_symbol
 _atom_site_label
 _atom_site_symmetry_multiplicity
 _atom_site_fract_x
 _atom_site_fract_y
 _atom_site_fract_z
 _atom_site_occupancy
  O  O0  1  0.375514  0.751028  0.886496  1
  O  O1  1  0.624486  0.248971  0.113504  1
  O  O2  1  0.000000  0.000000  0.000000  1
  O  O3  1  0.300071  0.600143  0.561669  1
  O  O4  1  0.699928  0.399857  0.438331  1
  O  O5  1  0.836279  0.672559  0.077468  1
  O  O6  1  0.163721  0.327442  0.922532  1
  O  O7  1  0.932051  0.864104  0.696882  1
  O  O8  1  0.222867  0.445735  0.243052  1
  O  O9  1  0.777133  0.554266  0.756949  1
  O  O10  1  0.067949  0.135897  0.303119  1
  O  O11  1  0.869280  0.738561  0.390203  1
  O  O12  1  0.130720  0.261440  0.609797  1
  K  K13  1  0.448770  0.897540  0.249327  1
  K  K14  1  0.551229  0.102459  0.750672  1
  Fe  Fe15  1  0.236858  0.473715  0.774998  1
  Fe  Fe16  1  0.763141  0.526285  0.225001  1
  Nb  Nb17  1  0.163892  0.327784  0.436067  1
  Nb  Nb18  1  0.119074  0.238148  0.084748  1
  Nb  Nb19  1  0.836108  0.672215  0.563932  1
  Nb  Nb20  1  0.880926  0.761852  0.915253  1
