# generated using pymatgen
data_CuN3
_symmetry_space_group_name_H-M   'P 1'
_cell_length_a   5.79143937
_cell_length_b   6.86888092
_cell_length_c   6.86888112
_cell_angle_alpha   79.76290640
_cell_angle_beta   65.06619999
_cell_angle_gamma   65.06620749
_symmetry_Int_Tables_number   1
_chemical_formula_structural   CuN3
_chemical_formula_sum   'Cu4 N12'
_cell_volume   224.68662438
_cell_formula_units_Z   4
loop_
 _symmetry_equiv_pos_site_id
 _symmetry_equiv_pos_as_xyz
  1  'x, y, z'
loop_
 _atom_site_type_symbol
 _atom_site_label
 _atom_site_symmetry_multiplicity
 _atom_site_fract_x
 _atom_site_fract_y
 _atom_site_fract_z
 _atom_site_occupancy
  Cu  Cu0  1  0.500000  0.000000  0.000000  1
  Cu  Cu1  1  0.500000  0.500000  0.000000  1
  Cu  Cu2  1  0.000000  0.000000  0.500000  1
  Cu  Cu3  1  0.500000  0.500000  0.500000  1
  N  N4  1  0.000000  0.000000  0.000000  1
  N  N5  1  0.000000  0.500000  0.000000  1
  N  N6  1  0.500000  0.000000  0.500000  1
  N  N7  1  0.000000  0.500000  0.500000  1
  N  N8  1  0.196639  0.942949  0.042638  1
  N  N9  1  0.239278  0.457362  0.942949  1
  N  N10  1  0.639588  0.042638  0.557051  1
  N  N11  1  0.182227  0.557051  0.457362  1
  N  N12  1  0.803361  0.057051  0.957362  1
  N  N13  1  0.760722  0.542638  0.057051  1
  N  N14  1  0.360412  0.957362  0.442949  1
  N  N15  1  0.817773  0.442949  0.542638  1
