# generated using pymatgen
data_PdSe
_symmetry_space_group_name_H-M   'P 1'
_cell_length_a   7.13322238
_cell_length_b   11.79151449
_cell_length_c   11.79151449
_cell_angle_alpha   90.00000000
_cell_angle_beta   90.00000000
_cell_angle_gamma   90.00000000
_symmetry_Int_Tables_number   1
_chemical_formula_structural   PdSe
_chemical_formula_sum   'Pd24 Se24'
_cell_volume   991.80191271
_cell_formula_units_Z   24
loop_
 _symmetry_equiv_pos_site_id
 _symmetry_equiv_pos_as_xyz
  1  'x, y, z'
loop_
 _atom_site_type_symbol
 _atom_site_label
 _atom_site_symmetry_multiplicity
 _atom_site_fract_x
 _atom_site_fract_y
 _atom_site_fract_z
 _atom_site_occupancy
  Pd  Pd0  1  0.500000  0.142618  0.268913  1
  Pd  Pd1  1  0.000000  0.768913  0.642618  1
  Pd  Pd2  1  0.500000  0.870024  0.045478  1
  Pd  Pd3  1  0.000000  0.268913  0.857382  1
  Pd  Pd4  1  0.000000  0.545478  0.370024  1
  Pd  Pd5  1  0.000000  0.731087  0.142618  1
  Pd  Pd6  1  0.500000  0.129976  0.954522  1
  Pd  Pd7  1  0.000000  0.454522  0.629976  1
  Pd  Pd8  1  0.500000  0.629976  0.545478  1
  Pd  Pd9  1  0.750000  0.886909  0.386909  1
  Pd  Pd10  1  0.250000  0.613091  0.886909  1
  Pd  Pd11  1  0.250000  0.386909  0.113091  1
  Pd  Pd12  1  0.500000  0.357382  0.768913  1
  Pd  Pd13  1  0.750000  0.113091  0.613091  1
  Pd  Pd14  1  0.500000  0.642618  0.231087  1
  Pd  Pd15  1  0.500000  0.370024  0.454522  1
  Pd  Pd16  1  0.000000  0.954522  0.870024  1
  Pd  Pd17  1  0.250000  0.113091  0.613091  1
  Pd  Pd18  1  0.250000  0.886909  0.386909  1
  Pd  Pd19  1  0.750000  0.613091  0.886909  1
  Pd  Pd20  1  0.750000  0.386909  0.113091  1
  Pd  Pd21  1  0.500000  0.857382  0.731087  1
  Pd  Pd22  1  0.000000  0.231087  0.357382  1
  Pd  Pd23  1  0.000000  0.045478  0.129976  1
  Se  Se24  1  0.223631  0.889813  0.176943  1
  Se  Se25  1  0.250000  0.596347  0.096347  1
  Se  Se26  1  0.250000  0.096347  0.403653  1
  Se  Se27  1  0.723631  0.823057  0.889813  1
  Se  Se28  1  0.723631  0.323057  0.610187  1
  Se  Se29  1  0.776369  0.610187  0.676943  1
  Se  Se30  1  0.223631  0.110187  0.823057  1
  Se  Se31  1  0.750000  0.903653  0.596347  1
  Se  Se32  1  0.250000  0.403653  0.903653  1
  Se  Se33  1  0.276369  0.176943  0.110187  1
  Se  Se34  1  0.223631  0.389813  0.323057  1
  Se  Se35  1  0.776369  0.389813  0.323057  1
  Se  Se36  1  0.276369  0.676943  0.389813  1
  Se  Se37  1  0.276369  0.823057  0.889813  1
  Se  Se38  1  0.750000  0.403653  0.903653  1
  Se  Se39  1  0.723631  0.676943  0.389813  1
  Se  Se40  1  0.276369  0.323057  0.610187  1
  Se  Se41  1  0.776369  0.889813  0.176943  1
  Se  Se42  1  0.750000  0.096347  0.403653  1
  Se  Se43  1  0.223631  0.610187  0.676943  1
  Se  Se44  1  0.750000  0.596347  0.096347  1
  Se  Se45  1  0.723631  0.176943  0.110187  1
  Se  Se46  1  0.250000  0.903653  0.596347  1
  Se  Se47  1  0.776369  0.110187  0.823057  1
