# generated using pymatgen
data_Sr3Ru2O7
_symmetry_space_group_name_H-M   'P 1'
_cell_length_a   5.59237672
_cell_length_b   5.59323680
_cell_length_c   10.77139712
_cell_angle_alpha   90.00000000
_cell_angle_beta   105.04596234
_cell_angle_gamma   90.00000000
_symmetry_Int_Tables_number   1
_chemical_formula_structural   Sr3Ru2O7
_chemical_formula_sum   'Sr6 Ru4 O14'
_cell_volume   325.37332219
_cell_formula_units_Z   2
loop_
 _symmetry_equiv_pos_site_id
 _symmetry_equiv_pos_as_xyz
  1  'x, y, z'
loop_
 _atom_site_type_symbol
 _atom_site_label
 _atom_site_symmetry_multiplicity
 _atom_site_fract_x
 _atom_site_fract_y
 _atom_site_fract_z
 _atom_site_occupancy
  Sr  Sr0  1  0.064174  0.750000  0.628349  1
  Sr  Sr1  1  0.435826  0.750000  0.371651  1
  Sr  Sr2  1  0.935826  0.250000  0.371651  1
  Sr  Sr3  1  0.250000  0.750000  0.000000  1
  Sr  Sr4  1  0.564174  0.250000  0.628349  1
  Sr  Sr5  1  0.750000  0.250000  0.000000  1
  Ru  Ru6  1  0.347633  0.250000  0.195266  1
  Ru  Ru7  1  0.847633  0.750000  0.195266  1
  Ru  Ru8  1  0.652367  0.750000  0.804734  1
  Ru  Ru9  1  0.152367  0.250000  0.804734  1
  O  O10  1  0.633272  0.462944  0.192851  1
  O  O11  1  0.366728  0.537056  0.807149  1
  O  O12  1  0.059580  0.037056  0.192851  1
  O  O13  1  0.440420  0.037056  0.807149  1
  O  O14  1  0.445222  0.250000  0.390444  1
  O  O15  1  0.866728  0.462944  0.807149  1
  O  O16  1  0.054778  0.250000  0.609556  1
  O  O17  1  0.554778  0.750000  0.609556  1
  O  O18  1  0.133272  0.537056  0.192851  1
  O  O19  1  0.945222  0.750000  0.390444  1
  O  O20  1  0.250000  0.250000  0.000000  1
  O  O21  1  0.940420  0.962944  0.807149  1
  O  O22  1  0.750000  0.750000  0.000000  1
  O  O23  1  0.559580  0.962944  0.192851  1
