# generated using pymatgen
data_KMo5O13
_symmetry_space_group_name_H-M   'P 1'
_cell_length_a   5.71129871
_cell_length_b   5.71129868
_cell_length_c   16.94906449
_cell_angle_alpha   90.00000000
_cell_angle_beta   90.00000000
_cell_angle_gamma   106.72962506
_symmetry_Int_Tables_number   1
_chemical_formula_structural   KMo5O13
_chemical_formula_sum   'K2 Mo10 O26'
_cell_volume   529.45990808
_cell_formula_units_Z   2
loop_
 _symmetry_equiv_pos_site_id
 _symmetry_equiv_pos_as_xyz
  1  'x, y, z'
loop_
 _atom_site_type_symbol
 _atom_site_label
 _atom_site_symmetry_multiplicity
 _atom_site_fract_x
 _atom_site_fract_y
 _atom_site_fract_z
 _atom_site_occupancy
  Mo  Mo0  1  0.000000  0.000000  0.500000  1
  Mo  Mo1  1  0.000000  0.000000  0.000000  1
  Mo  Mo2  1  0.227895  0.772105  0.637494  1
  Mo  Mo3  1  0.772105  0.227895  0.137494  1
  Mo  Mo4  1  0.772105  0.227895  0.362506  1
  Mo  Mo5  1  0.227895  0.772105  0.862506  1
  Mo  Mo6  1  0.381816  0.618184  0.427876  1
  Mo  Mo7  1  0.618184  0.381816  0.927876  1
  Mo  Mo8  1  0.618184  0.381816  0.572124  1
  Mo  Mo9  1  0.381816  0.618184  0.072124  1
  K  K10  1  0.139379  0.860621  0.250000  1
  K  K11  1  0.860621  0.139379  0.750000  1
  O  O12  1  0.184823  0.815177  0.750000  1
  O  O13  1  0.815177  0.184823  0.250000  1
  O  O14  1  0.507879  0.908959  0.369746  1
  O  O15  1  0.492121  0.091041  0.869746  1
  O  O16  1  0.908959  0.507879  0.630254  1
  O  O17  1  0.091041  0.492121  0.130254  1
  O  O18  1  0.492121  0.091041  0.630254  1
  O  O19  1  0.507879  0.908959  0.130254  1
  O  O20  1  0.091041  0.492121  0.369746  1
  O  O21  1  0.908959  0.507879  0.869746  1
  O  O22  1  0.692293  0.692293  0.500000  1
  O  O23  1  0.307707  0.307707  0.000000  1
  O  O24  1  0.307707  0.307707  0.500000  1
  O  O25  1  0.692293  0.692293  0.000000  1
  O  O26  1  0.223616  0.776384  0.509955  1
  O  O27  1  0.776384  0.223616  0.009955  1
  O  O28  1  0.776384  0.223616  0.490045  1
  O  O29  1  0.223616  0.776384  0.990045  1
  O  O30  1  0.572707  0.427293  0.361653  1
  O  O31  1  0.427293  0.572707  0.861653  1
  O  O32  1  0.427293  0.572707  0.638347  1
  O  O33  1  0.572707  0.427293  0.138347  1
  O  O34  1  0.008307  0.991693  0.610795  1
  O  O35  1  0.991693  0.008307  0.110795  1
  O  O36  1  0.991693  0.008307  0.389205  1
  O  O37  1  0.008307  0.991693  0.889205  1
