# generated using pymatgen
data_TeAs(ClF2)3
_symmetry_space_group_name_H-M   'P 1'
_cell_length_a   9.05043217
_cell_length_b   10.24578682
_cell_length_c   10.85093961
_cell_angle_alpha   90.00000000
_cell_angle_beta   108.29254466
_cell_angle_gamma   90.00000000
_symmetry_Int_Tables_number   1
_chemical_formula_structural   TeAs(ClF2)3
_chemical_formula_sum   'Te4 As4 Cl12 F24'
_cell_volume   955.34788501
_cell_formula_units_Z   4
loop_
 _symmetry_equiv_pos_site_id
 _symmetry_equiv_pos_as_xyz
  1  'x, y, z'
loop_
 _atom_site_type_symbol
 _atom_site_label
 _atom_site_symmetry_multiplicity
 _atom_site_fract_x
 _atom_site_fract_y
 _atom_site_fract_z
 _atom_site_occupancy
  Te  Te0  1  0.936488  0.858984  0.680648  1
  Te  Te1  1  0.063512  0.141016  0.319352  1
  Te  Te2  1  0.563512  0.358984  0.819352  1
  Te  Te3  1  0.436488  0.641016  0.180648  1
  As  As4  1  0.890326  0.791477  0.276334  1
  As  As5  1  0.109674  0.208523  0.723666  1
  As  As6  1  0.609674  0.291477  0.223666  1
  As  As7  1  0.390326  0.708523  0.776334  1
  Cl  Cl8  1  0.912225  0.848820  0.886213  1
  Cl  Cl9  1  0.412225  0.651180  0.386213  1
  Cl  Cl10  1  0.392101  0.859792  0.135097  1
  Cl  Cl11  1  0.816116  0.427897  0.922316  1
  Cl  Cl12  1  0.683884  0.927897  0.577684  1
  Cl  Cl13  1  0.107899  0.359792  0.364903  1
  Cl  Cl14  1  0.316116  0.072103  0.422316  1
  Cl  Cl15  1  0.607899  0.140208  0.864903  1
  Cl  Cl16  1  0.587775  0.348820  0.613787  1
  Cl  Cl17  1  0.892101  0.640208  0.635097  1
  Cl  Cl18  1  0.087775  0.151180  0.113787  1
  Cl  Cl19  1  0.183884  0.572103  0.077684  1
  F  F20  1  0.222600  0.768642  0.814344  1
  F  F21  1  0.777400  0.231358  0.185656  1
  F  F22  1  0.287678  0.563168  0.715835  1
  F  F23  1  0.503280  0.152634  0.155239  1
  F  F24  1  0.324297  0.781625  0.622565  1
  F  F25  1  0.944121  0.138359  0.754421  1
  F  F26  1  0.277400  0.268642  0.685656  1
  F  F27  1  0.722600  0.731358  0.314344  1
  F  F28  1  0.212322  0.063168  0.784165  1
  F  F29  1  0.545610  0.368957  0.064589  1
  F  F30  1  0.454390  0.631043  0.935411  1
  F  F31  1  0.175703  0.281625  0.877435  1
  F  F32  1  0.787678  0.936832  0.215835  1
  F  F33  1  0.712322  0.436832  0.284165  1
  F  F34  1  0.444121  0.361641  0.254421  1
  F  F35  1  0.555879  0.638359  0.745579  1
  F  F36  1  0.496720  0.847366  0.844761  1
  F  F37  1  0.003280  0.347366  0.655239  1
  F  F38  1  0.996720  0.652634  0.344761  1
  F  F39  1  0.824297  0.718375  0.122565  1
  F  F40  1  0.045610  0.131043  0.564589  1
  F  F41  1  0.675703  0.218375  0.377435  1
  F  F42  1  0.055879  0.861641  0.245579  1
  F  F43  1  0.954390  0.868957  0.435411  1
