# generated using pymatgen
data_CuP4I
_symmetry_space_group_name_H-M   'P 1'
_cell_length_a   9.84123610
_cell_length_b   13.16877897
_cell_length_c   13.95739268
_cell_angle_alpha   90.00000000
_cell_angle_beta   90.00000000
_cell_angle_gamma   109.10332543
_symmetry_Int_Tables_number   1
_chemical_formula_structural   CuP4I
_chemical_formula_sum   'Cu12 P48 I12'
_cell_volume   1709.22429166
_cell_formula_units_Z   12
loop_
 _symmetry_equiv_pos_site_id
 _symmetry_equiv_pos_as_xyz
  1  'x, y, z'
loop_
 _atom_site_type_symbol
 _atom_site_label
 _atom_site_symmetry_multiplicity
 _atom_site_fract_x
 _atom_site_fract_y
 _atom_site_fract_z
 _atom_site_occupancy
  Cu  Cu0  1  0.209209  0.848086  0.040432  1
  Cu  Cu1  1  -0.005744  0.076439  0.107630  1
  Cu  Cu2  1  0.095599  0.938738  0.317403  1
  Cu  Cu3  1  0.204917  0.709938  0.763684  1
  Cu  Cu4  1  0.790791  0.151914  0.540432  1
  Cu  Cu5  1  0.904401  0.061262  0.817403  1
  Cu  Cu6  1  0.210978  0.512312  0.213716  1
  Cu  Cu7  1  0.206417  0.642266  0.489721  1
  Cu  Cu8  1  0.793583  0.357734  0.989721  1
  Cu  Cu9  1  1.005744  0.923561  0.607630  1
  Cu  Cu10  1  0.795083  0.290062  0.263684  1
  Cu  Cu11  1  0.789022  0.487688  0.713716  1
  P  P12  1  0.410677  0.558237  0.118991  1
  P  P13  1  0.691626  0.511928  0.393562  1
  P  P14  1  0.614142  0.902542  0.060174  1
  P  P15  1  0.614563  0.652181  0.197164  1
  P  P16  1  0.549531  0.662516  0.730045  1
  P  P17  1  0.324116  0.031421  0.798234  1
  P  P18  1  0.532953  0.590305  0.344697  1
  P  P19  1  0.409274  0.898384  0.135085  1
  P  P20  1  0.692259  0.174764  0.994500  1
  P  P21  1  0.543697  0.859979  0.522856  1
  P  P22  1  0.533271  0.923518  0.912376  1
  P  P23  1  0.436056  0.068367  0.171431  1
  P  P24  1  0.307741  0.825236  0.494500  1
  P  P25  1  0.453598  0.850677  0.281378  1
  P  P26  1  0.304723  0.922251  0.363237  1
  P  P27  1  0.332992  0.881616  0.719353  1
  P  P28  1  0.541367  0.369961  0.473428  1
  P  P29  1  0.650381  0.553757  0.807698  1
  P  P30  1  0.667008  0.118384  0.219353  1
  P  P31  1  0.450469  0.337484  0.230045  1
  P  P32  1  0.766536  0.070465  0.091917  1
  P  P33  1  0.695277  0.077749  0.863237  1
  P  P34  1  0.669962  0.467663  0.037709  1
  P  P35  1  0.385858  0.097458  0.560174  1
  P  P36  1  0.467047  0.409695  0.844697  1
  P  P37  1  0.233464  0.929535  0.591917  1
  P  P38  1  0.466729  0.076482  0.412376  1
  P  P39  1  0.768597  0.560003  0.167073  1
  P  P40  1  0.458633  0.630039  0.973428  1
  P  P41  1  0.318974  0.379578  0.455829  1
  P  P42  1  0.564080  0.598102  0.581672  1
  P  P43  1  0.349619  0.446243  0.307698  1
  P  P44  1  0.351255  0.981072  0.947142  1
  P  P45  1  0.456303  0.140021  0.022856  1
  P  P46  1  0.589323  0.441763  0.618991  1
  P  P47  1  0.681026  0.620422  0.955829  1
  P  P48  1  0.563944  0.931633  0.671431  1
  P  P49  1  0.590726  0.101616  0.635085  1
  P  P50  1  0.330038  0.532337  0.537709  1
  P  P51  1  0.648745  0.018928  0.447142  1
  P  P52  1  0.685652  0.417702  0.260329  1
  P  P53  1  0.675884  0.968579  0.298235  1
  P  P54  1  0.314348  0.582298  0.760329  1
  P  P55  1  0.435920  0.401898  0.081672  1
  P  P56  1  0.546402  0.149323  0.781378  1
  P  P57  1  0.231403  0.439997  0.667073  1
  P  P58  1  0.308374  0.488072  0.893562  1
  P  P59  1  0.385437  0.347819  0.697164  1
  I  I60  1  0.103217  0.675099  0.941286  1
  I  I61  1  0.896104  0.369721  0.814715  1
  I  I62  1  0.098232  0.137733  0.281954  1
  I  I63  1  0.996986  0.871915  0.138727  1
  I  I64  1  0.896783  0.324901  0.441286  1
  I  I65  1  0.003014  0.128085  0.638727  1
  I  I66  1  0.889353  0.846909  0.441321  1
  I  I67  1  0.110647  0.153091  0.941321  1
  I  I68  1  0.103896  0.630279  0.314715  1
  I  I69  1  1.002609  0.633095  0.626530  1
  I  I70  1  0.901768  0.862267  0.781954  1
  I  I71  1  -0.002609  0.366905  0.126530  1
