# generated using pymatgen
data_TcBr3
_symmetry_space_group_name_H-M   'P 1'
_cell_length_a   6.06935452
_cell_length_b   7.05460892
_cell_length_c   12.21749716
_cell_angle_alpha   90.00000000
_cell_angle_beta   90.00000000
_cell_angle_gamma   90.00000000
_symmetry_Int_Tables_number   1
_chemical_formula_structural   TcBr3
_chemical_formula_sum   'Tc4 Br12'
_cell_volume   523.11562948
_cell_formula_units_Z   4
loop_
 _symmetry_equiv_pos_site_id
 _symmetry_equiv_pos_as_xyz
  1  'x, y, z'
loop_
 _atom_site_type_symbol
 _atom_site_label
 _atom_site_symmetry_multiplicity
 _atom_site_fract_x
 _atom_site_fract_y
 _atom_site_fract_z
 _atom_site_occupancy
  Tc  Tc0  1  0.026584  0.248073  0.250000  1
  Tc  Tc1  1  0.973416  0.751927  0.750000  1
  Tc  Tc2  1  0.526584  0.751927  0.750000  1
  Tc  Tc3  1  0.473416  0.248073  0.250000  1
  Br  Br4  1  0.250000  0.398733  0.401632  1
  Br  Br5  1  0.750000  0.601267  0.901632  1
  Br  Br6  1  0.750000  0.110956  0.112925  1
  Br  Br7  1  0.250000  0.477527  0.750000  1
  Br  Br8  1  0.250000  0.889044  0.887075  1
  Br  Br9  1  0.750000  0.110956  0.387075  1
  Br  Br10  1  0.750000  0.601267  0.598368  1
  Br  Br11  1  0.750000  0.522473  0.250000  1
  Br  Br12  1  0.750000  0.054444  0.750000  1
  Br  Br13  1  0.250000  0.889044  0.612925  1
  Br  Br14  1  0.250000  0.945556  0.250000  1
  Br  Br15  1  0.250000  0.398733  0.098368  1
