# generated using pymatgen
data_Sr2P2O7
_symmetry_space_group_name_H-M   'P 1'
_cell_length_a   5.47276037
_cell_length_b   9.02495745
_cell_length_c   13.29869070
_cell_angle_alpha   90.00000000
_cell_angle_beta   90.00000000
_cell_angle_gamma   90.00000000
_symmetry_Int_Tables_number   1
_chemical_formula_structural   Sr2P2O7
_chemical_formula_sum   'Sr8 P8 O28'
_cell_volume   656.84134380
_cell_formula_units_Z   4
loop_
 _symmetry_equiv_pos_site_id
 _symmetry_equiv_pos_as_xyz
  1  'x, y, z'
loop_
 _atom_site_type_symbol
 _atom_site_label
 _atom_site_symmetry_multiplicity
 _atom_site_fract_x
 _atom_site_fract_y
 _atom_site_fract_z
 _atom_site_occupancy
  Sr  Sr0  1  0.502521  0.875596  0.087644  1
  Sr  Sr1  1  0.002521  0.624404  0.587644  1
  Sr  Sr2  1  0.999359  0.674094  0.261718  1
  Sr  Sr3  1  0.499359  0.825906  0.761718  1
  Sr  Sr4  1  0.502521  0.375596  0.412356  1
  Sr  Sr5  1  0.499359  0.325906  0.738282  1
  Sr  Sr6  1  0.002521  0.124404  0.912356  1
  Sr  Sr7  1  0.999359  0.174094  0.238282  1
  P  P8  1  0.000745  0.275800  0.533892  1
  P  P9  1  0.500745  0.724200  0.466108  1
  P  P10  1  0.998751  0.531660  0.818886  1
  P  P11  1  0.998751  0.031660  0.681114  1
  P  P12  1  0.000745  0.775800  0.966108  1
  P  P13  1  0.500745  0.224200  0.033892  1
  P  P14  1  0.498751  0.968340  0.318886  1
  P  P15  1  0.498751  0.468340  0.181114  1
  O  O16  1  0.497912  0.726431  0.580889  1
  O  O17  1  0.233152  0.352111  0.574277  1
  O  O18  1  0.771749  0.853993  0.924128  1
  O  O19  1  0.999724  0.604379  0.931195  1
  O  O20  1  0.265755  0.918225  0.263876  1
  O  O21  1  0.499724  0.395621  0.068805  1
  O  O22  1  0.000886  0.865148  0.664586  1
  O  O23  1  0.729447  0.916718  0.262830  1
  O  O24  1  0.771749  0.353993  0.575872  1
  O  O25  1  0.765755  0.081775  0.736124  1
  O  O26  1  0.499724  0.895621  0.431195  1
  O  O27  1  0.229447  0.083282  0.737170  1
  O  O28  1  0.729447  0.416718  0.237170  1
  O  O29  1  0.999724  0.104379  0.568805  1
  O  O30  1  0.000886  0.365148  0.835414  1
  O  O31  1  0.733152  0.147889  0.074277  1
  O  O32  1  0.500886  0.634852  0.164586  1
  O  O33  1  0.997912  0.773569  0.080889  1
  O  O34  1  0.500886  0.134852  0.335414  1
  O  O35  1  0.765755  0.581775  0.763876  1
  O  O36  1  0.997912  0.273569  0.419111  1
  O  O37  1  0.233152  0.852111  0.925723  1
  O  O38  1  0.733152  0.647889  0.425723  1
  O  O39  1  0.229447  0.583282  0.762830  1
  O  O40  1  0.271749  0.646007  0.424128  1
  O  O41  1  0.265755  0.418225  0.236124  1
  O  O42  1  0.497912  0.226431  0.919111  1
  O  O43  1  0.271749  0.146007  0.075872  1
