# generated using pymatgen
data_Tb(IO3)3
_symmetry_space_group_name_H-M   'P 1'
_cell_length_a   6.11634671
_cell_length_b   8.82671232
_cell_length_c   15.34237147
_cell_angle_alpha   96.74773120
_cell_angle_beta   90.00000000
_cell_angle_gamma   90.00000000
_symmetry_Int_Tables_number   1
_chemical_formula_structural   Tb(IO3)3
_chemical_formula_sum   'Tb4 I12 O36'
_cell_volume   822.55469300
_cell_formula_units_Z   4
loop_
 _symmetry_equiv_pos_site_id
 _symmetry_equiv_pos_as_xyz
  1  'x, y, z'
loop_
 _atom_site_type_symbol
 _atom_site_label
 _atom_site_symmetry_multiplicity
 _atom_site_fract_x
 _atom_site_fract_y
 _atom_site_fract_z
 _atom_site_occupancy
  Tb  Tb0  1  0.214171  0.042867  0.896287  1
  Tb  Tb1  1  0.285829  0.542867  0.396287  1
  Tb  Tb2  1  0.714171  0.457133  0.603713  1
  Tb  Tb3  1  0.785829  0.957133  0.103713  1
  I  I4  1  0.356540  0.164813  0.520217  1
  I  I5  1  0.812818  0.285034  0.357209  1
  I  I6  1  0.187182  0.714966  0.642791  1
  I  I7  1  0.312818  0.214966  0.142791  1
  I  I8  1  0.093714  0.883837  0.302194  1
  I  I9  1  0.906286  0.116163  0.697806  1
  I  I10  1  0.687182  0.785034  0.857209  1
  I  I11  1  0.593714  0.616163  0.197806  1
  I  I12  1  0.643460  0.835187  0.479783  1
  I  I13  1  0.143460  0.664813  0.020217  1
  I  I14  1  0.406286  0.383837  0.802194  1
  I  I15  1  0.856540  0.335187  0.979783  1
  O  O16  1  0.083046  0.048310  0.387493  1
  O  O17  1  0.376564  0.142031  0.029476  1
  O  O18  1  0.971756  0.724415  0.117070  1
  O  O19  1  0.528244  0.224415  0.617070  1
  O  O20  1  0.893755  0.925804  0.829811  1
  O  O21  1  0.106245  0.074196  0.170189  1
  O  O22  1  0.055008  0.371240  0.311403  1
  O  O23  1  0.028244  0.275585  0.882930  1
  O  O24  1  0.583046  0.451690  0.112507  1
  O  O25  1  0.916954  0.951690  0.612507  1
  O  O26  1  0.073658  0.412761  0.058147  1
  O  O27  1  0.393755  0.574196  0.670189  1
  O  O28  1  0.619660  0.640653  0.513709  1
  O  O29  1  0.573658  0.087239  0.441853  1
  O  O30  1  0.876564  0.357969  0.470524  1
  O  O31  1  0.555008  0.128760  0.188597  1
  O  O32  1  0.944992  0.628760  0.688597  1
  O  O33  1  0.606245  0.425804  0.329811  1
  O  O34  1  0.426342  0.912761  0.558147  1
  O  O35  1  0.490292  0.229411  0.866323  1
  O  O36  1  0.471756  0.775585  0.382930  1
  O  O37  1  0.926342  0.587239  0.941853  1
  O  O38  1  0.990292  0.270589  0.633677  1
  O  O39  1  0.416954  0.548310  0.887493  1
  O  O40  1  0.177934  0.089448  0.744752  1
  O  O41  1  0.380340  0.359347  0.486291  1
  O  O42  1  0.444992  0.871240  0.811403  1
  O  O43  1  0.123436  0.642031  0.529476  1
  O  O44  1  0.880340  0.140653  0.013709  1
  O  O45  1  0.119660  0.859347  0.986291  1
  O  O46  1  0.677934  0.410552  0.755248  1
  O  O47  1  0.822066  0.910552  0.255248  1
  O  O48  1  0.509708  0.770589  0.133677  1
  O  O49  1  0.623436  0.857969  0.970524  1
  O  O50  1  0.009708  0.729411  0.366323  1
  O  O51  1  0.322066  0.589448  0.244752  1
