# generated using pymatgen
data_KNa2CuO2
_symmetry_space_group_name_H-M   'P 1'
_cell_length_a   4.39036796
_cell_length_b   4.39037757
_cell_length_c   6.29157896
_cell_angle_alpha   110.42596901
_cell_angle_beta   110.42055962
_cell_angle_gamma   90.00000192
_symmetry_Int_Tables_number   1
_chemical_formula_structural   KNa2CuO2
_chemical_formula_sum   'K1 Na2 Cu1 O2'
_cell_volume   105.47672156
_cell_formula_units_Z   1
loop_
 _symmetry_equiv_pos_site_id
 _symmetry_equiv_pos_as_xyz
  1  'x, y, z'
loop_
 _atom_site_type_symbol
 _atom_site_label
 _atom_site_symmetry_multiplicity
 _atom_site_fract_x
 _atom_site_fract_y
 _atom_site_fract_z
 _atom_site_occupancy
  K  K0  1  0.572521  0.572539  0.145043  1
  O  O1  1  0.161513  0.161505  0.323027  1
  Na  Na2  1  0.272790  0.772796  0.545580  1
  O  O3  1  0.830014  0.830004  0.660027  1
  Na  Na4  1  0.772791  0.272794  0.545582  1
  Cu  Cu5  1  0.995311  0.995302  0.990622  1
