# generated using pymatgen
data_Mg3B(OF)3
_symmetry_space_group_name_H-M   'P 1'
_cell_length_a   8.89948279
_cell_length_b   8.89948257
_cell_length_c   3.14100404
_cell_angle_alpha   90.00000000
_cell_angle_beta   90.00000000
_cell_angle_gamma   120.00000083
_symmetry_Int_Tables_number   1
_chemical_formula_structural   Mg3B(OF)3
_chemical_formula_sum   'Mg6 B2 O6 F6'
_cell_volume   215.44114453
_cell_formula_units_Z   2
loop_
 _symmetry_equiv_pos_site_id
 _symmetry_equiv_pos_as_xyz
  1  'x, y, z'
loop_
 _atom_site_type_symbol
 _atom_site_label
 _atom_site_symmetry_multiplicity
 _atom_site_fract_x
 _atom_site_fract_y
 _atom_site_fract_z
 _atom_site_occupancy
  Mg  Mg0  1  0.366867  0.029931  0.250000  1
  Mg  Mg1  1  0.029931  0.663064  0.750000  1
  Mg  Mg2  1  0.633133  0.970069  0.750000  1
  Mg  Mg3  1  0.663064  0.633133  0.250000  1
  Mg  Mg4  1  0.970069  0.336936  0.250000  1
  Mg  Mg5  1  0.336936  0.366867  0.750000  1
  B  B6  1  0.333333  0.666667  0.250000  1
  B  B7  1  0.666667  0.333333  0.750000  1
  O  O8  1  0.449172  0.845197  0.250000  1
  O  O9  1  0.845197  0.396025  0.750000  1
  O  O10  1  0.396025  0.550828  0.250000  1
  O  O11  1  0.603975  0.449172  0.750000  1
  O  O12  1  0.550828  0.154803  0.750000  1
  O  O13  1  0.154803  0.603975  0.250000  1
  F  F14  1  0.700695  0.789882  0.750000  1
  F  F15  1  0.210118  0.910813  0.750000  1
  F  F16  1  0.299305  0.210118  0.250000  1
  F  F17  1  0.910813  0.700695  0.250000  1
  F  F18  1  0.789882  0.089187  0.250000  1
  F  F19  1  0.089187  0.299305  0.750000  1
