# generated using pymatgen
data_Bi(W2Cl5)3
_symmetry_space_group_name_H-M   'P 1'
_cell_length_a   9.37243109
_cell_length_b   9.37243089
_cell_length_c   26.74116293
_cell_angle_alpha   91.30439532
_cell_angle_beta   91.30439528
_cell_angle_gamma   91.40874609
_symmetry_Int_Tables_number   1
_chemical_formula_structural   Bi(W2Cl5)3
_chemical_formula_sum   'Bi4 W24 Cl60'
_cell_volume   2347.05172010
_cell_formula_units_Z   4
loop_
 _symmetry_equiv_pos_site_id
 _symmetry_equiv_pos_as_xyz
  1  'x, y, z'
loop_
 _atom_site_type_symbol
 _atom_site_label
 _atom_site_symmetry_multiplicity
 _atom_site_fract_x
 _atom_site_fract_y
 _atom_site_fract_z
 _atom_site_occupancy
  Bi  Bi0  1  0.669354  0.758985  0.108555  1
  Bi  Bi1  1  0.758985  0.669354  0.608555  1
  Bi  Bi2  1  0.330645  0.241015  0.891445  1
  Bi  Bi3  1  0.241015  0.330645  0.391445  1
  W  W4  1  0.817188  0.768008  0.801815  1
  W  W5  1  0.795965  0.676174  0.936312  1
  W  W6  1  0.302931  0.440167  0.148254  1
  W  W7  1  0.114837  0.084142  0.612991  1
  W  W8  1  0.231992  0.182812  0.698185  1
  W  W9  1  0.915858  0.885163  0.887009  1
  W  W10  1  0.676174  0.795965  0.436312  1
  W  W11  1  0.182812  0.231992  0.198185  1
  W  W12  1  0.440167  0.302931  0.648254  1
  W  W13  1  0.640407  0.826888  0.874084  1
  W  W14  1  0.204035  0.323826  0.063688  1
  W  W15  1  0.885163  0.915858  0.387009  1
  W  W16  1  0.380689  0.026413  0.636070  1
  W  W17  1  0.973587  0.619311  0.863930  1
  W  W18  1  0.697069  0.559833  0.851746  1
  W  W19  1  0.619311  0.973587  0.363930  1
  W  W20  1  0.826888  0.640407  0.374084  1
  W  W21  1  0.768008  0.817188  0.301815  1
  W  W22  1  0.323826  0.204035  0.563688  1
  W  W23  1  0.559833  0.697069  0.351746  1
  W  W24  1  0.026413  0.380689  0.136070  1
  W  W25  1  0.359593  0.173112  0.125916  1
  W  W26  1  0.084142  0.114837  0.112991  1
  W  W27  1  0.173112  0.359593  0.625916  1
  Cl  Cl28  1  0.397115  0.210000  0.475177  1
  Cl  Cl29  1  0.763904  0.021295  0.827159  1
  Cl  Cl30  1  0.790000  0.602885  0.024823  1
  Cl  Cl31  1  0.236096  0.978705  0.172841  1
  Cl  Cl32  1  0.264829  0.941822  0.554856  1
  Cl  Cl33  1  0.828135  0.830821  0.213508  1
  Cl  Cl34  1  0.602885  0.790000  0.524823  1
  Cl  Cl35  1  0.535123  0.624133  0.921436  1
  Cl  Cl36  1  0.060085  0.098258  0.916107  1
  Cl  Cl37  1  0.793194  0.496547  0.147109  1
  Cl  Cl38  1  0.532994  0.240520  0.955331  1
  Cl  Cl39  1  0.510509  0.872094  0.284012  1
  Cl  Cl40  1  0.852154  0.424364  0.910346  1
  Cl  Cl41  1  0.823888  0.077025  0.316942  1
  Cl  Cl42  1  0.171865  0.169179  0.786492  1
  Cl  Cl43  1  0.147846  0.575636  0.089654  1
  Cl  Cl44  1  0.077025  0.823888  0.816942  1
  Cl  Cl45  1  0.543650  0.343772  0.827069  1
  Cl  Cl46  1  0.496547  0.793194  0.647109  1
  Cl  Cl47  1  0.464877  0.375867  0.078564  1
  Cl  Cl48  1  0.709288  0.554692  0.293119  1
  Cl  Cl49  1  0.424364  0.852154  0.410346  1
  Cl  Cl50  1  0.021295  0.763904  0.327159  1
  Cl  Cl51  1  0.922975  0.176112  0.183058  1
  Cl  Cl52  1  0.830821  0.828135  0.713508  1
  Cl  Cl53  1  0.290712  0.445308  0.706881  1
  Cl  Cl54  1  0.343772  0.543650  0.327069  1
  Cl  Cl55  1  0.735171  0.058178  0.445144  1
  Cl  Cl56  1  0.259886  0.069059  0.045093  1
  Cl  Cl57  1  0.503453  0.206806  0.352891  1
  Cl  Cl58  1  0.210000  0.397115  0.975177  1
  Cl  Cl59  1  0.375867  0.464877  0.578564  1
  Cl  Cl60  1  0.407271  0.955138  0.875207  1
  Cl  Cl61  1  0.554692  0.709288  0.793119  1
  Cl  Cl62  1  0.955138  0.407271  0.375207  1
  Cl  Cl63  1  0.467006  0.759480  0.044669  1
  Cl  Cl64  1  0.445308  0.290712  0.206881  1
  Cl  Cl65  1  0.206806  0.503453  0.852891  1
  Cl  Cl66  1  0.939915  0.901742  0.083893  1
  Cl  Cl67  1  0.624133  0.535123  0.421436  1
  Cl  Cl68  1  0.098258  0.060085  0.416107  1
  Cl  Cl69  1  0.941822  0.264829  0.054856  1
  Cl  Cl70  1  0.978705  0.236096  0.672841  1
  Cl  Cl71  1  0.759480  0.467006  0.544669  1
  Cl  Cl72  1  0.575636  0.147846  0.589654  1
  Cl  Cl73  1  0.044862  0.592729  0.624793  1
  Cl  Cl74  1  0.058178  0.735171  0.945144  1
  Cl  Cl75  1  0.176112  0.922975  0.683058  1
  Cl  Cl76  1  0.740114  0.930941  0.954907  1
  Cl  Cl77  1  0.901742  0.939915  0.583893  1
  Cl  Cl78  1  0.127906  0.489491  0.215988  1
  Cl  Cl79  1  0.169179  0.171865  0.286492  1
  Cl  Cl80  1  0.872094  0.510509  0.784012  1
  Cl  Cl81  1  0.456350  0.656228  0.172931  1
  Cl  Cl82  1  0.592729  0.044862  0.124793  1
  Cl  Cl83  1  0.656228  0.456350  0.672931  1
  Cl  Cl84  1  0.489491  0.127906  0.715988  1
  Cl  Cl85  1  0.930941  0.740114  0.454907  1
  Cl  Cl86  1  0.069059  0.259886  0.545093  1
  Cl  Cl87  1  0.240520  0.532994  0.455331  1
