# generated using pymatgen
data_GaAsO4
_symmetry_space_group_name_H-M   'P 1'
_cell_length_a   8.31157052
_cell_length_b   16.66057121
_cell_length_c   9.45920445
_cell_angle_alpha   28.17768740
_cell_angle_beta   116.06549191
_cell_angle_gamma   119.92628581
_symmetry_Int_Tables_number   1
_chemical_formula_structural   GaAsO4
_chemical_formula_sum   'Ga9 As9 O36'
_cell_volume   536.05958997
_cell_formula_units_Z   9
loop_
 _symmetry_equiv_pos_site_id
 _symmetry_equiv_pos_as_xyz
  1  'x, y, z'
loop_
 _atom_site_type_symbol
 _atom_site_label
 _atom_site_symmetry_multiplicity
 _atom_site_fract_x
 _atom_site_fract_y
 _atom_site_fract_z
 _atom_site_occupancy
  As  As0  1  0.353445  0.747470  0.525887  1
  As  As1  1  0.337204  0.561047  0.541972  1
  As  As2  1  0.672794  0.664248  0.016305  1
  As  As3  1  0.992166  0.742973  0.510170  1
  As  As4  1  0.329481  0.070097  0.530267  1
  As  As5  1  0.971580  0.406461  0.520231  1
  As  As6  1  0.666368  0.065853  0.514276  1
  As  As7  1  0.006627  0.251469  0.499775  1
  As  As8  1  0.661395  0.149124  0.023637  1
  Ga  Ga9  1  0.028546  0.837135  0.015321  1
  Ga  Ga10  1  0.313253  0.665171  0.019335  1
  Ga  Ga11  1  0.671124  0.975215  0.025950  1
  Ga  Ga12  1  0.027995  0.336422  0.028342  1
  Ga  Ga13  1  0.297364  0.147869  0.022041  1
  Ga  Ga14  1  0.660261  0.476491  0.012830  1
  Ga  Ga15  1  0.972372  0.906639  0.519905  1
  Ga  Ga16  1  0.666894  0.551485  0.527233  1
  Ga  Ga17  1  0.369952  0.261877  0.512841  1
  O  O18  1  0.087472  0.963019  0.282987  1
  O  O19  1  0.211914  0.850196  0.756995  1
  O  O20  1  0.132780  0.812751  0.286172  1
  O  O21  1  0.221431  0.686290  0.734450  1
  O  O22  1  0.554531  1.000423  0.754090  1
  O  O23  1  0.559560  0.836945  0.771310  1
  O  O24  1  0.447706  0.976431  0.268815  1
  O  O25  1  0.248812  0.519933  0.758385  1
  O  O26  1  0.112414  0.618857  0.315214  1
  O  O27  1  0.082578  0.470128  0.279733  1
  O  O28  1  0.196020  0.342735  0.761173  1
  O  O29  1  0.436925  0.785351  0.312515  1
  O  O30  1  0.563545  0.667096  0.785176  1
  O  O31  1  0.128218  0.323987  0.272695  1
  O  O32  1  0.435792  0.628362  0.303526  1
  O  O33  1  0.764049  0.984940  0.246544  1
  O  O34  1  0.881052  0.827959  0.793906  1
  O  O35  1  0.209381  0.185104  0.737020  1
  O  O36  1  0.540972  0.488988  0.768355  1
  O  O37  1  0.888256  0.675566  0.748023  1
  O  O38  1  0.541808  0.302983  0.810898  1
  O  O39  1  0.458364  0.510374  0.229564  1
  O  O40  1  0.246708  0.013008  0.766015  1
  O  O41  1  0.122625  0.137656  0.291934  1
  O  O42  1  0.787672  0.799855  0.274681  1
  O  O43  1  0.447478  0.291188  0.300221  1
  O  O44  1  0.569364  0.157207  0.800028  1
  O  O45  1  0.788479  0.655943  0.240225  1
  O  O46  1  0.898395  0.521970  0.740010  1
  O  O47  1  0.448097  0.127220  0.305542  1
  O  O48  1  0.767523  0.481762  0.257958  1
  O  O49  1  0.879407  0.331383  0.782180  1
  O  O50  1  0.892150  0.194061  0.725183  1
  O  O51  1  0.784293  0.293126  0.282114  1
  O  O52  1  0.777923  0.145899  0.255409  1
  O  O53  1  0.887483  0.027580  0.728000  1
