# generated using pymatgen
data_Pr3U(ClO2)3
_symmetry_space_group_name_H-M   'P 1'
_cell_length_a   9.51488693
_cell_length_b   9.51488703
_cell_length_c   5.61087453
_cell_angle_alpha   90.00000000
_cell_angle_beta   90.00000000
_cell_angle_gamma   119.99999969
_symmetry_Int_Tables_number   1
_chemical_formula_structural   Pr3U(ClO2)3
_chemical_formula_sum   'Pr6 U2 Cl6 O12'
_cell_volume   439.91468343
_cell_formula_units_Z   2
loop_
 _symmetry_equiv_pos_site_id
 _symmetry_equiv_pos_as_xyz
  1  'x, y, z'
loop_
 _atom_site_type_symbol
 _atom_site_label
 _atom_site_symmetry_multiplicity
 _atom_site_fract_x
 _atom_site_fract_y
 _atom_site_fract_z
 _atom_site_occupancy
  Pr  Pr0  1  0.090828  0.686099  0.750000  1
  Pr  Pr1  1  0.909172  0.313901  0.250000  1
  Pr  Pr2  1  0.404729  0.090828  0.250000  1
  Pr  Pr3  1  0.313901  0.404729  0.750000  1
  Pr  Pr4  1  0.686099  0.595271  0.250000  1
  Pr  Pr5  1  0.595271  0.909172  0.750000  1
  U  U6  1  0.333333  0.666667  0.250000  1
  U  U7  1  0.666667  0.333333  0.750000  1
  Cl  Cl8  1  0.811421  0.752444  0.750000  1
  Cl  Cl9  1  0.752444  0.941023  0.250000  1
  Cl  Cl10  1  0.188579  0.247556  0.250000  1
  Cl  Cl11  1  0.247556  0.058977  0.750000  1
  Cl  Cl12  1  0.941023  0.188579  0.750000  1
  Cl  Cl13  1  0.058977  0.811421  0.250000  1
  O  O14  1  0.483098  0.634759  0.006861  1
  O  O15  1  0.516902  0.365241  0.993139  1
  O  O16  1  0.848338  0.483098  0.506861  1
  O  O17  1  0.483098  0.634759  0.493139  1
  O  O18  1  0.634759  0.151662  0.993139  1
  O  O19  1  0.634759  0.151662  0.506861  1
  O  O20  1  0.151662  0.516902  0.493139  1
  O  O21  1  0.365241  0.848338  0.006861  1
  O  O22  1  0.848338  0.483098  0.993139  1
  O  O23  1  0.516902  0.365241  0.506861  1
  O  O24  1  0.151662  0.516902  0.006861  1
  O  O25  1  0.365241  0.848338  0.493139  1
