# generated using pymatgen
data_TlInAs2O7
_symmetry_space_group_name_H-M   'P 1'
_cell_length_a   7.97513501
_cell_length_b   8.80857724
_cell_length_c   10.70454696
_cell_angle_alpha   88.74619028
_cell_angle_beta   89.99063150
_cell_angle_gamma   74.31025158
_symmetry_Int_Tables_number   1
_chemical_formula_structural   TlInAs2O7
_chemical_formula_sum   'Tl4 In4 As8 O28'
_cell_volume   723.78475585
_cell_formula_units_Z   4
loop_
 _symmetry_equiv_pos_site_id
 _symmetry_equiv_pos_as_xyz
  1  'x, y, z'
loop_
 _atom_site_type_symbol
 _atom_site_label
 _atom_site_symmetry_multiplicity
 _atom_site_fract_x
 _atom_site_fract_y
 _atom_site_fract_z
 _atom_site_occupancy
  Tl  Tl0  1  0.681950  0.942217  0.815789  1
  Tl  Tl1  1  0.318050  0.057783  0.184211  1
  Tl  Tl2  1  0.345939  0.538331  0.318773  1
  Tl  Tl3  1  0.654061  0.461669  0.681227  1
  In  In4  1  0.261701  0.261447  0.596039  1
  In  In5  1  0.738299  0.738553  0.403961  1
  In  In6  1  0.263490  0.768924  0.897932  1
  In  In7  1  0.736510  0.231076  0.102068  1
  As  As8  1  0.371066  0.330846  0.900298  1
  As  As9  1  0.932748  0.326894  0.358443  1
  As  As10  1  0.628934  0.669154  0.099702  1
  As  As11  1  0.067252  0.673106  0.641557  1
  As  As12  1  0.656371  0.149387  0.426951  1
  As  As13  1  0.949998  0.798336  0.132421  1
  As  As14  1  0.343629  0.850613  0.573049  1
  As  As15  1  0.050002  0.201664  0.867579  1
  O  O16  1  0.510777  0.780409  0.979717  1
  O  O17  1  0.955573  0.768952  0.290972  1
  O  O18  1  0.041714  0.747168  0.789365  1
  O  O19  1  0.508077  0.286162  0.510673  1
  O  O20  1  0.872832  0.661085  0.584126  1
  O  O21  1  0.830475  0.974790  0.072553  1
  O  O22  1  0.852479  0.655401  0.064390  1
  O  O23  1  0.491923  0.713838  0.489327  1
  O  O24  1  0.688615  0.964398  0.487469  1
  O  O25  1  0.233968  0.506774  0.630260  1
  O  O26  1  0.958286  0.252832  0.210635  1
  O  O27  1  0.044427  0.231048  0.709028  1
  O  O28  1  0.311385  0.035602  0.512531  1
  O  O29  1  0.127168  0.338915  0.415874  1
  O  O30  1  0.396798  0.822245  0.728202  1
  O  O31  1  0.839161  0.259172  0.917682  1
  O  O32  1  0.169525  0.025210  0.927447  1
  O  O33  1  0.604627  0.484976  0.116567  1
  O  O34  1  0.395373  0.515024  0.883433  1
  O  O35  1  0.160839  0.740828  0.082318  1
  O  O36  1  0.603202  0.177755  0.271798  1
  O  O37  1  0.423020  0.221517  0.767665  1
  O  O38  1  0.489223  0.219591  0.020283  1
  O  O39  1  0.135793  0.814158  0.544736  1
  O  O40  1  0.576980  0.778483  0.232335  1
  O  O41  1  0.864207  0.185842  0.455264  1
  O  O42  1  0.147521  0.344599  0.935610  1
  O  O43  1  0.766032  0.493226  0.369740  1
