# generated using pymatgen
data_Ba2Mn2Si2O9
_symmetry_space_group_name_H-M   'P 1'
_cell_length_a   8.72292085
_cell_length_b   10.92765255
_cell_length_c   18.60845986
_cell_angle_alpha   90.00000000
_cell_angle_beta   90.00000000
_cell_angle_gamma   90.00000000
_symmetry_Int_Tables_number   1
_chemical_formula_structural   Ba2Mn2Si2O9
_chemical_formula_sum   'Ba16 Mn16 Si16 O72'
_cell_volume   1773.77790054
_cell_formula_units_Z   8
loop_
 _symmetry_equiv_pos_site_id
 _symmetry_equiv_pos_as_xyz
  1  'x, y, z'
loop_
 _atom_site_type_symbol
 _atom_site_label
 _atom_site_symmetry_multiplicity
 _atom_site_fract_x
 _atom_site_fract_y
 _atom_site_fract_z
 _atom_site_occupancy
  Ba  Ba0  1  0.262427  0.494707  0.005936  1
  Ba  Ba1  1  0.262427  0.005293  0.505936  1
  Ba  Ba2  1  0.762427  0.494707  0.494064  1
  Ba  Ba3  1  0.244222  0.291870  0.240923  1
  Ba  Ba4  1  0.737573  0.505293  0.994064  1
  Ba  Ba5  1  0.744222  0.291870  0.259077  1
  Ba  Ba6  1  0.244222  0.208130  0.740923  1
  Ba  Ba7  1  0.755778  0.708130  0.759077  1
  Ba  Ba8  1  0.755778  0.791870  0.259077  1
  Ba  Ba9  1  0.255778  0.708130  0.740923  1
  Ba  Ba10  1  0.237573  0.505293  0.505936  1
  Ba  Ba11  1  0.762427  0.005293  0.994064  1
  Ba  Ba12  1  0.255778  0.791870  0.240923  1
  Ba  Ba13  1  0.737573  0.994707  0.494064  1
  Ba  Ba14  1  0.744222  0.208130  0.759077  1
  Ba  Ba15  1  0.237573  0.994707  0.005936  1
  Mn  Mn16  1  0.468077  0.462101  0.655135  1
  Mn  Mn17  1  0.031923  0.537899  0.155135  1
  Mn  Mn18  1  0.968077  0.462101  0.844865  1
  Mn  Mn19  1  0.531923  0.962101  0.844865  1
  Mn  Mn20  1  0.031923  0.962101  0.655135  1
  Mn  Mn21  1  0.460410  0.764629  0.417713  1
  Mn  Mn22  1  0.039590  0.264629  0.417713  1
  Mn  Mn23  1  0.460410  0.735371  0.917713  1
  Mn  Mn24  1  0.039590  0.235371  0.917713  1
  Mn  Mn25  1  0.539590  0.235371  0.582287  1
  Mn  Mn26  1  0.960410  0.735371  0.582287  1
  Mn  Mn27  1  0.968077  0.037899  0.344865  1
  Mn  Mn28  1  0.468077  0.037899  0.155135  1
  Mn  Mn29  1  0.539590  0.264629  0.082287  1
  Mn  Mn30  1  0.960410  0.764629  0.082287  1
  Mn  Mn31  1  0.531923  0.537899  0.344865  1
  Si  Si32  1  0.046498  0.762613  0.408966  1
  Si  Si33  1  0.047230  0.031691  0.170815  1
  Si  Si34  1  0.953502  0.262613  0.091034  1
  Si  Si35  1  0.952770  0.968309  0.829185  1
  Si  Si36  1  0.452770  0.968309  0.670815  1
  Si  Si37  1  0.953502  0.237387  0.591034  1
  Si  Si38  1  0.047230  0.468309  0.670815  1
  Si  Si39  1  0.452770  0.531691  0.170815  1
  Si  Si40  1  0.547230  0.468309  0.829185  1
  Si  Si41  1  0.453502  0.262613  0.408966  1
  Si  Si42  1  0.547230  0.031691  0.329185  1
  Si  Si43  1  0.046498  0.737387  0.908966  1
  Si  Si44  1  0.453502  0.237387  0.908966  1
  Si  Si45  1  0.546498  0.762613  0.091034  1
  Si  Si46  1  0.952770  0.531691  0.329185  1
  Si  Si47  1  0.546498  0.737387  0.591034  1
  O  O48  1  0.983028  0.795661  0.678835  1
  O  O49  1  0.554847  0.840024  0.659383  1
  O  O50  1  0.279191  0.313147  0.415585  1
  O  O51  1  0.272429  0.930260  0.667341  1
  O  O52  1  0.502503  0.531521  0.751772  1
  O  O53  1  0.002503  0.968479  0.248228  1
  O  O54  1  0.424597  0.869676  0.116509  1
  O  O55  1  0.497497  0.468479  0.248228  1
  O  O56  1  0.924597  0.869676  0.383491  1
  O  O57  1  0.016972  0.204339  0.321165  1
  O  O58  1  0.008206  0.936888  0.105226  1
  O  O59  1  0.227571  0.069740  0.167341  1
  O  O60  1  0.502503  0.968479  0.251772  1
  O  O61  1  0.924597  0.630324  0.883491  1
  O  O62  1  0.445153  0.159976  0.340617  1
  O  O63  1  0.008587  0.403434  0.940096  1
  O  O64  1  0.227571  0.430260  0.667341  1
  O  O65  1  0.002503  0.531521  0.748228  1
  O  O66  1  0.997497  0.031521  0.751772  1
  O  O67  1  0.491794  0.063112  0.605226  1
  O  O68  1  0.991413  0.596566  0.059904  1
  O  O69  1  0.945153  0.340024  0.659383  1
  O  O70  1  0.491413  0.903434  0.940096  1
  O  O71  1  0.727571  0.430260  0.832659  1
  O  O72  1  0.508587  0.096566  0.059904  1
  O  O73  1  0.008587  0.096566  0.440096  1
  O  O74  1  0.497497  0.031521  0.748228  1
  O  O75  1  0.727571  0.069740  0.332659  1
  O  O76  1  0.983028  0.704339  0.178835  1
  O  O77  1  0.575403  0.369676  0.383491  1
  O  O78  1  0.508206  0.936888  0.394774  1
  O  O79  1  0.016972  0.295661  0.821165  1
  O  O80  1  0.487273  0.686337  0.020071  1
  O  O81  1  0.075403  0.369676  0.116509  1
  O  O82  1  0.424597  0.630324  0.616509  1
  O  O83  1  0.575403  0.130324  0.883491  1
  O  O84  1  0.991413  0.903434  0.559904  1
  O  O85  1  0.512727  0.313663  0.979929  1
  O  O86  1  0.508206  0.563112  0.894774  1
  O  O87  1  0.008206  0.563112  0.605226  1
  O  O88  1  0.012727  0.186337  0.020071  1
  O  O89  1  0.779191  0.186853  0.584415  1
  O  O90  1  0.987273  0.813663  0.979929  1
  O  O91  1  0.991794  0.436888  0.394774  1
  O  O92  1  0.516972  0.204339  0.178835  1
  O  O93  1  0.012727  0.313663  0.520071  1
  O  O94  1  0.220809  0.813147  0.415585  1
  O  O95  1  0.997497  0.468479  0.251772  1
  O  O96  1  0.483028  0.704339  0.321165  1
  O  O97  1  0.272429  0.569740  0.167341  1
  O  O98  1  0.075403  0.130324  0.616509  1
  O  O99  1  0.483028  0.795661  0.821165  1
  O  O100  1  0.554847  0.659976  0.159383  1
  O  O101  1  0.516972  0.295661  0.678835  1
  O  O102  1  0.054847  0.840024  0.840617  1
  O  O103  1  0.720809  0.686853  0.584415  1
  O  O104  1  0.220809  0.686853  0.915585  1
  O  O105  1  0.491794  0.436888  0.105226  1
  O  O106  1  0.487273  0.813663  0.520071  1
  O  O107  1  0.720809  0.813147  0.084415  1
  O  O108  1  0.991794  0.063112  0.894774  1
  O  O109  1  0.987273  0.686337  0.479929  1
  O  O110  1  0.279191  0.186853  0.915585  1
  O  O111  1  0.772429  0.930260  0.832659  1
  O  O112  1  0.772429  0.569740  0.332659  1
  O  O113  1  0.779191  0.313147  0.084415  1
  O  O114  1  0.945153  0.159976  0.159383  1
  O  O115  1  0.491413  0.596566  0.440096  1
  O  O116  1  0.445153  0.340024  0.840617  1
  O  O117  1  0.054847  0.659976  0.340617  1
  O  O118  1  0.508587  0.403434  0.559904  1
  O  O119  1  0.512727  0.186337  0.479929  1
