# generated using pymatgen
data_Na2SrAl4(SiO4)4
_symmetry_space_group_name_H-M   'P 1'
_cell_length_a   8.55653323
_cell_length_b   9.96797654
_cell_length_c   10.71289095
_cell_angle_alpha   117.72527763
_cell_angle_beta   113.53738823
_cell_angle_gamma   90.00003992
_symmetry_Int_Tables_number   1
_chemical_formula_structural   Na2SrAl4(SiO4)4
_chemical_formula_sum   'Na4 Sr2 Al8 Si8 O32'
_cell_volume   721.82457746
_cell_formula_units_Z   2
loop_
 _symmetry_equiv_pos_site_id
 _symmetry_equiv_pos_as_xyz
  1  'x, y, z'
loop_
 _atom_site_type_symbol
 _atom_site_label
 _atom_site_symmetry_multiplicity
 _atom_site_fract_x
 _atom_site_fract_y
 _atom_site_fract_z
 _atom_site_occupancy
  Na  Na0  1  0.362772  0.080434  0.809371  1
  Na  Na1  1  0.862771  0.228937  0.809370  1
  Na  Na2  1  0.946642  0.580417  0.809374  1
  Na  Na3  1  0.446643  0.728957  0.809376  1
  Sr  Sr4  1  0.654031  0.154059  0.308115  1
  Sr  Sr5  1  0.154031  0.654057  0.308115  1
  Al  Al6  1  0.994090  0.872430  0.126842  1
  Al  Al7  1  0.088041  0.260487  0.621313  1
  Al  Al8  1  0.494090  0.754413  0.126842  1
  Al  Al9  1  0.588041  0.860826  0.621313  1
  Al  Al10  1  0.033236  0.760506  0.621336  1
  Al  Al11  1  0.533236  0.360829  0.621336  1
  Al  Al12  1  0.132806  0.254433  0.126897  1
  Al  Al13  1  0.632806  0.372463  0.126897  1
  Si  Si14  1  0.761854  0.053085  0.996602  1
  Si  Si15  1  0.734768  0.553076  0.996588  1
  Si  Si16  1  0.261855  0.443517  0.996602  1
  Si  Si17  1  0.234768  0.943512  0.996588  1
  Si  Si18  1  0.821562  0.944664  0.491555  1
  Si  Si19  1  0.669987  0.546896  0.491589  1
  Si  Si20  1  0.321562  0.046891  0.491555  1
  Si  Si21  1  0.169987  0.444693  0.491589  1
  O  O22  1  0.393479  0.918616  0.543895  1
  O  O23  1  0.150396  0.625298  0.543930  1
  O  O24  1  0.623467  0.916956  0.815706  1
  O  O25  1  0.972162  0.842185  0.497731  1
  O  O26  1  0.893479  0.125279  0.543895  1
  O  O27  1  0.025549  0.342197  0.497741  1
  O  O28  1  0.757933  0.958325  0.621534  1
  O  O29  1  0.655556  0.440870  0.316153  1
  O  O30  1  0.155556  0.375282  0.316153  1
  O  O31  1  0.660562  0.875251  0.316118  1
  O  O32  1  0.863586  0.663214  0.621562  1
  O  O33  1  0.416699  0.889046  0.065265  1
  O  O34  1  0.123467  0.398750  0.815706  1
  O  O35  1  0.074267  0.851974  0.992707  1
  O  O36  1  0.282766  0.133035  0.114086  1
  O  O37  1  0.148624  0.389052  0.065299  1
  O  O38  1  0.472163  0.155546  0.497731  1
  O  O39  1  0.648624  0.176247  0.065299  1
  O  O40  1  0.782766  0.481051  0.114086  1
  O  O41  1  0.257933  0.163209  0.621533  1
  O  O42  1  0.363586  0.458348  0.621562  1
  O  O43  1  0.418502  0.352004  0.992727  1
  O  O44  1  0.574267  0.640733  0.992707  1
  O  O45  1  0.650396  0.418632  0.543930  1
  O  O46  1  0.160562  0.940868  0.316118  1
  O  O47  1  0.525549  0.655544  0.497741  1
  O  O48  1  0.916699  0.676219  0.065265  1
  O  O49  1  0.692238  0.416930  0.815696  1
  O  O50  1  0.192237  0.898766  0.815696  1
  O  O51  1  0.918502  0.140722  0.992727  1
  O  O52  1  0.331325  0.633041  0.114067  1
  O  O53  1  0.831325  0.981026  0.114067  1
