# generated using pymatgen
data_K6Cu(SiO4)2
_symmetry_space_group_name_H-M   'P 1'
_cell_length_a   6.27948195
_cell_length_b   6.74770634
_cell_length_c   7.61876090
_cell_angle_alpha   83.47899051
_cell_angle_beta   87.68344583
_cell_angle_gamma   69.92723463
_symmetry_Int_Tables_number   1
_chemical_formula_structural   K6Cu(SiO4)2
_chemical_formula_sum   'K6 Si2 Cu1 O8'
_cell_volume   301.25176071
_cell_formula_units_Z   1
loop_
 _symmetry_equiv_pos_site_id
 _symmetry_equiv_pos_as_xyz
  1  'x, y, z'
loop_
 _atom_site_type_symbol
 _atom_site_label
 _atom_site_symmetry_multiplicity
 _atom_site_fract_x
 _atom_site_fract_y
 _atom_site_fract_z
 _atom_site_occupancy
  K  K0  1  0.653628  0.827553  0.167295  1
  K  K1  1  0.799733  0.304167  0.975492  1
  K  K2  1  0.274931  0.813968  0.558986  1
  K  K3  1  0.725069  0.186032  0.441014  1
  K  K4  1  0.200267  0.695833  0.024508  1
  K  K5  1  0.346372  0.172447  0.832705  1
  Si  Si6  1  0.780589  0.759604  0.731900  1
  Si  Si7  1  0.219411  0.240396  0.268100  1
  Cu  Cu8  1  0.000000  0.500000  0.500000  1
  O  O9  1  0.564208  0.725228  0.842042  1
  O  O10  1  0.832614  0.967447  0.784951  1
  O  O11  1  0.167386  0.032553  0.215049  1
  O  O12  1  0.016356  0.541604  0.753327  1
  O  O13  1  0.435792  0.274772  0.157958  1
  O  O14  1  0.983644  0.458396  0.246673  1
  O  O15  1  0.743955  0.769524  0.512096  1
  O  O16  1  0.256045  0.230476  0.487904  1
