# generated using pymatgen
data_Sn3PO4F3
_symmetry_space_group_name_H-M   'P 1'
_cell_length_a   7.19989175
_cell_length_b   7.19994232
_cell_length_c   7.19993281
_cell_angle_alpha   115.37404527
_cell_angle_beta   115.37292583
_cell_angle_gamma   115.37335510
_symmetry_Int_Tables_number   1
_chemical_formula_structural   Sn3PO4F3
_chemical_formula_sum   'Sn3 P1 O4 F3'
_cell_volume   201.59833717
_cell_formula_units_Z   1
loop_
 _symmetry_equiv_pos_site_id
 _symmetry_equiv_pos_as_xyz
  1  'x, y, z'
loop_
 _atom_site_type_symbol
 _atom_site_label
 _atom_site_symmetry_multiplicity
 _atom_site_fract_x
 _atom_site_fract_y
 _atom_site_fract_z
 _atom_site_occupancy
  F  F0  1  0.824506  0.361144  0.484642  1
  Sn  Sn1  1  0.276682  0.628410  0.627474  1
  O  O2  1  0.674619  0.674619  0.674619  1
  O  O3  1  0.964352  0.175404  0.175171  1
  F  F4  1  0.361144  0.484647  0.824510  1
  P  P5  1  0.008593  0.008594  0.008593  1
  O  O6  1  0.175171  0.964350  0.175405  1
  Sn  Sn7  1  0.628409  0.627474  0.276680  1
  Sn  Sn8  1  0.627475  0.276681  0.628408  1
  O  O9  1  0.175406  0.175170  0.964353  1
  F  F10  1  0.484643  0.824507  0.361145  1
