# generated using pymatgen
data_Pr3CuSiSe7
_symmetry_space_group_name_H-M   'P 1'
_cell_length_a   10.71505938
_cell_length_b   10.71505910
_cell_length_c   6.10878869
_cell_angle_alpha   90.00000000
_cell_angle_beta   90.00000000
_cell_angle_gamma   120.00000086
_symmetry_Int_Tables_number   1
_chemical_formula_structural   Pr3CuSiSe7
_chemical_formula_sum   'Pr6 Cu2 Si2 Se14'
_cell_volume   607.40013425
_cell_formula_units_Z   2
loop_
 _symmetry_equiv_pos_site_id
 _symmetry_equiv_pos_as_xyz
  1  'x, y, z'
loop_
 _atom_site_type_symbol
 _atom_site_label
 _atom_site_symmetry_multiplicity
 _atom_site_fract_x
 _atom_site_fract_y
 _atom_site_fract_z
 _atom_site_occupancy
  Pr  Pr0  1  0.873635  0.644737  0.253355  1
  Pr  Pr1  1  0.228899  0.873636  0.753354  1
  Pr  Pr2  1  0.771102  0.126365  0.253355  1
  Pr  Pr3  1  0.644737  0.771101  0.753354  1
  Pr  Pr4  1  0.126364  0.355263  0.753354  1
  Pr  Pr5  1  0.355263  0.228898  0.253355  1
  Cu  Cu6  1  0.000000  0.000000  0.226645  1
  Si  Si7  1  0.666667  0.333333  0.839589  1
  Cu  Cu8  1  0.000000  0.000000  0.726764  1
  Si  Si9  1  0.333333  0.666667  0.339589  1
  Se  Se10  1  0.254219  0.164234  0.739793  1
  Se  Se11  1  0.414892  0.522402  0.487850  1
  Se  Se12  1  0.835766  0.089985  0.739793  1
  Se  Se13  1  0.477598  0.892490  0.487850  1
  Se  Se14  1  0.164235  0.910014  0.239790  1
  Se  Se15  1  0.107510  0.585108  0.487850  1
  Se  Se16  1  0.745779  0.835765  0.239790  1
  Se  Se17  1  0.585108  0.477598  0.987850  1
  Se  Se18  1  0.333333  0.666667  0.968019  1
  Se  Se19  1  0.910015  0.745781  0.739793  1
  Se  Se20  1  0.666667  0.333333  0.468020  1
  Se  Se21  1  0.089986  0.254221  0.239790  1
  Se  Se22  1  0.522402  0.107510  0.987850  1
  Se  Se23  1  0.892490  0.414892  0.987850  1
