# generated using pymatgen
data_Fe5Cu2(PO4)6
_symmetry_space_group_name_H-M   'P 1'
_cell_length_a   6.33533280
_cell_length_b   8.05071499
_cell_length_c   9.45651509
_cell_angle_alpha   105.62691996
_cell_angle_beta   107.46607019
_cell_angle_gamma   101.11576312
_symmetry_Int_Tables_number   1
_chemical_formula_structural   Fe5Cu2(PO4)6
_chemical_formula_sum   'Fe5 Cu2 P6 O24'
_cell_volume   422.96190332
_cell_formula_units_Z   1
loop_
 _symmetry_equiv_pos_site_id
 _symmetry_equiv_pos_as_xyz
  1  'x, y, z'
loop_
 _atom_site_type_symbol
 _atom_site_label
 _atom_site_symmetry_multiplicity
 _atom_site_fract_x
 _atom_site_fract_y
 _atom_site_fract_z
 _atom_site_occupancy
  Fe  Fe0  1  0.384446  0.453475  0.116525  1
  Fe  Fe1  1  0.049164  0.721498  0.526173  1
  Fe  Fe2  1  0.000000  0.000000  0.000000  1
  Fe  Fe3  1  0.615554  0.546525  0.883475  1
  Fe  Fe4  1  0.950836  0.278502  0.473827  1
  Cu  Cu5  1  0.739765  0.194793  0.729912  1
  Cu  Cu6  1  0.260235  0.805207  0.270088  1
  P  P7  1  0.399648  0.228207  0.369942  1
  P  P8  1  0.232383  0.148258  0.771269  1
  P  P9  1  0.906227  0.406469  0.169029  1
  P  P10  1  0.767617  0.851742  0.228731  1
  P  P11  1  0.093773  0.593531  0.830971  1
  P  P12  1  0.600352  0.771793  0.630058  1
  O  O13  1  0.122366  0.534084  0.162565  1
  O  O14  1  0.793961  0.050607  0.294932  1
  O  O15  1  0.636420  0.241860  0.490413  1
  O  O16  1  0.247812  0.275286  0.464383  1
  O  O17  1  0.979850  0.806238  0.332653  1
  O  O18  1  0.560981  0.639455  0.717406  1
  O  O19  1  0.877634  0.465916  0.837435  1
  O  O20  1  0.689639  0.460961  0.084563  1
  O  O21  1  0.462448  0.262793  0.771490  1
  O  O22  1  0.767828  0.799890  0.056659  1
  O  O23  1  0.886561  0.213191  0.085548  1
  O  O24  1  0.363580  0.758140  0.509587  1
  O  O25  1  0.930970  0.450741  0.345811  1
  O  O26  1  0.069030  0.549259  0.654189  1
  O  O27  1  0.020150  0.193762  0.667347  1
  O  O28  1  0.537552  0.737207  0.228510  1
  O  O29  1  0.113439  0.786809  0.914452  1
  O  O30  1  0.752188  0.724714  0.535617  1
  O  O31  1  0.439019  0.360545  0.282594  1
  O  O32  1  0.232172  0.200110  0.943341  1
  O  O33  1  0.280129  0.035877  0.238418  1
  O  O34  1  0.310361  0.539039  0.915437  1
  O  O35  1  0.206039  0.949393  0.705068  1
  O  O36  1  0.719871  0.964123  0.761582  1
