# generated using pymatgen
data_Li2BeSiO4
_symmetry_space_group_name_H-M   'P 1'
_cell_length_a   4.91562051
_cell_length_b   4.91562050
_cell_length_c   6.18091965
_cell_angle_alpha   90.00000000
_cell_angle_beta   90.00000000
_cell_angle_gamma   90.51835753
_symmetry_Int_Tables_number   1
_chemical_formula_structural   Li2BeSiO4
_chemical_formula_sum   'Li4 Be2 Si2 O8'
_cell_volume   149.34545807
_cell_formula_units_Z   2
loop_
 _symmetry_equiv_pos_site_id
 _symmetry_equiv_pos_as_xyz
  1  'x, y, z'
loop_
 _atom_site_type_symbol
 _atom_site_label
 _atom_site_symmetry_multiplicity
 _atom_site_fract_x
 _atom_site_fract_y
 _atom_site_fract_z
 _atom_site_occupancy
  Li  Li0  1  0.683300  0.683300  0.000000  1
  Li  Li1  1  0.801980  0.198020  0.750000  1
  Li  Li2  1  0.316700  0.316700  0.500000  1
  Li  Li3  1  0.198020  0.801980  0.250000  1
  Be  Be4  1  0.681713  0.681713  0.500000  1
  Be  Be5  1  0.318287  0.318287  0.000000  1
  Si  Si6  1  0.180870  0.819130  0.750000  1
  Si  Si7  1  0.819130  0.180870  0.250000  1
  O  O8  1  0.717647  0.347045  0.465497  1
  O  O9  1  0.652955  0.282353  0.034503  1
  O  O10  1  0.151106  0.221891  0.217687  1
  O  O11  1  0.848894  0.778109  0.717687  1
  O  O12  1  0.778109  0.848894  0.282313  1
  O  O13  1  0.282353  0.652955  0.965497  1
  O  O14  1  0.221891  0.151106  0.782313  1
  O  O15  1  0.347045  0.717647  0.534503  1
