# generated using pymatgen
data_TiHg6As4Br7
_symmetry_space_group_name_H-M   'P 1'
_cell_length_a   12.71642143
_cell_length_b   12.71642143
_cell_length_c   12.71642143
_cell_angle_alpha   90.00000000
_cell_angle_beta   90.00000000
_cell_angle_gamma   90.00000000
_symmetry_Int_Tables_number   1
_chemical_formula_structural   TiHg6As4Br7
_chemical_formula_sum   'Ti4 Hg24 As16 Br28'
_cell_volume   2056.33911594
_cell_formula_units_Z   4
loop_
 _symmetry_equiv_pos_site_id
 _symmetry_equiv_pos_as_xyz
  1  'x, y, z'
loop_
 _atom_site_type_symbol
 _atom_site_label
 _atom_site_symmetry_multiplicity
 _atom_site_fract_x
 _atom_site_fract_y
 _atom_site_fract_z
 _atom_site_occupancy
  Ti  Ti0  1  0.000000  0.500000  0.000000  1
  Ti  Ti1  1  0.500000  0.500000  0.500000  1
  Ti  Ti2  1  0.000000  0.000000  0.500000  1
  Ti  Ti3  1  0.500000  0.000000  0.000000  1
  Hg  Hg4  1  0.041745  0.692516  0.302658  1
  Hg  Hg5  1  0.192516  0.302658  0.458255  1
  Hg  Hg6  1  0.307484  0.697342  0.958255  1
  Hg  Hg7  1  0.802658  0.041745  0.807484  1
  Hg  Hg8  1  0.541745  0.692516  0.197342  1
  Hg  Hg9  1  0.458255  0.307484  0.802658  1
  Hg  Hg10  1  0.958255  0.192516  0.197342  1
  Hg  Hg11  1  0.197342  0.541745  0.692516  1
  Hg  Hg12  1  0.958255  0.307484  0.697342  1
  Hg  Hg13  1  0.041745  0.807484  0.802658  1
  Hg  Hg14  1  0.807484  0.802658  0.041745  1
  Hg  Hg15  1  0.197342  0.958255  0.192516  1
  Hg  Hg16  1  0.692516  0.302658  0.041745  1
  Hg  Hg17  1  0.302658  0.041745  0.692516  1
  Hg  Hg18  1  0.802658  0.458255  0.307484  1
  Hg  Hg19  1  0.302658  0.458255  0.192516  1
  Hg  Hg20  1  0.541745  0.807484  0.697342  1
  Hg  Hg21  1  0.458255  0.192516  0.302658  1
  Hg  Hg22  1  0.192516  0.197342  0.958255  1
  Hg  Hg23  1  0.807484  0.697342  0.541745  1
  Hg  Hg24  1  0.697342  0.958255  0.307484  1
  Hg  Hg25  1  0.697342  0.541745  0.807484  1
  Hg  Hg26  1  0.692516  0.197342  0.541745  1
  Hg  Hg27  1  0.307484  0.802658  0.458255  1
  As  As28  1  0.155958  0.155958  0.155958  1
  As  As29  1  0.344042  0.655958  0.155958  1
  As  As30  1  0.229401  0.770599  0.270599  1
  As  As31  1  0.729401  0.729401  0.729401  1
  As  As32  1  0.844042  0.655958  0.344042  1
  As  As33  1  0.155958  0.344042  0.655958  1
  As  As34  1  0.344042  0.844042  0.655958  1
  As  As35  1  0.655958  0.344042  0.844042  1
  As  As36  1  0.270599  0.229401  0.770599  1
  As  As37  1  0.770599  0.229401  0.729401  1
  As  As38  1  0.770599  0.270599  0.229401  1
  As  As39  1  0.270599  0.270599  0.270599  1
  As  As40  1  0.729401  0.770599  0.229401  1
  As  As41  1  0.844042  0.844042  0.844042  1
  As  As42  1  0.655958  0.155958  0.344042  1
  As  As43  1  0.229401  0.729401  0.770599  1
  Br  Br44  1  0.538899  0.045124  0.807796  1
  Br  Br45  1  0.307796  0.538899  0.454876  1
  Br  Br46  1  0.307796  0.961101  0.954876  1
  Br  Br47  1  0.454876  0.192204  0.038899  1
  Br  Br48  1  0.954876  0.307796  0.961101  1
  Br  Br49  1  0.045124  0.692204  0.038899  1
  Br  Br50  1  0.045124  0.807796  0.538899  1
  Br  Br51  1  0.000000  0.000000  0.000000  1
  Br  Br52  1  0.545124  0.807796  0.961101  1
  Br  Br53  1  0.038899  0.045124  0.692204  1
  Br  Br54  1  0.461101  0.954876  0.192204  1
  Br  Br55  1  0.538899  0.454876  0.307796  1
  Br  Br56  1  0.038899  0.454876  0.192204  1
  Br  Br57  1  0.500000  0.500000  0.000000  1
  Br  Br58  1  0.961101  0.545124  0.807796  1
  Br  Br59  1  0.545124  0.692204  0.461101  1
  Br  Br60  1  0.807796  0.961101  0.545124  1
  Br  Br61  1  0.500000  0.000000  0.500000  1
  Br  Br62  1  0.192204  0.038899  0.454876  1
  Br  Br63  1  0.954876  0.192204  0.461101  1
  Br  Br64  1  0.961101  0.954876  0.307796  1
  Br  Br65  1  0.461101  0.545124  0.692204  1
  Br  Br66  1  0.192204  0.461101  0.954876  1
  Br  Br67  1  0.454876  0.307796  0.538899  1
  Br  Br68  1  0.000000  0.500000  0.500000  1
  Br  Br69  1  0.807796  0.538899  0.045124  1
  Br  Br70  1  0.692204  0.461101  0.545124  1
  Br  Br71  1  0.692204  0.038899  0.045124  1
