# generated using pymatgen
data_Hg3PO4
_symmetry_space_group_name_H-M   'P 1'
_cell_length_a   8.07624207
_cell_length_b   8.36854170
_cell_length_c   9.50002250
_cell_angle_alpha   90.00000000
_cell_angle_beta   109.36811037
_cell_angle_gamma   90.00000000
_symmetry_Int_Tables_number   1
_chemical_formula_structural   Hg3PO4
_chemical_formula_sum   'Hg12 P4 O16'
_cell_volume   605.73548750
_cell_formula_units_Z   4
loop_
 _symmetry_equiv_pos_site_id
 _symmetry_equiv_pos_as_xyz
  1  'x, y, z'
loop_
 _atom_site_type_symbol
 _atom_site_label
 _atom_site_symmetry_multiplicity
 _atom_site_fract_x
 _atom_site_fract_y
 _atom_site_fract_z
 _atom_site_occupancy
  Hg  Hg0  1  0.989246  0.225058  0.427249  1
  Hg  Hg1  1  0.605876  0.397062  0.470563  1
  Hg  Hg2  1  0.762357  0.946397  0.611555  1
  Hg  Hg3  1  0.394124  0.602938  0.529437  1
  Hg  Hg4  1  0.262357  0.553603  0.111555  1
  Hg  Hg5  1  0.894124  0.897062  0.029437  1
  Hg  Hg6  1  0.489246  0.274942  0.927249  1
  Hg  Hg7  1  0.237643  0.053603  0.388445  1
  Hg  Hg8  1  0.510754  0.725058  0.072751  1
  Hg  Hg9  1  0.010754  0.774942  0.572751  1
  Hg  Hg10  1  0.105876  0.102938  0.970563  1
  Hg  Hg11  1  0.737643  0.446397  0.888445  1
  P  P12  1  0.542689  0.067582  0.246211  1
  P  P13  1  0.042689  0.432418  0.746211  1
  P  P14  1  0.457311  0.932418  0.753789  1
  P  P15  1  0.957311  0.567582  0.253789  1
  O  O16  1  0.592658  0.816930  0.861834  1
  O  O17  1  0.907342  0.316930  0.638166  1
  O  O18  1  0.092658  0.683070  0.361834  1
  O  O19  1  0.350022  0.030248  0.830704  1
  O  O20  1  0.149978  0.530248  0.669296  1
  O  O21  1  0.325538  0.830357  0.624194  1
  O  O22  1  0.649978  0.969752  0.169296  1
  O  O23  1  0.944843  0.551745  0.819965  1
  O  O24  1  0.174462  0.330357  0.875806  1
  O  O25  1  0.407342  0.183070  0.138166  1
  O  O26  1  0.674462  0.169643  0.375806  1
  O  O27  1  0.850022  0.469752  0.330704  1
  O  O28  1  0.444843  0.948255  0.319965  1
  O  O29  1  0.555157  0.051745  0.680035  1
  O  O30  1  0.825538  0.669643  0.124194  1
  O  O31  1  0.055157  0.448255  0.180035  1
