# generated using pymatgen
data_KSrNb2O6F
_symmetry_space_group_name_H-M   'P 1'
_cell_length_a   3.91388344
_cell_length_b   7.78443929
_cell_length_c   12.19825411
_cell_angle_alpha   108.60541868
_cell_angle_beta   99.22536249
_cell_angle_gamma   90.00090937
_symmetry_Int_Tables_number   1
_chemical_formula_structural   KSrNb2O6F
_chemical_formula_sum   'K2 Sr2 Nb4 O12 F2'
_cell_volume   347.14960402
_cell_formula_units_Z   2
loop_
 _symmetry_equiv_pos_site_id
 _symmetry_equiv_pos_as_xyz
  1  'x, y, z'
loop_
 _atom_site_type_symbol
 _atom_site_label
 _atom_site_symmetry_multiplicity
 _atom_site_fract_x
 _atom_site_fract_y
 _atom_site_fract_z
 _atom_site_occupancy
  K  K0  1  0.235614  0.235805  0.471471  1
  K  K1  1  0.764386  0.764195  0.528529  1
  Sr  Sr2  1  0.000000  0.500000  0.000000  1
  Sr  Sr3  1  0.000000  0.000000  0.000000  1
  Nb  Nb4  1  0.607393  0.354915  0.215147  1
  Nb  Nb5  1  0.607485  0.860249  0.215170  1
  Nb  Nb6  1  0.392607  0.645085  0.784853  1
  Nb  Nb7  1  0.392515  0.139751  0.784830  1
  O  O8  1  0.314120  0.041044  0.627900  1
  O  O9  1  0.580034  0.080024  0.160052  1
  O  O10  1  0.914813  0.666429  0.829384  1
  O  O11  1  0.685846  0.413127  0.372107  1
  O  O12  1  0.085209  0.837030  0.170616  1
  O  O13  1  0.685880  0.958956  0.372100  1
  O  O14  1  0.419966  0.919976  0.839948  1
  O  O15  1  0.409095  0.408932  0.817849  1
  O  O16  1  0.314154  0.586873  0.627893  1
  O  O17  1  0.914791  0.162970  0.829384  1
  O  O18  1  0.085187  0.333571  0.170616  1
  O  O19  1  0.590905  0.591068  0.182151  1
  F  F20  1  0.499949  0.267193  1.000001  1
  F  F21  1  0.500051  0.732807  -0.000001  1
