# generated using pymatgen
data_Pr10Se14O
_symmetry_space_group_name_H-M   'P 1'
_cell_length_a   15.36423646
_cell_length_b   15.36423573
_cell_length_c   15.36423590
_cell_angle_alpha   93.82820753
_cell_angle_beta   117.81495129
_cell_angle_gamma   117.81494995
_symmetry_Int_Tables_number   1
_chemical_formula_structural   Pr10Se14O
_chemical_formula_sum   'Pr40 Se56 O4'
_cell_volume   2642.90891652
_cell_formula_units_Z   4
loop_
 _symmetry_equiv_pos_site_id
 _symmetry_equiv_pos_as_xyz
  1  'x, y, z'
loop_
 _atom_site_type_symbol
 _atom_site_label
 _atom_site_symmetry_multiplicity
 _atom_site_fract_x
 _atom_site_fract_y
 _atom_site_fract_z
 _atom_site_occupancy
  Pr  Pr0  1  0.374427  0.686011  0.569503  1
  Pr  Pr1  1  0.625573  0.313989  0.430497  1
  Pr  Pr2  1  0.883492  0.813989  0.188417  1
  Pr  Pr3  1  0.843454  0.417536  0.020557  1
  Pr  Pr4  1  0.874427  0.304924  0.688417  1
  Pr  Pr5  1  0.750000  0.258465  0.241535  1
  Pr  Pr6  1  0.156546  0.582464  0.979443  1
  Pr  Pr7  1  0.843454  0.925918  0.822897  1
  Pr  Pr8  1  0.656546  0.677103  0.574082  1
  Pr  Pr9  1  0.125573  0.695076  0.311583  1
  Pr  Pr10  1  0.483071  0.491535  0.741535  1
  Pr  Pr11  1  0.983071  0.241535  0.991535  1
  Pr  Pr12  1  0.603021  0.082464  0.925918  1
  Pr  Pr13  1  0.603021  0.020557  0.677103  1
  Pr  Pr14  1  0.016929  0.758465  0.008465  1
  Pr  Pr15  1  0.616508  0.311583  0.686011  1
  Pr  Pr16  1  0.516929  0.508465  0.258465  1
  Pr  Pr17  1  0.383492  0.688417  0.313989  1
  Pr  Pr18  1  0.896979  0.822897  0.479443  1
  Pr  Pr19  1  0.156546  0.074082  0.177103  1
  Pr  Pr20  1  0.396979  0.979443  0.322897  1
  Pr  Pr21  1  0.343454  0.520557  0.917536  1
  Pr  Pr22  1  0.396979  0.917536  0.074082  1
  Pr  Pr23  1  0.343454  0.322897  0.425918  1
  Pr  Pr24  1  0.656546  0.479443  0.082464  1
  Pr  Pr25  1  0.625573  0.811583  0.195076  1
  Pr  Pr26  1  0.374427  0.188417  0.804924  1
  Pr  Pr27  1  0.750000  0.991535  0.508465  1
  Pr  Pr28  1  0.883492  0.569503  0.695076  1
  Pr  Pr29  1  0.874427  0.069503  0.186011  1
  Pr  Pr30  1  0.103021  0.177103  0.520557  1
  Pr  Pr31  1  0.250000  0.741535  0.758465  1
  Pr  Pr32  1  0.250000  0.008465  0.491535  1
  Pr  Pr33  1  0.896979  0.574082  0.417536  1
  Pr  Pr34  1  0.103021  0.425918  0.582464  1
  Pr  Pr35  1  0.125573  0.930497  0.813989  1
  Pr  Pr36  1  0.116508  0.186011  0.811583  1
  Pr  Pr37  1  0.383492  0.195076  0.069503  1
  Pr  Pr38  1  0.616508  0.804924  0.930497  1
  Pr  Pr39  1  0.116508  0.430497  0.304924  1
  Se  Se40  1  0.596001  0.616132  0.975339  1
  Se  Se41  1  0.403999  0.383868  0.024661  1
  Se  Se42  1  0.854785  0.104785  0.750000  1
  Se  Se43  1  0.645215  0.750000  0.395215  1
  Se  Se44  1  0.640793  0.116132  0.520131  1
  Se  Se45  1  0.108880  0.241893  0.210345  1
  Se  Se46  1  0.913824  0.478285  0.250023  1
  Se  Se47  1  0.586176  0.836199  0.564460  1
  Se  Se48  1  0.391120  0.601465  0.133014  1
  Se  Se49  1  0.468452  0.866986  0.758107  1
  Se  Se50  1  0.086176  0.064460  0.336199  1
  Se  Se51  1  0.096001  0.475339  0.116132  1
  Se  Se52  1  0.645215  0.395215  0.250000  1
  Se  Se53  1  0.086176  0.521715  0.749977  1
  Se  Se54  1  0.608880  0.710345  0.741893  1
  Se  Se55  1  0.413824  0.163801  0.435540  1
  Se  Se56  1  0.596001  0.479869  0.620661  1
  Se  Se57  1  0.531548  0.133014  0.241893  1
  Se  Se58  1  0.096001  0.120661  0.979869  1
  Se  Se59  1  0.891120  0.758107  0.789655  1
  Se  Se60  1  0.903999  0.524661  0.883868  1
  Se  Se61  1  0.359207  0.883868  0.479869  1
  Se  Se62  1  0.771739  0.250023  0.836199  1
  Se  Se63  1  0.468452  0.101465  0.710345  1
  Se  Se64  1  0.354785  0.604785  0.750000  1
  Se  Se65  1  0.859207  0.979869  0.383868  1
  Se  Se66  1  0.903999  0.879339  0.020131  1
  Se  Se67  1  0.413824  0.750023  0.978285  1
  Se  Se68  1  0.640793  0.024661  0.120661  1
  Se  Se69  1  0.271739  0.435540  0.521715  1
  Se  Se70  1  0.403999  0.520131  0.379339  1
  Se  Se71  1  0.531548  0.898535  0.289655  1
  Se  Se72  1  0.891120  0.633014  0.101465  1
  Se  Se73  1  0.586176  0.249977  0.021715  1
  Se  Se74  1  0.271739  0.336199  0.750023  1
  Se  Se75  1  0.608880  0.398535  0.866986  1
  Se  Se76  1  0.145215  0.750000  0.895215  1
  Se  Se77  1  0.968452  0.210345  0.601465  1
  Se  Se78  1  0.968452  0.258107  0.366986  1
  Se  Se79  1  0.228261  0.749977  0.163801  1
  Se  Se80  1  0.140793  0.620661  0.524661  1
  Se  Se81  1  0.031548  0.741893  0.633014  1
  Se  Se82  1  0.728261  0.564460  0.478285  1
  Se  Se83  1  0.354785  0.250000  0.604785  1
  Se  Se84  1  0.228261  0.978285  0.064460  1
  Se  Se85  1  0.031548  0.789655  0.398535  1
  Se  Se86  1  0.859207  0.379339  0.475339  1
  Se  Se87  1  0.854785  0.250000  0.104785  1
  Se  Se88  1  0.391120  0.289655  0.258107  1
  Se  Se89  1  0.359207  0.975339  0.879339  1
  Se  Se90  1  0.728261  0.663801  0.249977  1
  Se  Se91  1  0.145215  0.895215  0.250000  1
  Se  Se92  1  0.913824  0.935540  0.663801  1
  Se  Se93  1  0.771739  0.021715  0.935540  1
  Se  Se94  1  0.140793  0.020131  0.616132  1
  Se  Se95  1  0.108880  0.366986  0.898535  1
  O  O96  1  0.750000  0.875000  0.125000  1
  O  O97  1  0.250000  0.625000  0.375000  1
  O  O98  1  0.750000  0.375000  0.625000  1
  O  O99  1  0.250000  0.125000  0.875000  1
