# generated using pymatgen
data_NaAg(NO2)2
_symmetry_space_group_name_H-M   'P 1'
_cell_length_a   6.76678912
_cell_length_b   6.76678927
_cell_length_c   6.95018485
_cell_angle_alpha   111.15483283
_cell_angle_beta   111.15483322
_cell_angle_gamma   104.99051954
_symmetry_Int_Tables_number   1
_chemical_formula_structural   NaAg(NO2)2
_chemical_formula_sum   'Na2 Ag2 N4 O8'
_cell_volume   247.58498421
_cell_formula_units_Z   2
loop_
 _symmetry_equiv_pos_site_id
 _symmetry_equiv_pos_as_xyz
  1  'x, y, z'
loop_
 _atom_site_type_symbol
 _atom_site_label
 _atom_site_symmetry_multiplicity
 _atom_site_fract_x
 _atom_site_fract_y
 _atom_site_fract_z
 _atom_site_occupancy
  Na  Na0  1  0.250000  0.750000  0.500000  1
  Na  Na1  1  0.500000  0.500000  0.000000  1
  Ag  Ag2  1  0.750000  0.250000  0.500000  1
  Ag  Ag3  1  0.000000  0.000000  0.000000  1
  N  N4  1  0.019530  0.980471  0.500000  1
  N  N5  1  0.480471  0.519529  0.500000  1
  N  N6  1  0.798027  0.201973  1.000000  1
  N  N7  1  0.201973  0.798027  0.000000  1
  O  O8  1  0.598816  0.125372  0.822006  1
  O  O9  1  0.827417  0.915956  0.317150  1
  O  O10  1  0.303366  0.776810  0.177994  1
  O  O11  1  0.489733  0.401194  0.317150  1
  O  O12  1  0.598806  0.510267  0.682850  1
  O  O13  1  0.874628  0.401184  0.177994  1
  O  O14  1  0.223190  0.696634  0.822006  1
  O  O15  1  0.084044  0.172583  0.682850  1
