# generated using pymatgen
data_V2Cu2O7
_symmetry_space_group_name_H-M   'P 1'
_cell_length_a   5.70169309
_cell_length_b   5.70169387
_cell_length_c   10.18159575
_cell_angle_alpha   103.75116851
_cell_angle_beta   103.75117037
_cell_angle_gamma   90.18937865
_symmetry_Int_Tables_number   1
_chemical_formula_structural   V2Cu2O7
_chemical_formula_sum   'V4 Cu4 O14'
_cell_volume   311.66590275
_cell_formula_units_Z   2
loop_
 _symmetry_equiv_pos_site_id
 _symmetry_equiv_pos_as_xyz
  1  'x, y, z'
loop_
 _atom_site_type_symbol
 _atom_site_label
 _atom_site_symmetry_multiplicity
 _atom_site_fract_x
 _atom_site_fract_y
 _atom_site_fract_z
 _atom_site_occupancy
  Cu  Cu0  1  0.627792  0.762378  0.487706  1
  Cu  Cu1  1  0.237622  0.372208  0.012294  1
  Cu  Cu2  1  0.372208  0.237622  0.512294  1
  Cu  Cu3  1  0.762378  0.627792  0.987706  1
  V  V4  1  0.002576  0.559433  0.714669  1
  V  V5  1  0.440567  0.997424  0.785331  1
  V  V6  1  0.997424  0.440567  0.285331  1
  V  V7  1  0.559433  0.002576  0.214669  1
  O  O8  1  0.861070  0.138930  0.250000  1
  O  O9  1  0.138930  0.861070  0.750000  1
  O  O10  1  0.821567  0.640998  0.361630  1
  O  O11  1  0.359002  0.178433  0.138370  1
  O  O12  1  0.178433  0.359002  0.638370  1
  O  O13  1  0.640998  0.821567  0.861630  1
  O  O14  1  0.719439  0.541348  0.602758  1
  O  O15  1  0.458652  0.280561  0.897242  1
  O  O16  1  0.280561  0.458652  0.397242  1
  O  O17  1  0.541348  0.719439  0.102758  1
  O  O18  1  0.005449  0.505177  0.121772  1
  O  O19  1  0.494823  0.994551  0.378228  1
  O  O20  1  0.994551  0.494823  0.878228  1
  O  O21  1  0.505177  0.005449  0.621772  1
