# generated using pymatgen
data_C2S(NCl)3
_symmetry_space_group_name_H-M   'P 1'
_cell_length_a   7.76592145
_cell_length_b   8.32605583
_cell_length_c   12.57591862
_cell_angle_alpha   95.77091822
_cell_angle_beta   90.00000000
_cell_angle_gamma   90.00000000
_symmetry_Int_Tables_number   1
_chemical_formula_structural   C2S(NCl)3
_chemical_formula_sum   'C8 S4 N12 Cl12'
_cell_volume   809.03139533
_cell_formula_units_Z   4
loop_
 _symmetry_equiv_pos_site_id
 _symmetry_equiv_pos_as_xyz
  1  'x, y, z'
loop_
 _atom_site_type_symbol
 _atom_site_label
 _atom_site_symmetry_multiplicity
 _atom_site_fract_x
 _atom_site_fract_y
 _atom_site_fract_z
 _atom_site_occupancy
  C  C0  1  0.974659  0.648749  0.159997  1
  C  C1  1  0.230653  0.601529  0.239448  1
  C  C2  1  0.525341  0.148749  0.159997  1
  C  C3  1  0.269347  0.101529  0.239448  1
  C  C4  1  0.769347  0.398471  0.760552  1
  C  C5  1  0.025341  0.351251  0.840003  1
  C  C6  1  0.474659  0.851251  0.840003  1
  C  C7  1  0.730653  0.898471  0.760552  1
  S  S8  1  0.962878  0.541661  0.339521  1
  S  S9  1  0.537122  0.041661  0.339521  1
  S  S10  1  0.462878  0.958339  0.660479  1
  S  S11  1  0.037122  0.458339  0.660479  1
  N  N12  1  0.627768  0.086390  0.229990  1
  N  N13  1  0.169434  0.531448  0.321966  1
  N  N14  1  0.645927  0.833378  0.838296  1
  N  N15  1  0.354073  0.166622  0.161704  1
  N  N16  1  0.669434  0.968552  0.678034  1
  N  N17  1  0.830566  0.468552  0.678034  1
  N  N18  1  0.854073  0.333378  0.838296  1
  N  N19  1  0.330566  0.031448  0.321966  1
  N  N20  1  0.145927  0.666622  0.161704  1
  N  N21  1  0.872232  0.586390  0.229990  1
  N  N22  1  0.127768  0.413610  0.770010  1
  N  N23  1  0.372232  0.913610  0.770010  1
  Cl  Cl24  1  0.548325  0.397589  0.771150  1
  Cl  Cl25  1  0.931463  0.763027  0.445113  1
  Cl  Cl26  1  0.951675  0.897589  0.771150  1
  Cl  Cl27  1  0.451675  0.602411  0.228850  1
  Cl  Cl28  1  0.371952  0.790276  0.950191  1
  Cl  Cl29  1  0.068537  0.236973  0.554887  1
  Cl  Cl30  1  0.568537  0.263027  0.445113  1
  Cl  Cl31  1  0.628048  0.209724  0.049809  1
  Cl  Cl32  1  0.871952  0.709724  0.049809  1
  Cl  Cl33  1  0.128048  0.290276  0.950191  1
  Cl  Cl34  1  0.048325  0.102411  0.228850  1
  Cl  Cl35  1  0.431463  0.736973  0.554887  1
