# generated using pymatgen
data_Li2Ca3Be3Si3(O6F)2
_symmetry_space_group_name_H-M   'P 1'
_cell_length_a   11.25794939
_cell_length_b   11.25794972
_cell_length_c   11.25794960
_cell_angle_alpha   109.47122044
_cell_angle_beta   109.47122103
_cell_angle_gamma   109.47121968
_symmetry_Int_Tables_number   1
_chemical_formula_structural   Li2Ca3Be3Si3(O6F)2
_chemical_formula_sum   'Li8 Ca12 Be12 Si12 O48 F8'
_cell_volume   1098.38858270
_cell_formula_units_Z   4
loop_
 _symmetry_equiv_pos_site_id
 _symmetry_equiv_pos_as_xyz
  1  'x, y, z'
loop_
 _atom_site_type_symbol
 _atom_site_label
 _atom_site_symmetry_multiplicity
 _atom_site_fract_x
 _atom_site_fract_y
 _atom_site_fract_z
 _atom_site_occupancy
  Li  Li0  1  0.500000  0.000000  0.039300  1
  Li  Li1  1  0.039300  0.500000  0.000000  1
  Li  Li2  1  1.000000  0.039300  0.500000  1
  Li  Li3  1  1.000000  0.542718  0.500000  1
  Li  Li4  1  0.542718  0.500000  0.000000  1
  Li  Li5  1  0.957282  0.957282  0.957282  1
  Li  Li6  1  0.460700  0.460700  0.460700  1
  Li  Li7  1  0.500000  0.000000  0.542718  1
  Ca  Ca8  1  0.750000  0.163969  0.413969  1
  Ca  Ca9  1  0.594112  0.844112  0.750000  1
  Ca  Ca10  1  0.250000  0.905888  0.655888  1
  Ca  Ca11  1  0.750000  0.594112  0.844112  1
  Ca  Ca12  1  0.163969  0.413969  0.750000  1
  Ca  Ca13  1  0.250000  0.336031  0.086031  1
  Ca  Ca14  1  0.844112  0.750000  0.594112  1
  Ca  Ca15  1  0.655888  0.250000  0.905888  1
  Ca  Ca16  1  0.086031  0.250000  0.336031  1
  Ca  Ca17  1  0.413969  0.750000  0.163969  1
  Ca  Ca18  1  0.905888  0.655888  0.250000  1
  Ca  Ca19  1  0.336031  0.086031  0.250000  1
  Be  Be20  1  0.424410  0.464739  0.701084  1
  Be  Be21  1  0.723326  0.798916  0.263655  1
  Be  Be22  1  0.776674  0.040329  0.075590  1
  Be  Be23  1  0.040329  0.075590  0.776674  1
  Be  Be24  1  0.701084  0.424410  0.464739  1
  Be  Be25  1  0.035261  0.459671  0.236345  1
  Be  Be26  1  0.464739  0.701084  0.424410  1
  Be  Be27  1  0.236345  0.035261  0.459671  1
  Be  Be28  1  0.798916  0.263655  0.723326  1
  Be  Be29  1  0.075590  0.776674  0.040329  1
  Be  Be30  1  0.263655  0.723326  0.798916  1
  Be  Be31  1  0.459671  0.236345  0.035261  1
  Si  Si32  1  0.735365  0.956020  0.531580  1
  Si  Si33  1  0.968420  0.924441  0.203785  1
  Si  Si34  1  0.203785  0.968420  0.924441  1
  Si  Si35  1  0.279344  0.575559  0.543980  1
  Si  Si36  1  0.575559  0.543980  0.279344  1
  Si  Si37  1  0.764635  0.296215  0.220656  1
  Si  Si38  1  0.956020  0.531580  0.735365  1
  Si  Si39  1  0.531580  0.735365  0.956020  1
  Si  Si40  1  0.296215  0.220656  0.764635  1
  Si  Si41  1  0.924441  0.203785  0.968420  1
  Si  Si42  1  0.220656  0.764635  0.296215  1
  Si  Si43  1  0.543980  0.279344  0.575559  1
  O  O44  1  0.548921  0.638660  0.823969  1
  O  O45  1  0.724952  0.676031  0.314690  1
  O  O46  1  0.910039  0.360099  0.685438  1
  O  O47  1  0.676031  0.314690  0.724952  1
  O  O48  1  0.951079  0.775048  0.089739  1
  O  O49  1  0.185310  0.861340  0.410261  1
  O  O50  1  0.685438  0.910039  0.360099  1
  O  O51  1  0.612983  0.903951  0.992211  1
  O  O52  1  0.903951  0.992211  0.612983  1
  O  O53  1  0.139901  0.049940  0.325339  1
  O  O54  1  0.789920  0.380549  0.384773  1
  O  O55  1  0.814562  0.174661  0.224601  1
  O  O56  1  0.823969  0.548921  0.638660  1
  O  O57  1  0.589961  0.275399  0.450060  1
  O  O58  1  0.360099  0.685438  0.910039  1
  O  O59  1  0.405147  0.115227  0.495777  1
  O  O60  1  0.115227  0.495777  0.405147  1
  O  O61  1  0.992211  0.612983  0.903951  1
  O  O62  1  0.209031  0.088259  0.596049  1
  O  O63  1  0.049940  0.325339  0.139901  1
  O  O64  1  0.119451  0.909371  0.004223  1
  O  O65  1  0.089739  0.951079  0.775048  1
  O  O66  1  0.507789  0.411741  0.620772  1
  O  O67  1  0.384773  0.789920  0.380549  1
  O  O68  1  0.380549  0.384773  0.789920  1
  O  O69  1  0.710080  0.094853  0.590629  1
  O  O70  1  0.596049  0.209031  0.088259  1
  O  O71  1  0.861340  0.410261  0.185310  1
  O  O72  1  0.275399  0.450060  0.589961  1
  O  O73  1  0.590629  0.710080  0.094853  1
  O  O74  1  0.410261  0.185310  0.861340  1
  O  O75  1  0.411741  0.620772  0.507789  1
  O  O76  1  0.887017  0.879228  0.290969  1
  O  O77  1  0.088259  0.596049  0.209031  1
  O  O78  1  0.775048  0.089739  0.951079  1
  O  O79  1  0.495777  0.405147  0.115227  1
  O  O80  1  0.620772  0.507789  0.411741  1
  O  O81  1  0.004223  0.119451  0.909371  1
  O  O82  1  0.174661  0.224601  0.814562  1
  O  O83  1  0.450060  0.589961  0.275399  1
  O  O84  1  0.879228  0.290969  0.887017  1
  O  O85  1  0.325339  0.139901  0.049940  1
  O  O86  1  0.094853  0.590629  0.710080  1
  O  O87  1  0.314690  0.724952  0.676031  1
  O  O88  1  0.638660  0.823969  0.548921  1
  O  O89  1  0.224601  0.814562  0.174661  1
  O  O90  1  0.909371  0.004223  0.119451  1
  O  O91  1  0.290969  0.887017  0.879228  1
  F  F92  1  0.500000  0.000000  0.210351  1
  F  F93  1  0.000000  0.710542  0.500000  1
  F  F94  1  0.710542  0.500000  1.000000  1
  F  F95  1  0.500000  0.000000  0.710542  1
  F  F96  1  0.000000  0.210351  0.500000  1
  F  F97  1  0.210351  0.500000  1.000000  1
  F  F98  1  0.289649  0.289649  0.289649  1
  F  F99  1  0.789458  0.789458  0.789458  1
