# generated using pymatgen
data_Pu
_symmetry_space_group_name_H-M   'P 1'
_cell_length_a   7.80632258
_cell_length_b   7.78843439
_cell_length_c   7.78843426
_cell_angle_alpha   83.14487713
_cell_angle_beta   63.68820057
_cell_angle_gamma   63.68820198
_symmetry_Int_Tables_number   1
_chemical_formula_structural   Pu
_chemical_formula_sum   Pu17
_cell_volume   378.73589820
_cell_formula_units_Z   17
loop_
 _symmetry_equiv_pos_site_id
 _symmetry_equiv_pos_as_xyz
  1  'x, y, z'
loop_
 _atom_site_type_symbol
 _atom_site_label
 _atom_site_symmetry_multiplicity
 _atom_site_fract_x
 _atom_site_fract_y
 _atom_site_fract_z
 _atom_site_occupancy
  Pu  Pu0  1  0.000000  0.000000  0.000000  1
  Pu  Pu1  1  0.500000  0.268636  0.731364  1
  Pu  Pu2  1  0.500000  0.731364  0.268636  1
  Pu  Pu3  1  0.241664  0.131985  0.131985  1
  Pu  Pu4  1  0.758336  0.868015  0.868015  1
  Pu  Pu5  1  0.757138  0.317484  0.317484  1
  Pu  Pu6  1  0.242862  0.682516  0.682516  1
  Pu  Pu7  1  0.270836  0.406355  0.406355  1
  Pu  Pu8  1  0.729164  0.593645  0.593645  1
  Pu  Pu9  1  0.974526  0.854850  0.424571  1
  Pu  Pu10  1  0.025474  0.575429  0.145150  1
  Pu  Pu11  1  0.025474  0.145150  0.575429  1
  Pu  Pu12  1  0.974526  0.424571  0.854850  1
  Pu  Pu13  1  0.583310  0.009061  0.309716  1
  Pu  Pu14  1  0.416690  0.690284  0.990939  1
  Pu  Pu15  1  0.416690  0.990939  0.690284  1
  Pu  Pu16  1  0.583310  0.309716  0.009061  1
