# generated using pymatgen
data_H12W3C4NCl9
_symmetry_space_group_name_H-M   'P 1'
_cell_length_a   11.11935272
_cell_length_b   11.11935255
_cell_length_c   8.77731433
_cell_angle_alpha   90.00000000
_cell_angle_beta   90.00000000
_cell_angle_gamma   120.00000051
_symmetry_Int_Tables_number   1
_chemical_formula_structural   H12W3C4NCl9
_chemical_formula_sum   'H24 W6 C8 N2 Cl18'
_cell_volume   939.83429327
_cell_formula_units_Z   2
loop_
 _symmetry_equiv_pos_site_id
 _symmetry_equiv_pos_as_xyz
  1  'x, y, z'
loop_
 _atom_site_type_symbol
 _atom_site_label
 _atom_site_symmetry_multiplicity
 _atom_site_fract_x
 _atom_site_fract_y
 _atom_site_fract_z
 _atom_site_occupancy
  H  H0  1  0.866466  0.352377  0.679091  1
  H  H1  1  0.866466  0.514089  0.679091  1
  H  H2  1  0.720494  0.279506  0.906795  1
  H  H3  1  0.405765  0.811531  0.487520  1
  H  H4  1  0.647623  0.514089  0.679091  1
  H  H5  1  0.405765  0.594235  0.487520  1
  H  H6  1  0.720494  0.440988  0.906795  1
  H  H7  1  0.594235  0.405765  0.512480  1
  H  H8  1  0.352377  0.866466  0.320909  1
  H  H9  1  0.514089  0.866466  0.320909  1
  H  H10  1  0.559012  0.279506  0.906795  1
  H  H11  1  0.133534  0.485911  0.320909  1
  H  H12  1  0.485911  0.352377  0.679091  1
  H  H13  1  0.188469  0.594235  0.487520  1
  H  H14  1  0.279506  0.720494  0.093205  1
  H  H15  1  0.133534  0.647623  0.320909  1
  H  H16  1  0.440988  0.720494  0.093205  1
  H  H17  1  0.594235  0.188469  0.512480  1
  H  H18  1  0.352377  0.485911  0.320909  1
  H  H19  1  0.811531  0.405765  0.512480  1
  H  H20  1  0.647623  0.133534  0.679091  1
  H  H21  1  0.514089  0.647623  0.320909  1
  H  H22  1  0.279506  0.559012  0.093205  1
  H  H23  1  0.485911  0.133534  0.679091  1
  W  W24  1  0.911370  0.088630  0.131093  1
  W  W25  1  0.911370  0.822741  0.131093  1
  W  W26  1  0.177259  0.088630  0.131093  1
  W  W27  1  0.088630  0.177259  0.868907  1
  W  W28  1  0.088630  0.911370  0.868907  1
  W  W29  1  0.822741  0.911370  0.868907  1
  C  C30  1  0.406908  0.813817  0.362699  1
  C  C31  1  0.406908  0.593092  0.362699  1
  C  C32  1  0.333333  0.666667  0.133498  1
  C  C33  1  0.813817  0.406908  0.637301  1
  C  C34  1  0.186183  0.593092  0.362699  1
  C  C35  1  0.593092  0.186183  0.637301  1
  C  C36  1  0.666667  0.333333  0.866502  1
  C  C37  1  0.593092  0.406908  0.637301  1
  N  N38  1  0.666667  0.333333  0.694991  1
  N  N39  1  0.333333  0.666667  0.305009  1
  Cl  Cl40  1  0.615693  0.807847  0.705515  1
  Cl  Cl41  1  0.690868  0.000000  0.000000  1
  Cl  Cl42  1  0.192153  0.384307  0.705515  1
  Cl  Cl43  1  0.000000  0.690868  0.000000  1
  Cl  Cl44  1  0.798372  0.899186  0.308232  1
  Cl  Cl45  1  0.807847  0.615693  0.294485  1
  Cl  Cl46  1  0.807847  0.192153  0.294485  1
  Cl  Cl47  1  0.384307  0.192153  0.294485  1
  Cl  Cl48  1  0.192153  0.807847  0.705515  1
  Cl  Cl49  1  0.899186  0.798372  0.691768  1
  Cl  Cl50  1  0.100814  0.899186  0.308232  1
  Cl  Cl51  1  1.000000  0.309132  0.000000  1
  Cl  Cl52  1  0.690868  0.690868  0.000000  1
  Cl  Cl53  1  0.201628  0.100814  0.691768  1
  Cl  Cl54  1  0.100814  0.201628  0.308232  1
  Cl  Cl55  1  0.309132  0.000000  0.000000  1
  Cl  Cl56  1  0.309132  0.309132  0.000000  1
  Cl  Cl57  1  0.899186  0.100814  0.691768  1
