# generated using pymatgen
data_EuCo8P5
_symmetry_space_group_name_H-M   'P 1'
_cell_length_a   3.53746956
_cell_length_b   9.23875405
_cell_length_c   10.50026043
_cell_angle_alpha   90.00000000
_cell_angle_beta   90.00000000
_cell_angle_gamma   90.00000000
_symmetry_Int_Tables_number   1
_chemical_formula_structural   EuCo8P5
_chemical_formula_sum   'Eu2 Co16 P10'
_cell_volume   343.16752918
_cell_formula_units_Z   2
loop_
 _symmetry_equiv_pos_site_id
 _symmetry_equiv_pos_as_xyz
  1  'x, y, z'
loop_
 _atom_site_type_symbol
 _atom_site_label
 _atom_site_symmetry_multiplicity
 _atom_site_fract_x
 _atom_site_fract_y
 _atom_site_fract_z
 _atom_site_occupancy
  Eu  Eu0  1  0.750000  0.822049  0.750000  1
  Eu  Eu1  1  0.250000  0.177951  0.250000  1
  Co  Co2  1  0.250000  0.479605  0.417670  1
  Co  Co3  1  0.250000  0.544344  0.750000  1
  Co  Co4  1  0.750000  0.110705  0.505470  1
  Co  Co5  1  0.750000  0.520395  0.582330  1
  Co  Co6  1  0.750000  0.149296  0.750000  1
  Co  Co7  1  0.750000  0.697249  0.390281  1
  Co  Co8  1  0.750000  0.455656  0.250000  1
  Co  Co9  1  0.250000  0.302751  0.890281  1
  Co  Co10  1  0.250000  0.850704  0.250000  1
  Co  Co11  1  0.250000  0.302751  0.609719  1
  Co  Co12  1  0.750000  0.520395  0.917670  1
  Co  Co13  1  0.750000  0.697249  0.109719  1
  Co  Co14  1  0.250000  0.889295  0.494530  1
  Co  Co15  1  0.750000  0.110705  0.994530  1
  Co  Co16  1  0.250000  0.479605  0.082330  1
  Co  Co17  1  0.250000  0.889295  0.005470  1
  P  P18  1  0.250000  0.661307  0.941020  1
  P  P19  1  0.250000  0.066218  0.629741  1
  P  P20  1  0.250000  0.614646  0.250000  1
  P  P21  1  0.750000  0.338693  0.441020  1
  P  P22  1  0.750000  0.933782  0.370260  1
  P  P23  1  0.750000  0.338693  0.058980  1
  P  P24  1  0.250000  0.066218  0.870259  1
  P  P25  1  0.250000  0.661307  0.558980  1
  P  P26  1  0.750000  0.385354  0.750000  1
  P  P27  1  0.750000  0.933782  0.129741  1
