# generated using pymatgen
data_Eu6Mo10O39
_symmetry_space_group_name_H-M   'P 1'
_cell_length_a   11.98455633
_cell_length_b   11.98455554
_cell_length_c   14.26779649
_cell_angle_alpha   96.27433936
_cell_angle_beta   96.27433910
_cell_angle_gamma   116.26201961
_symmetry_Int_Tables_number   1
_chemical_formula_structural   Eu6Mo10O39
_chemical_formula_sum   'Eu12 Mo20 O78'
_cell_volume   1797.94892649
_cell_formula_units_Z   2
loop_
 _symmetry_equiv_pos_site_id
 _symmetry_equiv_pos_as_xyz
  1  'x, y, z'
loop_
 _atom_site_type_symbol
 _atom_site_label
 _atom_site_symmetry_multiplicity
 _atom_site_fract_x
 _atom_site_fract_y
 _atom_site_fract_z
 _atom_site_occupancy
  Eu  Eu0  1  0.711115  0.030496  0.357465  1
  Eu  Eu1  1  0.059536  0.758956  0.412612  1
  Eu  Eu2  1  0.940464  0.241044  0.587388  1
  Eu  Eu3  1  0.478790  0.361185  0.415300  1
  Eu  Eu4  1  0.638815  0.521210  0.084700  1
  Eu  Eu5  1  0.521210  0.638815  0.584700  1
  Eu  Eu6  1  0.030496  0.711115  0.857465  1
  Eu  Eu7  1  0.241044  0.940464  0.087388  1
  Eu  Eu8  1  0.758956  0.059536  0.912612  1
  Eu  Eu9  1  0.969504  0.288885  0.142535  1
  Eu  Eu10  1  0.361185  0.478790  0.915300  1
  Eu  Eu11  1  0.288885  0.969504  0.642535  1
  Mo  Mo12  1  0.741190  0.432955  0.661776  1
  Mo  Mo13  1  0.893225  0.937289  0.136176  1
  Mo  Mo14  1  0.106775  0.062711  0.863824  1
  Mo  Mo15  1  0.997017  0.619233  0.118010  1
  Mo  Mo16  1  0.687316  0.684164  0.360871  1
  Mo  Mo17  1  0.432955  0.741190  0.161776  1
  Mo  Mo18  1  0.383356  0.819466  0.861594  1
  Mo  Mo19  1  0.616644  0.180534  0.138406  1
  Mo  Mo20  1  0.002983  0.380767  0.881990  1
  Mo  Mo21  1  0.684164  0.687316  0.860871  1
  Mo  Mo22  1  0.312684  0.315836  0.639129  1
  Mo  Mo23  1  0.315836  0.312684  0.139129  1
  Mo  Mo24  1  0.258810  0.567045  0.338224  1
  Mo  Mo25  1  0.937289  0.893225  0.636176  1
  Mo  Mo26  1  0.619233  0.997017  0.618010  1
  Mo  Mo27  1  0.819466  0.383356  0.361594  1
  Mo  Mo28  1  0.380767  0.002983  0.381990  1
  Mo  Mo29  1  0.062711  0.106775  0.363824  1
  Mo  Mo30  1  0.567045  0.258810  0.838224  1
  Mo  Mo31  1  0.180534  0.616644  0.638406  1
  O  O32  1  0.023739  0.704063  0.235364  1
  O  O33  1  0.872127  0.582336  0.706207  1
  O  O34  1  0.630552  0.616917  0.236159  1
  O  O35  1  0.706968  0.844160  0.888228  1
  O  O36  1  0.295937  0.976261  0.264636  1
  O  O37  1  0.416110  0.416812  0.064282  1
  O  O38  1  0.058851  0.465072  0.581953  1
  O  O39  1  0.155840  0.293032  0.611772  1
  O  O40  1  0.265559  0.826958  0.928865  1
  O  O41  1  0.327137  0.608018  0.642922  1
  O  O42  1  0.961564  0.127688  0.441947  1
  O  O43  1  0.023473  0.145274  0.241051  1
  O  O44  1  0.726706  0.067160  0.535320  1
  O  O45  1  0.643074  0.145348  0.257508  1
  O  O46  1  0.688267  0.833123  0.384989  1
  O  O47  1  0.734441  0.173042  0.071135  1
  O  O48  1  0.558994  0.344409  0.943731  1
  O  O49  1  0.494118  0.943564  0.378806  1
  O  O50  1  0.220899  0.222156  0.905330  1
  O  O51  1  0.222156  0.220899  0.405330  1
  O  O52  1  0.441006  0.655591  0.056269  1
  O  O53  1  0.173042  0.734441  0.571135  1
  O  O54  1  0.293032  0.155840  0.111772  1
  O  O55  1  0.616917  0.630552  0.736159  1
  O  O56  1  0.505882  0.056436  0.621194  1
  O  O57  1  0.932840  0.273294  0.964680  1
  O  O58  1  0.943564  0.494118  0.878806  1
  O  O59  1  0.417664  0.127873  0.793793  1
  O  O60  1  0.391982  0.672863  0.857078  1
  O  O61  1  0.369448  0.383083  0.763841  1
  O  O62  1  0.127688  0.961564  0.941947  1
  O  O63  1  0.833123  0.688267  0.884989  1
  O  O64  1  0.372301  0.627699  0.250000  1
  O  O65  1  0.830775  0.532616  0.075587  1
  O  O66  1  0.938818  0.041407  0.635655  1
  O  O67  1  0.532616  0.830775  0.575587  1
  O  O68  1  0.854652  0.356926  0.242492  1
  O  O69  1  0.166877  0.311733  0.115011  1
  O  O70  1  0.582336  0.872127  0.206207  1
  O  O71  1  0.311733  0.166877  0.615011  1
  O  O72  1  0.826958  0.265559  0.428865  1
  O  O73  1  0.777844  0.779101  0.594670  1
  O  O74  1  0.872313  0.038436  0.058053  1
  O  O75  1  0.976527  0.854726  0.758949  1
  O  O76  1  0.383083  0.369448  0.263841  1
  O  O77  1  0.779101  0.777844  0.094670  1
  O  O78  1  0.145348  0.643074  0.757508  1
  O  O79  1  0.608018  0.327137  0.142922  1
  O  O80  1  0.056436  0.505882  0.121194  1
  O  O81  1  0.655591  0.441006  0.556269  1
  O  O82  1  0.203520  0.678249  0.366952  1
  O  O83  1  0.583188  0.583890  0.435718  1
  O  O84  1  0.672863  0.391982  0.357078  1
  O  O85  1  0.976261  0.295937  0.764636  1
  O  O86  1  0.038436  0.872313  0.558053  1
  O  O87  1  0.061182  0.958593  0.364345  1
  O  O88  1  0.704063  0.023739  0.735364  1
  O  O89  1  0.344409  0.558994  0.443731  1
  O  O90  1  0.627699  0.372301  0.750000  1
  O  O91  1  0.067160  0.726706  0.035320  1
  O  O92  1  0.796480  0.321751  0.633048  1
  O  O93  1  0.534928  0.941149  0.918047  1
  O  O94  1  0.465072  0.058851  0.081953  1
  O  O95  1  0.583890  0.583188  0.935718  1
  O  O96  1  0.958593  0.061182  0.864345  1
  O  O97  1  0.678249  0.203520  0.866952  1
  O  O98  1  0.356926  0.854652  0.742492  1
  O  O99  1  0.127873  0.417664  0.293793  1
  O  O100  1  0.467384  0.169225  0.424413  1
  O  O101  1  0.416812  0.416110  0.564282  1
  O  O102  1  0.854726  0.976527  0.258949  1
  O  O103  1  0.844160  0.706968  0.388228  1
  O  O104  1  0.145274  0.023473  0.741051  1
  O  O105  1  0.941149  0.534928  0.418047  1
  O  O106  1  0.273294  0.932840  0.464680  1
  O  O107  1  0.169225  0.467384  0.924413  1
  O  O108  1  0.041407  0.938818  0.135655  1
  O  O109  1  0.321751  0.796480  0.133048  1
