# generated using pymatgen
data_GdOs2
_symmetry_space_group_name_H-M   'P 1'
_cell_length_a   5.33413595
_cell_length_b   5.33413584
_cell_length_c   8.95468738
_cell_angle_alpha   90.00000000
_cell_angle_beta   90.00000000
_cell_angle_gamma   120.00000060
_symmetry_Int_Tables_number   1
_chemical_formula_structural   GdOs2
_chemical_formula_sum   'Gd4 Os8'
_cell_volume   220.65268150
_cell_formula_units_Z   4
loop_
 _symmetry_equiv_pos_site_id
 _symmetry_equiv_pos_as_xyz
  1  'x, y, z'
loop_
 _atom_site_type_symbol
 _atom_site_label
 _atom_site_symmetry_multiplicity
 _atom_site_fract_x
 _atom_site_fract_y
 _atom_site_fract_z
 _atom_site_occupancy
  Gd  Gd0  1  0.333333  0.666667  0.065379  1
  Gd  Gd1  1  0.666667  0.333333  0.565379  1
  Gd  Gd2  1  0.666667  0.333333  0.934621  1
  Gd  Gd3  1  0.333333  0.666667  0.434621  1
  Os  Os4  1  0.000000  0.000000  0.000000  1
  Os  Os5  1  0.000000  0.000000  0.500000  1
  Os  Os6  1  0.829134  0.658268  0.250000  1
  Os  Os7  1  0.170866  0.829134  0.750000  1
  Os  Os8  1  0.658268  0.829134  0.750000  1
  Os  Os9  1  0.341732  0.170866  0.250000  1
  Os  Os10  1  0.829134  0.170866  0.250000  1
  Os  Os11  1  0.170866  0.341732  0.750000  1
