# generated using pymatgen
data_TiHg6P4Cl7
_symmetry_space_group_name_H-M   'P 1'
_cell_length_a   12.04679377
_cell_length_b   12.04679377
_cell_length_c   12.04679377
_cell_angle_alpha   90.00000000
_cell_angle_beta   90.00000000
_cell_angle_gamma   90.00000000
_symmetry_Int_Tables_number   1
_chemical_formula_structural   TiHg6P4Cl7
_chemical_formula_sum   'Ti4 Hg24 P16 Cl28'
_cell_volume   1748.29383875
_cell_formula_units_Z   4
loop_
 _symmetry_equiv_pos_site_id
 _symmetry_equiv_pos_as_xyz
  1  'x, y, z'
loop_
 _atom_site_type_symbol
 _atom_site_label
 _atom_site_symmetry_multiplicity
 _atom_site_fract_x
 _atom_site_fract_y
 _atom_site_fract_z
 _atom_site_occupancy
  Ti  Ti0  1  0.000000  0.000000  0.500000  1
  Ti  Ti1  1  0.500000  0.000000  0.000000  1
  Ti  Ti2  1  0.500000  0.500000  0.500000  1
  Ti  Ti3  1  0.000000  0.500000  0.000000  1
  Hg  Hg4  1  0.040049  0.693231  0.300854  1
  Hg  Hg5  1  0.193231  0.300854  0.459951  1
  Hg  Hg6  1  0.806769  0.699146  0.540049  1
  Hg  Hg7  1  0.459951  0.193231  0.300854  1
  Hg  Hg8  1  0.040049  0.806769  0.800854  1
  Hg  Hg9  1  0.306769  0.699146  0.959951  1
  Hg  Hg10  1  0.693231  0.300854  0.040049  1
  Hg  Hg11  1  0.959951  0.193231  0.199146  1
  Hg  Hg12  1  0.800854  0.459951  0.306769  1
  Hg  Hg13  1  0.959951  0.306769  0.699146  1
  Hg  Hg14  1  0.540049  0.693231  0.199146  1
  Hg  Hg15  1  0.540049  0.806769  0.699146  1
  Hg  Hg16  1  0.806769  0.800854  0.040049  1
  Hg  Hg17  1  0.699146  0.540049  0.806769  1
  Hg  Hg18  1  0.693231  0.199146  0.540049  1
  Hg  Hg19  1  0.300854  0.459951  0.193231  1
  Hg  Hg20  1  0.193231  0.199146  0.959951  1
  Hg  Hg21  1  0.300854  0.040049  0.693231  1
  Hg  Hg22  1  0.800854  0.040049  0.806769  1
  Hg  Hg23  1  0.306769  0.800854  0.459951  1
  Hg  Hg24  1  0.699146  0.959951  0.306769  1
  Hg  Hg25  1  0.199146  0.540049  0.693231  1
  Hg  Hg26  1  0.199146  0.959951  0.193231  1
  Hg  Hg27  1  0.459951  0.306769  0.800854  1
  P  P28  1  0.231350  0.768650  0.268650  1
  P  P29  1  0.661419  0.161419  0.338581  1
  P  P30  1  0.338581  0.661419  0.161419  1
  P  P31  1  0.731350  0.731350  0.731350  1
  P  P32  1  0.231350  0.731350  0.768650  1
  P  P33  1  0.338581  0.838581  0.661419  1
  P  P34  1  0.768650  0.231350  0.731350  1
  P  P35  1  0.838581  0.661419  0.338581  1
  P  P36  1  0.268650  0.268650  0.268650  1
  P  P37  1  0.731350  0.768650  0.231350  1
  P  P38  1  0.661419  0.338581  0.838581  1
  P  P39  1  0.161419  0.338581  0.661419  1
  P  P40  1  0.768650  0.268650  0.231350  1
  P  P41  1  0.838581  0.838581  0.838581  1
  P  P42  1  0.268650  0.231350  0.768650  1
  P  P43  1  0.161419  0.161419  0.161419  1
  Cl  Cl44  1  0.543973  0.691358  0.461798  1
  Cl  Cl45  1  0.308642  0.961798  0.956027  1
  Cl  Cl46  1  0.456027  0.308642  0.538202  1
  Cl  Cl47  1  0.500000  0.000000  0.500000  1
  Cl  Cl48  1  0.538202  0.456027  0.308642  1
  Cl  Cl49  1  0.691358  0.461798  0.543973  1
  Cl  Cl50  1  0.808642  0.961798  0.543973  1
  Cl  Cl51  1  0.956027  0.191358  0.461798  1
  Cl  Cl52  1  0.808642  0.538202  0.043973  1
  Cl  Cl53  1  0.000000  0.000000  0.000000  1
  Cl  Cl54  1  0.456027  0.191358  0.038202  1
  Cl  Cl55  1  0.543973  0.808642  0.961798  1
  Cl  Cl56  1  0.461798  0.956027  0.191358  1
  Cl  Cl57  1  0.961798  0.543973  0.808642  1
  Cl  Cl58  1  0.043973  0.691358  0.038202  1
  Cl  Cl59  1  0.038202  0.456027  0.191358  1
  Cl  Cl60  1  0.538202  0.043973  0.808642  1
  Cl  Cl61  1  0.000000  0.500000  0.500000  1
  Cl  Cl62  1  0.956027  0.308642  0.961798  1
  Cl  Cl63  1  0.308642  0.538202  0.456027  1
  Cl  Cl64  1  0.961798  0.956027  0.308642  1
  Cl  Cl65  1  0.461798  0.543973  0.691358  1
  Cl  Cl66  1  0.500000  0.500000  0.000000  1
  Cl  Cl67  1  0.038202  0.043973  0.691358  1
  Cl  Cl68  1  0.191358  0.461798  0.956027  1
  Cl  Cl69  1  0.043973  0.808642  0.538202  1
  Cl  Cl70  1  0.191358  0.038202  0.456027  1
  Cl  Cl71  1  0.691358  0.038202  0.043973  1
