# generated using pymatgen
data_FeH12C2N2F5
_symmetry_space_group_name_H-M   'P 1'
_cell_length_a   7.99446376
_cell_length_b   9.72084340
_cell_length_c   10.16176159
_cell_angle_alpha   90.00000000
_cell_angle_beta   90.00000000
_cell_angle_gamma   90.00000000
_symmetry_Int_Tables_number   1
_chemical_formula_structural   FeH12C2N2F5
_chemical_formula_sum   'Fe4 H48 C8 N8 F20'
_cell_volume   789.70026994
_cell_formula_units_Z   4
loop_
 _symmetry_equiv_pos_site_id
 _symmetry_equiv_pos_as_xyz
  1  'x, y, z'
loop_
 _atom_site_type_symbol
 _atom_site_label
 _atom_site_symmetry_multiplicity
 _atom_site_fract_x
 _atom_site_fract_y
 _atom_site_fract_z
 _atom_site_occupancy
  Fe  Fe0  1  0.000000  0.500000  0.500000  1
  Fe  Fe1  1  0.500000  0.500000  0.500000  1
  Fe  Fe2  1  0.500000  0.000000  0.000000  1
  Fe  Fe3  1  0.000000  0.000000  0.000000  1
  H  H4  1  0.250000  0.497710  0.850733  1
  H  H5  1  0.861632  0.422482  0.835428  1
  H  H6  1  0.856597  0.178567  0.782600  1
  H  H7  1  0.861577  0.132364  0.441122  1
  H  H8  1  0.750000  0.502290  0.149267  1
  H  H9  1  0.138423  0.867636  0.558878  1
  H  H10  1  0.361632  0.577518  0.164572  1
  H  H11  1  0.856597  0.678567  0.717400  1
  H  H12  1  0.250000  0.676681  0.043381  1
  H  H13  1  0.250000  0.176681  0.456619  1
  H  H14  1  0.638423  0.132364  0.441122  1
  H  H15  1  0.361577  0.367636  0.941122  1
  H  H16  1  0.354791  0.815546  0.796250  1
  H  H17  1  0.750000  0.771931  0.830337  1
  H  H18  1  0.138368  0.077518  0.335428  1
  H  H19  1  0.645209  0.684454  0.296250  1
  H  H20  1  0.750000  0.323319  0.956619  1
  H  H21  1  0.361632  0.077518  0.335428  1
  H  H22  1  0.250000  0.728069  0.330337  1
  H  H23  1  0.250000  0.198785  0.792957  1
  H  H24  1  0.143403  0.821433  0.217400  1
  H  H25  1  0.361577  0.867636  0.558878  1
  H  H26  1  0.354791  0.315546  0.703750  1
  H  H27  1  0.861632  0.922482  0.664572  1
  H  H28  1  0.750000  0.823319  0.543381  1
  H  H29  1  0.356597  0.321433  0.282600  1
  H  H30  1  0.356597  0.821433  0.217400  1
  H  H31  1  0.638368  0.422482  0.835428  1
  H  H32  1  0.250000  0.698785  0.707043  1
  H  H33  1  0.645209  0.184454  0.203750  1
  H  H34  1  0.145209  0.315546  0.703750  1
  H  H35  1  0.250000  0.228069  0.169663  1
  H  H36  1  0.145209  0.815546  0.796250  1
  H  H37  1  0.138423  0.367636  0.941122  1
  H  H38  1  0.643403  0.178567  0.782600  1
  H  H39  1  0.638423  0.632364  0.058878  1
  H  H40  1  0.138368  0.577518  0.164572  1
  H  H41  1  0.638368  0.922482  0.664572  1
  H  H42  1  0.750000  0.301215  0.292957  1
  H  H43  1  0.643403  0.678567  0.717400  1
  H  H44  1  0.854791  0.184454  0.203750  1
  H  H45  1  0.750000  0.271931  0.669663  1
  H  H46  1  0.750000  0.801215  0.207043  1
  H  H47  1  0.750000  0.002290  0.350733  1
  H  H48  1  0.250000  0.997710  0.649267  1
  H  H49  1  0.861577  0.632364  0.058878  1
  H  H50  1  0.854791  0.684454  0.296250  1
  H  H51  1  0.143403  0.321433  0.282600  1
  C  C52  1  0.250000  0.390296  0.882375  1
  C  C53  1  0.250000  0.639516  0.144894  1
  C  C54  1  0.750000  0.609704  0.117625  1
  C  C55  1  0.750000  0.109704  0.382375  1
  C  C56  1  0.750000  0.860484  0.644894  1
  C  C57  1  0.750000  0.360484  0.855106  1
  C  C58  1  0.250000  0.890296  0.617625  1
  C  C59  1  0.250000  0.139516  0.355106  1
  N  N60  1  0.250000  0.800460  0.735648  1
  N  N61  1  0.750000  0.199540  0.264352  1
  N  N62  1  0.750000  0.239335  0.765921  1
  N  N63  1  0.750000  0.699540  0.235648  1
  N  N64  1  0.250000  0.260665  0.265921  1
  N  N65  1  0.750000  0.739335  0.734079  1
  N  N66  1  0.250000  0.760665  0.234079  1
  N  N67  1  0.250000  0.300460  0.764352  1
  F  F68  1  0.495083  0.318775  0.580857  1
  F  F69  1  0.750000  0.004078  0.977623  1
  F  F70  1  0.523149  0.417185  0.325926  1
  F  F71  1  0.750000  0.504078  0.522377  1
  F  F72  1  0.995083  0.181225  0.080857  1
  F  F73  1  0.250000  0.995922  0.022377  1
  F  F74  1  0.504917  0.181225  0.080857  1
  F  F75  1  0.995083  0.681225  0.419143  1
  F  F76  1  0.023149  0.082815  0.825926  1
  F  F77  1  0.023149  0.582815  0.674074  1
  F  F78  1  0.976851  0.917185  0.174074  1
  F  F79  1  0.504917  0.681225  0.419143  1
  F  F80  1  0.004917  0.818775  0.919143  1
  F  F81  1  0.476851  0.582815  0.674074  1
  F  F82  1  0.495083  0.818775  0.919143  1
  F  F83  1  0.976851  0.417185  0.325926  1
  F  F84  1  0.476851  0.082815  0.825926  1
  F  F85  1  0.523149  0.917185  0.174074  1
  F  F86  1  0.250000  0.495922  0.477623  1
  F  F87  1  0.004917  0.318775  0.580857  1
