# generated using pymatgen
data_LiCrP2O7
_symmetry_space_group_name_H-M   'P 1'
_cell_length_a   8.87891905
_cell_length_b   8.11049228
_cell_length_c   5.02369079
_cell_angle_alpha   71.94925801
_cell_angle_beta   89.99019459
_cell_angle_gamma   70.38736353
_symmetry_Int_Tables_number   1
_chemical_formula_structural   LiCrP2O7
_chemical_formula_sum   'Li2 Cr2 P4 O14'
_cell_volume   321.82225835
_cell_formula_units_Z   2
loop_
 _symmetry_equiv_pos_site_id
 _symmetry_equiv_pos_as_xyz
  1  'x, y, z'
loop_
 _atom_site_type_symbol
 _atom_site_label
 _atom_site_symmetry_multiplicity
 _atom_site_fract_x
 _atom_site_fract_y
 _atom_site_fract_z
 _atom_site_occupancy
  Li  Li0  1  0.953095  0.901480  0.472058  1
  Li  Li1  1  0.453098  0.901532  0.126465  1
  Cr  Cr2  1  0.503244  0.495288  0.493121  1
  Cr  Cr3  1  0.003293  0.495226  0.511709  1
  P  P4  1  0.306050  0.298102  0.240059  1
  P  P5  1  0.691163  0.696156  0.767587  1
  P  P6  1  0.191223  0.696169  0.036215  1
  P  P7  1  0.805944  0.298084  0.961876  1
  O  O8  1  0.659542  0.301266  0.796674  1
  O  O9  1  0.746394  0.497590  0.027742  1
  O  O10  1  0.367418  0.146643  0.119592  1
  O  O11  1  0.937462  0.315037  0.757824  1
  O  O12  1  0.568460  0.683897  0.552905  1
  O  O13  1  0.246493  0.497611  0.974630  1
  O  O14  1  0.343801  0.700717  0.179992  1
  O  O15  1  0.619495  0.844860  0.890979  1
  O  O16  1  0.843772  0.700677  0.619222  1
  O  O17  1  0.437580  0.315065  0.427002  1
  O  O18  1  0.119511  0.844869  0.764113  1
  O  O19  1  0.159685  0.301228  0.402224  1
  O  O20  1  0.068540  0.683828  0.263262  1
  O  O21  1  0.867306  0.146603  0.233787  1
