# generated using pymatgen
data_Ga3Bi5Cl12
_symmetry_space_group_name_H-M   'P 1'
_cell_length_a   12.45635561
_cell_length_b   12.45635577
_cell_length_c   12.45635600
_cell_angle_alpha   57.96540878
_cell_angle_beta   57.96540836
_cell_angle_gamma   57.96540998
_symmetry_Int_Tables_number   1
_chemical_formula_structural   Ga3Bi5Cl12
_chemical_formula_sum   'Ga6 Bi10 Cl24'
_cell_volume   1302.85707506
_cell_formula_units_Z   2
loop_
 _symmetry_equiv_pos_site_id
 _symmetry_equiv_pos_as_xyz
  1  'x, y, z'
loop_
 _atom_site_type_symbol
 _atom_site_label
 _atom_site_symmetry_multiplicity
 _atom_site_fract_x
 _atom_site_fract_y
 _atom_site_fract_z
 _atom_site_occupancy
  Ga  Ga0  1  0.748111  0.229777  0.273133  1
  Ga  Ga1  1  0.273133  0.748111  0.229777  1
  Ga  Ga2  1  0.773133  0.729777  0.248111  1
  Ga  Ga3  1  0.229777  0.273133  0.748111  1
  Ga  Ga4  1  0.729777  0.248111  0.773133  1
  Ga  Ga5  1  0.248111  0.773133  0.729777  1
  Bi  Bi6  1  0.252523  0.405637  0.090669  1
  Bi  Bi7  1  0.590669  0.905637  0.752523  1
  Bi  Bi8  1  0.171955  0.171955  0.171955  1
  Bi  Bi9  1  0.671955  0.671955  0.671955  1
  Bi  Bi10  1  0.752523  0.590669  0.905637  1
  Bi  Bi11  1  0.827216  0.827216  0.827216  1
  Bi  Bi12  1  0.327216  0.327216  0.327216  1
  Bi  Bi13  1  0.405637  0.090669  0.252523  1
  Bi  Bi14  1  0.905637  0.752523  0.590669  1
  Bi  Bi15  1  0.090669  0.252523  0.405637  1
  Cl  Cl16  1  0.696362  0.071959  0.958645  1
  Cl  Cl17  1  0.196362  0.458645  0.571959  1
  Cl  Cl18  1  0.571959  0.196362  0.458645  1
  Cl  Cl19  1  0.897641  0.298972  0.726064  1
  Cl  Cl20  1  0.197206  0.607730  0.771089  1
  Cl  Cl21  1  0.958645  0.696362  0.071959  1
  Cl  Cl22  1  0.298972  0.726064  0.897641  1
  Cl  Cl23  1  0.771089  0.197206  0.607730  1
  Cl  Cl24  1  0.425659  0.808852  0.545450  1
  Cl  Cl25  1  0.107730  0.697206  0.271089  1
  Cl  Cl26  1  0.071959  0.958645  0.696362  1
  Cl  Cl27  1  0.808852  0.545450  0.425659  1
  Cl  Cl28  1  0.308852  0.925659  0.045450  1
  Cl  Cl29  1  0.045450  0.308852  0.925659  1
  Cl  Cl30  1  0.697206  0.271089  0.107730  1
  Cl  Cl31  1  0.226064  0.798972  0.397641  1
  Cl  Cl32  1  0.397641  0.226064  0.798972  1
  Cl  Cl33  1  0.607730  0.771089  0.197206  1
  Cl  Cl34  1  0.271089  0.107730  0.697206  1
  Cl  Cl35  1  0.925659  0.045450  0.308852  1
  Cl  Cl36  1  0.458645  0.571959  0.196362  1
  Cl  Cl37  1  0.545450  0.425659  0.808852  1
  Cl  Cl38  1  0.726064  0.897641  0.298972  1
  Cl  Cl39  1  0.798972  0.397641  0.226064  1
