# generated using pymatgen
data_SiO2
_symmetry_space_group_name_H-M   'P 1'
_cell_length_a   4.74970120
_cell_length_b   8.17644784
_cell_length_c   8.60321396
_cell_angle_alpha   90.00000000
_cell_angle_beta   90.00000000
_cell_angle_gamma   90.00000000
_symmetry_Int_Tables_number   1
_chemical_formula_structural   SiO2
_chemical_formula_sum   'Si8 O16'
_cell_volume   334.11169974
_cell_formula_units_Z   8
loop_
 _symmetry_equiv_pos_site_id
 _symmetry_equiv_pos_as_xyz
  1  'x, y, z'
loop_
 _atom_site_type_symbol
 _atom_site_label
 _atom_site_symmetry_multiplicity
 _atom_site_fract_x
 _atom_site_fract_y
 _atom_site_fract_z
 _atom_site_occupancy
  Si  Si0  1  0.145031  0.062965  0.159003  1
  Si  Si1  1  0.145031  0.437035  0.659003  1
  Si  Si2  1  0.645031  0.562965  0.840997  1
  Si  Si3  1  0.354969  0.437035  0.159003  1
  Si  Si4  1  0.854969  0.562965  0.340997  1
  Si  Si5  1  0.854969  0.937035  0.840997  1
  Si  Si6  1  0.645031  0.937035  0.340997  1
  Si  Si7  1  0.354969  0.062965  0.659003  1
  O  O8  1  0.585403  0.053331  0.800001  1
  O  O9  1  0.585403  0.446669  0.300001  1
  O  O10  1  0.414597  0.553331  0.699999  1
  O  O11  1  0.250000  0.250000  0.638994  1
  O  O12  1  0.085403  0.553331  0.199999  1
  O  O13  1  0.414597  0.946669  0.199999  1
  O  O14  1  0.914597  0.053331  0.300001  1
  O  O15  1  0.000000  0.500000  0.500000  1
  O  O16  1  0.750000  0.750000  0.361006  1
  O  O17  1  0.750000  0.750000  0.861006  1
  O  O18  1  0.914597  0.446669  0.800001  1
  O  O19  1  0.500000  0.500000  0.000000  1
  O  O20  1  0.250000  0.250000  0.138994  1
  O  O21  1  0.085403  0.946669  0.699999  1
  O  O22  1  0.000000  0.000000  0.000000  1
  O  O23  1  0.500000  0.000000  0.500000  1
