# generated using pymatgen
data_Yb3Se4
_symmetry_space_group_name_H-M   'P 1'
_cell_length_a   4.29162425
_cell_length_b   14.75230502
_cell_length_c   12.04787512
_cell_angle_alpha   90.00000000
_cell_angle_beta   90.00000000
_cell_angle_gamma   90.00000000
_symmetry_Int_Tables_number   1
_chemical_formula_structural   Yb3Se4
_chemical_formula_sum   'Yb12 Se16'
_cell_volume   762.76723808
_cell_formula_units_Z   4
loop_
 _symmetry_equiv_pos_site_id
 _symmetry_equiv_pos_as_xyz
  1  'x, y, z'
loop_
 _atom_site_type_symbol
 _atom_site_label
 _atom_site_symmetry_multiplicity
 _atom_site_fract_x
 _atom_site_fract_y
 _atom_site_fract_z
 _atom_site_occupancy
  Se  Se0  1  0.250000  0.773978  0.774516  1
  Se  Se1  1  0.750000  0.226022  0.225484  1
  Se  Se2  1  0.250000  0.273978  0.725484  1
  Se  Se3  1  0.750000  0.726022  0.274516  1
  Se  Se4  1  0.750000  0.754946  0.476939  1
  Se  Se5  1  0.250000  0.245054  0.523061  1
  Se  Se6  1  0.750000  0.254946  0.023061  1
  Se  Se7  1  0.250000  0.745054  0.976939  1
  Se  Se8  1  0.250000  0.536646  0.610229  1
  Se  Se9  1  0.750000  0.463354  0.389771  1
  Se  Se10  1  0.250000  0.036646  0.889771  1
  Se  Se11  1  0.750000  0.963354  0.110229  1
  Se  Se12  1  0.750000  0.490721  0.855967  1
  Se  Se13  1  0.250000  0.509279  0.144033  1
  Se  Se14  1  0.750000  0.990721  0.644033  1
  Se  Se15  1  0.250000  0.009279  0.355967  1
  Yb  Yb16  1  0.750000  0.902311  0.880665  1
  Yb  Yb17  1  0.250000  0.097689  0.119335  1
  Yb  Yb18  1  0.750000  0.402311  0.619335  1
  Yb  Yb19  1  0.250000  0.597689  0.380665  1
  Yb  Yb20  1  0.250000  0.894491  0.544868  1
  Yb  Yb21  1  0.750000  0.105509  0.455132  1
  Yb  Yb22  1  0.250000  0.394491  0.955132  1
  Yb  Yb23  1  0.750000  0.605509  0.044868  1
  Yb  Yb24  1  0.750000  0.637954  0.700168  1
  Yb  Yb25  1  0.250000  0.362046  0.299832  1
  Yb  Yb26  1  0.750000  0.137954  0.799832  1
  Yb  Yb27  1  0.250000  0.862046  0.200168  1
