# generated using pymatgen
data_NaNi(PO3)3
_symmetry_space_group_name_H-M   'P 1'
_cell_length_a   10.01237087
_cell_length_b   10.71403516
_cell_length_c   13.97174543
_cell_angle_alpha   90.00000000
_cell_angle_beta   90.00000000
_cell_angle_gamma   90.00000000
_symmetry_Int_Tables_number   1
_chemical_formula_structural   NaNi(PO3)3
_chemical_formula_sum   'Na8 Ni8 P24 O72'
_cell_volume   1498.78956003
_cell_formula_units_Z   8
loop_
 _symmetry_equiv_pos_site_id
 _symmetry_equiv_pos_as_xyz
  1  'x, y, z'
loop_
 _atom_site_type_symbol
 _atom_site_label
 _atom_site_symmetry_multiplicity
 _atom_site_fract_x
 _atom_site_fract_y
 _atom_site_fract_z
 _atom_site_occupancy
  Na  Na0  1  0.987942  0.752001  0.624725  1
  Na  Na1  1  0.487942  0.247999  0.624725  1
  Na  Na2  1  0.012058  0.752001  0.124725  1
  Na  Na3  1  0.012058  0.247999  0.375275  1
  Na  Na4  1  0.512058  0.752001  0.375275  1
  Na  Na5  1  0.512058  0.247999  0.124725  1
  Na  Na6  1  0.987942  0.247999  0.875275  1
  Na  Na7  1  0.487942  0.752001  0.875275  1
  Ni  Ni8  1  0.971752  0.500000  0.250000  1
  Ni  Ni9  1  0.500000  0.000000  0.500000  1
  Ni  Ni10  1  0.000000  0.000000  0.500000  1
  Ni  Ni11  1  0.028248  0.500000  0.750000  1
  Ni  Ni12  1  0.500000  0.000000  0.000000  1
  Ni  Ni13  1  0.471752  0.500000  0.250000  1
  Ni  Ni14  1  0.000000  0.000000  0.000000  1
  Ni  Ni15  1  0.528248  0.500000  0.750000  1
  P  P16  1  0.236410  0.044075  0.147567  1
  P  P17  1  0.714869  0.474637  0.398126  1
  P  P18  1  0.714869  0.525363  0.101875  1
  P  P19  1  0.214869  0.525363  0.398126  1
  P  P20  1  0.546354  0.747516  0.125322  1
  P  P21  1  0.763590  0.955925  0.852433  1
  P  P22  1  0.953646  0.747516  0.874678  1
  P  P23  1  0.785131  0.525363  0.898126  1
  P  P24  1  0.953646  0.252484  0.625322  1
  P  P25  1  0.453646  0.252484  0.874678  1
  P  P26  1  0.453646  0.747516  0.625322  1
  P  P27  1  0.546354  0.252484  0.374678  1
  P  P28  1  0.046354  0.252484  0.125322  1
  P  P29  1  0.236410  0.955925  0.352433  1
  P  P30  1  0.214869  0.474637  0.101875  1
  P  P31  1  0.285131  0.525363  0.601874  1
  P  P32  1  0.763590  0.044075  0.647567  1
  P  P33  1  0.263590  0.044075  0.852433  1
  P  P34  1  0.285131  0.474637  0.898126  1
  P  P35  1  0.263590  0.955925  0.647567  1
  P  P36  1  0.785131  0.474637  0.601874  1
  P  P37  1  0.736410  0.955925  0.147567  1
  P  P38  1  0.736410  0.044075  0.352433  1
  P  P39  1  0.046354  0.747516  0.374678  1
  O  O40  1  0.659583  0.568114  0.850189  1
  O  O41  1  0.856243  0.082357  0.409934  1
  O  O42  1  0.133425  0.352273  0.065213  1
  O  O43  1  0.366575  0.352273  0.934787  1
  O  O44  1  0.027625  0.822787  0.948025  1
  O  O45  1  0.842558  0.830495  0.819913  1
  O  O46  1  0.866575  0.352273  0.565213  1
  O  O47  1  0.527625  0.822787  0.551975  1
  O  O48  1  0.137963  0.951495  0.108004  1
  O  O49  1  0.840417  0.568114  0.149811  1
  O  O50  1  0.862037  0.048505  0.891996  1
  O  O51  1  0.342558  0.169505  0.819913  1
  O  O52  1  0.342558  0.830495  0.680087  1
  O  O53  1  0.137963  0.048505  0.391996  1
  O  O54  1  0.472375  0.177213  0.448025  1
  O  O55  1  0.133425  0.647727  0.434787  1
  O  O56  1  0.972375  0.822787  0.448025  1
  O  O57  1  0.030364  0.317157  0.702954  1
  O  O58  1  0.143758  0.082357  0.909934  1
  O  O59  1  0.340417  0.568114  0.350189  1
  O  O60  1  0.969636  0.682843  0.297046  1
  O  O61  1  0.840417  0.431886  0.350189  1
  O  O62  1  0.362037  0.951495  0.891996  1
  O  O63  1  0.378906  0.561671  0.847253  1
  O  O64  1  0.157442  0.830495  0.319913  1
  O  O65  1  0.159583  0.568114  0.649811  1
  O  O66  1  0.643757  0.082357  0.590066  1
  O  O67  1  0.862037  0.951495  0.608004  1
  O  O68  1  0.856243  0.917643  0.090066  1
  O  O69  1  0.121094  0.561671  0.152747  1
  O  O70  1  0.530364  0.682843  0.702954  1
  O  O71  1  0.469636  0.682843  0.202954  1
  O  O72  1  0.637963  0.951495  0.391996  1
  O  O73  1  0.356243  0.917643  0.409934  1
  O  O74  1  0.159583  0.431886  0.850189  1
  O  O75  1  0.637963  0.048505  0.108004  1
  O  O76  1  0.143758  0.917643  0.590066  1
  O  O77  1  0.842558  0.169505  0.680087  1
  O  O78  1  0.793120  0.000000  0.250000  1
  O  O79  1  0.206880  0.000000  0.750000  1
  O  O80  1  0.250000  0.537860  0.000000  1
  O  O81  1  0.659583  0.431886  0.649811  1
  O  O82  1  0.340417  0.431886  0.149811  1
  O  O83  1  0.866575  0.647727  0.934787  1
  O  O84  1  0.878906  0.561671  0.652747  1
  O  O85  1  0.633425  0.352273  0.434787  1
  O  O86  1  0.621094  0.438329  0.152747  1
  O  O87  1  0.530364  0.317157  0.797046  1
  O  O88  1  0.362037  0.048505  0.608004  1
  O  O89  1  0.972375  0.177213  0.051975  1
  O  O90  1  0.878906  0.438329  0.847253  1
  O  O91  1  0.969636  0.317157  0.202954  1
  O  O92  1  0.250000  0.462140  0.500000  1
  O  O93  1  0.378906  0.438329  0.652747  1
  O  O94  1  0.643757  0.917643  0.909934  1
  O  O95  1  0.706880  0.000000  0.750000  1
  O  O96  1  0.633425  0.647727  0.065213  1
  O  O97  1  0.030364  0.682843  0.797046  1
  O  O98  1  0.750000  0.537860  0.500000  1
  O  O99  1  0.293120  0.000000  0.250000  1
  O  O100  1  0.356243  0.082357  0.090066  1
  O  O101  1  0.027625  0.177213  0.551975  1
  O  O102  1  0.657442  0.169505  0.319913  1
  O  O103  1  0.366575  0.647727  0.565213  1
  O  O104  1  0.657442  0.830495  0.180087  1
  O  O105  1  0.121094  0.438329  0.347253  1
  O  O106  1  0.750000  0.462140  0.000000  1
  O  O107  1  0.157442  0.169505  0.180087  1
  O  O108  1  0.469636  0.317157  0.297046  1
  O  O109  1  0.621094  0.561671  0.347253  1
  O  O110  1  0.527625  0.177213  0.948025  1
  O  O111  1  0.472375  0.822787  0.051975  1
