# generated using pymatgen
data_InPt
_symmetry_space_group_name_H-M   'P 1'
_cell_length_a   4.48124988
_cell_length_b   7.05687170
_cell_length_c   7.27881014
_cell_angle_alpha   65.34379269
_cell_angle_beta   72.08202652
_cell_angle_gamma   71.63329992
_symmetry_Int_Tables_number   1
_chemical_formula_structural   InPt
_chemical_formula_sum   'In5 Pt5'
_cell_volume   194.35225561
_cell_formula_units_Z   5
loop_
 _symmetry_equiv_pos_site_id
 _symmetry_equiv_pos_as_xyz
  1  'x, y, z'
loop_
 _atom_site_type_symbol
 _atom_site_label
 _atom_site_symmetry_multiplicity
 _atom_site_fract_x
 _atom_site_fract_y
 _atom_site_fract_z
 _atom_site_occupancy
  Pt  Pt0  1  0.000000  0.000000  0.000000  1
  In  In1  1  0.500000  0.500000  0.500000  1
  In  In2  1  0.851170  0.452350  0.845464  1
  In  In3  1  0.148830  0.547650  0.154536  1
  In  In4  1  0.628126  0.987776  0.756406  1
  In  In5  1  0.371874  0.012224  0.243594  1
  Pt  Pt6  1  0.740985  0.254403  0.263425  1
  Pt  Pt7  1  0.259015  0.745597  0.736575  1
  Pt  Pt8  1  0.891154  0.773897  0.443852  1
  Pt  Pt9  1  0.108846  0.226103  0.556148  1
