# generated using pymatgen
data_Mo2NCl7
_symmetry_space_group_name_H-M   'P 1'
_cell_length_a   9.49019483
_cell_length_b   10.17152320
_cell_length_c   13.72531718
_cell_angle_alpha   101.99526752
_cell_angle_beta   107.77263501
_cell_angle_gamma   102.24229255
_symmetry_Int_Tables_number   1
_chemical_formula_structural   Mo2NCl7
_chemical_formula_sum   'Mo8 N4 Cl28'
_cell_volume   1178.91437547
_cell_formula_units_Z   4
loop_
 _symmetry_equiv_pos_site_id
 _symmetry_equiv_pos_as_xyz
  1  'x, y, z'
loop_
 _atom_site_type_symbol
 _atom_site_label
 _atom_site_symmetry_multiplicity
 _atom_site_fract_x
 _atom_site_fract_y
 _atom_site_fract_z
 _atom_site_occupancy
  Mo  Mo0  1  0.062010  0.938007  0.731392  1
  Mo  Mo1  1  0.937990  0.061993  0.268608  1
  Mo  Mo2  1  0.847297  0.571862  0.679150  1
  Mo  Mo3  1  0.152703  0.428138  0.320850  1
  Mo  Mo4  1  0.615176  0.400284  0.817276  1
  Mo  Mo5  1  0.384824  0.599716  0.182724  1
  Mo  Mo6  1  0.469402  0.108657  0.769000  1
  Mo  Mo7  1  0.530598  0.891343  0.231000  1
  Cl  Cl8  1  0.948261  0.049611  0.617224  1
  Cl  Cl9  1  0.051739  0.950389  0.382776  1
  Cl  Cl10  1  0.049741  0.070139  0.883895  1
  Cl  Cl11  1  0.950259  0.929861  0.116105  1
  Cl  Cl12  1  0.026690  0.735039  0.591130  1
  Cl  Cl13  1  0.973310  0.264961  0.408870  1
  Cl  Cl14  1  0.077973  0.755980  0.833250  1
  Cl  Cl15  1  0.922027  0.244020  0.166750  1
  Cl  Cl16  1  0.755154  0.773589  0.690174  1
  Cl  Cl17  1  0.244846  0.226411  0.309826  1
  Cl  Cl18  1  0.020503  0.444331  0.690438  1
  Cl  Cl19  1  0.979497  0.555669  0.309562  1
  Cl  Cl20  1  0.685178  0.457519  0.508342  1
  Cl  Cl21  1  0.314822  0.542481  0.491658  1
  Cl  Cl22  1  0.500277  0.577286  0.813465  1
  Cl  Cl23  1  0.499723  0.422714  0.186535  1
  Cl  Cl24  1  0.801544  0.491485  0.983869  1
  Cl  Cl25  1  0.198456  0.508515  0.016131  1
  Cl  Cl26  1  0.728830  0.214696  0.768232  1
  Cl  Cl27  1  0.271170  0.785304  0.231768  1
  Cl  Cl28  1  0.394338  0.256119  0.647748  1
  Cl  Cl29  1  0.605662  0.743881  0.352252  1
  Cl  Cl30  1  0.435317  0.293151  0.896978  1
  Cl  Cl31  1  0.564683  0.706849  0.103022  1
  Cl  Cl32  1  0.428042  0.934906  0.617922  1
  Cl  Cl33  1  0.571958  0.065094  0.382078  1
  Cl  Cl34  1  0.581781  0.013319  0.896818  1
  Cl  Cl35  1  0.418219  0.986681  0.103182  1
  N  N36  1  0.253350  0.013451  0.753070  1
  N  N37  1  0.746650  0.986549  0.246930  1
  N  N38  1  0.744012  0.495549  0.746959  1
  N  N39  1  0.255988  0.504451  0.253041  1
