# generated using pymatgen
data_UCl5
_symmetry_space_group_name_H-M   'P 1'
_cell_length_a   8.43125260
_cell_length_b   8.88728846
_cell_length_c   11.21773244
_cell_angle_alpha   90.00000000
_cell_angle_beta   90.00000000
_cell_angle_gamma   91.03135780
_symmetry_Int_Tables_number   1
_chemical_formula_structural   UCl5
_chemical_formula_sum   'U4 Cl20'
_cell_volume   840.41944197
_cell_formula_units_Z   4
loop_
 _symmetry_equiv_pos_site_id
 _symmetry_equiv_pos_as_xyz
  1  'x, y, z'
loop_
 _atom_site_type_symbol
 _atom_site_label
 _atom_site_symmetry_multiplicity
 _atom_site_fract_x
 _atom_site_fract_y
 _atom_site_fract_z
 _atom_site_occupancy
  U  U0  1  0.449068  0.661430  0.365536  1
  U  U1  1  0.050932  0.838570  0.865536  1
  U  U2  1  0.550932  0.338570  0.634464  1
  U  U3  1  0.949068  0.161430  0.134464  1
  Cl  Cl4  1  0.038304  0.869337  0.107312  1
  Cl  Cl5  1  0.365120  0.926601  0.372766  1
  Cl  Cl6  1  0.046005  0.853747  0.644585  1
  Cl  Cl7  1  0.538304  0.369337  0.392688  1
  Cl  Cl8  1  0.330541  0.926993  0.872584  1
  Cl  Cl9  1  0.266560  0.260964  0.628500  1
  Cl  Cl10  1  0.169459  0.573007  0.372584  1
  Cl  Cl11  1  0.733440  0.739036  0.371500  1
  Cl  Cl12  1  0.865120  0.426601  0.127234  1
  Cl  Cl13  1  0.953995  0.146253  0.355415  1
  Cl  Cl14  1  0.961696  0.130663  0.892688  1
  Cl  Cl15  1  0.634880  0.073399  0.627234  1
  Cl  Cl16  1  0.453995  0.646253  0.144585  1
  Cl  Cl17  1  0.766560  0.760964  0.871500  1
  Cl  Cl18  1  0.134880  0.573399  0.872766  1
  Cl  Cl19  1  0.233440  0.239036  0.128500  1
  Cl  Cl20  1  0.461696  0.630663  0.607312  1
  Cl  Cl21  1  0.669459  0.073007  0.127416  1
  Cl  Cl22  1  0.830541  0.426993  0.627416  1
  Cl  Cl23  1  0.546005  0.353747  0.855415  1
