# generated using pymatgen
data_La2Si2O7
_symmetry_space_group_name_H-M   'P 1'
_cell_length_a   6.90432217
_cell_length_b   6.90432217
_cell_length_c   25.08672634
_cell_angle_alpha   90.00000000
_cell_angle_beta   90.00000000
_cell_angle_gamma   90.00000000
_symmetry_Int_Tables_number   1
_chemical_formula_structural   La2Si2O7
_chemical_formula_sum   'La16 Si16 O56'
_cell_volume   1195.87583122
_cell_formula_units_Z   8
loop_
 _symmetry_equiv_pos_site_id
 _symmetry_equiv_pos_as_xyz
  1  'x, y, z'
loop_
 _atom_site_type_symbol
 _atom_site_label
 _atom_site_symmetry_multiplicity
 _atom_site_fract_x
 _atom_site_fract_y
 _atom_site_fract_z
 _atom_site_occupancy
  La  La0  1  0.664651  0.079342  0.502180  1
  La  La1  1  0.826042  0.520358  0.399312  1
  La  La2  1  0.238432  0.693924  0.501068  1
  La  La3  1  0.761568  0.306076  1.001068  1
  La  La4  1  0.306076  0.238432  0.751068  1
  La  La5  1  0.173958  0.479642  0.899312  1
  La  La6  1  0.885380  0.228086  0.641861  1
  La  La7  1  0.335349  0.920658  0.002180  1
  La  La8  1  0.079342  0.335349  0.252180  1
  La  La9  1  0.771914  0.885380  0.891861  1
  La  La10  1  0.114620  0.771914  0.141861  1
  La  La11  1  0.693924  0.761568  0.251068  1
  La  La12  1  0.520358  0.173958  0.149312  1
  La  La13  1  0.920658  0.664651  0.752180  1
  La  La14  1  0.479642  0.826042  0.649312  1
  La  La15  1  0.228086  0.114620  0.391861  1
  Si  Si16  1  0.618742  0.259569  0.273899  1
  Si  Si17  1  0.700430  0.008603  0.372325  1
  Si  Si18  1  0.297723  0.596160  0.365295  1
  Si  Si19  1  0.849043  0.771909  0.017476  1
  Si  Si20  1  0.740431  0.618742  0.523899  1
  Si  Si21  1  0.228091  0.849043  0.267476  1
  Si  Si22  1  0.403840  0.297723  0.615295  1
  Si  Si23  1  0.259569  0.381258  0.023899  1
  Si  Si24  1  0.008603  0.299570  0.122325  1
  Si  Si25  1  0.381258  0.740431  0.773899  1
  Si  Si26  1  0.771909  0.150957  0.767476  1
  Si  Si27  1  0.299570  0.991397  0.872325  1
  Si  Si28  1  0.596160  0.702277  0.115295  1
  Si  Si29  1  0.150957  0.228091  0.517476  1
  Si  Si30  1  0.991397  0.700430  0.622325  1
  Si  Si31  1  0.702277  0.403840  0.865295  1
  O  O32  1  0.848616  0.863877  0.648819  1
  O  O33  1  0.637820  0.284961  0.809328  1
  O  O34  1  0.573903  0.672560  0.742036  1
  O  O35  1  0.480837  0.490469  0.392431  1
  O  O36  1  0.039675  0.849305  0.048879  1
  O  O37  1  0.783020  0.813345  0.344521  1
  O  O38  1  0.965890  0.460111  0.168605  1
  O  O39  1  0.279781  0.049457  0.492965  1
  O  O40  1  0.428958  0.862172  0.096910  1
  O  O41  1  0.623672  0.111876  0.717413  1
  O  O42  1  0.376328  0.888124  0.217413  1
  O  O43  1  0.241724  0.559528  0.792463  1
  O  O44  1  0.715039  0.637820  0.059328  1
  O  O45  1  0.571042  0.137828  0.596910  1
  O  O46  1  0.863877  0.151384  0.398819  1
  O  O47  1  0.137828  0.428958  0.346910  1
  O  O48  1  0.327440  0.573903  0.992036  1
  O  O49  1  0.180382  0.748479  0.404097  1
  O  O50  1  0.875091  0.563374  0.576914  1
  O  O51  1  0.888124  0.623672  0.967413  1
  O  O52  1  0.251521  0.180382  0.654097  1
  O  O53  1  0.136123  0.848616  0.898819  1
  O  O54  1  0.539889  0.965890  0.418605  1
  O  O55  1  0.748479  0.819618  0.154097  1
  O  O56  1  0.813345  0.216980  0.094521  1
  O  O57  1  0.186655  0.783020  0.594521  1
  O  O58  1  0.720219  0.950543  0.992965  1
  O  O59  1  0.124909  0.436626  0.076914  1
  O  O60  1  0.111876  0.376328  0.467413  1
  O  O61  1  0.559528  0.758276  0.542463  1
  O  O62  1  0.490469  0.519163  0.142431  1
  O  O63  1  0.563374  0.124909  0.326914  1
  O  O64  1  0.049457  0.720219  0.242965  1
  O  O65  1  0.960325  0.150695  0.548879  1
  O  O66  1  0.849305  0.960325  0.798879  1
  O  O67  1  0.123125  0.248928  0.983983  1
  O  O68  1  0.751072  0.123125  0.233983  1
  O  O69  1  0.034110  0.539889  0.668605  1
  O  O70  1  0.519163  0.509531  0.892431  1
  O  O71  1  0.950543  0.279781  0.742965  1
  O  O72  1  0.284961  0.362180  0.559328  1
  O  O73  1  0.150695  0.039675  0.298879  1
  O  O74  1  0.876875  0.751072  0.483983  1
  O  O75  1  0.151384  0.136123  0.148819  1
  O  O76  1  0.509531  0.480837  0.642431  1
  O  O77  1  0.440472  0.241724  0.042463  1
  O  O78  1  0.248928  0.876875  0.733983  1
  O  O79  1  0.460111  0.034110  0.918605  1
  O  O80  1  0.362180  0.715039  0.309328  1
  O  O81  1  0.672560  0.426097  0.492036  1
  O  O82  1  0.426097  0.327440  0.242036  1
  O  O83  1  0.862172  0.571042  0.846910  1
  O  O84  1  0.758276  0.440472  0.292463  1
  O  O85  1  0.216980  0.186655  0.844521  1
  O  O86  1  0.436626  0.875091  0.826914  1
  O  O87  1  0.819618  0.251521  0.904097  1
