# generated using pymatgen
data_Na3SO4F
_symmetry_space_group_name_H-M   'P 1'
_cell_length_a   5.76033619
_cell_length_b   5.76033313
_cell_length_c   5.76033582
_cell_angle_alpha   91.28775524
_cell_angle_beta   91.28628193
_cell_angle_gamma   91.28774290
_symmetry_Int_Tables_number   1
_chemical_formula_structural   Na3SO4F
_chemical_formula_sum   'Na3 S1 O4 F1'
_cell_volume   190.98940926
_cell_formula_units_Z   1
loop_
 _symmetry_equiv_pos_site_id
 _symmetry_equiv_pos_as_xyz
  1  'x, y, z'
loop_
 _atom_site_type_symbol
 _atom_site_label
 _atom_site_symmetry_multiplicity
 _atom_site_fract_x
 _atom_site_fract_y
 _atom_site_fract_z
 _atom_site_occupancy
  S  S0  1  0.498594  0.498629  0.498594  1
  O  O1  1  0.648547  0.352081  0.648547  1
  F  F2  1  0.997330  0.997318  0.997330  1
  O  O3  1  0.352093  0.648534  0.648535  1
  O  O4  1  0.648535  0.648534  0.352093  1
  Na  Na5  1  0.494731  0.998088  0.494731  1
  O  O6  1  0.345353  0.345352  0.345353  1
  Na  Na7  1  0.494729  0.494731  0.998088  1
  Na  Na8  1  0.998088  0.494731  0.494729  1
