# generated using pymatgen
data_As4S3
_symmetry_space_group_name_H-M   'P 1'
_cell_length_a   7.19382640
_cell_length_b   10.86581394
_cell_length_c   12.15483514
_cell_angle_alpha   90.00000000
_cell_angle_beta   90.00000000
_cell_angle_gamma   90.00000000
_symmetry_Int_Tables_number   1
_chemical_formula_structural   As4S3
_chemical_formula_sum   'As16 S12'
_cell_volume   950.10431435
_cell_formula_units_Z   4
loop_
 _symmetry_equiv_pos_site_id
 _symmetry_equiv_pos_as_xyz
  1  'x, y, z'
loop_
 _atom_site_type_symbol
 _atom_site_label
 _atom_site_symmetry_multiplicity
 _atom_site_fract_x
 _atom_site_fract_y
 _atom_site_fract_z
 _atom_site_occupancy
  As  As0  1  0.227736  0.633554  0.927959  1
  As  As1  1  0.772264  0.133554  0.072041  1
  As  As2  1  0.727736  0.133554  0.572041  1
  As  As3  1  0.227736  0.866446  0.927959  1
  As  As4  1  0.901792  0.250000  0.425719  1
  As  As5  1  0.772264  0.366446  0.072041  1
  As  As6  1  0.401792  0.750000  0.074281  1
  As  As7  1  0.157201  0.250000  0.679658  1
  As  As8  1  0.098208  0.750000  0.574281  1
  As  As9  1  0.727736  0.366446  0.572041  1
  As  As10  1  0.842799  0.750000  0.320342  1
  As  As11  1  0.342799  0.250000  0.179658  1
  As  As12  1  0.272264  0.633554  0.427959  1
  As  As13  1  0.657201  0.750000  0.820342  1
  As  As14  1  0.272264  0.866446  0.427959  1
  As  As15  1  0.598208  0.250000  0.925719  1
  S  S16  1  0.810038  0.750000  0.505720  1
  S  S17  1  0.452221  0.592516  0.806652  1
  S  S18  1  0.547779  0.407484  0.193348  1
  S  S19  1  0.689962  0.750000  0.005720  1
  S  S20  1  0.452221  0.907484  0.806652  1
  S  S21  1  0.189962  0.250000  0.494280  1
  S  S22  1  0.952221  0.407484  0.693348  1
  S  S23  1  0.310038  0.250000  0.994280  1
  S  S24  1  0.547779  0.092516  0.193348  1
  S  S25  1  0.952221  0.092516  0.693348  1
  S  S26  1  0.047779  0.907484  0.306652  1
  S  S27  1  0.047779  0.592516  0.306652  1
