# generated using pymatgen
data_Mo8O23
_symmetry_space_group_name_H-M   'P 1'
_cell_length_a   8.13757970
_cell_length_b   13.71323920
_cell_length_c   17.35525462
_cell_angle_alpha   106.35859361
_cell_angle_beta   90.00000000
_cell_angle_gamma   90.00000000
_symmetry_Int_Tables_number   1
_chemical_formula_structural   Mo8O23
_chemical_formula_sum   'Mo32 O92'
_cell_volume   1858.31493227
_cell_formula_units_Z   4
loop_
 _symmetry_equiv_pos_site_id
 _symmetry_equiv_pos_as_xyz
  1  'x, y, z'
loop_
 _atom_site_type_symbol
 _atom_site_label
 _atom_site_symmetry_multiplicity
 _atom_site_fract_x
 _atom_site_fract_y
 _atom_site_fract_z
 _atom_site_occupancy
  Mo  Mo0  1  0.792103  0.555318  0.598380  1
  Mo  Mo1  1  0.791426  0.684899  0.421833  1
  Mo  Mo2  1  0.291825  0.446276  0.904295  1
  Mo  Mo3  1  0.287808  0.185982  0.746634  1
  Mo  Mo4  1  0.712603  0.936500  0.582645  1
  Mo  Mo5  1  0.707448  0.555538  0.098754  1
  Mo  Mo6  1  0.210860  0.067254  0.918713  1
  Mo  Mo7  1  0.207897  0.555318  0.098380  1
  Mo  Mo8  1  0.786082  0.817137  0.754781  1
  Mo  Mo9  1  0.789140  0.067254  0.418713  1
  Mo  Mo10  1  0.711033  0.685479  0.920627  1
  Mo  Mo11  1  0.791527  0.446644  0.904698  1
  Mo  Mo12  1  0.287397  0.936500  0.082645  1
  Mo  Mo13  1  0.288967  0.685479  0.420627  1
  Mo  Mo14  1  0.209360  0.316769  0.581109  1
  Mo  Mo15  1  0.208574  0.684899  0.921833  1
  Mo  Mo16  1  0.288179  0.065131  0.420339  1
  Mo  Mo17  1  0.288293  0.316479  0.082545  1
  Mo  Mo18  1  0.712192  0.185982  0.246634  1
  Mo  Mo19  1  0.214029  0.184537  0.248287  1
  Mo  Mo20  1  0.208473  0.446644  0.404698  1
  Mo  Mo21  1  0.213918  0.817137  0.254781  1
  Mo  Mo22  1  0.287583  0.816127  0.756652  1
  Mo  Mo23  1  0.292552  0.555538  0.598754  1
  Mo  Mo24  1  0.711821  0.065131  0.920339  1
  Mo  Mo25  1  0.711707  0.316479  0.582545  1
  Mo  Mo26  1  0.712417  0.816127  0.256652  1
  Mo  Mo27  1  0.790640  0.316769  0.081109  1
  Mo  Mo28  1  0.788243  0.934789  0.084518  1
  Mo  Mo29  1  0.785971  0.184537  0.748287  1
  Mo  Mo30  1  0.211757  0.934789  0.584518  1
  Mo  Mo31  1  0.708175  0.446276  0.404295  1
  O  O32  1  0.760040  0.458140  0.653620  1
  O  O33  1  0.498931  0.199062  0.241664  1
  O  O34  1  0.243660  0.934518  0.336009  1
  O  O35  1  0.249929  0.933746  0.836710  1
  O  O36  1  0.754362  0.067348  0.667111  1
  O  O37  1  0.233307  0.000298  0.501278  1
  O  O38  1  0.745778  0.589811  0.497071  1
  O  O39  1  0.230328  0.736850  0.836483  1
  O  O40  1  0.230318  0.265081  0.666647  1
  O  O41  1  0.755096  0.738014  0.837213  1
  O  O42  1  0.497845  0.060666  0.921183  1
  O  O43  1  0.766693  0.000298  0.001278  1
  O  O44  1  0.004089  0.321500  0.073276  1
  O  O45  1  0.251135  0.458573  0.653349  1
  O  O46  1  0.502790  0.321611  0.084941  1
  O  O47  1  0.252885  0.068218  0.666353  1
  O  O48  1  0.254586  0.674563  0.674435  1
  O  O49  1  0.744912  0.799984  0.004833  1
  O  O50  1  0.502155  0.060666  0.421183  1
  O  O51  1  0.745414  0.674563  0.174434  1
  O  O52  1  -0.000673  0.811286  0.249661  1
  O  O53  1  0.769682  0.265081  0.166647  1
  O  O54  1  0.750071  0.933746  0.336710  1
  O  O55  1  0.255088  0.799984  0.504833  1
  O  O56  1  0.254593  0.412006  0.505879  1
  O  O57  1  0.244904  0.738014  0.337213  1
  O  O58  1  0.743771  0.201856  0.498241  1
  O  O59  1  0.239960  0.458140  0.153620  1
  O  O60  1  0.002205  0.075020  0.411400  1
  O  O61  1  0.747605  0.327333  0.328752  1
  O  O62  1  1.001353  0.928121  0.092467  1
  O  O63  1  0.254377  0.201590  0.499259  1
  O  O64  1  0.730214  0.131880  0.330951  1
  O  O65  1  0.755579  0.673739  0.674785  1
  O  O66  1  0.496452  0.681143  0.918808  1
  O  O67  1  0.244421  0.673739  0.174785  1
  O  O68  1  1.000673  0.811286  0.749661  1
  O  O69  1  0.256229  0.201856  0.998241  1
  O  O70  1  0.251628  0.543254  0.849584  1
  O  O71  1  0.758013  0.543698  0.849442  1
  O  O72  1  0.756077  0.263843  0.665853  1
  O  O73  1  0.232262  0.001579  0.001866  1
  O  O74  1  0.769672  0.736850  0.336483  1
  O  O75  1  0.493000  0.553727  0.096653  1
  O  O76  1  0.745407  0.412006  0.005879  1
  O  O77  1  0.507000  0.553727  0.596653  1
  O  O78  1  0.500929  0.804291  0.762375  1
  O  O79  1  0.736824  0.132896  0.831619  1
  O  O80  1  0.256775  0.589604  0.496666  1
  O  O81  1  0.493699  0.447188  0.406196  1
  O  O82  1  0.747115  0.068218  0.166353  1
  O  O83  1  0.997795  0.075020  0.911400  1
  O  O84  1  0.729779  0.870049  0.172202  1
  O  O85  1  0.503548  0.681143  0.418808  1
  O  O86  1  0.501069  0.199062  0.741664  1
  O  O87  1  0.748619  0.800210  0.503909  1
  O  O88  1  0.748865  0.458573  0.153349  1
  O  O89  1  0.006452  0.555198  0.591964  1
  O  O90  1  0.497210  0.321611  0.584941  1
  O  O91  1  0.743225  0.589604  0.996666  1
  O  O92  1  0.995911  0.321500  0.573276  1
  O  O93  1  0.767738  0.001579  0.501866  1
  O  O94  1  0.255763  0.412374  0.006471  1
  O  O95  1  0.269786  0.131880  0.830951  1
  O  O96  1  0.756340  0.934518  0.836009  1
  O  O97  1  0.252395  0.327333  0.828752  1
  O  O98  1  0.745623  0.201590  0.999259  1
  O  O99  1  0.254222  0.589811  0.997071  1
  O  O100  1  0.501393  0.939895  0.081039  1
  O  O101  1  0.263176  0.132896  0.331619  1
  O  O102  1  0.243181  0.328030  0.328277  1
  O  O103  1  0.756819  0.328030  0.828277  1
  O  O104  1  0.744237  0.412374  0.506471  1
  O  O105  1  0.995090  0.679361  0.928944  1
  O  O106  1  0.251381  0.800210  0.003909  1
  O  O107  1  1.000654  0.189359  0.752869  1
  O  O108  1  -0.000654  0.189359  0.252869  1
  O  O109  1  0.499071  0.804291  0.262375  1
  O  O110  1  0.005868  0.447750  0.911291  1
  O  O111  1  0.004910  0.679361  0.428944  1
  O  O112  1  0.994132  0.447750  0.411291  1
  O  O113  1  0.245638  0.067348  0.167111  1
  O  O114  1  0.270221  0.870049  0.672202  1
  O  O115  1  -0.001353  0.928121  0.592467  1
  O  O116  1  0.748372  0.543254  0.349584  1
  O  O117  1  0.243923  0.263843  0.165852  1
  O  O118  1  0.262935  0.868879  0.171487  1
  O  O119  1  0.737065  0.868879  0.671487  1
  O  O120  1  0.993548  0.555198  0.091964  1
  O  O121  1  0.241987  0.543698  0.349442  1
  O  O122  1  0.506301  0.447188  0.906196  1
  O  O123  1  0.498607  0.939895  0.581039  1
