# generated using pymatgen
data_SnCSNF
_symmetry_space_group_name_H-M   'P 1'
_cell_length_a   4.39913635
_cell_length_b   7.81253746
_cell_length_c   12.44219722
_cell_angle_alpha   90.00000000
_cell_angle_beta   90.00000000
_cell_angle_gamma   90.00000000
_symmetry_Int_Tables_number   1
_chemical_formula_structural   SnCSNF
_chemical_formula_sum   'Sn4 C4 S4 N4 F4'
_cell_volume   427.61862900
_cell_formula_units_Z   4
loop_
 _symmetry_equiv_pos_site_id
 _symmetry_equiv_pos_as_xyz
  1  'x, y, z'
loop_
 _atom_site_type_symbol
 _atom_site_label
 _atom_site_symmetry_multiplicity
 _atom_site_fract_x
 _atom_site_fract_y
 _atom_site_fract_z
 _atom_site_occupancy
  Sn  Sn0  1  0.250000  0.140010  0.094301  1
  Sn  Sn1  1  0.750000  0.859990  0.905699  1
  Sn  Sn2  1  0.750000  0.359990  0.594301  1
  Sn  Sn3  1  0.250000  0.640010  0.405699  1
  C  C4  1  0.750000  0.069069  0.391646  1
  C  C5  1  0.750000  0.569069  0.108354  1
  C  C6  1  0.250000  0.430931  0.891646  1
  C  C7  1  0.250000  0.930931  0.608354  1
  S  S8  1  0.750000  0.419483  0.198187  1
  S  S9  1  0.250000  0.580517  0.801813  1
  S  S10  1  0.250000  0.080517  0.698187  1
  S  S11  1  0.750000  0.919483  0.301813  1
  N  N12  1  0.750000  0.682577  0.044979  1
  N  N13  1  0.250000  0.317423  0.955021  1
  N  N14  1  0.250000  0.817423  0.544979  1
  N  N15  1  0.750000  0.182577  0.455021  1
  F  F16  1  0.250000  0.421691  0.527225  1
  F  F17  1  0.750000  0.078309  0.027225  1
  F  F18  1  0.250000  0.921691  0.972775  1
  F  F19  1  0.750000  0.578309  0.472775  1
