# generated using pymatgen
data_NdSbPd
_symmetry_space_group_name_H-M   'P 1'
_cell_length_a   4.54421782
_cell_length_b   8.07438596
_cell_length_c   8.16529251
_cell_angle_alpha   90.00000000
_cell_angle_beta   90.00000000
_cell_angle_gamma   90.00000000
_symmetry_Int_Tables_number   1
_chemical_formula_structural   NdSbPd
_chemical_formula_sum   'Nd4 Sb4 Pd4'
_cell_volume   299.59902304
_cell_formula_units_Z   4
loop_
 _symmetry_equiv_pos_site_id
 _symmetry_equiv_pos_as_xyz
  1  'x, y, z'
loop_
 _atom_site_type_symbol
 _atom_site_label
 _atom_site_symmetry_multiplicity
 _atom_site_fract_x
 _atom_site_fract_y
 _atom_site_fract_z
 _atom_site_occupancy
  Nd  Nd0  1  0.500000  0.750000  0.507269  1
  Nd  Nd1  1  0.000000  0.750000  0.991229  1
  Nd  Nd2  1  0.500000  0.250000  0.492731  1
  Nd  Nd3  1  0.000000  0.250000  0.008771  1
  Sb  Sb4  1  0.500000  0.496963  0.821620  1
  Sb  Sb5  1  0.500000  0.996963  0.178380  1
  Sb  Sb6  1  0.500000  0.503037  0.178380  1
  Sb  Sb7  1  0.500000  0.003037  0.821620  1
  Pd  Pd8  1  0.000000  0.517037  0.333878  1
  Pd  Pd9  1  0.000000  0.482963  0.666122  1
  Pd  Pd10  1  0.000000  0.982963  0.333878  1
  Pd  Pd11  1  0.000000  0.017037  0.666122  1
