# generated using pymatgen
data_K2Hg2SCl4O3
_symmetry_space_group_name_H-M   'P 1'
_cell_length_a   6.11676146
_cell_length_b   9.79884932
_cell_length_c   10.42896758
_cell_angle_alpha   110.47861813
_cell_angle_beta   90.00000000
_cell_angle_gamma   90.00000000
_symmetry_Int_Tables_number   1
_chemical_formula_structural   K2Hg2SCl4O3
_chemical_formula_sum   'K4 Hg4 S2 Cl8 O6'
_cell_volume   585.57985626
_cell_formula_units_Z   2
loop_
 _symmetry_equiv_pos_site_id
 _symmetry_equiv_pos_as_xyz
  1  'x, y, z'
loop_
 _atom_site_type_symbol
 _atom_site_label
 _atom_site_symmetry_multiplicity
 _atom_site_fract_x
 _atom_site_fract_y
 _atom_site_fract_z
 _atom_site_occupancy
  K  K0  1  0.750000  0.599916  0.177069  1
  K  K1  1  0.750000  0.127805  0.943572  1
  K  K2  1  0.250000  0.400084  0.822931  1
  K  K3  1  0.250000  0.872195  0.056428  1
  Hg  Hg4  1  0.250000  0.407361  0.368227  1
  Hg  Hg5  1  0.750000  0.115946  0.472411  1
  Hg  Hg6  1  0.250000  0.884054  0.527589  1
  Hg  Hg7  1  0.750000  0.592639  0.631773  1
  S  S8  1  0.750000  0.692570  0.881890  1
  S  S9  1  0.250000  0.307430  0.118110  1
  Cl  Cl10  1  0.750000  0.419881  0.392376  1
  Cl  Cl11  1  0.750000  0.837657  0.532601  1
  Cl  Cl12  1  0.250000  0.018936  0.766145  1
  Cl  Cl13  1  0.250000  0.162343  0.467399  1
  Cl  Cl14  1  0.750000  0.981064  0.233855  1
  Cl  Cl15  1  0.250000  0.580119  0.607624  1
  Cl  Cl16  1  0.250000  0.723198  0.293167  1
  Cl  Cl17  1  0.750000  0.276802  0.706833  1
  O  O18  1  0.250000  0.147524  0.080608  1
  O  O19  1  0.450545  0.359825  0.068597  1
  O  O20  1  0.750000  0.852476  0.919392  1
  O  O21  1  0.549455  0.640175  0.931403  1
  O  O22  1  0.950545  0.640175  0.931403  1
  O  O23  1  0.049455  0.359825  0.068597  1
