# generated using pymatgen
data_LiHo(PO3)4
_symmetry_space_group_name_H-M   'P 1'
_cell_length_a   7.11779909
_cell_length_b   8.94744023
_cell_length_c   8.94131591
_cell_angle_alpha   65.30330948
_cell_angle_beta   66.54500500
_cell_angle_gamma   66.56202236
_symmetry_Int_Tables_number   1
_chemical_formula_structural   LiHo(PO3)4
_chemical_formula_sum   'Li2 Ho2 P8 O24'
_cell_volume   455.93754627
_cell_formula_units_Z   2
loop_
 _symmetry_equiv_pos_site_id
 _symmetry_equiv_pos_as_xyz
  1  'x, y, z'
loop_
 _atom_site_type_symbol
 _atom_site_label
 _atom_site_symmetry_multiplicity
 _atom_site_fract_x
 _atom_site_fract_y
 _atom_site_fract_z
 _atom_site_occupancy
  Li  Li0  1  0.706231  0.750000  0.250000  1
  Li  Li1  1  0.293769  0.250000  0.750000  1
  Ho  Ho2  1  0.203038  0.750000  0.250000  1
  Ho  Ho3  1  0.796962  0.250000  0.750000  1
  P  P4  1  0.312156  0.616043  0.657729  1
  P  P5  1  0.295421  0.306026  0.402619  1
  P  P6  1  0.004066  0.193974  0.097381  1
  P  P7  1  0.995934  0.806026  0.902619  1
  P  P8  1  0.414073  0.116043  0.157729  1
  P  P9  1  0.687844  0.383957  0.342271  1
  P  P10  1  0.585927  0.883957  0.842271  1
  P  P11  1  0.704579  0.693974  0.597381  1
  O  O12  1  0.470874  0.734106  0.578180  1
  O  O13  1  0.563191  0.071812  0.796404  1
  O  O14  1  0.989182  0.774035  0.083315  1
  O  O15  1  0.216840  0.234106  0.078180  1
  O  O16  1  0.175629  0.684124  0.539117  1
  O  O17  1  0.757082  0.523248  0.728312  1
  O  O18  1  0.008642  0.976752  0.771688  1
  O  O19  1  0.601130  0.184124  0.039117  1
  O  O20  1  0.398870  0.815876  0.960883  1
  O  O21  1  0.010818  0.225965  0.916685  1
  O  O22  1  0.176417  0.650886  0.839239  1
  O  O23  1  0.783160  0.765894  0.921820  1
  O  O24  1  0.431407  0.428188  0.703596  1
  O  O25  1  0.846532  0.725965  0.416685  1
  O  O26  1  0.991358  0.023248  0.228312  1
  O  O27  1  0.824371  0.315876  0.460883  1
  O  O28  1  0.436809  0.928188  0.203596  1
  O  O29  1  0.823583  0.349114  0.160761  1
  O  O30  1  0.153468  0.274035  0.583315  1
  O  O31  1  0.666541  0.849114  0.660761  1
  O  O32  1  0.333459  0.150886  0.339239  1
  O  O33  1  0.568593  0.571812  0.296404  1
  O  O34  1  0.242918  0.476752  0.271688  1
  O  O35  1  0.529126  0.265894  0.421820  1
