# generated using pymatgen
data_Li8Bi2PdO10
_symmetry_space_group_name_H-M   'P 1'
_cell_length_a   4.28346442
_cell_length_b   5.35718201
_cell_length_c   11.20645551
_cell_angle_alpha   76.88958311
_cell_angle_beta   78.98208582
_cell_angle_gamma   66.43513008
_symmetry_Int_Tables_number   1
_chemical_formula_structural   Li8Bi2PdO10
_chemical_formula_sum   'Li8 Bi2 Pd1 O10'
_cell_volume   228.11162452
_cell_formula_units_Z   1
loop_
 _symmetry_equiv_pos_site_id
 _symmetry_equiv_pos_as_xyz
  1  'x, y, z'
loop_
 _atom_site_type_symbol
 _atom_site_label
 _atom_site_symmetry_multiplicity
 _atom_site_fract_x
 _atom_site_fract_y
 _atom_site_fract_z
 _atom_site_occupancy
  Li  Li0  1  0.620050  0.221498  0.538401  1
  Li  Li1  1  0.252929  0.400071  0.094072  1
  Li  Li2  1  0.086092  0.442707  0.385108  1
  Li  Li3  1  0.913908  0.557293  0.614892  1
  Li  Li4  1  0.747071  0.599929  0.905928  1
  Li  Li5  1  0.379950  0.778502  0.461599  1
  Li  Li6  1  0.552160  0.700895  0.194786  1
  Li  Li7  1  0.447840  0.299105  0.805214  1
  Bi  Bi8  1  0.181454  0.917139  0.719952  1
  Bi  Bi9  1  0.818546  0.082861  0.280048  1
  Pd  Pd10  1  0.000000  0.000000  0.000000  1
  O  O11  1  0.961663  0.243731  0.832942  1
  O  O12  1  0.673830  0.910582  0.741757  1
  O  O13  1  0.326170  0.089418  0.258243  1
  O  O14  1  0.399712  0.559296  0.641279  1
  O  O15  1  0.600288  0.440704  0.358721  1
  O  O16  1  0.210699  0.670094  0.908508  1
  O  O17  1  0.038337  0.756269  0.167058  1
  O  O18  1  0.127917  0.189958  0.554208  1
  O  O19  1  0.872083  0.810042  0.445792  1
  O  O20  1  0.789301  0.329906  0.091492  1
