# generated using pymatgen
data_NaAu(SO4)2
_symmetry_space_group_name_H-M   'P 1'
_cell_length_a   4.79769693
_cell_length_b   8.55040088
_cell_length_c   8.61016485
_cell_angle_alpha   90.00000000
_cell_angle_beta   90.00000000
_cell_angle_gamma   95.28741655
_symmetry_Int_Tables_number   1
_chemical_formula_structural   NaAu(SO4)2
_chemical_formula_sum   'Na2 Au2 S4 O16'
_cell_volume   351.70526596
_cell_formula_units_Z   2
loop_
 _symmetry_equiv_pos_site_id
 _symmetry_equiv_pos_as_xyz
  1  'x, y, z'
loop_
 _atom_site_type_symbol
 _atom_site_label
 _atom_site_symmetry_multiplicity
 _atom_site_fract_x
 _atom_site_fract_y
 _atom_site_fract_z
 _atom_site_occupancy
  Na  Na0  1  0.500000  0.500000  0.000000  1
  Na  Na1  1  0.000000  0.000000  0.500000  1
  Au  Au2  1  0.000000  0.000000  0.000000  1
  Au  Au3  1  0.500000  0.500000  0.500000  1
  S  S4  1  0.506680  0.113197  0.792885  1
  S  S5  1  0.006680  0.613197  0.707115  1
  S  S6  1  0.493320  0.886803  0.207115  1
  S  S7  1  0.993320  0.386803  0.292885  1
  O  O8  1  0.830415  0.466985  0.639766  1
  O  O9  1  0.169585  0.533015  0.360234  1
  O  O10  1  0.330415  0.966985  0.860234  1
  O  O11  1  0.808758  0.060988  0.798382  1
  O  O12  1  0.691242  0.439012  0.298382  1
  O  O13  1  0.024265  0.250577  0.388151  1
  O  O14  1  0.191242  0.939012  0.201618  1
  O  O15  1  0.669585  0.033015  0.139766  1
  O  O16  1  0.448502  0.126227  0.628119  1
  O  O17  1  0.975735  0.749423  0.611849  1
  O  O18  1  0.524265  0.750577  0.111849  1
  O  O19  1  0.948502  0.626227  0.871881  1
  O  O20  1  0.308758  0.560988  0.701618  1
  O  O21  1  0.551498  0.873773  0.371881  1
  O  O22  1  0.475735  0.249423  0.888151  1
  O  O23  1  0.051498  0.373773  0.128119  1
