# generated using pymatgen
data_VPPbO6
_symmetry_space_group_name_H-M   'P 1'
_cell_length_a   9.98308680
_cell_length_b   11.15796482
_cell_length_c   13.95871323
_cell_angle_alpha   90.00000000
_cell_angle_beta   90.00000000
_cell_angle_gamma   90.00000000
_symmetry_Int_Tables_number   1
_chemical_formula_structural   VPPbO6
_chemical_formula_sum   'V12 P12 Pb12 O72'
_cell_volume   1554.87406657
_cell_formula_units_Z   12
loop_
 _symmetry_equiv_pos_site_id
 _symmetry_equiv_pos_as_xyz
  1  'x, y, z'
loop_
 _atom_site_type_symbol
 _atom_site_label
 _atom_site_symmetry_multiplicity
 _atom_site_fract_x
 _atom_site_fract_y
 _atom_site_fract_z
 _atom_site_occupancy
  V  V0  1  0.124101  0.315655  0.250000  1
  V  V1  1  0.787609  0.095319  0.521198  1
  V  V2  1  0.212391  0.904681  0.478802  1
  V  V3  1  0.287609  0.404681  0.978802  1
  V  V4  1  0.624101  0.184345  0.250000  1
  V  V5  1  0.712391  0.595319  0.021198  1
  V  V6  1  0.787609  0.095319  0.978802  1
  V  V7  1  0.212391  0.904681  0.021198  1
  V  V8  1  0.287609  0.404681  0.521198  1
  V  V9  1  0.375899  0.815655  0.750000  1
  V  V10  1  0.875899  0.684345  0.750000  1
  V  V11  1  0.712391  0.595319  0.478802  1
  P  P12  1  0.604988  0.325676  0.451036  1
  P  P13  1  0.895012  0.825676  0.951036  1
  P  P14  1  0.104988  0.174324  0.048964  1
  P  P15  1  0.720850  0.210809  0.750000  1
  P  P16  1  0.604988  0.325676  0.048964  1
  P  P17  1  0.395012  0.674324  0.951036  1
  P  P18  1  0.104988  0.174324  0.451036  1
  P  P19  1  0.279150  0.789191  0.250000  1
  P  P20  1  0.220850  0.289191  0.750000  1
  P  P21  1  0.779150  0.710809  0.250000  1
  P  P22  1  0.395012  0.674324  0.548964  1
  P  P23  1  0.895012  0.825676  0.548964  1
  Pb  Pb24  1  0.417700  0.118612  0.610359  1
  Pb  Pb25  1  0.582300  0.881388  0.389641  1
  Pb  Pb26  1  0.065204  0.994126  0.750000  1
  Pb  Pb27  1  0.934796  0.005874  0.250000  1
  Pb  Pb28  1  0.582300  0.881388  0.110359  1
  Pb  Pb29  1  0.082300  0.618612  0.389641  1
  Pb  Pb30  1  0.082300  0.618612  0.110359  1
  Pb  Pb31  1  0.565204  0.505874  0.750000  1
  Pb  Pb32  1  0.417700  0.118612  0.889641  1
  Pb  Pb33  1  0.917700  0.381388  0.610359  1
  Pb  Pb34  1  0.917700  0.381388  0.889641  1
  Pb  Pb35  1  0.434796  0.494126  0.250000  1
  O  O36  1  0.820410  0.043689  0.090001  1
  O  O37  1  0.679590  0.543689  0.909999  1
  O  O38  1  0.237117  0.232184  0.486193  1
  O  O39  1  0.372437  0.950298  0.466563  1
  O  O40  1  0.870944  0.955641  0.915761  1
  O  O41  1  0.200040  0.831058  0.159986  1
  O  O42  1  0.872437  0.549702  0.466563  1
  O  O43  1  0.572394  0.042025  0.250000  1
  O  O44  1  0.737117  0.267816  0.486193  1
  O  O45  1  0.507314  0.683273  0.025899  1
  O  O46  1  0.820410  0.043689  0.409999  1
  O  O47  1  0.492686  0.316727  0.525899  1
  O  O48  1  0.129056  0.044359  0.084239  1
  O  O49  1  0.056413  0.242395  0.357656  1
  O  O50  1  0.127563  0.450298  0.533437  1
  O  O51  1  0.129056  0.044359  0.415761  1
  O  O52  1  0.627563  0.049702  0.533437  1
  O  O53  1  0.262883  0.732184  0.986193  1
  O  O54  1  0.200040  0.831058  0.340014  1
  O  O55  1  0.927606  0.542025  0.750000  1
  O  O56  1  0.427606  0.957975  0.750000  1
  O  O57  1  0.072394  0.457975  0.250000  1
  O  O58  1  0.943587  0.757605  0.642344  1
  O  O59  1  0.799960  0.168942  0.840014  1
  O  O60  1  0.799960  0.168942  0.659986  1
  O  O61  1  0.270179  0.647841  0.250000  1
  O  O62  1  0.790207  0.187742  0.250000  1
  O  O63  1  0.262883  0.732184  0.513807  1
  O  O64  1  0.372437  0.950298  0.033437  1
  O  O65  1  0.127563  0.450298  0.966563  1
  O  O66  1  0.770179  0.852159  0.250000  1
  O  O67  1  0.992686  0.183273  0.525899  1
  O  O68  1  0.492686  0.316727  0.974101  1
  O  O69  1  0.870944  0.955641  0.584239  1
  O  O70  1  0.927205  0.671425  0.250000  1
  O  O71  1  0.056413  0.242395  0.142344  1
  O  O72  1  0.737117  0.267816  0.013807  1
  O  O73  1  0.679590  0.543689  0.590001  1
  O  O74  1  0.556413  0.257605  0.357656  1
  O  O75  1  0.872437  0.549702  0.033437  1
  O  O76  1  0.007314  0.816727  0.474101  1
  O  O77  1  0.700040  0.668942  0.159986  1
  O  O78  1  0.209793  0.812258  0.750000  1
  O  O79  1  0.229821  0.147841  0.750000  1
  O  O80  1  0.762883  0.767816  0.513807  1
  O  O81  1  0.299960  0.331058  0.840014  1
  O  O82  1  0.627563  0.049702  0.966563  1
  O  O83  1  0.700040  0.668942  0.340014  1
  O  O84  1  0.943587  0.757605  0.857656  1
  O  O85  1  0.370944  0.544359  0.915761  1
  O  O86  1  0.179590  0.956311  0.909999  1
  O  O87  1  0.007314  0.816727  0.025899  1
  O  O88  1  0.370944  0.544359  0.584239  1
  O  O89  1  0.443587  0.742395  0.642344  1
  O  O90  1  0.443587  0.742395  0.857656  1
  O  O91  1  0.072795  0.328575  0.750000  1
  O  O92  1  0.709793  0.687742  0.750000  1
  O  O93  1  0.290207  0.312258  0.250000  1
  O  O94  1  0.320410  0.456311  0.409999  1
  O  O95  1  0.629056  0.455641  0.084239  1
  O  O96  1  0.179590  0.956311  0.590001  1
  O  O97  1  0.729821  0.352159  0.750000  1
  O  O98  1  0.507314  0.683273  0.474101  1
  O  O99  1  0.427205  0.828575  0.250000  1
  O  O100  1  0.320410  0.456311  0.090001  1
  O  O101  1  0.237117  0.232184  0.013807  1
  O  O102  1  0.299960  0.331058  0.659986  1
  O  O103  1  0.572795  0.171425  0.750000  1
  O  O104  1  0.762883  0.767816  0.986193  1
  O  O105  1  0.629056  0.455641  0.415761  1
  O  O106  1  0.992686  0.183273  0.974101  1
  O  O107  1  0.556413  0.257605  0.142344  1
