# generated using pymatgen
data_CdAs2S2(OF3)4
_symmetry_space_group_name_H-M   'P 1'
_cell_length_a   9.12283526
_cell_length_b   9.12283569
_cell_length_c   10.35402595
_cell_angle_alpha   102.86522472
_cell_angle_beta   102.86522528
_cell_angle_gamma   119.64235983
_symmetry_Int_Tables_number   1
_chemical_formula_structural   CdAs2S2(OF3)4
_chemical_formula_sum   'Cd2 As4 S4 O8 F24'
_cell_volume   671.47864722
_cell_formula_units_Z   2
loop_
 _symmetry_equiv_pos_site_id
 _symmetry_equiv_pos_as_xyz
  1  'x, y, z'
loop_
 _atom_site_type_symbol
 _atom_site_label
 _atom_site_symmetry_multiplicity
 _atom_site_fract_x
 _atom_site_fract_y
 _atom_site_fract_z
 _atom_site_occupancy
  Cd  Cd0  1  0.630204  0.130204  0.500000  1
  Cd  Cd1  1  0.380204  0.380204  0.000000  1
  As  As2  1  0.604660  0.925553  0.111940  1
  As  As3  1  0.813613  0.492720  0.888060  1
  As  As4  1  0.175553  0.354660  0.611940  1
  As  As5  1  0.742720  0.563613  0.388060  1
  S  S6  1  0.706970  0.884788  0.705663  1
  S  S7  1  0.251307  0.929125  0.794337  1
  S  S8  1  0.179125  0.001307  0.294337  1
  S  S9  1  0.134788  0.456970  0.205663  1
  O  O10  1  0.262181  0.074658  0.901382  1
  O  O11  1  0.231445  0.095296  0.201005  1
  O  O12  1  0.324658  0.012181  0.401382  1
  O  O13  1  0.610798  0.923276  0.598618  1
  O  O14  1  0.173276  0.360798  0.098618  1
  O  O15  1  0.345296  0.981445  0.701005  1
  O  O16  1  0.894292  0.030441  0.798995  1
  O  O17  1  0.280441  0.644292  0.298995  1
  F  F18  1  0.236335  0.411066  0.805167  1
  F  F19  1  0.541428  0.854225  0.923707  1
  F  F20  1  0.942900  0.272522  0.596728  1
  F  F21  1  0.831143  0.682182  0.860721  1
  F  F22  1  0.661066  0.986335  0.305167  1
  F  F23  1  0.932182  0.581143  0.360721  1
  F  F24  1  0.930517  0.617721  0.076293  1
  F  F25  1  0.596172  0.425795  0.903272  1
  F  F26  1  0.542976  0.528592  0.408634  1
  F  F27  1  0.016558  0.550786  0.864983  1
  F  F28  1  0.605900  0.431168  0.194833  1
  F  F29  1  0.522522  0.692900  0.096728  1
  F  F30  1  0.681168  0.355900  0.694833  1
  F  F31  1  0.401574  0.435803  0.635017  1
  F  F32  1  0.220422  0.571461  0.639279  1
  F  F33  1  0.384342  0.869958  0.091366  1
  F  F34  1  0.104225  0.291428  0.423707  1
  F  F35  1  0.867721  0.680517  0.576293  1
  F  F36  1  0.821461  0.970422  0.139279  1
  F  F37  1  0.675795  0.346172  0.403272  1
  F  F38  1  0.685803  0.151574  0.135017  1
  F  F39  1  0.778592  0.292976  0.908634  1
  F  F40  1  0.800786  0.766558  0.364983  1
  F  F41  1  0.119958  0.134342  0.591366  1
