# generated using pymatgen
data_FeH14C4NOF4
_symmetry_space_group_name_H-M   'P 1'
_cell_length_a   6.92707167
_cell_length_b   8.29065406
_cell_length_c   9.12163654
_cell_angle_alpha   65.35738393
_cell_angle_beta   83.08642765
_cell_angle_gamma   72.49310221
_symmetry_Int_Tables_number   1
_chemical_formula_structural   FeH14C4NOF4
_chemical_formula_sum   'Fe2 H28 C8 N2 O2 F8'
_cell_volume   454.08326578
_cell_formula_units_Z   2
loop_
 _symmetry_equiv_pos_site_id
 _symmetry_equiv_pos_as_xyz
  1  'x, y, z'
loop_
 _atom_site_type_symbol
 _atom_site_label
 _atom_site_symmetry_multiplicity
 _atom_site_fract_x
 _atom_site_fract_y
 _atom_site_fract_z
 _atom_site_occupancy
  Fe  Fe0  1  0.172899  0.004485  0.886384  1
  Fe  Fe1  1  0.827101  0.995515  0.113616  1
  H  H2  1  0.729527  0.498976  0.649769  1
  H  H3  1  0.588537  0.677897  0.881626  1
  H  H4  1  0.529972  0.707773  0.621499  1
  H  H5  1  0.795135  0.471552  0.918715  1
  H  H6  1  0.115719  0.663106  0.745084  1
  H  H7  1  0.268799  0.291123  0.523882  1
  H  H8  1  0.787289  0.960406  0.505342  1
  H  H9  1  0.456487  0.846614  0.113635  1
  H  H10  1  0.066597  0.677014  0.550341  1
  H  H11  1  0.933403  0.322986  0.449659  1
  H  H12  1  0.884282  0.336894  0.254916  1
  H  H13  1  0.543513  0.153386  0.886365  1
  H  H14  1  0.270473  0.501024  0.350231  1
  H  H15  1  0.067012  0.469431  0.727242  1
  H  H16  1  0.204865  0.528448  0.081285  1
  H  H17  1  0.232742  0.816529  0.171191  1
  H  H18  1  0.167461  0.331706  0.061578  1
  H  H19  1  0.859245  0.939775  0.697369  1
  H  H20  1  0.212711  0.039594  0.494658  1
  H  H21  1  0.470028  0.292227  0.378501  1
  H  H22  1  0.932988  0.530569  0.272758  1
  H  H23  1  0.140755  0.060225  0.302631  1
  H  H24  1  0.411463  0.322103  0.118374  1
  H  H25  1  0.731201  0.708877  0.476118  1
  H  H26  1  0.398279  0.041522  0.337324  1
  H  H27  1  0.767258  0.183471  0.828809  1
  H  H28  1  0.832539  0.668294  0.938422  1
  H  H29  1  0.601721  0.958478  0.662676  1
  C  C30  1  0.309034  0.350218  0.396247  1
  C  C31  1  0.752477  0.622519  0.873286  1
  C  C32  1  0.760881  0.905748  0.635819  1
  C  C33  1  0.967770  0.379688  0.320558  1
  C  C34  1  0.239119  0.094252  0.364181  1
  C  C35  1  0.247523  0.377481  0.126714  1
  C  C36  1  0.690966  0.649782  0.603753  1
  C  C37  1  0.032230  0.620312  0.679442  1
  N  N38  1  0.809687  0.698969  0.698398  1
  N  N39  1  0.190313  0.301031  0.301602  1
  O  O40  1  0.664697  0.177460  0.917182  1
  O  O41  1  0.335303  0.822540  0.082818  1
  F  F42  1  0.969151  0.867101  0.977706  1
  F  F43  1  0.709728  0.133590  0.232642  1
  F  F44  1  0.019929  0.822916  0.279251  1
  F  F45  1  0.290272  0.866410  0.767358  1
  F  F46  1  0.641462  0.851573  0.187024  1
  F  F47  1  0.980071  0.177084  0.720750  1
  F  F48  1  0.030849  0.132899  0.022294  1
  F  F49  1  0.358538  0.148427  0.812976  1
