# generated using pymatgen
data_CdI2
_symmetry_space_group_name_H-M   'P 1'
_cell_length_a   4.33308924
_cell_length_b   4.33308950
_cell_length_c   119.08829545
_cell_angle_alpha   90.00000000
_cell_angle_beta   90.00000000
_cell_angle_gamma   119.99999801
_symmetry_Int_Tables_number   1
_chemical_formula_structural   CdI2
_chemical_formula_sum   'Cd17 I34'
_cell_volume   1936.39972601
_cell_formula_units_Z   17
loop_
 _symmetry_equiv_pos_site_id
 _symmetry_equiv_pos_as_xyz
  1  'x, y, z'
loop_
 _atom_site_type_symbol
 _atom_site_label
 _atom_site_symmetry_multiplicity
 _atom_site_fract_x
 _atom_site_fract_y
 _atom_site_fract_z
 _atom_site_occupancy
  Cd  Cd0  1  0.666667  0.333333  0.132360  1
  Cd  Cd1  1  0.666667  0.333333  0.838237  1
  Cd  Cd2  1  0.333333  0.666667  0.073533  1
  Cd  Cd3  1  0.333333  0.666667  0.485297  1
  Cd  Cd4  1  0.666667  0.333333  0.897056  1
  Cd  Cd5  1  0.666667  0.333333  0.720590  1
  Cd  Cd6  1  0.333333  0.666667  0.367647  1
  Cd  Cd7  1  0.333333  0.666667  0.191178  1
  Cd  Cd8  1  0.666667  0.333333  0.014711  1
  Cd  Cd9  1  0.666667  0.333333  0.426477  1
  Cd  Cd10  1  0.000000  0.000000  0.308823  1
  Cd  Cd11  1  0.333333  0.666667  0.661768  1
  Cd  Cd12  1  0.666667  0.333333  0.544118  1
  Cd  Cd13  1  0.333333  0.666667  0.955885  1
  Cd  Cd14  1  0.333333  0.666667  0.249994  1
  Cd  Cd15  1  0.666667  0.333333  0.602940  1
  Cd  Cd16  1  0.333333  0.666667  0.779419  1
  I  I17  1  0.000000  0.000000  0.411999  1
  I  I18  1  0.666667  0.333333  0.676228  1
  I  I19  1  0.333333  0.666667  0.911522  1
  I  I20  1  0.000000  0.000000  0.059056  1
  I  I21  1  0.333333  0.666667  0.440947  1
  I  I22  1  0.333333  0.666667  0.558580  1
  I  I23  1  0.000000  0.000000  0.176694  1
  I  I24  1  0.000000  0.000000  0.941402  1
  I  I25  1  0.333333  0.666667  0.294353  1
  I  I26  1  0.333333  0.666667  0.146827  1
  I  I27  1  0.666667  0.333333  0.323292  1
  I  I28  1  0.000000  0.000000  0.235528  1
  I  I29  1  0.666667  0.333333  0.382121  1
  I  I30  1  0.000000  0.000000  0.882587  1
  I  I31  1  0.000000  0.000000  0.647290  1
  I  I32  1  0.000000  0.000000  0.706124  1
  I  I33  1  0.000000  0.000000  0.470831  1
  I  I34  1  0.000000  0.000000  0.117891  1
  I  I35  1  0.000000  0.000000  0.823761  1
  I  I36  1  0.666667  0.333333  0.205645  1
  I  I37  1  0.333333  0.666667  0.029183  1
  I  I38  1  0.666667  0.333333  0.088003  1
  I  I39  1  0.000000  0.000000  0.764947  1
  I  I40  1  0.000000  0.000000  0.000238  1
  I  I41  1  0.000000  0.000000  0.353179  1
  I  I42  1  0.333333  0.666667  0.617407  1
  I  I43  1  0.666667  0.333333  0.793891  1
  I  I44  1  0.666667  0.333333  0.970345  1
  I  I45  1  0.000000  0.000000  0.588467  1
  I  I46  1  0.333333  0.666667  0.735055  1
  I  I47  1  0.666667  0.333333  0.499763  1
  I  I48  1  0.333333  0.666667  0.852708  1
  I  I49  1  0.000000  0.000000  0.529638  1
  I  I50  1  0.666667  0.333333  0.264467  1
