# generated using pymatgen
data_Hf5Re24
_symmetry_space_group_name_H-M   'P 1'
_cell_length_a   8.47435929
_cell_length_b   8.47435960
_cell_length_c   8.47435969
_cell_angle_alpha   109.47122327
_cell_angle_beta   109.47122401
_cell_angle_gamma   109.47121992
_symmetry_Int_Tables_number   1
_chemical_formula_structural   Hf5Re24
_chemical_formula_sum   'Hf5 Re24'
_cell_volume   468.48828553
_cell_formula_units_Z   1
loop_
 _symmetry_equiv_pos_site_id
 _symmetry_equiv_pos_as_xyz
  1  'x, y, z'
loop_
 _atom_site_type_symbol
 _atom_site_label
 _atom_site_symmetry_multiplicity
 _atom_site_fract_x
 _atom_site_fract_y
 _atom_site_fract_z
 _atom_site_occupancy
  Hf  Hf0  1  0.000000  0.371421  1.000000  1
  Hf  Hf1  1  0.000000  0.000000  0.000000  1
  Hf  Hf2  1  1.000000  1.000000  0.371421  1
  Hf  Hf3  1  0.371421  1.000000  1.000000  1
  Hf  Hf4  1  0.628579  0.628579  0.628579  1
  Re  Re5  1  0.676937  0.676937  0.281010  1
  Re  Re6  1  0.375699  0.375699  0.182034  1
  Re  Re7  1  0.000000  0.624301  0.806335  1
  Re  Re8  1  0.323063  1.000000  0.604072  1
  Re  Re9  1  0.395928  0.718990  0.395928  1
  Re  Re10  1  1.000000  0.604072  0.323063  1
  Re  Re11  1  0.718990  0.395928  0.395928  1
  Re  Re12  1  0.000000  0.806335  0.624301  1
  Re  Re13  1  0.395928  0.395928  0.718990  1
  Re  Re14  1  0.624301  0.806335  0.000000  1
  Re  Re15  1  0.281010  0.676937  0.676937  1
  Re  Re16  1  0.676937  0.281010  0.676937  1
  Re  Re17  1  0.817966  0.193665  0.193665  1
  Re  Re18  1  0.193665  0.193665  0.817966  1
  Re  Re19  1  0.604072  0.323063  1.000000  1
  Re  Re20  1  0.806335  0.000000  0.624301  1
  Re  Re21  1  0.193665  0.817966  0.193665  1
  Re  Re22  1  0.375699  0.182034  0.375699  1
  Re  Re23  1  0.323063  0.604072  1.000000  1
  Re  Re24  1  0.624301  0.000000  0.806335  1
  Re  Re25  1  1.000000  0.323063  0.604072  1
  Re  Re26  1  0.604072  1.000000  0.323063  1
  Re  Re27  1  0.806335  0.624301  0.000000  1
  Re  Re28  1  0.182034  0.375699  0.375699  1
