# generated using pymatgen
data_Cs2ZnO2
_symmetry_space_group_name_H-M   'P 1'
_cell_length_a   6.73102613
_cell_length_b   10.02714370
_cell_length_c   14.99100329
_cell_angle_alpha   99.34113461
_cell_angle_beta   90.00000000
_cell_angle_gamma   90.00000000
_symmetry_Int_Tables_number   1
_chemical_formula_structural   Cs2ZnO2
_chemical_formula_sum   'Cs16 Zn8 O16'
_cell_volume   998.37041461
_cell_formula_units_Z   8
loop_
 _symmetry_equiv_pos_site_id
 _symmetry_equiv_pos_as_xyz
  1  'x, y, z'
loop_
 _atom_site_type_symbol
 _atom_site_label
 _atom_site_symmetry_multiplicity
 _atom_site_fract_x
 _atom_site_fract_y
 _atom_site_fract_z
 _atom_site_occupancy
  Cs  Cs0  1  0.910355  0.418215  0.741884  1
  Cs  Cs1  1  0.410355  0.081785  0.758116  1
  Cs  Cs2  1  0.089645  0.581785  0.258116  1
  Cs  Cs3  1  0.589645  0.918215  0.241884  1
  Cs  Cs4  1  0.825048  0.329712  0.476349  1
  Cs  Cs5  1  0.325047  0.170288  0.023651  1
  Cs  Cs6  1  0.174953  0.670288  0.523651  1
  Cs  Cs7  1  0.674952  0.829712  0.976349  1
  Cs  Cs8  1  0.362543  0.264115  0.338703  1
  Cs  Cs9  1  0.862543  0.235885  0.161297  1
  Cs  Cs10  1  0.637457  0.735885  0.661297  1
  Cs  Cs11  1  0.137457  0.764115  0.838703  1
  Cs  Cs12  1  0.076823  0.950656  0.379086  1
  Cs  Cs13  1  0.576823  0.549344  0.120914  1
  Cs  Cs14  1  0.923177  0.049344  0.620914  1
  Cs  Cs15  1  0.423177  0.450656  0.879086  1
  Zn  Zn16  1  0.444750  0.125327  0.540039  1
  Zn  Zn17  1  0.944750  0.374673  0.959961  1
  Zn  Zn18  1  0.555250  0.874673  0.459961  1
  Zn  Zn19  1  0.055250  0.625327  0.040039  1
  Zn  Zn20  1  0.365228  0.382728  0.627744  1
  Zn  Zn21  1  0.865228  0.117272  0.872256  1
  Zn  Zn22  1  0.634772  0.617272  0.372256  1
  Zn  Zn23  1  0.134772  0.882728  0.127744  1
  O  O24  1  0.619715  0.061388  0.430857  1
  O  O25  1  0.119715  0.438612  0.069143  1
  O  O26  1  0.380285  0.938612  0.569143  1
  O  O27  1  0.880285  0.561388  0.930857  1
  O  O28  1  0.586026  0.258792  0.639765  1
  O  O29  1  0.086026  0.241208  0.860235  1
  O  O30  1  0.413974  0.741208  0.360235  1
  O  O31  1  0.913974  0.758792  0.139765  1
  O  O32  1  0.222665  0.260827  0.531657  1
  O  O33  1  0.722665  0.239173  0.968343  1
  O  O34  1  0.777335  0.739173  0.468343  1
  O  O35  1  0.277335  0.760827  0.031657  1
  O  O36  1  0.694414  0.447386  0.306226  1
  O  O37  1  0.194414  0.052614  0.193774  1
  O  O38  1  0.305586  0.552614  0.693774  1
  O  O39  1  0.805586  0.947386  0.806226  1
