# generated using pymatgen
data_SbH16C4N2Cl5
_symmetry_space_group_name_H-M   'P 1'
_cell_length_a   8.74704497
_cell_length_b   12.14475381
_cell_length_c   14.97061185
_cell_angle_alpha   90.00000000
_cell_angle_beta   90.00000000
_cell_angle_gamma   90.00000000
_symmetry_Int_Tables_number   1
_chemical_formula_structural   SbH16C4N2Cl5
_chemical_formula_sum   'Sb4 H64 C16 N8 Cl20'
_cell_volume   1590.33869191
_cell_formula_units_Z   4
loop_
 _symmetry_equiv_pos_site_id
 _symmetry_equiv_pos_as_xyz
  1  'x, y, z'
loop_
 _atom_site_type_symbol
 _atom_site_label
 _atom_site_symmetry_multiplicity
 _atom_site_fract_x
 _atom_site_fract_y
 _atom_site_fract_z
 _atom_site_occupancy
  Sb  Sb0  1  0.303596  0.750000  0.904123  1
  Sb  Sb1  1  0.803596  0.750000  0.595877  1
  Sb  Sb2  1  0.196404  0.250000  0.404123  1
  Sb  Sb3  1  0.696404  0.250000  0.095877  1
  H  H4  1  0.456757  0.588998  0.183896  1
  H  H5  1  0.126264  0.118682  0.067605  1
  H  H6  1  0.365643  0.407120  0.145416  1
  H  H7  1  0.100601  0.415322  0.183006  1
  H  H8  1  0.657467  0.503828  0.939414  1
  H  H9  1  0.657467  0.996172  0.939414  1
  H  H10  1  0.267623  0.640462  0.164226  1
  H  H11  1  0.074436  0.518903  0.097942  1
  H  H12  1  0.767623  0.640462  0.335774  1
  H  H13  1  0.543243  0.088998  0.816104  1
  H  H14  1  0.574436  0.981097  0.402058  1
  H  H15  1  0.199176  0.044771  0.754312  1
  H  H16  1  0.232377  0.359538  0.664226  1
  H  H17  1  0.699176  0.044771  0.745688  1
  H  H18  1  0.865643  0.407120  0.354584  1
  H  H19  1  0.842533  0.003828  0.439414  1
  H  H20  1  0.157467  0.503828  0.560586  1
  H  H21  1  0.873736  0.881318  0.932395  1
  H  H22  1  0.634357  0.907120  0.854584  1
  H  H23  1  0.732377  0.359538  0.835774  1
  H  H24  1  0.626264  0.118682  0.432395  1
  H  H25  1  0.842533  0.496172  0.439414  1
  H  H26  1  0.574436  0.518903  0.402058  1
  H  H27  1  0.043243  0.411002  0.683896  1
  H  H28  1  0.456757  0.911002  0.183896  1
  H  H29  1  0.267623  0.859538  0.164226  1
  H  H30  1  0.232377  0.140462  0.664226  1
  H  H31  1  0.600601  0.415322  0.316994  1
  H  H32  1  0.865643  0.092880  0.354584  1
  H  H33  1  0.543243  0.411002  0.816104  1
  H  H34  1  0.899399  0.584678  0.816994  1
  H  H35  1  0.399399  0.584678  0.683006  1
  H  H36  1  0.300824  0.544771  0.254312  1
  H  H37  1  0.157467  0.996172  0.560586  1
  H  H38  1  0.342533  0.003828  0.060586  1
  H  H39  1  0.365643  0.092880  0.145416  1
  H  H40  1  0.800824  0.955229  0.245688  1
  H  H41  1  0.634357  0.592880  0.854584  1
  H  H42  1  0.134357  0.592880  0.645416  1
  H  H43  1  0.767623  0.859538  0.335774  1
  H  H44  1  0.956757  0.911002  0.316104  1
  H  H45  1  0.199176  0.455229  0.754312  1
  H  H46  1  0.043243  0.088998  0.683896  1
  H  H47  1  0.699176  0.455229  0.745688  1
  H  H48  1  0.425564  0.018903  0.597942  1
  H  H49  1  0.342533  0.496172  0.060586  1
  H  H50  1  0.732377  0.140462  0.835774  1
  H  H51  1  0.134357  0.907120  0.645416  1
  H  H52  1  0.925564  0.481097  0.902058  1
  H  H53  1  0.425564  0.481097  0.597942  1
  H  H54  1  0.300824  0.955229  0.254312  1
  H  H55  1  0.800824  0.544771  0.245688  1
  H  H56  1  0.373736  0.618682  0.567605  1
  H  H57  1  0.956757  0.588998  0.316104  1
  H  H58  1  0.100601  0.084678  0.183006  1
  H  H59  1  0.074436  0.981097  0.097942  1
  H  H60  1  0.925564  0.018903  0.902058  1
  H  H61  1  0.399399  0.915322  0.683006  1
  H  H62  1  0.126264  0.381318  0.067605  1
  H  H63  1  0.873736  0.618682  0.932395  1
  H  H64  1  0.600601  0.084678  0.316994  1
  H  H65  1  0.626264  0.381318  0.432395  1
  H  H66  1  0.373736  0.881318  0.567605  1
  H  H67  1  0.899399  0.915322  0.816994  1
  C  C68  1  0.639422  0.445912  0.381973  1
  C  C69  1  0.139422  0.054088  0.118027  1
  C  C70  1  0.860578  0.554088  0.881973  1
  C  C71  1  0.665327  0.069468  0.813314  1
  C  C72  1  0.360578  0.554088  0.618027  1
  C  C73  1  0.334673  0.569468  0.186686  1
  C  C74  1  0.165327  0.430532  0.686686  1
  C  C75  1  0.834673  0.569468  0.313314  1
  C  C76  1  0.360578  0.945912  0.618027  1
  C  C77  1  0.639422  0.054088  0.381973  1
  C  C78  1  0.834673  0.930532  0.313314  1
  C  C79  1  0.165327  0.069468  0.686686  1
  C  C80  1  0.860578  0.945912  0.881973  1
  C  C81  1  0.334673  0.930532  0.186686  1
  C  C82  1  0.139422  0.445912  0.118027  1
  C  C83  1  0.665327  0.430532  0.813314  1
  N  N84  1  0.195714  0.523823  0.624439  1
  N  N85  1  0.804286  0.023823  0.375561  1
  N  N86  1  0.304286  0.023823  0.124439  1
  N  N87  1  0.695714  0.976177  0.875561  1
  N  N88  1  0.804286  0.476177  0.375561  1
  N  N89  1  0.304286  0.476177  0.124439  1
  N  N90  1  0.695714  0.523823  0.875561  1
  N  N91  1  0.195714  0.976177  0.624439  1
  Cl  Cl92  1  0.438111  0.250000  0.216867  1
  Cl  Cl93  1  0.690502  0.031840  0.089255  1
  Cl  Cl94  1  0.061889  0.750000  0.716867  1
  Cl  Cl95  1  0.600988  0.750000  0.475220  1
  Cl  Cl96  1  0.561889  0.750000  0.783133  1
  Cl  Cl97  1  0.690502  0.468160  0.089255  1
  Cl  Cl98  1  0.507015  0.750000  0.014995  1
  Cl  Cl99  1  0.007015  0.750000  0.485005  1
  Cl  Cl100  1  0.938111  0.250000  0.283133  1
  Cl  Cl101  1  0.309498  0.968160  0.910745  1
  Cl  Cl102  1  0.190502  0.468160  0.410745  1
  Cl  Cl103  1  0.100988  0.750000  0.024780  1
  Cl  Cl104  1  0.190502  0.031840  0.410745  1
  Cl  Cl105  1  0.992985  0.250000  0.514995  1
  Cl  Cl106  1  0.309498  0.531840  0.910745  1
  Cl  Cl107  1  0.809498  0.531840  0.589255  1
  Cl  Cl108  1  0.492985  0.250000  0.985005  1
  Cl  Cl109  1  0.809498  0.968160  0.589255  1
  Cl  Cl110  1  0.399012  0.250000  0.524780  1
  Cl  Cl111  1  0.899012  0.250000  0.975220  1
